MODEL 1
REMARK VINA RESULT:      -4.5      0.000      0.000
REMARK  1 active torsions:
REMARK  status: ('A' for Active; 'I' for Inactive)
REMARK    1  A    between atoms: C4_4  and  C6_6 
REMARK       I    between atoms: C4_4  and  N8_8 
ROOT
HETATM    1  C1  UNL     1     -34.809   5.545   6.150  1.00 20.00     0.135 A 
HETATM    2  C2  UNL     1     -34.089   6.716   6.147  1.00 20.00     0.120 A 
HETATM    3  C3  UNL     1     -33.999   5.714   4.195  1.00 20.00     0.216 A 
HETATM    4  C4  UNL     1     -32.752   7.840   4.356  1.00 20.00     0.228 C 
HETATM    5  N7  UNL     1     -34.749   4.927   4.933  1.00 20.00    -0.254 NA
HETATM    6  N8  UNL     1     -33.562   6.829   4.880  1.00 20.00    -0.286 N 
HETATM    7  O9  UNL     1     -32.434   8.781   5.069  1.00 20.00    -0.273 OA
ENDROOT
BRANCH   4   8
HETATM    8  C6  UNL     1     -32.341   7.666   2.926  1.00 20.00     0.099 C 
HETATM    9  C5  UNL     1     -32.658   8.916   2.133  1.00 20.00     0.014 C 
ENDBRANCH   4   8
TORSDOF 1
ENDMDL
MODEL 2
REMARK VINA RESULT:      -4.2      1.969      3.885
REMARK  1 active torsions:
REMARK  status: ('A' for Active; 'I' for Inactive)
REMARK    1  A    between atoms: C4_4  and  C6_6 
REMARK       I    between atoms: C4_4  and  N8_8 
ROOT
HETATM    1  C1  UNL     1     -32.069   8.794   4.139  1.00 20.00     0.135 A 
HETATM    2  C2  UNL     1     -32.246   7.575   3.530  1.00 20.00     0.120 A 
HETATM    3  C3  UNL     1     -33.695   7.881   5.152  1.00 20.00     0.216 A 
HETATM    4  C4  UNL     1     -33.881   5.729   3.954  1.00 20.00     0.228 C 
HETATM    5  N7  UNL     1     -32.973   8.979   5.145  1.00 20.00    -0.254 NA
HETATM    6  N8  UNL     1     -33.300   6.979   4.185  1.00 20.00    -0.286 N 
HETATM    7  O9  UNL     1     -33.438   5.021   3.061  1.00 20.00    -0.273 OA
ENDROOT
BRANCH   4   8
HETATM    8  C6  UNL     1     -35.026   5.370   4.850  1.00 20.00     0.099 C 
HETATM    9  C5  UNL     1     -34.519   4.988   6.223  1.00 20.00     0.014 C 
ENDBRANCH   4   8
TORSDOF 1
ENDMDL
MODEL 3
REMARK VINA RESULT:      -4.2      1.753      2.046
REMARK  1 active torsions:
REMARK  status: ('A' for Active; 'I' for Inactive)
REMARK    1  A    between atoms: C4_4  and  C6_6 
REMARK       I    between atoms: C4_4  and  N8_8 
ROOT
HETATM    1  C1  UNL     1     -34.847   5.630   6.241  1.00 20.00     0.135 A 
HETATM    2  C2  UNL     1     -34.406   5.224   5.004  1.00 20.00     0.120 A 
HETATM    3  C3  UNL     1     -33.644   7.219   5.514  1.00 20.00     0.216 A 
HETATM    4  C4  UNL     1     -32.940   6.343   3.315  1.00 20.00     0.228 C 
HETATM    5  N7  UNL     1     -34.369   6.870   6.552  1.00 20.00    -0.254 NA
HETATM    6  N8  UNL     1     -33.625   6.253   4.529  1.00 20.00    -0.286 N 
HETATM    7  O9  UNL     1     -33.002   5.412   2.523  1.00 20.00    -0.273 OA
ENDROOT
BRANCH   4   8
HETATM    8  C6  UNL     1     -32.171   7.609   3.096  1.00 20.00     0.099 C 
HETATM    9  C5  UNL     1     -32.188   7.988   1.631  1.00 20.00     0.014 C 
ENDBRANCH   4   8
TORSDOF 1
ENDMDL
MODEL 4
REMARK VINA RESULT:      -3.7     12.408     12.673
REMARK  1 active torsions:
REMARK  status: ('A' for Active; 'I' for Inactive)
REMARK    1  A    between atoms: C4_4  and  C6_6 
REMARK       I    between atoms: C4_4  and  N8_8 
ROOT
HETATM    1  C1  UNL     1     -30.033  19.162   3.644  1.00 20.00     0.135 A 
HETATM    2  C2  UNL     1     -29.829  18.988   2.296  1.00 20.00     0.120 A 
HETATM    3  C3  UNL     1     -31.969  19.038   2.784  1.00 20.00     0.216 A 
HETATM    4  C4  UNL     1     -31.433  18.730   0.393  1.00 20.00     0.228 C 
HETATM    5  N7  UNL     1     -31.365  19.193   3.941  1.00 20.00    -0.254 NA
HETATM    6  N8  UNL     1     -31.083  18.907   1.735  1.00 20.00    -0.286 N 
HETATM    7  O9  UNL     1     -30.549  18.628  -0.446  1.00 20.00    -0.273 OA
ENDROOT
BRANCH   4   8
HETATM    8  C6  UNL     1     -32.902  18.683   0.106  1.00 20.00     0.099 C 
HETATM    9  C5  UNL     1     -33.177  17.785  -1.080  1.00 20.00     0.014 C 
ENDBRANCH   4   8
TORSDOF 1
ENDMDL
MODEL 5
REMARK VINA RESULT:      -3.7      1.852      3.565
REMARK  1 active torsions:
REMARK  status: ('A' for Active; 'I' for Inactive)
REMARK    1  A    between atoms: C4_4  and  C6_6 
REMARK       I    between atoms: C4_4  and  N8_8 
ROOT
HETATM    1  C1  UNL     1     -32.198   8.994   4.583  1.00 20.00     0.135 A 
HETATM    2  C2  UNL     1     -32.936   8.391   5.573  1.00 20.00     0.120 A 
HETATM    3  C3  UNL     1     -33.137   7.327   3.663  1.00 20.00     0.216 A 
HETATM    4  C4  UNL     1     -34.408   6.368   5.551  1.00 20.00     0.228 C 
HETATM    5  N7  UNL     1     -32.326   8.327   3.398  1.00 20.00    -0.254 NA
HETATM    6  N8  UNL     1     -33.547   7.310   4.980  1.00 20.00    -0.286 N 
HETATM    7  O9  UNL     1     -34.694   6.462   6.736  1.00 20.00    -0.273 OA
ENDROOT
BRANCH   4   8
HETATM    8  C6  UNL     1     -34.907   5.301   4.626  1.00 20.00     0.099 C 
HETATM    9  C5  UNL     1     -33.935   4.143   4.587  1.00 20.00     0.014 C 
ENDBRANCH   4   8
TORSDOF 1
ENDMDL
MODEL 6
REMARK VINA RESULT:      -3.6     12.209     13.422
REMARK  1 active torsions:
REMARK  status: ('A' for Active; 'I' for Inactive)
REMARK    1  A    between atoms: C4_4  and  C6_6 
REMARK       I    between atoms: C4_4  and  N8_8 
ROOT
HETATM    1  C1  UNL     1     -36.089  15.613  -7.196  1.00 20.00     0.135 A 
HETATM    2  C2  UNL     1     -35.732  14.736  -6.200  1.00 20.00     0.120 A 
HETATM    3  C3  UNL     1     -34.575  16.599  -6.082  1.00 20.00     0.216 A 
HETATM    4  C4  UNL     1     -34.050  14.911  -4.357  1.00 20.00     0.228 C 
HETATM    5  N7  UNL     1     -35.367  16.770  -7.117  1.00 20.00    -0.254 NA
HETATM    6  N8  UNL     1     -34.750  15.372  -5.476  1.00 20.00    -0.286 N 
HETATM    7  O9  UNL     1     -34.300  13.800  -3.912  1.00 20.00    -0.273 OA
ENDROOT
BRANCH   4   8
HETATM    8  C6  UNL     1     -33.033  15.855  -3.794  1.00 20.00     0.099 C 
HETATM    9  C5  UNL     1     -33.538  16.464  -2.504  1.00 20.00     0.014 C 
ENDBRANCH   4   8
TORSDOF 1
ENDMDL
MODEL 7
REMARK VINA RESULT:      -3.6     15.992     16.488
REMARK  1 active torsions:
REMARK  status: ('A' for Active; 'I' for Inactive)
REMARK    1  A    between atoms: C4_4  and  C6_6 
REMARK       I    between atoms: C4_4  and  N8_8 
ROOT
HETATM    1  C1  UNL     1     -24.664  18.448  11.972  1.00 20.00     0.135 A 
HETATM    2  C2  UNL     1     -24.802  18.604  10.613  1.00 20.00     0.120 A 
HETATM    3  C3  UNL     1     -22.689  18.490  11.198  1.00 20.00     0.216 A 
HETATM    4  C4  UNL     1     -23.108  18.772   8.780  1.00 20.00     0.228 C 
HETATM    5  N7  UNL     1     -23.348  18.377  12.329  1.00 20.00    -0.254 NA
HETATM    6  N8  UNL     1     -23.522  18.632  10.108  1.00 20.00    -0.286 N 
HETATM    7  O9  UNL     1     -23.950  18.889   7.901  1.00 20.00    -0.273 OA
ENDROOT
BRANCH   4   8
HETATM    8  C6  UNL     1     -21.627  18.763   8.558  1.00 20.00     0.099 C 
HETATM    9  C5  UNL     1     -21.293  18.038   7.273  1.00 20.00     0.014 C 
ENDBRANCH   4   8
TORSDOF 1
ENDMDL
MODEL 8
REMARK VINA RESULT:      -3.5     12.717     13.732
REMARK  1 active torsions:
REMARK  status: ('A' for Active; 'I' for Inactive)
REMARK    1  A    between atoms: C4_4  and  C6_6 
REMARK       I    between atoms: C4_4  and  N8_8 
ROOT
HETATM    1  C1  UNL     1     -36.102  15.599  -7.370  1.00 20.00     0.135 A 
HETATM    2  C2  UNL     1     -35.532  16.667  -6.717  1.00 20.00     0.120 A 
HETATM    3  C3  UNL     1     -35.131  14.778  -5.671  1.00 20.00     0.216 A 
HETATM    4  C4  UNL     1     -34.173  16.798  -4.622  1.00 20.00     0.228 C 
HETATM    5  N7  UNL     1     -35.848  14.428  -6.715  1.00 20.00    -0.254 NA
HETATM    6  N8  UNL     1     -34.902  16.137  -5.614  1.00 20.00    -0.286 N 
HETATM    7  O9  UNL     1     -34.040  18.012  -4.686  1.00 20.00    -0.273 OA
ENDROOT
BRANCH   4   8
HETATM    8  C6  UNL     1     -33.606  15.926  -3.543  1.00 20.00     0.099 C 
HETATM    9  C5  UNL     1     -33.394  16.727  -2.277  1.00 20.00     0.014 C 
ENDBRANCH   4   8
TORSDOF 1
ENDMDL
MODEL 9
REMARK VINA RESULT:      -3.4      9.409      9.837
REMARK  1 active torsions:
REMARK  status: ('A' for Active; 'I' for Inactive)
REMARK    1  A    between atoms: C4_4  and  C6_6 
REMARK       I    between atoms: C4_4  and  N8_8 
ROOT
HETATM    1  C1  UNL     1     -41.434  15.302   7.247  1.00 20.00     0.135 A 
HETATM    2  C2  UNL     1     -40.481  14.364   7.568  1.00 20.00     0.120 A 
HETATM    3  C3  UNL     1     -41.417  13.926   5.630  1.00 20.00     0.216 A 
HETATM    4  C4  UNL     1     -39.677  12.330   6.355  1.00 20.00     0.228 C 
HETATM    5  N7  UNL     1     -42.011  15.024   6.041  1.00 20.00    -0.254 NA
HETATM    6  N8  UNL     1     -40.467  13.470   6.522  1.00 20.00    -0.286 N 
HETATM    7  O9  UNL     1     -38.867  12.032   7.222  1.00 20.00    -0.273 OA
ENDROOT
BRANCH   4   8
HETATM    8  C6  UNL     1     -39.907  11.561   5.090  1.00 20.00     0.099 C 
HETATM    9  C5  UNL     1     -38.710  11.689   4.173  1.00 20.00     0.014 C 
ENDBRANCH   4   8
TORSDOF 1
ENDMDL
