MODEL 1
REMARK VINA RESULT:      -3.8      0.000      0.000
REMARK  0 active torsions:
REMARK  status: ('A' for Active; 'I' for Inactive)
ROOT
HETATM    1  C1  UNL     1     -40.788  13.274   5.673  1.00 20.00    -0.017 C 
HETATM    2  C2  UNL     1     -41.638  14.113   4.765  1.00 20.00     0.155 C 
HETATM    3  C3  UNL     1     -40.009  12.295   5.205  1.00 20.00     0.023 C 
HETATM    4  C4  UNL     1     -42.517  15.137   5.477  1.00 20.00     0.089 C 
HETATM    5  C5  UNL     1     -40.797  15.145   7.344  1.00 20.00     0.016 C 
HETATM    6  C6  UNL     1     -40.860  13.590   7.137  1.00 20.00     0.030 C 
HETATM    7  C7  UNL     1     -42.322  15.123   7.007  1.00 20.00     0.002 C 
HETATM    8  C8  UNL     1     -42.349  13.691   7.691  1.00 20.00    -0.036 C 
HETATM    9  C9  UNL     1     -42.459  13.712   9.228  1.00 20.00     0.016 C 
HETATM   10  C10 UNL     1     -43.380  12.684   7.165  1.00 20.00     0.016 C 
HETATM   11  O11 UNL     1     -41.636  13.984   3.545  1.00 20.00    -0.293 OA
ENDROOT
TORSDOF 0
ENDMDL
MODEL 2
REMARK VINA RESULT:      -3.6     12.829     14.135
REMARK  0 active torsions:
REMARK  status: ('A' for Active; 'I' for Inactive)
ROOT
HETATM    1  C1  UNL     1     -34.209  15.986  -4.702  1.00 20.00    -0.017 C 
HETATM    2  C2  UNL     1     -34.847  14.635  -4.835  1.00 20.00     0.155 C 
HETATM    3  C3  UNL     1     -33.423  16.297  -3.668  1.00 20.00     0.023 C 
HETATM    4  C4  UNL     1     -35.770  14.478  -6.040  1.00 20.00     0.089 C 
HETATM    5  C5  UNL     1     -34.386  16.270  -7.188  1.00 20.00     0.016 C 
HETATM    6  C6  UNL     1     -34.505  16.974  -5.791  1.00 20.00     0.030 C 
HETATM    7  C7  UNL     1     -35.832  15.752  -6.907  1.00 20.00     0.002 C 
HETATM    8  C8  UNL     1     -36.057  17.111  -6.118  1.00 20.00    -0.036 C 
HETATM    9  C9  UNL     1     -36.418  18.319  -7.005  1.00 20.00     0.016 C 
HETATM   10  C10 UNL     1     -37.043  17.085  -4.944  1.00 20.00     0.016 C 
HETATM   11  O11 UNL     1     -34.650  13.724  -4.036  1.00 20.00    -0.293 OA
ENDROOT
TORSDOF 0
ENDMDL
MODEL 3
REMARK VINA RESULT:      -3.6     13.087     14.134
REMARK  0 active torsions:
REMARK  status: ('A' for Active; 'I' for Inactive)
ROOT
HETATM    1  C1  UNL     1     -34.447  15.753  -6.916  1.00 20.00    -0.017 C 
HETATM    2  C2  UNL     1     -35.790  15.096  -6.789  1.00 20.00     0.155 C 
HETATM    3  C3  UNL     1     -33.611  15.461  -7.916  1.00 20.00     0.023 C 
HETATM    4  C4  UNL     1     -36.584  15.496  -5.548  1.00 20.00     0.089 C 
HETATM    5  C5  UNL     1     -35.316  17.696  -5.589  1.00 20.00     0.016 C 
HETATM    6  C6  UNL     1     -34.090  16.754  -5.859  1.00 20.00     0.030 C 
HETATM    7  C7  UNL     1     -35.843  16.538  -4.684  1.00 20.00     0.002 C 
HETATM    8  C8  UNL     1     -34.319  16.219  -4.377  1.00 20.00    -0.036 C 
HETATM    9  C9  UNL     1     -33.686  17.094  -3.277  1.00 20.00     0.016 C 
HETATM   10  C10 UNL     1     -33.956  14.760  -4.076  1.00 20.00     0.016 C 
HETATM   11  O11 UNL     1     -36.219  14.293  -7.611  1.00 20.00    -0.293 OA
ENDROOT
TORSDOF 0
ENDMDL
MODEL 4
REMARK VINA RESULT:      -3.4      1.769      2.719
REMARK  0 active torsions:
REMARK  status: ('A' for Active; 'I' for Inactive)
ROOT
HETATM    1  C1  UNL     1     -41.379  13.054   6.501  1.00 20.00    -0.017 C 
HETATM    2  C2  UNL     1     -42.636  12.691   7.235  1.00 20.00     0.155 C 
HETATM    3  C3  UNL     1     -40.570  12.125   5.984  1.00 20.00     0.023 C 
HETATM    4  C4  UNL     1     -43.401  13.875   7.820  1.00 20.00     0.089 C 
HETATM    5  C5  UNL     1     -42.378  15.296   5.981  1.00 20.00     0.016 C 
HETATM    6  C6  UNL     1     -41.075  14.517   6.381  1.00 20.00     0.030 C 
HETATM    7  C7  UNL     1     -42.731  15.227   7.500  1.00 20.00     0.002 C 
HETATM    8  C8  UNL     1     -41.167  15.300   7.764  1.00 20.00    -0.036 C 
HETATM    9  C9  UNL     1     -40.574  16.722   7.734  1.00 20.00     0.016 C 
HETATM   10  C10 UNL     1     -40.636  14.600   9.021  1.00 20.00     0.016 C 
HETATM   11  O11 UNL     1     -43.021  11.533   7.365  1.00 20.00    -0.293 OA
ENDROOT
TORSDOF 0
ENDMDL
MODEL 5
REMARK VINA RESULT:      -3.4      8.685     10.033
REMARK  0 active torsions:
REMARK  status: ('A' for Active; 'I' for Inactive)
ROOT
HETATM    1  C1  UNL     1     -42.598   7.719  -0.227  1.00 20.00    -0.017 C 
HETATM    2  C2  UNL     1     -41.163   7.895   0.175  1.00 20.00     0.155 C 
HETATM    3  C3  UNL     1     -43.416   8.761  -0.396  1.00 20.00     0.023 C 
HETATM    4  C4  UNL     1     -40.395   6.594   0.392  1.00 20.00     0.089 C 
HETATM    5  C5  UNL     1     -41.999   5.507  -1.248  1.00 20.00     0.016 C 
HETATM    6  C6  UNL     1     -43.068   6.309  -0.424  1.00 20.00     0.030 C 
HETATM    7  C7  UNL     1     -41.257   5.345   0.116  1.00 20.00     0.002 C 
HETATM    8  C8  UNL     1     -42.697   5.341   0.784  1.00 20.00    -0.036 C 
HETATM    9  C9  UNL     1     -43.417   3.979   0.756  1.00 20.00     0.016 C 
HETATM   10  C10 UNL     1     -42.809   5.897   2.209  1.00 20.00     0.016 C 
HETATM   11  O11 UNL     1     -40.644   8.996   0.326  1.00 20.00    -0.293 OA
ENDROOT
TORSDOF 0
ENDMDL
MODEL 6
REMARK VINA RESULT:      -3.4     11.893     13.438
REMARK  0 active torsions:
REMARK  status: ('A' for Active; 'I' for Inactive)
ROOT
HETATM    1  C1  UNL     1     -33.857  18.266  -1.753  1.00 20.00    -0.017 C 
HETATM    2  C2  UNL     1     -32.616  18.946  -2.249  1.00 20.00     0.155 C 
HETATM    3  C3  UNL     1     -34.006  17.916  -0.472  1.00 20.00     0.023 C 
HETATM    4  C4  UNL     1     -32.587  19.209  -3.752  1.00 20.00     0.089 C 
HETATM    5  C5  UNL     1     -35.124  19.263  -3.674  1.00 20.00     0.016 C 
HETATM    6  C6  UNL     1     -34.924  17.995  -2.771  1.00 20.00     0.030 C 
HETATM    7  C7  UNL     1     -33.877  18.744  -4.458  1.00 20.00     0.002 C 
HETATM    8  C8  UNL     1     -34.377  17.284  -4.087  1.00 20.00    -0.036 C 
HETATM    9  C9  UNL     1     -35.475  16.723  -5.012  1.00 20.00     0.016 C 
HETATM   10  C10 UNL     1     -33.307  16.198  -3.924  1.00 20.00     0.016 C 
HETATM   11  O11 UNL     1     -31.689  19.263  -1.510  1.00 20.00    -0.293 OA
ENDROOT
TORSDOF 0
ENDMDL
MODEL 7
REMARK VINA RESULT:      -3.3     12.886     14.088
REMARK  0 active torsions:
REMARK  status: ('A' for Active; 'I' for Inactive)
ROOT
HETATM    1  C1  UNL     1     -34.262  15.744  -5.206  1.00 20.00    -0.017 C 
HETATM    2  C2  UNL     1     -34.240  15.784  -6.706  1.00 20.00     0.155 C 
HETATM    3  C3  UNL     1     -33.788  14.700  -4.521  1.00 20.00     0.023 C 
HETATM    4  C4  UNL     1     -34.887  17.020  -7.324  1.00 20.00     0.089 C 
HETATM    5  C5  UNL     1     -34.306  18.252  -5.181  1.00 20.00     0.016 C 
HETATM    6  C6  UNL     1     -34.849  16.938  -4.515  1.00 20.00     0.030 C 
HETATM    7  C7  UNL     1     -35.408  18.008  -6.260  1.00 20.00     0.002 C 
HETATM    8  C8  UNL     1     -36.270  17.369  -5.090  1.00 20.00    -0.036 C 
HETATM    9  C9  UNL     1     -37.030  18.387  -4.217  1.00 20.00     0.016 C 
HETATM   10  C10 UNL     1     -37.255  16.258  -5.473  1.00 20.00     0.016 C 
HETATM   11  O11 UNL     1     -33.748  14.890  -7.389  1.00 20.00    -0.293 OA
ENDROOT
TORSDOF 0
ENDMDL
MODEL 8
REMARK VINA RESULT:      -3.3      2.189      3.691
REMARK  0 active torsions:
REMARK  status: ('A' for Active; 'I' for Inactive)
ROOT
HETATM    1  C1  UNL     1     -41.028  14.352   8.121  1.00 20.00    -0.017 C 
HETATM    2  C2  UNL     1     -42.181  13.679   8.806  1.00 20.00     0.155 C 
HETATM    3  C3  UNL     1     -40.181  15.146   8.782  1.00 20.00     0.023 C 
HETATM    4  C4  UNL     1     -43.087  12.867   7.885  1.00 20.00     0.089 C 
HETATM    5  C5  UNL     1     -41.075  12.559   6.368  1.00 20.00     0.016 C 
HETATM    6  C6  UNL     1     -40.878  14.090   6.653  1.00 20.00     0.030 C 
HETATM    7  C7  UNL     1     -42.602  12.877   6.420  1.00 20.00     0.002 C 
HETATM    8  C8  UNL     1     -42.224  14.301   5.830  1.00 20.00    -0.036 C 
HETATM    9  C9  UNL     1     -42.039  14.337   4.301  1.00 20.00     0.016 C 
HETATM   10  C10 UNL     1     -43.124  15.481   6.217  1.00 20.00     0.016 C 
HETATM   11  O11 UNL     1     -42.389  13.777  10.011  1.00 20.00    -0.293 OA
ENDROOT
TORSDOF 0
ENDMDL
MODEL 9
REMARK VINA RESULT:      -3.2      0.738      2.630
REMARK  0 active torsions:
REMARK  status: ('A' for Active; 'I' for Inactive)
ROOT
HETATM    1  C1  UNL     1     -42.751  14.837   5.511  1.00 20.00    -0.017 C 
HETATM    2  C2  UNL     1     -41.773  13.988   4.753  1.00 20.00     0.155 C 
HETATM    3  C3  UNL     1     -43.417  15.837   4.927  1.00 20.00     0.023 C 
HETATM    4  C4  UNL     1     -41.051  12.939   5.593  1.00 20.00     0.089 C 
HETATM    5  C5  UNL     1     -43.068  12.953   7.136  1.00 20.00     0.016 C 
HETATM    6  C6  UNL     1     -42.939  14.507   6.961  1.00 20.00     0.030 C 
HETATM    7  C7  UNL     1     -41.508  12.944   7.067  1.00 20.00     0.002 C 
HETATM    8  C8  UNL     1     -41.570  14.370   7.763  1.00 20.00    -0.036 C 
HETATM    9  C9  UNL     1     -41.729  14.333   9.295  1.00 20.00     0.016 C 
HETATM   10  C10 UNL     1     -40.445  15.359   7.435  1.00 20.00     0.016 C 
HETATM   11  O11 UNL     1     -41.561  14.127   3.552  1.00 20.00    -0.293 OA
ENDROOT
TORSDOF 0
ENDMDL
