MODEL 1
REMARK VINA RESULT:      -3.6      0.000      0.000
REMARK  0 active torsions:
REMARK  status: ('A' for Active; 'I' for Inactive)
ROOT
HETATM    1  C1  UNL     1     -41.358  13.713   4.686  1.00 20.00    -0.024 C 
HETATM    2  C2  UNL     1     -40.723  12.846   5.499  1.00 20.00    -0.083 C 
HETATM    3  C3  UNL     1     -42.530  14.529   5.190  1.00 20.00     0.033 C 
HETATM    4  C4  UNL     1     -42.847  12.621   6.839  1.00 20.00     0.015 C 
HETATM    5  C5  UNL     1     -41.279  12.732   6.895  1.00 20.00     0.022 C 
HETATM    6  C6  UNL     1     -42.803  14.175   6.668  1.00 20.00    -0.002 C 
HETATM    7  C7  UNL     1     -41.520  14.137   7.610  1.00 20.00    -0.036 C 
HETATM    8  C8  UNL     1     -39.550  12.011   5.114  1.00 20.00     0.043 C 
HETATM    9  C9  UNL     1     -40.467  15.236   7.416  1.00 20.00     0.016 C 
HETATM   10  C10 UNL     1     -41.820  14.050   9.120  1.00 20.00     0.016 C 
ENDROOT
TORSDOF 0
ENDMDL
MODEL 2
REMARK VINA RESULT:      -3.5      1.105      2.272
REMARK  0 active torsions:
REMARK  status: ('A' for Active; 'I' for Inactive)
ROOT
HETATM    1  C1  UNL     1     -42.062  12.517   6.714  1.00 20.00    -0.024 C 
HETATM    2  C2  UNL     1     -40.877  12.977   6.264  1.00 20.00    -0.083 C 
HETATM    3  C3  UNL     1     -42.829  13.272   7.780  1.00 20.00     0.033 C 
HETATM    4  C4  UNL     1     -40.545  14.144   8.475  1.00 20.00     0.015 C 
HETATM    5  C5  UNL     1     -40.377  14.241   6.914  1.00 20.00     0.022 C 
HETATM    6  C6  UNL     1     -42.033  14.529   8.190  1.00 20.00    -0.002 C 
HETATM    7  C7  UNL     1     -41.467  15.404   6.986  1.00 20.00    -0.036 C 
HETATM    8  C8  UNL     1     -40.051  12.327   5.207  1.00 20.00     0.043 C 
HETATM    9  C9  UNL     1     -42.382  15.612   5.772  1.00 20.00     0.016 C 
HETATM   10  C10 UNL     1     -40.911  16.785   7.385  1.00 20.00     0.016 C 
ENDROOT
TORSDOF 0
ENDMDL
MODEL 3
REMARK VINA RESULT:      -3.4      0.884      2.646
REMARK  0 active torsions:
REMARK  status: ('A' for Active; 'I' for Inactive)
ROOT
HETATM    1  C1  UNL     1     -40.903  13.230   4.914  1.00 20.00    -0.024 C 
HETATM    2  C2  UNL     1     -41.906  14.121   5.054  1.00 20.00    -0.083 C 
HETATM    3  C3  UNL     1     -40.122  12.749   6.119  1.00 20.00     0.033 C 
HETATM    4  C4  UNL     1     -40.786  14.978   7.145  1.00 20.00     0.015 C 
HETATM    5  C5  UNL     1     -42.152  14.611   6.458  1.00 20.00     0.022 C 
HETATM    6  C6  UNL     1     -40.665  13.438   7.389  1.00 20.00    -0.002 C 
HETATM    7  C7  UNL     1     -42.249  13.444   7.541  1.00 20.00    -0.036 C 
HETATM    8  C8  UNL     1     -42.750  14.644   3.943  1.00 20.00     0.043 C 
HETATM    9  C9  UNL     1     -43.001  12.163   7.156  1.00 20.00     0.016 C 
HETATM   10  C10 UNL     1     -42.773  13.887   8.922  1.00 20.00     0.016 C 
ENDROOT
TORSDOF 0
ENDMDL
MODEL 4
REMARK VINA RESULT:      -3.4     13.131     14.433
REMARK  0 active torsions:
REMARK  status: ('A' for Active; 'I' for Inactive)
ROOT
HETATM    1  C1  UNL     1     -34.810  14.510  -4.609  1.00 20.00    -0.024 C 
HETATM    2  C2  UNL     1     -34.176  15.693  -4.486  1.00 20.00    -0.083 C 
HETATM    3  C3  UNL     1     -35.936  14.336  -5.607  1.00 20.00     0.033 C 
HETATM    4  C4  UNL     1     -36.259  16.842  -5.324  1.00 20.00     0.015 C 
HETATM    5  C5  UNL     1     -34.687  16.803  -5.368  1.00 20.00     0.022 C 
HETATM    6  C6  UNL     1     -36.168  15.667  -6.353  1.00 20.00    -0.002 C 
HETATM    7  C7  UNL     1     -34.856  16.385  -6.898  1.00 20.00    -0.036 C 
HETATM    8  C8  UNL     1     -33.046  15.967  -3.554  1.00 20.00     0.043 C 
HETATM    9  C9  UNL     1     -33.774  15.497  -7.527  1.00 20.00     0.016 C 
HETATM   10  C10 UNL     1     -35.105  17.560  -7.865  1.00 20.00     0.016 C 
ENDROOT
TORSDOF 0
ENDMDL
MODEL 5
REMARK VINA RESULT:      -3.3     20.481     22.032
REMARK  0 active torsions:
REMARK  status: ('A' for Active; 'I' for Inactive)
ROOT
HETATM    1  C1  UNL     1     -25.287  -1.670  11.590  1.00 20.00    -0.024 C 
HETATM    2  C2  UNL     1     -25.619  -2.404  10.509  1.00 20.00    -0.083 C 
HETATM    3  C3  UNL     1     -26.337  -0.868  12.332  1.00 20.00     0.033 C 
HETATM    4  C4  UNL     1     -27.555  -0.841  10.101  1.00 20.00     0.015 C 
HETATM    5  C5  UNL     1     -27.065  -2.335  10.091  1.00 20.00     0.022 C 
HETATM    6  C6  UNL     1     -27.705  -1.056  11.643  1.00 20.00    -0.002 C 
HETATM    7  C7  UNL     1     -28.094  -2.558  11.290  1.00 20.00    -0.036 C 
HETATM    8  C8  UNL     1     -24.673  -3.243   9.720  1.00 20.00     0.043 C 
HETATM    9  C9  UNL     1     -27.767  -3.637  12.331  1.00 20.00     0.016 C 
HETATM   10  C10 UNL     1     -29.558  -2.770  10.852  1.00 20.00     0.016 C 
ENDROOT
TORSDOF 0
ENDMDL
MODEL 6
REMARK VINA RESULT:      -3.2      8.530     10.142
REMARK  0 active torsions:
REMARK  status: ('A' for Active; 'I' for Inactive)
ROOT
HETATM    1  C1  UNL     1     -43.417   4.805   0.589  1.00 20.00    -0.024 C 
HETATM    2  C2  UNL     1     -42.822   5.027  -0.600  1.00 20.00    -0.083 C 
HETATM    3  C3  UNL     1     -42.968   5.548   1.830  1.00 20.00     0.033 C 
HETATM    4  C4  UNL     1     -40.733   5.720   0.631  1.00 20.00     0.015 C 
HETATM    5  C5  UNL     1     -41.684   6.015  -0.586  1.00 20.00     0.022 C 
HETATM    6  C6  UNL     1     -41.804   6.495   1.466  1.00 20.00    -0.002 C 
HETATM    7  C7  UNL     1     -42.026   7.382   0.162  1.00 20.00    -0.036 C 
HETATM    8  C8  UNL     1     -43.198   4.369  -1.883  1.00 20.00     0.043 C 
HETATM    9  C9  UNL     1     -43.417   7.992  -0.049  1.00 20.00     0.016 C 
HETATM   10  C10 UNL     1     -40.993   8.507  -0.047  1.00 20.00     0.016 C 
ENDROOT
TORSDOF 0
ENDMDL
MODEL 7
REMARK VINA RESULT:      -3.1     20.215     21.789
REMARK  0 active torsions:
REMARK  status: ('A' for Active; 'I' for Inactive)
ROOT
HETATM    1  C1  UNL     1     -28.745  -2.153  10.471  1.00 20.00    -0.024 C 
HETATM    2  C2  UNL     1     -28.354  -2.714  11.632  1.00 20.00    -0.083 C 
HETATM    3  C3  UNL     1     -28.015  -0.950   9.909  1.00 20.00     0.033 C 
HETATM    4  C4  UNL     1     -27.400  -0.487  12.332  1.00 20.00     0.015 C 
HETATM    5  C5  UNL     1     -27.192  -2.046  12.322  1.00 20.00     0.022 C 
HETATM    6  C6  UNL     1     -26.867  -0.557  10.863  1.00 20.00    -0.002 C 
HETATM    7  C7  UNL     1     -25.951  -1.759  11.363  1.00 20.00    -0.036 C 
HETATM    8  C8  UNL     1     -28.985  -3.908  12.262  1.00 20.00     0.043 C 
HETATM    9  C9  UNL     1     -25.569  -2.832  10.335  1.00 20.00     0.016 C 
HETATM   10  C10 UNL     1     -24.658  -1.337  12.090  1.00 20.00     0.016 C 
ENDROOT
TORSDOF 0
ENDMDL
MODEL 8
REMARK VINA RESULT:      -3.1      8.402      9.813
REMARK  0 active torsions:
REMARK  status: ('A' for Active; 'I' for Inactive)
ROOT
HETATM    1  C1  UNL     1     -43.277   4.845   0.407  1.00 20.00    -0.024 C 
HETATM    2  C2  UNL     1     -43.125   5.641   1.484  1.00 20.00    -0.083 C 
HETATM    3  C3  UNL     1     -42.929   5.344  -0.980  1.00 20.00     0.033 C 
HETATM    4  C4  UNL     1     -43.417   7.646  -0.018  1.00 20.00     0.015 C 
HETATM    5  C5  UNL     1     -42.630   7.036   1.200  1.00 20.00     0.022 C 
HETATM    6  C6  UNL     1     -42.429   6.802  -0.888  1.00 20.00    -0.002 C 
HETATM    7  C7  UNL     1     -41.351   7.086   0.248  1.00 20.00    -0.036 C 
HETATM    8  C8  UNL     1     -43.416   5.246   2.891  1.00 20.00     0.043 C 
HETATM    9  C9  UNL     1     -40.253   6.035   0.459  1.00 20.00     0.016 C 
HETATM   10  C10 UNL     1     -40.661   8.462   0.166  1.00 20.00     0.016 C 
ENDROOT
TORSDOF 0
ENDMDL
MODEL 9
REMARK VINA RESULT:      -3.0     12.628     14.084
REMARK  0 active torsions:
REMARK  status: ('A' for Active; 'I' for Inactive)
ROOT
HETATM    1  C1  UNL     1     -36.996  16.242  -6.888  1.00 20.00    -0.024 C 
HETATM    2  C2  UNL     1     -36.776  16.764  -5.665  1.00 20.00    -0.083 C 
HETATM    3  C3  UNL     1     -35.922  15.437  -7.590  1.00 20.00     0.033 C 
HETATM    4  C4  UNL     1     -34.307  16.801  -6.179  1.00 20.00     0.015 C 
HETATM    5  C5  UNL     1     -35.405  16.521  -5.088  1.00 20.00     0.022 C 
HETATM    6  C6  UNL     1     -34.666  15.369  -6.695  1.00 20.00    -0.002 C 
HETATM    7  C7  UNL     1     -34.932  14.999  -5.169  1.00 20.00    -0.036 C 
HETATM    8  C8  UNL     1     -37.766  17.552  -4.878  1.00 20.00     0.043 C 
HETATM    9  C9  UNL     1     -35.967  13.905  -4.876  1.00 20.00     0.016 C 
HETATM   10  C10 UNL     1     -33.670  14.671  -4.346  1.00 20.00     0.016 C 
ENDROOT
TORSDOF 0
ENDMDL
