MODEL 1
REMARK VINA RESULT:      -4.3      0.000      0.000
REMARK  1 active torsions:
REMARK  status: ('A' for Active; 'I' for Inactive)
REMARK    1  A    between atoms: C11_11  and  C12_12 
ROOT
HETATM    1  C1  UNL     1     -39.467  11.797   4.607  1.00 20.00     0.059 C 
HETATM    2  C12 UNL     1     -39.657  11.770   6.050  1.00 20.00     0.133 C 
HETATM    3  N13 UNL     1     -39.290  11.793   3.461  1.00 20.00    -0.197 NA
ENDROOT
BRANCH   2   4
HETATM    4  C11 UNL     1     -40.752  12.811   6.301  1.00 20.00    -0.027 C 
HETATM    5  C5  UNL     1     -42.062  12.116   6.739  1.00 20.00     0.015 C 
HETATM    6  C8  UNL     1     -43.165  13.158   6.992  1.00 20.00    -0.013 C 
HETATM    7  C2  UNL     1     -42.705  14.124   8.098  1.00 20.00     0.009 C 
HETATM    8  C3  UNL     1     -43.417  13.952   5.699  1.00 20.00     0.009 C 
HETATM    9  C9  UNL     1     -41.413  14.839   7.669  1.00 20.00    -0.013 C 
HETATM   10  C4  UNL     1     -41.674  15.624   6.372  1.00 20.00     0.009 C 
HETATM   11  C6  UNL     1     -40.315  13.792   7.414  1.00 20.00     0.015 C 
HETATM   12  C10 UNL     1     -42.129  14.666   5.259  1.00 20.00    -0.013 C 
HETATM   13  C7  UNL     1     -41.029  13.619   5.011  1.00 20.00     0.015 C 
ENDBRANCH   2   4
TORSDOF 1
ENDMDL
MODEL 2
REMARK VINA RESULT:      -4.2      0.078      2.106
REMARK  1 active torsions:
REMARK  status: ('A' for Active; 'I' for Inactive)
REMARK    1  A    between atoms: C11_11  and  C12_12 
ROOT
HETATM    1  C1  UNL     1     -39.447  11.819   4.556  1.00 20.00     0.059 C 
HETATM    2  C12 UNL     1     -39.609  11.830   6.003  1.00 20.00     0.133 C 
HETATM    3  N13 UNL     1     -39.292  11.784   3.407  1.00 20.00    -0.197 NA
ENDROOT
BRANCH   2   4
HETATM    4  C11 UNL     1     -40.723  12.852   6.244  1.00 20.00    -0.027 C 
HETATM    5  C5  UNL     1     -40.298  13.862   7.336  1.00 20.00     0.015 C 
HETATM    6  C8  UNL     1     -41.416  14.890   7.582  1.00 20.00    -0.013 C 
HETATM    7  C2  UNL     1     -41.704  15.647   6.274  1.00 20.00     0.009 C 
HETATM    8  C3  UNL     1     -42.689  14.157   8.034  1.00 20.00     0.009 C 
HETATM    9  C9  UNL     1     -42.148  14.659   5.182  1.00 20.00    -0.013 C 
HETATM   10  C4  UNL     1     -43.417  13.926   5.646  1.00 20.00     0.009 C 
HETATM   11  C6  UNL     1     -41.028  13.631   4.943  1.00 20.00     0.015 C 
HETATM   12  C10 UNL     1     -43.138  13.163   6.950  1.00 20.00    -0.013 C 
HETATM   13  C7  UNL     1     -42.015  12.138   6.707  1.00 20.00     0.015 C 
ENDBRANCH   2   4
TORSDOF 1
ENDMDL
MODEL 3
REMARK VINA RESULT:      -4.2      0.070      2.084
REMARK  1 active torsions:
REMARK  status: ('A' for Active; 'I' for Inactive)
REMARK    1  A    between atoms: C11_11  and  C12_12 
ROOT
HETATM    1  C1  UNL     1     -39.470  11.844   4.517  1.00 20.00     0.059 C 
HETATM    2  C12 UNL     1     -39.667  11.771   5.958  1.00 20.00     0.133 C 
HETATM    3  N13 UNL     1     -39.289  11.876   3.372  1.00 20.00    -0.197 NA
ENDROOT
BRANCH   2   4
HETATM    4  C11 UNL     1     -40.747  12.820   6.239  1.00 20.00    -0.027 C 
HETATM    5  C5  UNL     1     -41.049  13.634   4.959  1.00 20.00     0.015 C 
HETATM    6  C8  UNL     1     -42.133  14.690   5.237  1.00 20.00    -0.013 C 
HETATM    7  C2  UNL     1     -43.417  13.985   5.707  1.00 20.00     0.009 C 
HETATM    8  C3  UNL     1     -41.644  15.640   6.342  1.00 20.00     0.009 C 
HETATM    9  C9  UNL     1     -43.139  13.185   6.991  1.00 20.00    -0.013 C 
HETATM   10  C4  UNL     1     -42.645  14.143   8.088  1.00 20.00     0.009 C 
HETATM   11  C6  UNL     1     -42.052  12.135   6.708  1.00 20.00     0.015 C 
HETATM   12  C10 UNL     1     -41.358  14.849   7.629  1.00 20.00    -0.013 C 
HETATM   13  C7  UNL     1     -40.275  13.793   7.345  1.00 20.00     0.015 C 
ENDBRANCH   2   4
TORSDOF 1
ENDMDL
MODEL 4
REMARK VINA RESULT:      -4.0      1.436      2.813
REMARK  1 active torsions:
REMARK  status: ('A' for Active; 'I' for Inactive)
REMARK    1  A    between atoms: C11_11  and  C12_12 
ROOT
HETATM    1  C1  UNL     1     -40.366  12.360   5.759  1.00 20.00     0.059 C 
HETATM    2  C12 UNL     1     -41.195  13.475   5.326  1.00 20.00     0.133 C 
HETATM    3  N13 UNL     1     -39.703  11.460   6.070  1.00 20.00    -0.197 NA
ENDROOT
BRANCH   2   4
HETATM    4  C11 UNL     1     -41.494  14.240   6.619  1.00 20.00    -0.027 C 
HETATM    5  C5  UNL     1     -42.280  15.534   6.306  1.00 20.00     0.015 C 
HETATM    6  C8  UNL     1     -42.582  16.306   7.603  1.00 20.00    -0.013 C 
HETATM    7  C2  UNL     1     -43.417  15.416   8.539  1.00 20.00     0.009 C 
HETATM    8  C3  UNL     1     -41.259  16.669   8.296  1.00 20.00     0.009 C 
HETATM    9  C9  UNL     1     -42.641  14.132   8.876  1.00 20.00    -0.013 C 
HETATM   10  C4  UNL     1     -41.317  14.506   9.563  1.00 20.00     0.009 C 
HETATM   11  C6  UNL     1     -42.339  13.367   7.576  1.00 20.00     0.015 C 
HETATM   12  C10 UNL     1     -40.472  15.392   8.633  1.00 20.00    -0.013 C 
HETATM   13  C7  UNL     1     -40.176  14.623   7.332  1.00 20.00     0.015 C 
ENDBRANCH   2   4
TORSDOF 1
ENDMDL
MODEL 5
REMARK VINA RESULT:      -4.0      1.483      2.285
REMARK  1 active torsions:
REMARK  status: ('A' for Active; 'I' for Inactive)
REMARK    1  A    between atoms: C11_11  and  C12_12 
ROOT
HETATM    1  C1  UNL     1     -40.390  12.416   5.855  1.00 20.00     0.059 C 
HETATM    2  C12 UNL     1     -41.224  13.526   5.416  1.00 20.00     0.133 C 
HETATM    3  N13 UNL     1     -39.724  11.520   6.170  1.00 20.00    -0.197 NA
ENDROOT
BRANCH   2   4
HETATM    4  C11 UNL     1     -41.511  14.306   6.702  1.00 20.00    -0.027 C 
HETATM    5  C5  UNL     1     -42.339  13.441   7.681  1.00 20.00     0.015 C 
HETATM    6  C8  UNL     1     -42.629  14.221   8.974  1.00 20.00    -0.013 C 
HETATM    7  C2  UNL     1     -41.299  14.612   9.640  1.00 20.00     0.009 C 
HETATM    8  C3  UNL     1     -43.417  15.496   8.631  1.00 20.00     0.009 C 
HETATM    9  C9  UNL     1     -40.471  15.490   8.687  1.00 20.00    -0.013 C 
HETATM   10  C4  UNL     1     -41.270  16.759   8.344  1.00 20.00     0.009 C 
HETATM   11  C6  UNL     1     -40.187  14.706   7.394  1.00 20.00     0.015 C 
HETATM   12  C10 UNL     1     -42.600  16.379   7.673  1.00 20.00    -0.013 C 
HETATM   13  C7  UNL     1     -42.310  15.592   6.382  1.00 20.00     0.015 C 
ENDBRANCH   2   4
TORSDOF 1
ENDMDL
MODEL 6
REMARK VINA RESULT:      -4.0     12.602     14.185
REMARK  1 active torsions:
REMARK  status: ('A' for Active; 'I' for Inactive)
REMARK    1  A    between atoms: C11_11  and  C12_12 
ROOT
HETATM    1  C1  UNL     1     -33.471  15.888  -3.169  1.00 20.00     0.059 C 
HETATM    2  C12 UNL     1     -33.674  14.848  -4.168  1.00 20.00     0.133 C 
HETATM    3  N13 UNL     1     -33.292  16.692  -2.353  1.00 20.00    -0.197 NA
ENDROOT
BRANCH   2   4
HETATM    4  C11 UNL     1     -34.411  15.563  -5.305  1.00 20.00    -0.027 C 
HETATM    5  C5  UNL     1     -33.798  15.172  -6.670  1.00 20.00     0.015 C 
HETATM    6  C8  UNL     1     -34.535  15.888  -7.814  1.00 20.00    -0.013 C 
HETATM    7  C2  UNL     1     -36.021  15.488  -7.789  1.00 20.00     0.009 C 
HETATM    8  C3  UNL     1     -34.417  17.409  -7.620  1.00 20.00     0.009 C 
HETATM    9  C9  UNL     1     -36.650  15.887  -6.445  1.00 20.00    -0.013 C 
HETATM   10  C4  UNL     1     -36.522  17.408  -6.256  1.00 20.00     0.009 C 
HETATM   11  C6  UNL     1     -35.907  15.171  -5.304  1.00 20.00     0.015 C 
HETATM   12  C10 UNL     1     -35.040  17.818  -6.275  1.00 20.00    -0.013 C 
HETATM   13  C7  UNL     1     -34.300  17.096  -5.134  1.00 20.00     0.015 C 
ENDBRANCH   2   4
TORSDOF 1
ENDMDL
MODEL 7
REMARK VINA RESULT:      -3.9      1.379      2.869
REMARK  1 active torsions:
REMARK  status: ('A' for Active; 'I' for Inactive)
REMARK    1  A    between atoms: C11_11  and  C12_12 
ROOT
HETATM    1  C1  UNL     1     -40.334  12.291   5.618  1.00 20.00     0.059 C 
HETATM    2  C12 UNL     1     -41.168  13.411   5.207  1.00 20.00     0.133 C 
HETATM    3  N13 UNL     1     -39.668  11.388   5.912  1.00 20.00    -0.197 NA
ENDROOT
BRANCH   2   4
HETATM    4  C11 UNL     1     -41.456  14.159   6.512  1.00 20.00    -0.027 C 
HETATM    5  C5  UNL     1     -40.133  14.535   7.217  1.00 20.00     0.015 C 
HETATM    6  C8  UNL     1     -40.418  15.286   8.530  1.00 20.00    -0.013 C 
HETATM    7  C2  UNL     1     -41.210  16.567   8.218  1.00 20.00     0.009 C 
HETATM    8  C3  UNL     1     -41.252  14.388   9.457  1.00 20.00     0.009 C 
HETATM    9  C9  UNL     1     -42.539  16.210   7.532  1.00 20.00    -0.013 C 
HETATM   10  C4  UNL     1     -43.364  15.306   8.465  1.00 20.00     0.009 C 
HETATM   11  C6  UNL     1     -42.249  15.456   6.224  1.00 20.00     0.015 C 
HETATM   12  C10 UNL     1     -42.582  14.020   8.778  1.00 20.00    -0.013 C 
HETATM   13  C7  UNL     1     -42.290  13.272   7.465  1.00 20.00     0.015 C 
ENDBRANCH   2   4
TORSDOF 1
ENDMDL
MODEL 8
REMARK VINA RESULT:      -3.9     12.618     14.129
REMARK  1 active torsions:
REMARK  status: ('A' for Active; 'I' for Inactive)
REMARK    1  A    between atoms: C11_11  and  C12_12 
ROOT
HETATM    1  C1  UNL     1     -33.499  15.905  -3.207  1.00 20.00     0.059 C 
HETATM    2  C12 UNL     1     -33.681  14.877  -4.222  1.00 20.00     0.133 C 
HETATM    3  N13 UNL     1     -33.336  16.699  -2.377  1.00 20.00    -0.197 NA
ENDROOT
BRANCH   2   4
HETATM    4  C11 UNL     1     -34.411  15.603  -5.357  1.00 20.00    -0.027 C 
HETATM    5  C5  UNL     1     -35.905  15.206  -5.373  1.00 20.00     0.015 C 
HETATM    6  C8  UNL     1     -36.642  15.932  -6.513  1.00 20.00    -0.013 C 
HETATM    7  C2  UNL     1     -36.520  17.451  -6.306  1.00 20.00     0.009 C 
HETATM    8  C3  UNL     1     -35.999  15.550  -7.856  1.00 20.00     0.009 C 
HETATM    9  C9  UNL     1     -35.040  17.866  -6.307  1.00 20.00    -0.013 C 
HETATM   10  C4  UNL     1     -34.404  17.474  -7.652  1.00 20.00     0.009 C 
HETATM   11  C6  UNL     1     -34.308  17.134  -5.169  1.00 20.00     0.015 C 
HETATM   12  C10 UNL     1     -34.516  15.956  -7.865  1.00 20.00    -0.013 C 
HETATM   13  C7  UNL     1     -33.785  15.229  -6.722  1.00 20.00     0.015 C 
ENDBRANCH   2   4
TORSDOF 1
ENDMDL
MODEL 9
REMARK VINA RESULT:      -3.9     12.602     14.209
REMARK  1 active torsions:
REMARK  status: ('A' for Active; 'I' for Inactive)
REMARK    1  A    between atoms: C11_11  and  C12_12 
ROOT
HETATM    1  C1  UNL     1     -33.469  15.888  -3.169  1.00 20.00     0.059 C 
HETATM    2  C12 UNL     1     -33.669  14.847  -4.168  1.00 20.00     0.133 C 
HETATM    3  N13 UNL     1     -33.293  16.693  -2.353  1.00 20.00    -0.197 NA
ENDROOT
BRANCH   2   4
HETATM    4  C11 UNL     1     -34.408  15.560  -5.304  1.00 20.00    -0.027 C 
HETATM    5  C5  UNL     1     -34.292  17.093  -5.140  1.00 20.00     0.015 C 
HETATM    6  C8  UNL     1     -35.033  17.813  -6.280  1.00 20.00    -0.013 C 
HETATM    7  C2  UNL     1     -34.417  17.397  -7.627  1.00 20.00     0.009 C 
HETATM    8  C3  UNL     1     -36.517  17.409  -6.255  1.00 20.00     0.009 C 
HETATM    9  C9  UNL     1     -34.542  15.876  -7.815  1.00 20.00    -0.013 C 
HETATM   10  C4  UNL     1     -36.028  15.480  -7.782  1.00 20.00     0.009 C 
HETATM   11  C6  UNL     1     -33.802  15.162  -6.671  1.00 20.00     0.015 C 
HETATM   12  C10 UNL     1     -36.651  15.888  -6.437  1.00 20.00    -0.013 C 
HETATM   13  C7  UNL     1     -35.905  15.173  -5.296  1.00 20.00     0.015 C 
ENDBRANCH   2   4
TORSDOF 1
ENDMDL
