MODEL 1
REMARK VINA RESULT:      -4.1      0.000      0.000
REMARK  1 active torsions:
REMARK  status: ('A' for Active; 'I' for Inactive)
REMARK    1  A    between atoms: C1_1  and  C10_10 
ROOT
HETATM    1  C2  UNL     1     -42.744  15.539   6.627  1.00 20.00     0.009 C 
HETATM    2  C3  UNL     1     -42.239  13.821   8.406  1.00 20.00     0.010 C 
HETATM    3  C4  UNL     1     -43.380  13.116   6.330  1.00 20.00     0.010 C 
HETATM    4  C5  UNL     1     -40.449  14.626   7.149  1.00 20.00     0.022 C 
HETATM    5  C6  UNL     1     -41.590  13.920   5.071  1.00 20.00     0.022 C 
HETATM    6  C7  UNL     1     -41.761  15.123   7.762  1.00 20.00    -0.013 C 
HETATM    7  C8  UNL     1     -42.949  14.388   5.598  1.00 20.00    -0.013 C 
HETATM    8  C9  UNL     1     -42.148  12.858   7.212  1.00 20.00     0.002 C 
HETATM    9  C10 UNL     1     -40.947  13.406   6.362  1.00 20.00     0.024 C 
ENDROOT
BRANCH   9  10
HETATM   10  C1  UNL     1     -39.871  12.396   6.129  1.00 20.00     0.132 C 
HETATM   11  C11 UNL     1     -39.665  11.941   4.711  1.00 20.00     0.091 C 
HETATM   12  O12 UNL     1     -39.184  11.961   7.053  1.00 20.00    -0.298 OA
ENDBRANCH   9  10
TORSDOF 1
ENDMDL
MODEL 2
REMARK VINA RESULT:      -4.0     13.084     14.288
REMARK  1 active torsions:
REMARK  status: ('A' for Active; 'I' for Inactive)
REMARK    1  A    between atoms: C1_1  and  C10_10 
ROOT
HETATM    1  C2  UNL     1     -36.277  15.923  -7.609  1.00 20.00     0.009 C 
HETATM    2  C3  UNL     1     -34.506  17.528  -6.799  1.00 20.00     0.010 C 
HETATM    3  C4  UNL     1     -36.468  17.067  -5.368  1.00 20.00     0.010 C 
HETATM    4  C5  UNL     1     -33.977  15.259  -6.807  1.00 20.00     0.022 C 
HETATM    5  C6  UNL     1     -35.941  14.796  -5.375  1.00 20.00     0.022 C 
HETATM    6  C7  UNL     1     -34.760  16.276  -7.640  1.00 20.00    -0.013 C 
HETATM    7  C8  UNL     1     -36.804  15.794  -6.148  1.00 20.00    -0.013 C 
HETATM    8  C9  UNL     1     -34.931  17.032  -5.407  1.00 20.00     0.002 C 
HETATM    9  C10 UNL     1     -34.582  15.502  -5.418  1.00 20.00     0.024 C 
ENDROOT
BRANCH   9  10
HETATM   10  C1  UNL     1     -33.664  15.093  -4.313  1.00 20.00     0.132 C 
HETATM   11  C11 UNL     1     -33.366  16.126  -3.262  1.00 20.00     0.091 C 
HETATM   12  O12 UNL     1     -33.176  13.964  -4.264  1.00 20.00    -0.298 OA
ENDBRANCH   9  10
TORSDOF 1
ENDMDL
MODEL 3
REMARK VINA RESULT:      -4.0      0.755      1.837
REMARK  1 active torsions:
REMARK  status: ('A' for Active; 'I' for Inactive)
REMARK    1  A    between atoms: C1_1  and  C10_10 
ROOT
HETATM    1  C2  UNL     1     -43.417  14.711   6.899  1.00 20.00     0.009 C 
HETATM    2  C3  UNL     1     -41.073  15.630   7.076  1.00 20.00     0.010 C 
HETATM    3  C4  UNL     1     -41.858  13.983   8.744  1.00 20.00     0.010 C 
HETATM    4  C5  UNL     1     -41.503  14.105   5.368  1.00 20.00     0.022 C 
HETATM    5  C6  UNL     1     -42.289  12.456   7.036  1.00 20.00     0.022 C 
HETATM    6  C7  UNL     1     -42.193  15.256   6.104  1.00 20.00    -0.013 C 
HETATM    7  C8  UNL     1     -43.011  13.539   7.841  1.00 20.00    -0.013 C 
HETATM    8  C9  UNL     1     -40.764  14.260   7.701  1.00 20.00     0.002 C 
HETATM    9  C10 UNL     1     -41.062  13.233   6.551  1.00 20.00     0.024 C 
ENDROOT
BRANCH   9  10
HETATM   10  C1  UNL     1     -39.898  12.359   6.215  1.00 20.00     0.132 C 
HETATM   11  C11 UNL     1     -39.756  11.944   4.776  1.00 20.00     0.091 C 
HETATM   12  O12 UNL     1     -39.093  11.998   7.073  1.00 20.00    -0.298 OA
ENDBRANCH   9  10
TORSDOF 1
ENDMDL
MODEL 4
REMARK VINA RESULT:      -4.0     20.123     21.427
REMARK  1 active torsions:
REMARK  status: ('A' for Active; 'I' for Inactive)
REMARK    1  A    between atoms: C1_1  and  C10_10 
ROOT
HETATM    1  C2  UNL     1     -26.045  -1.096  12.104  1.00 20.00     0.009 C 
HETATM    2  C3  UNL     1     -27.581  -0.429  10.215  1.00 20.00     0.010 C 
HETATM    3  C4  UNL     1     -26.449  -2.625  10.137  1.00 20.00     0.010 C 
HETATM    4  C5  UNL     1     -28.564  -1.007  12.247  1.00 20.00     0.022 C 
HETATM    5  C6  UNL     1     -27.432  -3.205  12.170  1.00 20.00     0.022 C 
HETATM    6  C7  UNL     1     -27.320  -0.290  11.716  1.00 20.00    -0.013 C 
HETATM    7  C8  UNL     1     -26.142  -2.579  11.636  1.00 20.00    -0.013 C 
HETATM    8  C9  UNL     1     -27.826  -1.942  10.103  1.00 20.00     0.002 C 
HETATM    9  C10 UNL     1     -28.481  -2.331  11.476  1.00 20.00     0.024 C 
ENDROOT
BRANCH   9  10
HETATM   10  C1  UNL     1     -29.811  -2.996  11.335  1.00 20.00     0.132 C 
HETATM   11  C11 UNL     1     -29.816  -4.500  11.303  1.00 20.00     0.091 C 
HETATM   12  O12 UNL     1     -30.852  -2.346  11.251  1.00 20.00    -0.298 OA
ENDBRANCH   9  10
TORSDOF 1
ENDMDL
MODEL 5
REMARK VINA RESULT:      -3.8     20.315     22.006
REMARK  1 active torsions:
REMARK  status: ('A' for Active; 'I' for Inactive)
REMARK    1  A    between atoms: C1_1  and  C10_10 
ROOT
HETATM    1  C2  UNL     1     -28.886  -1.775  12.204  1.00 20.00     0.009 C 
HETATM    2  C3  UNL     1     -28.042  -2.875  10.094  1.00 20.00     0.010 C 
HETATM    3  C4  UNL     1     -27.784  -0.433  10.373  1.00 20.00     0.010 C 
HETATM    4  C5  UNL     1     -26.826  -3.227  12.050  1.00 20.00     0.022 C 
HETATM    5  C6  UNL     1     -26.567  -0.783  12.331  1.00 20.00     0.022 C 
HETATM    6  C7  UNL     1     -28.279  -3.073  11.592  1.00 20.00    -0.013 C 
HETATM    7  C8  UNL     1     -28.008  -0.528  11.884  1.00 20.00    -0.013 C 
HETATM    8  C9  UNL     1     -27.011  -1.735  10.113  1.00 20.00     0.002 C 
HETATM    9  C10 UNL     1     -26.198  -1.969  11.435  1.00 20.00     0.024 C 
ENDROOT
BRANCH   9  10
HETATM   10  C1  UNL     1     -24.728  -2.113  11.214  1.00 20.00     0.132 C 
HETATM   11  C11 UNL     1     -24.286  -3.218  10.294  1.00 20.00     0.091 C 
HETATM   12  O12 UNL     1     -23.917  -1.362  11.757  1.00 20.00    -0.298 OA
ENDBRANCH   9  10
TORSDOF 1
ENDMDL
MODEL 6
REMARK VINA RESULT:      -3.8     13.004     14.210
REMARK  1 active torsions:
REMARK  status: ('A' for Active; 'I' for Inactive)
REMARK    1  A    between atoms: C1_1  and  C10_10 
ROOT
HETATM    1  C2  UNL     1     -35.472  17.164  -7.647  1.00 20.00     0.009 C 
HETATM    2  C3  UNL     1     -36.761  16.749  -5.517  1.00 20.00     0.010 C 
HETATM    3  C4  UNL     1     -36.115  14.830  -6.935  1.00 20.00     0.010 C 
HETATM    4  C5  UNL     1     -34.521  17.356  -5.317  1.00 20.00     0.022 C 
HETATM    5  C6  UNL     1     -33.873  15.435  -6.736  1.00 20.00     0.022 C 
HETATM    6  C7  UNL     1     -35.737  17.660  -6.195  1.00 20.00    -0.013 C 
HETATM    7  C8  UNL     1     -35.063  15.661  -7.672  1.00 20.00    -0.013 C 
HETATM    8  C9  UNL     1     -36.003  15.412  -5.517  1.00 20.00     0.002 C 
HETATM    9  C10 UNL     1     -34.493  15.823  -5.390  1.00 20.00     0.024 C 
ENDROOT
BRANCH   9  10
HETATM   10  C1  UNL     1     -33.804  15.206  -4.217  1.00 20.00     0.132 C 
HETATM   11  C11 UNL     1     -33.339  16.142  -3.135  1.00 20.00     0.091 C 
HETATM   12  O12 UNL     1     -33.627  13.991  -4.138  1.00 20.00    -0.298 OA
ENDBRANCH   9  10
TORSDOF 1
ENDMDL
MODEL 7
REMARK VINA RESULT:      -3.7      1.381      2.523
REMARK  1 active torsions:
REMARK  status: ('A' for Active; 'I' for Inactive)
REMARK    1  A    between atoms: C1_1  and  C10_10 
ROOT
HETATM    1  C2  UNL     1     -42.517  14.269   8.826  1.00 20.00     0.009 C 
HETATM    2  C3  UNL     1     -43.403  14.617   6.489  1.00 20.00     0.010 C 
HETATM    3  C4  UNL     1     -41.364  15.819   7.203  1.00 20.00     0.010 C 
HETATM    4  C5  UNL     1     -42.367  12.583   6.953  1.00 20.00     0.022 C 
HETATM    5  C6  UNL     1     -40.325  13.785   7.668  1.00 20.00     0.022 C 
HETATM    6  C7  UNL     1     -43.273  13.612   7.633  1.00 20.00    -0.013 C 
HETATM    7  C8  UNL     1     -41.148  14.863   8.377  1.00 20.00    -0.013 C 
HETATM    8  C9  UNL     1     -41.924  14.855   6.144  1.00 20.00     0.002 C 
HETATM    9  C10 UNL     1     -41.226  13.487   6.466  1.00 20.00     0.024 C 
ENDROOT
BRANCH   9  10
HETATM   10  C1  UNL     1     -40.491  12.904   5.303  1.00 20.00     0.132 C 
HETATM   11  C11 UNL     1     -39.399  11.919   5.617  1.00 20.00     0.091 C 
HETATM   12  O12 UNL     1     -40.768  13.213   4.144  1.00 20.00    -0.298 OA
ENDBRANCH   9  10
TORSDOF 1
ENDMDL
MODEL 8
REMARK VINA RESULT:      -3.6      8.684     10.268
REMARK  1 active torsions:
REMARK  status: ('A' for Active; 'I' for Inactive)
REMARK    1  A    between atoms: C1_1  and  C10_10 
ROOT
HETATM    1  C2  UNL     1     -40.933   7.514   1.454  1.00 20.00     0.009 C 
HETATM    2  C3  UNL     1     -43.416   7.340   1.034  1.00 20.00     0.010 C 
HETATM    3  C4  UNL     1     -41.930   8.099  -0.790  1.00 20.00     0.010 C 
HETATM    4  C5  UNL     1     -42.211   5.352   1.190  1.00 20.00     0.022 C 
HETATM    5  C6  UNL     1     -40.722   6.111  -0.635  1.00 20.00     0.022 C 
HETATM    6  C7  UNL     1     -42.242   6.749   1.815  1.00 20.00    -0.013 C 
HETATM    7  C8  UNL     1     -40.692   7.539  -0.085  1.00 20.00    -0.013 C 
HETATM    8  C9  UNL     1     -42.981   7.044  -0.411  1.00 20.00     0.002 C 
HETATM    9  C10 UNL     1     -42.162   5.709  -0.302  1.00 20.00     0.024 C 
ENDROOT
BRANCH   9  10
HETATM   10  C1  UNL     1     -42.689   4.613  -1.170  1.00 20.00     0.132 C 
HETATM   11  C11 UNL     1     -43.417   3.493  -0.479  1.00 20.00     0.091 C 
HETATM   12  O12 UNL     1     -42.539   4.628  -2.392  1.00 20.00    -0.298 OA
ENDBRANCH   9  10
TORSDOF 1
ENDMDL
MODEL 9
REMARK VINA RESULT:      -3.6     13.088     14.340
REMARK  1 active torsions:
REMARK  status: ('A' for Active; 'I' for Inactive)
REMARK    1  A    between atoms: C1_1  and  C10_10 
ROOT
HETATM    1  C2  UNL     1     -36.308  16.025  -7.402  1.00 20.00     0.009 C 
HETATM    2  C3  UNL     1     -35.713  14.580  -5.420  1.00 20.00     0.010 C 
HETATM    3  C4  UNL     1     -33.936  15.265  -6.996  1.00 20.00     0.010 C 
HETATM    4  C5  UNL     1     -36.210  16.818  -5.007  1.00 20.00     0.022 C 
HETATM    5  C6  UNL     1     -34.432  17.505  -6.584  1.00 20.00     0.022 C 
HETATM    6  C7  UNL     1     -36.654  15.675  -5.924  1.00 20.00    -0.013 C 
HETATM    7  C8  UNL     1     -34.802  16.390  -7.566  1.00 20.00    -0.013 C 
HETATM    8  C9  UNL     1     -34.356  15.296  -5.518  1.00 20.00     0.002 C 
HETATM    9  C10 UNL     1     -34.695  16.805  -5.248  1.00 20.00     0.024 C 
ENDROOT
BRANCH   9  10
HETATM   10  C1  UNL     1     -33.929  17.393  -4.108  1.00 20.00     0.132 C 
HETATM   11  C11 UNL     1     -33.365  16.428  -3.102  1.00 20.00     0.091 C 
HETATM   12  O12 UNL     1     -33.765  18.608  -3.998  1.00 20.00    -0.298 OA
ENDBRANCH   9  10
TORSDOF 1
ENDMDL
