MODEL 1
REMARK VINA RESULT:      -4.5      0.000      0.000
REMARK  2 active torsions:
REMARK  status: ('A' for Active; 'I' for Inactive)
REMARK    1  A    between atoms: C3_3  and  C10_10 
REMARK    2  A    between atoms: C5_5  and  C10_10 
ROOT
HETATM    1  C1  UNL     1     -33.772   7.405   6.324  1.00 20.00    -0.023 C 
HETATM    2  C2  UNL     1     -34.091   6.188   5.861  1.00 20.00    -0.079 C 
HETATM    3  C4  UNL     1     -33.762   8.430   5.239  1.00 20.00     0.033 C 
HETATM    4  C5  UNL     1     -33.702   7.573   3.959  1.00 20.00     0.007 C 
HETATM    5  C6  UNL     1     -34.357   6.211   4.367  1.00 20.00    -0.021 C 
HETATM    6  C7  UNL     1     -34.236   4.959   6.691  1.00 20.00     0.044 C 
HETATM    7  C8  UNL     1     -35.876   6.262   4.113  1.00 20.00     0.020 C 
HETATM    8  C9  UNL     1     -33.774   4.998   3.632  1.00 20.00     0.020 C 
ENDROOT
BRANCH   4   9
HETATM    9  C10 UNL     1     -32.249   7.473   3.472  1.00 20.00     0.075 C 
BRANCH   9  10
HETATM   10  C3  UNL     1     -32.105   7.827   2.015  1.00 20.00     0.231 C 
HETATM   11  O11 UNL     1     -32.488   8.874   1.504  1.00 20.00    -0.307 OA
ENDBRANCH   9  10
ENDBRANCH   4   9
TORSDOF 2
ENDMDL
MODEL 2
REMARK VINA RESULT:      -4.0     12.028     13.380
REMARK  2 active torsions:
REMARK  status: ('A' for Active; 'I' for Inactive)
REMARK    1  A    between atoms: C3_3  and  C10_10 
REMARK    2  A    between atoms: C5_5  and  C10_10 
ROOT
HETATM    1  C1  UNL     1     -33.262  15.653  -3.469  1.00 20.00    -0.023 C 
HETATM    2  C2  UNL     1     -33.735  16.806  -2.975  1.00 20.00    -0.079 C 
HETATM    3  C4  UNL     1     -33.468  15.551  -4.944  1.00 20.00     0.033 C 
HETATM    4  C5  UNL     1     -34.533  16.632  -5.215  1.00 20.00     0.007 C 
HETATM    5  C6  UNL     1     -34.338  17.674  -4.064  1.00 20.00    -0.021 C 
HETATM    6  C7  UNL     1     -33.643  17.238  -1.553  1.00 20.00     0.044 C 
HETATM    7  C8  UNL     1     -33.319  18.747  -4.493  1.00 20.00     0.020 C 
HETATM    8  C9  UNL     1     -35.635  18.370  -3.631  1.00 20.00     0.020 C 
ENDROOT
BRANCH   4   9
HETATM    9  C10 UNL     1     -35.924  15.983  -5.274  1.00 20.00     0.075 C 
BRANCH   9  10
HETATM   10  C3  UNL     1     -35.886  14.592  -5.851  1.00 20.00     0.231 C 
HETATM   11  O11 UNL     1     -36.037  14.318  -7.037  1.00 20.00    -0.307 OA
ENDBRANCH   9  10
ENDBRANCH   4   9
TORSDOF 2
ENDMDL
MODEL 3
REMARK VINA RESULT:      -3.8     11.923     13.483
REMARK  2 active torsions:
REMARK  status: ('A' for Active; 'I' for Inactive)
REMARK    1  A    between atoms: C3_3  and  C10_10 
REMARK    2  A    between atoms: C5_5  and  C10_10 
ROOT
HETATM    1  C1  UNL     1     -33.592  16.216  -2.685  1.00 20.00    -0.023 C 
HETATM    2  C2  UNL     1     -33.945  16.843  -3.816  1.00 20.00    -0.079 C 
HETATM    3  C4  UNL     1     -33.710  17.106  -1.493  1.00 20.00     0.033 C 
HETATM    4  C5  UNL     1     -33.776  18.512  -2.122  1.00 20.00     0.007 C 
HETATM    5  C6  UNL     1     -34.368  18.276  -3.551  1.00 20.00    -0.021 C 
HETATM    6  C7  UNL     1     -33.987  16.224  -5.170  1.00 20.00     0.044 C 
HETATM    7  C8  UNL     1     -35.906  18.361  -3.503  1.00 20.00     0.020 C 
HETATM    8  C9  UNL     1     -33.852  19.262  -4.607  1.00 20.00     0.020 C 
ENDROOT
BRANCH   4   9
HETATM    9  C10 UNL     1     -32.381  19.156  -2.096  1.00 20.00     0.075 C 
BRANCH   9  10
HETATM   10  C3  UNL     1     -31.736  19.076  -0.737  1.00 20.00     0.231 C 
HETATM   11  O11 UNL     1     -30.608  18.645  -0.518  1.00 20.00    -0.307 OA
ENDBRANCH   9  10
ENDBRANCH   4   9
TORSDOF 2
ENDMDL
MODEL 4
REMARK VINA RESULT:      -3.6      9.412     10.419
REMARK  2 active torsions:
REMARK  status: ('A' for Active; 'I' for Inactive)
REMARK    1  A    between atoms: C3_3  and  C10_10 
REMARK    2  A    between atoms: C5_5  and  C10_10 
ROOT
HETATM    1  C1  UNL     1     -40.684  14.411   8.309  1.00 20.00    -0.023 C 
HETATM    2  C2  UNL     1     -41.898  13.852   8.418  1.00 20.00    -0.079 C 
HETATM    3  C4  UNL     1     -40.207  14.438   6.895  1.00 20.00     0.033 C 
HETATM    4  C5  UNL     1     -41.130  13.415   6.203  1.00 20.00     0.007 C 
HETATM    5  C6  UNL     1     -42.435  13.416   7.067  1.00 20.00    -0.021 C 
HETATM    6  C7  UNL     1     -42.676  13.717   9.680  1.00 20.00     0.044 C 
HETATM    7  C8  UNL     1     -43.417  14.477   6.534  1.00 20.00     0.020 C 
HETATM    8  C9  UNL     1     -43.150  12.060   7.112  1.00 20.00     0.020 C 
ENDROOT
BRANCH   4   9
HETATM    9  C10 UNL     1     -40.417  12.058   6.107  1.00 20.00     0.075 C 
BRANCH   9  10
HETATM   10  C3  UNL     1     -39.385  12.027   5.009  1.00 20.00     0.231 C 
HETATM   11  O11 UNL     1     -38.177  12.148   5.177  1.00 20.00    -0.307 OA
ENDBRANCH   9  10
ENDBRANCH   4   9
TORSDOF 2
ENDMDL
MODEL 5
REMARK VINA RESULT:      -3.5     11.914     13.337
REMARK  2 active torsions:
REMARK  status: ('A' for Active; 'I' for Inactive)
REMARK    1  A    between atoms: C3_3  and  C10_10 
REMARK    2  A    between atoms: C5_5  and  C10_10 
ROOT
HETATM    1  C1  UNL     1     -35.905  17.626  -4.970  1.00 20.00    -0.023 C 
HETATM    2  C2  UNL     1     -36.567  16.499  -5.269  1.00 20.00    -0.079 C 
HETATM    3  C4  UNL     1     -34.429  17.465  -5.130  1.00 20.00     0.033 C 
HETATM    4  C5  UNL     1     -34.253  15.934  -5.157  1.00 20.00     0.007 C 
HETATM    5  C6  UNL     1     -35.620  15.390  -5.691  1.00 20.00    -0.021 C 
HETATM    6  C7  UNL     1     -38.047  16.340  -5.260  1.00 20.00     0.044 C 
HETATM    7  C8  UNL     1     -35.584  15.297  -7.228  1.00 20.00     0.020 C 
HETATM    8  C9  UNL     1     -36.007  14.019  -5.122  1.00 20.00     0.020 C 
ENDROOT
BRANCH   4   9
HETATM    9  C10 UNL     1     -33.857  15.435  -3.759  1.00 20.00     0.075 C 
BRANCH   9  10
HETATM   10  C3  UNL     1     -33.255  16.524  -2.909  1.00 20.00     0.231 C 
HETATM   11  O11 UNL     1     -33.568  16.762  -1.747  1.00 20.00    -0.307 OA
ENDBRANCH   9  10
ENDBRANCH   4   9
TORSDOF 2
ENDMDL
MODEL 6
REMARK VINA RESULT:      -3.4     12.226     13.728
REMARK  2 active torsions:
REMARK  status: ('A' for Active; 'I' for Inactive)
REMARK    1  A    between atoms: C3_3  and  C10_10 
REMARK    2  A    between atoms: C5_5  and  C10_10 
ROOT
HETATM    1  C1  UNL     1     -33.363  15.517  -3.811  1.00 20.00    -0.023 C 
HETATM    2  C2  UNL     1     -33.753  16.662  -3.232  1.00 20.00    -0.079 C 
HETATM    3  C4  UNL     1     -33.714  15.477  -5.261  1.00 20.00     0.033 C 
HETATM    4  C5  UNL     1     -34.768  16.595  -5.388  1.00 20.00     0.007 C 
HETATM    5  C6  UNL     1     -34.432  17.586  -4.225  1.00 20.00    -0.021 C 
HETATM    6  C7  UNL     1     -33.511  17.036  -1.811  1.00 20.00     0.044 C 
HETATM    7  C8  UNL     1     -33.428  18.648  -4.713  1.00 20.00     0.020 C 
HETATM    8  C9  UNL     1     -35.659  18.299  -3.643  1.00 20.00     0.020 C 
ENDROOT
BRANCH   4   9
HETATM    9  C10 UNL     1     -36.177  15.985  -5.334  1.00 20.00     0.075 C 
BRANCH   9  10
HETATM   10  C3  UNL     1     -37.016  16.370  -6.524  1.00 20.00     0.231 C 
HETATM   11  O11 UNL     1     -38.242  16.343  -6.558  1.00 20.00    -0.307 OA
ENDBRANCH   9  10
ENDBRANCH   4   9
TORSDOF 2
ENDMDL
MODEL 7
REMARK VINA RESULT:      -3.4      9.597     10.882
REMARK  2 active torsions:
REMARK  status: ('A' for Active; 'I' for Inactive)
REMARK    1  A    between atoms: C3_3  and  C10_10 
REMARK    2  A    between atoms: C5_5  and  C10_10 
ROOT
HETATM    1  C1  UNL     1     -42.104  15.108   5.632  1.00 20.00    -0.023 C 
HETATM    2  C2  UNL     1     -41.761  15.421   6.890  1.00 20.00    -0.079 C 
HETATM    3  C4  UNL     1     -42.110  13.632   5.407  1.00 20.00     0.033 C 
HETATM    4  C5  UNL     1     -41.295  13.101   6.602  1.00 20.00     0.007 C 
HETATM    5  C6  UNL     1     -41.485  14.180   7.719  1.00 20.00    -0.021 C 
HETATM    6  C7  UNL     1     -41.707  16.799   7.452  1.00 20.00     0.044 C 
HETATM    7  C8  UNL     1     -42.723  13.843   8.571  1.00 20.00     0.020 C 
HETATM    8  C9  UNL     1     -40.273  14.333   8.647  1.00 20.00     0.020 C 
ENDROOT
BRANCH   4   9
HETATM    9  C10 UNL     1     -39.841  12.862   6.171  1.00 20.00     0.075 C 
BRANCH   9  10
HETATM   10  C3  UNL     1     -39.713  11.741   5.173  1.00 20.00     0.231 C 
HETATM   11  O11 UNL     1     -39.022  11.777   4.160  1.00 20.00    -0.307 OA
ENDBRANCH   9  10
ENDBRANCH   4   9
TORSDOF 2
ENDMDL
MODEL 8
REMARK VINA RESULT:      -3.4     11.989     13.772
REMARK  2 active torsions:
REMARK  status: ('A' for Active; 'I' for Inactive)
REMARK    1  A    between atoms: C3_3  and  C10_10 
REMARK    2  A    between atoms: C5_5  and  C10_10 
ROOT
HETATM    1  C1  UNL     1     -33.961  14.963  -6.114  1.00 20.00    -0.023 C 
HETATM    2  C2  UNL     1     -34.369  16.189  -6.472  1.00 20.00    -0.079 C 
HETATM    3  C4  UNL     1     -34.244  14.679  -4.676  1.00 20.00     0.033 C 
HETATM    4  C5  UNL     1     -34.497  16.083  -4.094  1.00 20.00     0.007 C 
HETATM    5  C6  UNL     1     -35.006  16.927  -5.309  1.00 20.00    -0.021 C 
HETATM    6  C7  UNL     1     -34.279  16.763  -7.844  1.00 20.00     0.044 C 
HETATM    7  C8  UNL     1     -36.540  16.829  -5.412  1.00 20.00     0.020 C 
HETATM    8  C9  UNL     1     -34.609  18.408  -5.245  1.00 20.00     0.020 C 
ENDROOT
BRANCH   4   9
HETATM    9  C10 UNL     1     -33.214  16.607  -3.431  1.00 20.00     0.075 C 
BRANCH   9  10
HETATM   10  C3  UNL     1     -33.413  16.942  -1.976  1.00 20.00     0.231 C 
HETATM   11  O11 UNL     1     -34.143  17.831  -1.553  1.00 20.00    -0.307 OA
ENDBRANCH   9  10
ENDBRANCH   4   9
TORSDOF 2
ENDMDL
MODEL 9
REMARK VINA RESULT:      -3.3      1.216      1.572
REMARK  2 active torsions:
REMARK  status: ('A' for Active; 'I' for Inactive)
REMARK    1  A    between atoms: C3_3  and  C10_10 
REMARK    2  A    between atoms: C5_5  and  C10_10 
ROOT
HETATM    1  C1  UNL     1     -33.977   5.578   6.561  1.00 20.00    -0.023 C 
HETATM    2  C2  UNL     1     -34.018   5.068   5.322  1.00 20.00    -0.079 C 
HETATM    3  C4  UNL     1     -34.218   7.051   6.566  1.00 20.00     0.033 C 
HETATM    4  C5  UNL     1     -33.985   7.441   5.093  1.00 20.00     0.007 C 
HETATM    5  C6  UNL     1     -34.306   6.139   4.286  1.00 20.00    -0.021 C 
HETATM    6  C7  UNL     1     -33.867   3.627   4.976  1.00 20.00     0.044 C 
HETATM    7  C8  UNL     1     -35.801   6.107   3.912  1.00 20.00     0.020 C 
HETATM    8  C9  UNL     1     -33.474   5.980   3.007  1.00 20.00     0.020 C 
ENDROOT
BRANCH   4   9
HETATM    9  C10 UNL     1     -32.555   7.975   4.920  1.00 20.00     0.075 C 
BRANCH   9  10
HETATM   10  C3  UNL     1     -32.502   9.206   4.054  1.00 20.00     0.231 C 
HETATM   11  O11 UNL     1     -32.644   9.216   2.836  1.00 20.00    -0.307 OA
ENDBRANCH   9  10
ENDBRANCH   4   9
TORSDOF 2
ENDMDL
