MODEL 1
REMARK VINA RESULT:      -3.9      0.000      0.000
REMARK  2 active torsions:
REMARK  status: ('A' for Active; 'I' for Inactive)
REMARK    1  A    between atoms: C2_2  and  C4_4 
REMARK    2  A    between atoms: C4_4  and  O5_5 
ROOT
HETATM    1  C1  UNL     1     -34.775   7.488   4.789  1.00 20.00     0.052 A 
HETATM    2  C2  UNL     1     -33.988   6.698   5.799  1.00 20.00     0.051 A 
HETATM    3  C3  UNL     1     -33.311   7.213   4.550  1.00 20.00     0.119 A 
HETATM    4 CL6  UNL     1     -32.878   6.113   3.248  1.00 20.00    -0.101 Cl
HETATM    5 CL7  UNL     1     -32.184   8.558   4.726  1.00 20.00    -0.101 Cl
ENDROOT
BRANCH   2   6
HETATM    6  C4  UNL     1     -34.293   5.254   6.015  1.00 20.00     0.172 C 
BRANCH   6   7
HETATM    7  O5  UNL     1     -35.414   4.870   5.217  1.00 20.00    -0.400 OA
HETATM    8  H13 UNL     1     -35.754   4.048   5.601  1.00 20.00     0.209 HD
ENDBRANCH   6   7
ENDBRANCH   2   6
TORSDOF 2
ENDMDL
MODEL 2
REMARK VINA RESULT:      -3.8      2.585      3.240
REMARK  2 active torsions:
REMARK  status: ('A' for Active; 'I' for Inactive)
REMARK    1  A    between atoms: C2_2  and  C4_4 
REMARK    2  A    between atoms: C4_4  and  O5_5 
ROOT
HETATM    1  C1  UNL     1     -33.618   6.616   5.792  1.00 20.00     0.052 A 
HETATM    2  C2  UNL     1     -33.828   7.713   4.784  1.00 20.00     0.051 A 
HETATM    3  C3  UNL     1     -34.191   6.287   4.436  1.00 20.00     0.119 A 
HETATM    4 CL6  UNL     1     -33.198   5.358   3.321  1.00 20.00    -0.101 Cl
HETATM    5 CL7  UNL     1     -35.904   5.878   4.347  1.00 20.00    -0.101 Cl
ENDROOT
BRANCH   2   6
HETATM    6  C4  UNL     1     -32.653   8.414   4.192  1.00 20.00     0.172 C 
BRANCH   6   7
HETATM    7  O5  UNL     1     -31.735   8.780   5.223  1.00 20.00    -0.400 OA
HETATM    8  H13 UNL     1     -32.047   8.348   6.032  1.00 20.00     0.209 HD
ENDBRANCH   6   7
ENDBRANCH   2   6
TORSDOF 2
ENDMDL
MODEL 3
REMARK VINA RESULT:      -3.7      2.758      3.331
REMARK  2 active torsions:
REMARK  status: ('A' for Active; 'I' for Inactive)
REMARK    1  A    between atoms: C2_2  and  C4_4 
REMARK    2  A    between atoms: C4_4  and  O5_5 
ROOT
HETATM    1  C1  UNL     1     -35.359   6.406   4.345  1.00 20.00     0.052 A 
HETATM    2  C2  UNL     1     -33.922   6.842   4.428  1.00 20.00     0.051 A 
HETATM    3  C3  UNL     1     -34.340   5.504   4.995  1.00 20.00     0.119 A 
HETATM    4 CL6  UNL     1     -34.439   5.260   6.733  1.00 20.00    -0.101 Cl
HETATM    5 CL7  UNL     1     -33.848   4.055   4.117  1.00 20.00    -0.101 Cl
ENDROOT
BRANCH   2   6
HETATM    6  C4  UNL     1     -33.545   8.000   5.288  1.00 20.00     0.172 C 
BRANCH   6   7
HETATM    7  O5  UNL     1     -32.173   8.334   5.078  1.00 20.00    -0.400 OA
HETATM    8  H13 UNL     1     -32.158   9.254   4.774  1.00 20.00     0.209 HD
ENDBRANCH   6   7
ENDBRANCH   2   6
TORSDOF 2
ENDMDL
MODEL 4
REMARK VINA RESULT:      -3.7      2.604      3.074
REMARK  2 active torsions:
REMARK  status: ('A' for Active; 'I' for Inactive)
REMARK    1  A    between atoms: C2_2  and  C4_4 
REMARK    2  A    between atoms: C4_4  and  O5_5 
ROOT
HETATM    1  C1  UNL     1     -35.446   6.032   4.255  1.00 20.00     0.052 A 
HETATM    2  C2  UNL     1     -34.091   5.396   4.104  1.00 20.00     0.051 A 
HETATM    3  C3  UNL     1     -34.402   6.229   5.326  1.00 20.00     0.119 A 
HETATM    4 CL6  UNL     1     -33.704   7.832   5.516  1.00 20.00    -0.101 Cl
HETATM    5 CL7  UNL     1     -34.626   5.384   6.857  1.00 20.00    -0.101 Cl
ENDROOT
BRANCH   2   6
HETATM    6  C4  UNL     1     -33.169   5.856   3.026  1.00 20.00     0.172 C 
BRANCH   6   7
HETATM    7  O5  UNL     1     -32.716   4.736   2.264  1.00 20.00    -0.400 OA
HETATM    8  H13 UNL     1     -33.279   3.988   2.515  1.00 20.00     0.209 HD
ENDBRANCH   6   7
ENDBRANCH   2   6
TORSDOF 2
ENDMDL
MODEL 5
REMARK VINA RESULT:      -3.5     12.970     13.283
REMARK  2 active torsions:
REMARK  status: ('A' for Active; 'I' for Inactive)
REMARK    1  A    between atoms: C2_2  and  C4_4 
REMARK    2  A    between atoms: C4_4  and  O5_5 
ROOT
HETATM    1  C1  UNL     1     -33.556  16.632  -2.313  1.00 20.00     0.052 A 
HETATM    2  C2  UNL     1     -33.179  16.040  -3.644  1.00 20.00     0.051 A 
HETATM    3  C3  UNL     1     -33.807  17.414  -3.578  1.00 20.00     0.119 A 
HETATM    4 CL6  UNL     1     -35.474  17.661  -4.082  1.00 20.00    -0.101 Cl
HETATM    5 CL7  UNL     1     -32.770  18.803  -3.903  1.00 20.00    -0.101 Cl
ENDROOT
BRANCH   2   6
HETATM    6  C4  UNL     1     -33.906  14.845  -4.159  1.00 20.00     0.172 C 
BRANCH   6   7
HETATM    7  O5  UNL     1     -32.970  13.854  -4.586  1.00 20.00    -0.400 OA
HETATM    8  H13 UNL     1     -32.872  13.964  -5.543  1.00 20.00     0.209 HD
ENDBRANCH   6   7
ENDBRANCH   2   6
TORSDOF 2
ENDMDL
MODEL 6
REMARK VINA RESULT:      -3.4     16.312     16.800
REMARK  2 active torsions:
REMARK  status: ('A' for Active; 'I' for Inactive)
REMARK    1  A    between atoms: C2_2  and  C4_4 
REMARK    2  A    between atoms: C4_4  and  O5_5 
ROOT
HETATM    1  C1  UNL     1     -22.683  18.398  11.981  1.00 20.00     0.052 A 
HETATM    2  C2  UNL     1     -23.271  18.409  10.596  1.00 20.00     0.051 A 
HETATM    3  C3  UNL     1     -24.089  17.897  11.761  1.00 20.00     0.119 A 
HETATM    4 CL6  UNL     1     -24.393  16.175  11.952  1.00 20.00    -0.101 Cl
HETATM    5 CL7  UNL     1     -25.418  18.905  12.332  1.00 20.00    -0.101 Cl
ENDROOT
BRANCH   2   6
HETATM    6  C4  UNL     1     -22.714  17.510   9.545  1.00 20.00     0.172 C 
BRANCH   6   7
HETATM    7  O5  UNL     1     -21.300  17.391   9.707  1.00 20.00    -0.400 OA
HETATM    8  H13 UNL     1     -21.090  16.452   9.590  1.00 20.00     0.209 HD
ENDBRANCH   6   7
ENDBRANCH   2   6
TORSDOF 2
ENDMDL
MODEL 7
REMARK VINA RESULT:      -3.3      8.684      9.493
REMARK  2 active torsions:
REMARK  status: ('A' for Active; 'I' for Inactive)
REMARK    1  A    between atoms: C2_2  and  C4_4 
REMARK    2  A    between atoms: C4_4  and  O5_5 
ROOT
HETATM    1  C1  UNL     1     -40.991  13.315   5.073  1.00 20.00     0.052 A 
HETATM    2  C2  UNL     1     -40.255  12.104   5.578  1.00 20.00     0.051 A 
HETATM    3  C3  UNL     1     -41.135  12.899   6.516  1.00 20.00     0.119 A 
HETATM    4 CL6  UNL     1     -40.424  13.930   7.750  1.00 20.00    -0.101 Cl
HETATM    5 CL7  UNL     1     -42.665  12.175   7.012  1.00 20.00    -0.101 Cl
ENDROOT
BRANCH   2   6
HETATM    6  C4  UNL     1     -38.767  12.118   5.661  1.00 20.00     0.172 C 
BRANCH   6   7
HETATM    7  O5  UNL     1     -38.206  11.932   4.361  1.00 20.00    -0.400 OA
HETATM    8  H13 UNL     1     -37.322  11.560   4.495  1.00 20.00     0.209 HD
ENDBRANCH   6   7
ENDBRANCH   2   6
TORSDOF 2
ENDMDL
MODEL 8
REMARK VINA RESULT:      -3.3      2.260      2.642
REMARK  2 active torsions:
REMARK  status: ('A' for Active; 'I' for Inactive)
REMARK    1  A    between atoms: C2_2  and  C4_4 
REMARK    2  A    between atoms: C4_4  and  O5_5 
ROOT
HETATM    1  C1  UNL     1     -35.426   5.963   4.232  1.00 20.00     0.052 A 
HETATM    2  C2  UNL     1     -34.278   6.697   4.869  1.00 20.00     0.051 A 
HETATM    3  C3  UNL     1     -34.031   5.395   4.140  1.00 20.00     0.119 A 
HETATM    4 CL6  UNL     1     -33.675   3.923   5.034  1.00 20.00    -0.101 Cl
HETATM    5 CL7  UNL     1     -33.215   5.474   2.579  1.00 20.00    -0.101 Cl
ENDROOT
BRANCH   2   6
HETATM    6  C4  UNL     1     -34.203   6.818   6.353  1.00 20.00     0.172 C 
BRANCH   6   7
HETATM    7  O5  UNL     1     -32.916   7.303   6.736  1.00 20.00    -0.400 OA
HETATM    8  H13 UNL     1     -32.266   6.740   6.289  1.00 20.00     0.209 HD
ENDBRANCH   6   7
ENDBRANCH   2   6
TORSDOF 2
ENDMDL
MODEL 9
REMARK VINA RESULT:      -3.2     12.656     13.283
REMARK  2 active torsions:
REMARK  status: ('A' for Active; 'I' for Inactive)
REMARK    1  A    between atoms: C2_2  and  C4_4 
REMARK    2  A    between atoms: C4_4  and  O5_5 
ROOT
HETATM    1  C1  UNL     1     -34.226  15.029  -6.184  1.00 20.00     0.052 A 
HETATM    2  C2  UNL     1     -35.548  14.991  -5.467  1.00 20.00     0.051 A 
HETATM    3  C3  UNL     1     -34.459  15.929  -4.996  1.00 20.00     0.119 A 
HETATM    4 CL6  UNL     1     -33.569  15.596  -3.517  1.00 20.00    -0.101 Cl
HETATM    5 CL7  UNL     1     -34.676  17.653  -5.303  1.00 20.00    -0.101 Cl
ENDROOT
BRANCH   2   6
HETATM    6  C4  UNL     1     -35.947  13.772  -4.707  1.00 20.00     0.172 C 
BRANCH   6   7
HETATM    7  O5  UNL     1     -37.299  13.898  -4.265  1.00 20.00    -0.400 OA
HETATM    8  H13 UNL     1     -37.391  14.797  -3.916  1.00 20.00     0.209 HD
ENDBRANCH   6   7
ENDBRANCH   2   6
TORSDOF 2
ENDMDL
