MODEL 1
REMARK VINA RESULT:      -4.5      0.000      0.000
REMARK  1 active torsions:
REMARK  status: ('A' for Active; 'I' for Inactive)
REMARK    1  A    between atoms: C5_5  and  C6_6 
ROOT
HETATM    1  C1  UNL     1     -33.143   8.221   4.849  1.00 20.00     0.014 C 
HETATM    2  C2  UNL     1     -33.725   7.171   4.835  1.00 20.00    -0.091 C 
HETATM    3  C4  UNL     1     -34.634   5.390   6.264  1.00 20.00     0.046 C 
HETATM    4  C6  UNL     1     -34.436   5.879   4.825  1.00 20.00     0.095 C 
HETATM    5 CL7  UNL     1     -36.058   6.172   4.112  1.00 20.00    -0.105 Cl
ENDROOT
BRANCH   4   6
HETATM    6  C5  UNL     1     -33.669   4.814   4.012  1.00 20.00     0.034 C 
HETATM    7  C3  UNL     1     -33.014   5.308   2.725  1.00 20.00     0.008 C 
ENDBRANCH   4   6
TORSDOF 1
ENDMDL
MODEL 2
REMARK VINA RESULT:      -4.1      1.396      2.736
REMARK  1 active torsions:
REMARK  status: ('A' for Active; 'I' for Inactive)
REMARK    1  A    between atoms: C5_5  and  C6_6 
ROOT
HETATM    1  C1  UNL     1     -32.868   5.142   2.692  1.00 20.00     0.014 C 
HETATM    2  C2  UNL     1     -33.523   5.582   3.597  1.00 20.00    -0.091 C 
HETATM    3  C4  UNL     1     -35.811   6.146   4.296  1.00 20.00     0.046 C 
HETATM    4  C6  UNL     1     -34.333   6.124   4.704  1.00 20.00     0.095 C 
HETATM    5 CL7  UNL     1     -34.157   4.997   6.091  1.00 20.00    -0.105 Cl
ENDROOT
BRANCH   4   6
HETATM    6  C5  UNL     1     -33.879   7.546   5.097  1.00 20.00     0.034 C 
HETATM    7  C3  UNL     1     -32.570   8.020   4.471  1.00 20.00     0.008 C 
ENDBRANCH   4   6
TORSDOF 1
ENDMDL
MODEL 3
REMARK VINA RESULT:      -3.8      1.642      2.596
REMARK  1 active torsions:
REMARK  status: ('A' for Active; 'I' for Inactive)
REMARK    1  A    between atoms: C5_5  and  C6_6 
ROOT
HETATM    1  C1  UNL     1     -32.579   7.462   3.561  1.00 20.00     0.014 C 
HETATM    2  C2  UNL     1     -33.371   6.721   4.077  1.00 20.00    -0.091 C 
HETATM    3  C4  UNL     1     -35.748   6.098   4.147  1.00 20.00     0.046 C 
HETATM    4  C6  UNL     1     -34.350   5.817   4.709  1.00 20.00     0.095 C 
HETATM    5 CL7  UNL     1     -33.895   4.141   4.252  1.00 20.00    -0.105 Cl
ENDROOT
BRANCH   4   6
HETATM    6  C5  UNL     1     -34.362   5.977   6.244  1.00 20.00     0.034 C 
HETATM    7  C3  UNL     1     -34.100   7.388   6.766  1.00 20.00     0.008 C 
ENDBRANCH   4   6
TORSDOF 1
ENDMDL
MODEL 4
REMARK VINA RESULT:      -3.5      1.113      1.229
REMARK  1 active torsions:
REMARK  status: ('A' for Active; 'I' for Inactive)
REMARK    1  A    between atoms: C5_5  and  C6_6 
ROOT
HETATM    1  C1  UNL     1     -33.896   7.574   6.613  1.00 20.00     0.014 C 
HETATM    2  C2  UNL     1     -34.069   6.836   5.682  1.00 20.00    -0.091 C 
HETATM    3  C4  UNL     1     -34.087   4.474   5.001  1.00 20.00     0.046 C 
HETATM    4  C6  UNL     1     -34.278   5.924   4.542  1.00 20.00     0.095 C 
HETATM    5 CL7  UNL     1     -35.982   6.118   4.012  1.00 20.00    -0.105 Cl
ENDROOT
BRANCH   4   6
HETATM    6  C5  UNL     1     -33.309   6.235   3.381  1.00 20.00     0.034 C 
HETATM    7  C3  UNL     1     -32.923   5.047   2.502  1.00 20.00     0.008 C 
ENDBRANCH   4   6
TORSDOF 1
ENDMDL
MODEL 5
REMARK VINA RESULT:      -3.4      1.286      3.032
REMARK  1 active torsions:
REMARK  status: ('A' for Active; 'I' for Inactive)
REMARK    1  A    between atoms: C5_5  and  C6_6 
ROOT
HETATM    1  C1  UNL     1     -32.977   5.496   2.863  1.00 20.00     0.014 C 
HETATM    2  C2  UNL     1     -33.154   6.358   3.680  1.00 20.00    -0.091 C 
HETATM    3  C4  UNL     1     -32.173   8.384   4.667  1.00 20.00     0.046 C 
HETATM    4  C6  UNL     1     -33.363   7.418   4.683  1.00 20.00     0.095 C 
HETATM    5 CL7  UNL     1     -34.827   8.334   4.190  1.00 20.00    -0.105 Cl
ENDROOT
BRANCH   4   6
HETATM    6  C5  UNL     1     -33.540   6.833   6.100  1.00 20.00     0.034 C 
HETATM    7  C3  UNL     1     -34.571   5.714   6.231  1.00 20.00     0.008 C 
ENDBRANCH   4   6
TORSDOF 1
ENDMDL
MODEL 6
REMARK VINA RESULT:      -3.3      9.365     10.079
REMARK  1 active torsions:
REMARK  status: ('A' for Active; 'I' for Inactive)
REMARK    1  A    between atoms: C5_5  and  C6_6 
ROOT
HETATM    1  C1  UNL     1     -43.283  11.982   7.328  1.00 20.00     0.014 C 
HETATM    2  C2  UNL     1     -42.276  12.412   6.836  1.00 20.00    -0.091 C 
HETATM    3  C4  UNL     1     -41.382  13.649   4.910  1.00 20.00     0.046 C 
HETATM    4  C6  UNL     1     -41.042  12.941   6.226  1.00 20.00     0.095 C 
HETATM    5 CL7  UNL     1     -40.372  14.164   7.357  1.00 20.00    -0.105 Cl
ENDROOT
BRANCH   4   6
HETATM    6  C5  UNL     1     -40.012  11.821   5.965  1.00 20.00     0.034 C 
HETATM    7  C3  UNL     1     -39.350  11.836   4.589  1.00 20.00     0.008 C 
ENDBRANCH   4   6
TORSDOF 1
ENDMDL
MODEL 7
REMARK VINA RESULT:      -3.3     16.841     17.161
REMARK  1 active torsions:
REMARK  status: ('A' for Active; 'I' for Inactive)
REMARK    1  A    between atoms: C5_5  and  C6_6 
ROOT
HETATM    1  C1  UNL     1     -26.014  19.263  12.147  1.00 20.00     0.014 C 
HETATM    2  C2  UNL     1     -25.015  18.701  11.789  1.00 20.00    -0.091 C 
HETATM    3  C4  UNL     1     -22.645  18.337  12.330  1.00 20.00     0.046 C 
HETATM    4  C6  UNL     1     -23.783  18.016  11.355  1.00 20.00     0.095 C 
HETATM    5 CL7  UNL     1     -24.101  16.251  11.435  1.00 20.00    -0.105 Cl
ENDROOT
BRANCH   4   6
HETATM    6  C5  UNL     1     -23.377  18.431   9.924  1.00 20.00     0.034 C 
HETATM    7  C3  UNL     1     -22.424  17.480   9.204  1.00 20.00     0.008 C 
ENDBRANCH   4   6
TORSDOF 1
ENDMDL
MODEL 8
REMARK VINA RESULT:      -3.3      9.251      9.910
REMARK  1 active torsions:
REMARK  status: ('A' for Active; 'I' for Inactive)
REMARK    1  A    between atoms: C5_5  and  C6_6 
ROOT
HETATM    1  C1  UNL     1     -40.343  15.236   7.735  1.00 20.00     0.014 C 
HETATM    2  C2  UNL     1     -40.632  14.298   7.042  1.00 20.00    -0.091 C 
HETATM    3  C4  UNL     1     -42.211  12.432   6.791  1.00 20.00     0.046 C 
HETATM    4  C6  UNL     1     -40.990  13.144   6.198  1.00 20.00     0.095 C 
HETATM    5 CL7  UNL     1     -41.453  13.788   4.587  1.00 20.00    -0.105 Cl
ENDROOT
BRANCH   4   6
HETATM    6  C5  UNL     1     -39.818  12.149   6.069  1.00 20.00     0.034 C 
HETATM    7  C3  UNL     1     -39.384  11.816   4.643  1.00 20.00     0.008 C 
ENDBRANCH   4   6
TORSDOF 1
ENDMDL
MODEL 9
REMARK VINA RESULT:      -3.3     16.271     17.161
REMARK  1 active torsions:
REMARK  status: ('A' for Active; 'I' for Inactive)
REMARK    1  A    between atoms: C5_5  and  C6_6 
ROOT
HETATM    1  C1  UNL     1     -24.488  16.227  11.637  1.00 20.00     0.014 C 
HETATM    2  C2  UNL     1     -23.834  16.974  10.962  1.00 20.00    -0.091 C 
HETATM    3  C4  UNL     1     -23.938  19.009   9.587  1.00 20.00     0.046 C 
HETATM    4  C6  UNL     1     -23.037  17.895  10.131  1.00 20.00     0.095 C 
HETATM    5 CL7  UNL     1     -21.808  18.649  11.202  1.00 20.00    -0.105 Cl
ENDROOT
BRANCH   4   6
HETATM    6  C5  UNL     1     -22.356  17.156   8.958  1.00 20.00     0.034 C 
HETATM    7  C3  UNL     1     -21.674  18.046   7.921  1.00 20.00     0.008 C 
ENDBRANCH   4   6
TORSDOF 1
ENDMDL
