MODEL 1
REMARK VINA RESULT:      -3.2      0.000      0.000
REMARK  0 active torsions:
REMARK  status: ('A' for Active; 'I' for Inactive)
ROOT
HETATM    1  C1  UNL     1     -34.147  16.082  -4.710  1.00 20.00    -0.080 C 
HETATM    2  C2  UNL     1     -33.535  16.174  -3.525  1.00 20.00     0.015 C 
HETATM    3  C3  UNL     1     -33.909  14.976  -5.715  1.00 20.00     0.039 C 
HETATM    4  C4  UNL     1     -34.278  16.666  -7.506  1.00 20.00     0.007 C 
HETATM    5  C5  UNL     1     -34.507  17.761  -6.444  1.00 20.00     0.015 C 
HETATM    6  C6  UNL     1     -34.881  15.405  -6.838  1.00 20.00    -0.002 C 
HETATM    7  C7  UNL     1     -35.226  16.997  -5.300  1.00 20.00    -0.014 C 
HETATM    8  C8  UNL     1     -36.108  15.964  -6.066  1.00 20.00    -0.033 C 
HETATM    9  C9  UNL     1     -35.955  17.916  -4.334  1.00 20.00     0.021 C 
HETATM   10  C10 UNL     1     -37.194  16.568  -6.980  1.00 20.00     0.016 C 
HETATM   11  C11 UNL     1     -36.824  14.926  -5.175  1.00 20.00     0.016 C 
ENDROOT
TORSDOF 0
ENDMDL
MODEL 2
REMARK VINA RESULT:      -3.1     13.197     14.589
REMARK  0 active torsions:
REMARK  status: ('A' for Active; 'I' for Inactive)
ROOT
HETATM    1  C1  UNL     1     -40.777  13.579   6.220  1.00 20.00    -0.080 C 
HETATM    2  C2  UNL     1     -39.680  12.854   5.977  1.00 20.00     0.015 C 
HETATM    3  C3  UNL     1     -41.949  13.706   5.270  1.00 20.00     0.039 C 
HETATM    4  C4  UNL     1     -42.223  16.043   6.085  1.00 20.00     0.007 C 
HETATM    5  C5  UNL     1     -41.017  15.867   7.032  1.00 20.00     0.015 C 
HETATM    6  C6  UNL     1     -42.872  14.636   6.090  1.00 20.00    -0.002 C 
HETATM    7  C7  UNL     1     -41.130  14.384   7.475  1.00 20.00    -0.014 C 
HETATM    8  C8  UNL     1     -42.670  14.156   7.554  1.00 20.00    -0.033 C 
HETATM    9  C9  UNL     1     -40.341  14.077   8.737  1.00 20.00     0.021 C 
HETATM   10  C10 UNL     1     -43.415  15.014   8.597  1.00 20.00     0.016 C 
HETATM   11  C11 UNL     1     -43.104  12.696   7.808  1.00 20.00     0.016 C 
ENDROOT
TORSDOF 0
ENDMDL
MODEL 3
REMARK VINA RESULT:      -3.0      1.007      2.730
REMARK  0 active torsions:
REMARK  status: ('A' for Active; 'I' for Inactive)
ROOT
HETATM    1  C1  UNL     1     -36.361  16.821  -5.054  1.00 20.00    -0.080 C 
HETATM    2  C2  UNL     1     -37.079  17.835  -4.560  1.00 20.00     0.015 C 
HETATM    3  C3  UNL     1     -36.860  15.396  -5.175  1.00 20.00     0.039 C 
HETATM    4  C4  UNL     1     -34.530  14.652  -4.702  1.00 20.00     0.007 C 
HETATM    5  C5  UNL     1     -34.072  16.120  -4.581  1.00 20.00     0.015 C 
HETATM    6  C6  UNL     1     -35.619  14.720  -5.802  1.00 20.00    -0.002 C 
HETATM    7  C7  UNL     1     -34.945  16.849  -5.637  1.00 20.00    -0.014 C 
HETATM    8  C8  UNL     1     -35.070  15.796  -6.779  1.00 20.00    -0.033 C 
HETATM    9  C9  UNL     1     -34.390  18.207  -6.034  1.00 20.00     0.021 C 
HETATM   10  C10 UNL     1     -33.745  15.397  -7.462  1.00 20.00     0.016 C 
HETATM   11  C11 UNL     1     -36.043  16.175  -7.917  1.00 20.00     0.016 C 
ENDROOT
TORSDOF 0
ENDMDL
MODEL 4
REMARK VINA RESULT:      -3.0      1.010      2.881
REMARK  0 active torsions:
REMARK  status: ('A' for Active; 'I' for Inactive)
ROOT
HETATM    1  C1  UNL     1     -34.466  16.599  -4.534  1.00 20.00    -0.080 C 
HETATM    2  C2  UNL     1     -33.456  16.136  -3.790  1.00 20.00     0.015 C 
HETATM    3  C3  UNL     1     -35.326  17.790  -4.167  1.00 20.00     0.039 C 
HETATM    4  C4  UNL     1     -37.233  16.615  -5.257  1.00 20.00     0.007 C 
HETATM    5  C5  UNL     1     -36.318  15.422  -5.602  1.00 20.00     0.015 C 
HETATM    6  C6  UNL     1     -36.279  17.830  -5.384  1.00 20.00    -0.002 C 
HETATM    7  C7  UNL     1     -34.953  16.099  -5.898  1.00 20.00    -0.014 C 
HETATM    8  C8  UNL     1     -35.366  17.440  -6.579  1.00 20.00    -0.033 C 
HETATM    9  C9  UNL     1     -34.005  15.211  -6.687  1.00 20.00     0.021 C 
HETATM   10  C10 UNL     1     -36.119  17.301  -7.917  1.00 20.00     0.016 C 
HETATM   11  C11 UNL     1     -34.206  18.427  -6.838  1.00 20.00     0.016 C 
ENDROOT
TORSDOF 0
ENDMDL
MODEL 5
REMARK VINA RESULT:      -3.0      0.969      2.552
REMARK  0 active torsions:
REMARK  status: ('A' for Active; 'I' for Inactive)
ROOT
HETATM    1  C1  UNL     1     -35.700  14.800  -5.425  1.00 20.00    -0.080 C 
HETATM    2  C2  UNL     1     -35.950  13.739  -4.651  1.00 20.00     0.015 C 
HETATM    3  C3  UNL     1     -36.652  15.344  -6.469  1.00 20.00     0.039 C 
HETATM    4  C4  UNL     1     -34.654  15.948  -7.826  1.00 20.00     0.007 C 
HETATM    5  C5  UNL     1     -33.725  15.375  -6.737  1.00 20.00     0.015 C 
HETATM    6  C6  UNL     1     -35.827  16.537  -7.004  1.00 20.00    -0.002 C 
HETATM    7  C7  UNL     1     -34.472  15.717  -5.421  1.00 20.00    -0.014 C 
HETATM    8  C8  UNL     1     -35.126  17.096  -5.735  1.00 20.00    -0.033 C 
HETATM    9  C9  UNL     1     -33.575  15.663  -4.195  1.00 20.00     0.021 C 
HETATM   10  C10 UNL     1     -34.141  18.247  -6.026  1.00 20.00     0.016 C 
HETATM   11  C11 UNL     1     -36.096  17.623  -4.654  1.00 20.00     0.016 C 
ENDROOT
TORSDOF 0
ENDMDL
MODEL 6
REMARK VINA RESULT:      -2.9     13.007     14.471
REMARK  0 active torsions:
REMARK  status: ('A' for Active; 'I' for Inactive)
ROOT
HETATM    1  C1  UNL     1     -41.382  15.644   6.721  1.00 20.00    -0.080 C 
HETATM    2  C2  UNL     1     -41.485  16.943   6.422  1.00 20.00     0.015 C 
HETATM    3  C3  UNL     1     -40.477  15.079   7.795  1.00 20.00     0.039 C 
HETATM    4  C4  UNL     1     -40.171  13.082   6.340  1.00 20.00     0.007 C 
HETATM    5  C5  UNL     1     -41.095  13.702   5.272  1.00 20.00     0.015 C 
HETATM    6  C6  UNL     1     -40.800  13.572   7.668  1.00 20.00    -0.002 C 
HETATM    7  C7  UNL     1     -42.150  14.462   6.118  1.00 20.00    -0.014 C 
HETATM    8  C8  UNL     1     -42.324  13.549   7.369  1.00 20.00    -0.033 C 
HETATM    9  C9  UNL     1     -43.416  14.787   5.342  1.00 20.00     0.021 C 
HETATM   10  C10 UNL     1     -42.880  12.138   7.088  1.00 20.00     0.016 C 
HETATM   11  C11 UNL     1     -43.201  14.140   8.495  1.00 20.00     0.016 C 
ENDROOT
TORSDOF 0
ENDMDL
MODEL 7
REMARK VINA RESULT:      -2.9     13.224     14.764
REMARK  0 active torsions:
REMARK  status: ('A' for Active; 'I' for Inactive)
ROOT
HETATM    1  C1  UNL     1     -40.620  13.481   6.716  1.00 20.00    -0.080 C 
HETATM    2  C2  UNL     1     -39.708  12.874   5.950  1.00 20.00     0.015 C 
HETATM    3  C3  UNL     1     -40.449  13.759   8.195  1.00 20.00     0.039 C 
HETATM    4  C4  UNL     1     -42.898  13.381   8.442  1.00 20.00     0.007 C 
HETATM    5  C5  UNL     1     -43.020  13.099   6.930  1.00 20.00     0.015 C 
HETATM    6  C6  UNL     1     -41.791  14.464   8.502  1.00 20.00    -0.002 C 
HETATM    7  C7  UNL     1     -41.977  14.063   6.306  1.00 20.00    -0.014 C 
HETATM    8  C8  UNL     1     -42.058  15.316   7.231  1.00 20.00    -0.033 C 
HETATM    9  C9  UNL     1     -42.202  14.308   4.823  1.00 20.00     0.021 C 
HETATM   10  C10 UNL     1     -43.417  16.044   7.245  1.00 20.00     0.016 C 
HETATM   11  C11 UNL     1     -40.992  16.401   6.959  1.00 20.00     0.016 C 
ENDROOT
TORSDOF 0
ENDMDL
MODEL 8
REMARK VINA RESULT:      -2.9     13.555     14.910
REMARK  0 active torsions:
REMARK  status: ('A' for Active; 'I' for Inactive)
ROOT
HETATM    1  C1  UNL     1     -41.524  14.109   8.761  1.00 20.00    -0.080 C 
HETATM    2  C2  UNL     1     -41.057  14.380   9.985  1.00 20.00     0.015 C 
HETATM    3  C3  UNL     1     -42.690  13.187   8.472  1.00 20.00     0.039 C 
HETATM    4  C4  UNL     1     -41.514  12.528   6.378  1.00 20.00     0.007 C 
HETATM    5  C5  UNL     1     -40.346  13.476   6.720  1.00 20.00     0.015 C 
HETATM    6  C6  UNL     1     -42.747  13.286   6.930  1.00 20.00    -0.002 C 
HETATM    7  C7  UNL     1     -41.054  14.670   7.415  1.00 20.00    -0.014 C 
HETATM    8  C8  UNL     1     -42.405  14.775   6.645  1.00 20.00    -0.033 C 
HETATM    9  C9  UNL     1     -40.202  15.929   7.451  1.00 20.00     0.021 C 
HETATM   10  C10 UNL     1     -42.290  15.109   5.144  1.00 20.00     0.016 C 
HETATM   11  C11 UNL     1     -43.417  15.782   7.234  1.00 20.00     0.016 C 
ENDROOT
TORSDOF 0
ENDMDL
MODEL 9
REMARK VINA RESULT:      -2.9     13.794     15.194
REMARK  0 active torsions:
REMARK  status: ('A' for Active; 'I' for Inactive)
ROOT
HETATM    1  C1  UNL     1     -41.343  14.453   9.130  1.00 20.00    -0.080 C 
HETATM    2  C2  UNL     1     -41.365  13.966  10.374  1.00 20.00     0.015 C 
HETATM    3  C3  UNL     1     -40.309  15.430   8.609  1.00 20.00     0.039 C 
HETATM    4  C4  UNL     1     -42.108  16.425   7.205  1.00 20.00     0.007 C 
HETATM    5  C5  UNL     1     -43.127  15.414   7.770  1.00 20.00     0.015 C 
HETATM    6  C6  UNL     1     -40.797  15.602   7.152  1.00 20.00    -0.002 C 
HETATM    7  C7  UNL     1     -42.278  14.128   7.960  1.00 20.00    -0.014 C 
HETATM    8  C8  UNL     1     -41.286  14.180   6.759  1.00 20.00    -0.033 C 
HETATM    9  C9  UNL     1     -43.121  12.869   8.080  1.00 20.00     0.021 C 
HETATM   10  C10 UNL     1     -41.933  14.111   5.361  1.00 20.00     0.016 C 
HETATM   11  C11 UNL     1     -40.180  13.102   6.776  1.00 20.00     0.016 C 
ENDROOT
TORSDOF 0
ENDMDL
