MODEL 1
REMARK VINA RESULT:      -3.7      0.000      0.000
REMARK  2 active torsions:
REMARK  status: ('A' for Active; 'I' for Inactive)
REMARK    1  A    between atoms: C1_1  and  C7_7 
REMARK    2  A    between atoms: C7_7  and  S10_10 
ROOT
HETATM    1  C1  UNL     1     -35.010  15.829  -5.810  1.00 20.00     0.009 A 
HETATM    2  C2  UNL     1     -34.877  16.052  -7.191  1.00 20.00     0.068 A 
HETATM    3  C3  UNL     1     -35.684  14.640  -5.735  1.00 20.00     0.084 A 
HETATM    4  C4  UNL     1     -34.230  17.188  -7.869  1.00 20.00     0.073 C 
HETATM    5  C5  UNL     1     -36.162  13.805  -4.625  1.00 20.00     0.079 C 
HETATM    6  N8  UNL     1     -35.426  15.075  -7.918  1.00 20.00    -0.133 NA
HETATM    7  O9  UNL     1     -35.938  14.179  -6.986  1.00 20.00    -0.217 OA
ENDROOT
BRANCH   1   8
HETATM    8  C7  UNL     1     -34.528  16.691  -4.675  1.00 20.00     0.116 C 
BRANCH   8   9
HETATM    9  S10 UNL     1     -33.279  15.857  -3.669  1.00 20.00    -0.169 SA
HETATM   10  C6  UNL     1     -33.337  16.937  -2.218  1.00 20.00     0.090 C 
ENDBRANCH   8   9
ENDBRANCH   1   8
TORSDOF 2
ENDMDL
MODEL 2
REMARK VINA RESULT:      -3.6      0.633      2.547
REMARK  2 active torsions:
REMARK  status: ('A' for Active; 'I' for Inactive)
REMARK    1  A    between atoms: C1_1  and  C7_7 
REMARK    2  A    between atoms: C7_7  and  S10_10 
ROOT
HETATM    1  C1  UNL     1     -35.040  15.911  -5.819  1.00 20.00     0.009 A 
HETATM    2  C2  UNL     1     -35.726  14.685  -5.856  1.00 20.00     0.068 A 
HETATM    3  C3  UNL     1     -34.839  16.212  -7.139  1.00 20.00     0.084 A 
HETATM    4  C4  UNL     1     -36.205  13.879  -4.721  1.00 20.00     0.073 C 
HETATM    5  C5  UNL     1     -34.198  17.329  -7.846  1.00 20.00     0.079 C 
HETATM    6  N8  UNL     1     -35.935  14.258  -7.105  1.00 20.00    -0.133 NA
HETATM    7  O9  UNL     1     -35.369  15.234  -7.917  1.00 20.00    -0.217 OA
ENDROOT
BRANCH   1   8
HETATM    8  C7  UNL     1     -34.622  16.710  -4.615  1.00 20.00     0.116 C 
BRANCH   8   9
HETATM    9  S10 UNL     1     -33.302  15.900  -3.684  1.00 20.00    -0.169 SA
HETATM   10  C6  UNL     1     -33.399  16.881  -2.168  1.00 20.00     0.090 C 
ENDBRANCH   8   9
ENDBRANCH   1   8
TORSDOF 2
ENDMDL
MODEL 3
REMARK VINA RESULT:      -3.5     12.995     13.495
REMARK  2 active torsions:
REMARK  status: ('A' for Active; 'I' for Inactive)
REMARK    1  A    between atoms: C1_1  and  C7_7 
REMARK    2  A    between atoms: C7_7  and  S10_10 
ROOT
HETATM    1  C1  UNL     1     -41.490  13.614   6.112  1.00 20.00     0.009 A 
HETATM    2  C2  UNL     1     -42.121  14.315   5.069  1.00 20.00     0.068 A 
HETATM    3  C3  UNL     1     -40.549  12.854   5.471  1.00 20.00     0.084 A 
HETATM    4  C4  UNL     1     -43.222  15.287   5.166  1.00 20.00     0.073 C 
HETATM    5  C5  UNL     1     -39.536  11.890   5.920  1.00 20.00     0.079 C 
HETATM    6  N8  UNL     1     -41.610  14.012   3.872  1.00 20.00    -0.133 NA
HETATM    7  O9  UNL     1     -40.610  13.082   4.134  1.00 20.00    -0.217 OA
ENDROOT
BRANCH   1   8
HETATM    8  C7  UNL     1     -41.777  13.680   7.587  1.00 20.00     0.116 C 
BRANCH   8   9
HETATM    9  S10 UNL     1     -40.439  14.474   8.507  1.00 20.00    -0.169 SA
HETATM   10  C6  UNL     1     -40.611  16.147   7.841  1.00 20.00     0.090 C 
ENDBRANCH   8   9
ENDBRANCH   1   8
TORSDOF 2
ENDMDL
MODEL 4
REMARK VINA RESULT:      -3.4     12.940     13.498
REMARK  2 active torsions:
REMARK  status: ('A' for Active; 'I' for Inactive)
REMARK    1  A    between atoms: C1_1  and  C7_7 
REMARK    2  A    between atoms: C7_7  and  S10_10 
ROOT
HETATM    1  C1  UNL     1     -41.377  13.535   6.072  1.00 20.00     0.009 A 
HETATM    2  C2  UNL     1     -40.384  12.748   5.463  1.00 20.00     0.068 A 
HETATM    3  C3  UNL     1     -41.974  14.177   5.021  1.00 20.00     0.084 A 
HETATM    4  C4  UNL     1     -39.423  11.840   6.109  1.00 20.00     0.073 C 
HETATM    5  C5  UNL     1     -43.075  15.143   4.908  1.00 20.00     0.079 C 
HETATM    6  N8  UNL     1     -40.367  12.892   4.135  1.00 20.00    -0.133 NA
HETATM    7  O9  UNL     1     -41.381  13.803   3.859  1.00 20.00    -0.217 OA
ENDROOT
BRANCH   1   8
HETATM    8  C7  UNL     1     -41.709  13.648   7.535  1.00 20.00     0.116 C 
BRANCH   8   9
HETATM    9  S10 UNL     1     -40.428  14.525   8.460  1.00 20.00    -0.169 SA
HETATM   10  C6  UNL     1     -40.698  16.183   7.790  1.00 20.00     0.090 C 
ENDBRANCH   8   9
ENDBRANCH   1   8
TORSDOF 2
ENDMDL
MODEL 5
REMARK VINA RESULT:      -3.3      2.454      3.439
REMARK  2 active torsions:
REMARK  status: ('A' for Active; 'I' for Inactive)
REMARK    1  A    between atoms: C1_1  and  C7_7 
REMARK    2  A    between atoms: C7_7  and  S10_10 
ROOT
HETATM    1  C1  UNL     1     -34.375  16.734  -4.896  1.00 20.00     0.009 A 
HETATM    2  C2  UNL     1     -33.682  16.114  -3.842  1.00 20.00     0.068 A 
HETATM    3  C3  UNL     1     -34.411  15.774  -5.872  1.00 20.00     0.084 A 
HETATM    4  C4  UNL     1     -33.343  16.676  -2.524  1.00 20.00     0.073 C 
HETATM    5  C5  UNL     1     -34.968  15.720  -7.230  1.00 20.00     0.079 C 
HETATM    6  N8  UNL     1     -33.316  14.864  -4.141  1.00 20.00    -0.133 NA
HETATM    7  O9  UNL     1     -33.782  14.653  -5.434  1.00 20.00    -0.217 OA
ENDROOT
BRANCH   1   8
HETATM    8  C7  UNL     1     -34.946  18.125  -4.946  1.00 20.00     0.116 C 
BRANCH   8   9
HETATM    9  S10 UNL     1     -36.663  18.178  -4.387  1.00 20.00    -0.169 SA
HETATM   10  C6  UNL     1     -36.392  18.899  -2.750  1.00 20.00     0.090 C 
ENDBRANCH   8   9
ENDBRANCH   1   8
TORSDOF 2
ENDMDL
MODEL 6
REMARK VINA RESULT:      -3.3      1.525      1.557
REMARK  2 active torsions:
REMARK  status: ('A' for Active; 'I' for Inactive)
REMARK    1  A    between atoms: C1_1  and  C7_7 
REMARK    2  A    between atoms: C7_7  and  S10_10 
ROOT
HETATM    1  C1  UNL     1     -34.558  16.667  -5.390  1.00 20.00     0.009 A 
HETATM    2  C2  UNL     1     -34.594  16.960  -6.764  1.00 20.00     0.068 A 
HETATM    3  C3  UNL     1     -34.229  15.339  -5.349  1.00 20.00     0.084 A 
HETATM    4  C4  UNL     1     -34.897  18.248  -7.410  1.00 20.00     0.073 C 
HETATM    5  C5  UNL     1     -34.017  14.373  -4.263  1.00 20.00     0.079 C 
HETATM    6  N8  UNL     1     -34.307  15.895  -7.518  1.00 20.00    -0.133 NA
HETATM    7  O9  UNL     1     -34.076  14.866  -6.612  1.00 20.00    -0.217 OA
ENDROOT
BRANCH   1   8
HETATM    8  C7  UNL     1     -34.820  17.590  -4.232  1.00 20.00     0.116 C 
BRANCH   8   9
HETATM    9  S10 UNL     1     -33.296  18.085  -3.396  1.00 20.00    -0.169 SA
HETATM   10  C6  UNL     1     -33.506  17.137  -1.870  1.00 20.00     0.090 C 
ENDBRANCH   8   9
ENDBRANCH   1   8
TORSDOF 2
ENDMDL
MODEL 7
REMARK VINA RESULT:      -3.3      2.524      3.246
REMARK  2 active torsions:
REMARK  status: ('A' for Active; 'I' for Inactive)
REMARK    1  A    between atoms: C1_1  and  C7_7 
REMARK    2  A    between atoms: C7_7  and  S10_10 
ROOT
HETATM    1  C1  UNL     1     -34.343  16.851  -4.697  1.00 20.00     0.009 A 
HETATM    2  C2  UNL     1     -34.351  15.794  -5.624  1.00 20.00     0.068 A 
HETATM    3  C3  UNL     1     -33.675  16.334  -3.620  1.00 20.00     0.084 A 
HETATM    4  C4  UNL     1     -34.938  15.776  -6.974  1.00 20.00     0.073 C 
HETATM    5  C5  UNL     1     -33.296  16.864  -2.303  1.00 20.00     0.079 C 
HETATM    6  N8  UNL     1     -33.735  14.705  -5.157  1.00 20.00    -0.133 NA
HETATM    7  O9  UNL     1     -33.307  15.054  -3.881  1.00 20.00    -0.217 OA
ENDROOT
BRANCH   1   8
HETATM    8  C7  UNL     1     -34.928  18.228  -4.847  1.00 20.00     0.116 C 
BRANCH   8   9
HETATM    9  S10 UNL     1     -36.664  18.289  -4.348  1.00 20.00    -0.169 SA
HETATM   10  C6  UNL     1     -36.441  18.945  -2.677  1.00 20.00     0.090 C 
ENDBRANCH   8   9
ENDBRANCH   1   8
TORSDOF 2
ENDMDL
MODEL 8
REMARK VINA RESULT:      -3.2     25.101     25.697
REMARK  2 active torsions:
REMARK  status: ('A' for Active; 'I' for Inactive)
REMARK    1  A    between atoms: C1_1  and  C7_7 
REMARK    2  A    between atoms: C7_7  and  S10_10 
ROOT
HETATM    1  C1  UNL     1     -27.465  -2.266  10.645  1.00 20.00     0.009 A 
HETATM    2  C2  UNL     1     -28.765  -2.785  10.528  1.00 20.00     0.068 A 
HETATM    3  C3  UNL     1     -27.647  -1.070  11.287  1.00 20.00     0.084 A 
HETATM    4  C4  UNL     1     -29.183  -4.057   9.917  1.00 20.00     0.073 C 
HETATM    5  C5  UNL     1     -26.743  -0.003  11.734  1.00 20.00     0.079 C 
HETATM    6  N8  UNL     1     -29.685  -1.973  11.058  1.00 20.00    -0.133 NA
HETATM    7  O9  UNL     1     -28.968  -0.884  11.539  1.00 20.00    -0.217 OA
ENDROOT
BRANCH   1   8
HETATM    8  C7  UNL     1     -26.171  -2.875  10.176  1.00 20.00     0.116 C 
BRANCH   8   9
HETATM    9  S10 UNL     1     -25.203  -3.554  11.543  1.00 20.00    -0.169 SA
HETATM   10  C6  UNL     1     -23.831  -2.376  11.512  1.00 20.00     0.090 C 
ENDBRANCH   8   9
ENDBRANCH   1   8
TORSDOF 2
ENDMDL
MODEL 9
REMARK VINA RESULT:      -3.2     12.936     13.881
REMARK  2 active torsions:
REMARK  status: ('A' for Active; 'I' for Inactive)
REMARK    1  A    between atoms: C1_1  and  C7_7 
REMARK    2  A    between atoms: C7_7  and  S10_10 
ROOT
HETATM    1  C1  UNL     1     -40.830  13.496   5.776  1.00 20.00     0.009 A 
HETATM    2  C2  UNL     1     -39.903  12.440   5.726  1.00 20.00     0.068 A 
HETATM    3  C3  UNL     1     -40.830  13.866   7.094  1.00 20.00     0.084 A 
HETATM    4  C4  UNL     1     -39.492  11.649   4.554  1.00 20.00     0.073 C 
HETATM    5  C5  UNL     1     -41.546  14.890   7.867  1.00 20.00     0.079 C 
HETATM    6  N8  UNL     1     -39.369  12.176   6.921  1.00 20.00    -0.133 NA
HETATM    7  O9  UNL     1     -39.962  13.087   7.789  1.00 20.00    -0.217 OA
ENDROOT
BRANCH   1   8
HETATM    8  C7  UNL     1     -41.635  14.085   4.651  1.00 20.00     0.116 C 
BRANCH   8   9
HETATM    9  S10 UNL     1     -43.358  14.366   5.120  1.00 20.00    -0.169 SA
HETATM   10  C6  UNL     1     -43.417  16.156   4.869  1.00 20.00     0.090 C 
ENDBRANCH   8   9
ENDBRANCH   1   8
TORSDOF 2
ENDMDL
