MODEL 1
REMARK VINA RESULT:      -6.3      0.000      0.000
REMARK  1 active torsions:
REMARK  status: ('A' for Active; 'I' for Inactive)
REMARK    1  A    between atoms: C4_4  and  C7_7 
ROOT
HETATM    1  C1  UNL     1     -32.501   8.606   3.794  1.00 20.00     0.015 A 
HETATM    2  C2  UNL     1     -33.062   8.315   5.038  1.00 20.00     0.008 A 
HETATM    3  C3  UNL     1     -33.063   6.385   2.970  1.00 20.00     0.022 A 
HETATM    4  C4  UNL     1     -32.502   7.648   2.767  1.00 20.00     0.002 A 
HETATM    5  C5  UNL     1     -33.627   7.066   5.228  1.00 20.00    -0.052 A 
HETATM    6  C6  UNL     1     -33.628   6.111   4.205  1.00 20.00    -0.051 A 
HETATM    7  C8  UNL     1     -34.248   6.513   6.472  1.00 20.00     0.039 C 
HETATM    8  C9  UNL     1     -34.247   4.831   4.670  1.00 20.00     0.039 C 
HETATM    9  C10 UNL     1     -35.016   5.307   5.911  1.00 20.00     0.009 C 
ENDROOT
BRANCH   4  10
HETATM   10  C7  UNL     1     -31.905   7.972   1.481  1.00 20.00     0.269 C 
HETATM   11  O11 UNL     1     -32.410   8.768   0.684  1.00 20.00    -0.301 OA
ENDBRANCH   4  10
TORSDOF 1
ENDMDL
MODEL 2
REMARK VINA RESULT:      -5.6      0.702      1.972
REMARK  1 active torsions:
REMARK  status: ('A' for Active; 'I' for Inactive)
REMARK    1  A    between atoms: C4_4  and  C7_7 
ROOT
HETATM    1  C1  UNL     1     -32.794   5.991   2.315  1.00 20.00     0.015 A 
HETATM    2  C2  UNL     1     -33.489   5.182   3.216  1.00 20.00     0.008 A 
HETATM    3  C3  UNL     1     -32.931   7.886   3.836  1.00 20.00     0.022 A 
HETATM    4  C4  UNL     1     -32.516   7.332   2.623  1.00 20.00     0.002 A 
HETATM    5  C5  UNL     1     -33.885   5.735   4.423  1.00 20.00    -0.052 A 
HETATM    6  C6  UNL     1     -33.608   7.072   4.729  1.00 20.00    -0.051 A 
HETATM    7  C8  UNL     1     -34.667   5.087   5.522  1.00 20.00     0.039 C 
HETATM    8  C9  UNL     1     -34.181   7.443   6.061  1.00 20.00     0.039 C 
HETATM    9  C10 UNL     1     -34.407   6.057   6.684  1.00 20.00     0.009 C 
ENDROOT
BRANCH   4  10
HETATM   10  C7  UNL     1     -31.797   8.156   1.664  1.00 20.00     0.269 C 
HETATM   11  O11 UNL     1     -32.325   8.637   0.658  1.00 20.00    -0.301 OA
ENDBRANCH   4  10
TORSDOF 1
ENDMDL
MODEL 3
REMARK VINA RESULT:      -4.5     11.534     12.955
REMARK  1 active torsions:
REMARK  status: ('A' for Active; 'I' for Inactive)
REMARK    1  A    between atoms: C4_4  and  C7_7 
ROOT
HETATM    1  C1  UNL     1     -33.090  19.023  -3.076  1.00 20.00     0.015 A 
HETATM    2  C2  UNL     1     -33.681  18.610  -4.271  1.00 20.00     0.008 A 
HETATM    3  C3  UNL     1     -33.004  16.728  -2.270  1.00 20.00     0.022 A 
HETATM    4  C4  UNL     1     -32.753  18.089  -2.083  1.00 20.00     0.002 A 
HETATM    5  C5  UNL     1     -33.914  17.257  -4.455  1.00 20.00    -0.052 A 
HETATM    6  C6  UNL     1     -33.579  16.326  -3.465  1.00 20.00    -0.051 A 
HETATM    7  C8  UNL     1     -34.565  16.583  -5.621  1.00 20.00     0.039 C 
HETATM    8  C9  UNL     1     -33.975  14.944  -3.877  1.00 20.00     0.039 C 
HETATM    9  C10 UNL     1     -34.146  15.123  -5.393  1.00 20.00     0.009 C 
ENDROOT
BRANCH   4  10
HETATM   10  C7  UNL     1     -32.145  18.545  -0.843  1.00 20.00     0.269 C 
HETATM   11  O11 UNL     1     -30.934  18.751  -0.722  1.00 20.00    -0.301 OA
ENDBRANCH   4  10
TORSDOF 1
ENDMDL
MODEL 4
REMARK VINA RESULT:      -4.5     11.571     13.092
REMARK  1 active torsions:
REMARK  status: ('A' for Active; 'I' for Inactive)
REMARK    1  A    between atoms: C4_4  and  C7_7 
ROOT
HETATM    1  C1  UNL     1     -34.189  14.747  -4.998  1.00 20.00     0.015 A 
HETATM    2  C2  UNL     1     -33.615  15.103  -3.777  1.00 20.00     0.008 A 
HETATM    3  C3  UNL     1     -34.732  17.071  -5.475  1.00 20.00     0.022 A 
HETATM    4  C4  UNL     1     -34.743  15.724  -5.841  1.00 20.00     0.002 A 
HETATM    5  C5  UNL     1     -33.596  16.443  -3.427  1.00 20.00    -0.052 A 
HETATM    6  C6  UNL     1     -34.149  17.416  -4.267  1.00 20.00    -0.051 A 
HETATM    7  C8  UNL     1     -33.077  17.059  -2.166  1.00 20.00     0.039 C 
HETATM    8  C9  UNL     1     -34.051  18.774  -3.646  1.00 20.00     0.039 C 
HETATM    9  C10 UNL     1     -32.973  18.536  -2.578  1.00 20.00     0.009 C 
ENDROOT
BRANCH   4  10
HETATM   10  C7  UNL     1     -35.342  15.327  -7.106  1.00 20.00     0.269 C 
HETATM   11  O11 UNL     1     -36.027  14.309  -7.238  1.00 20.00    -0.301 OA
ENDBRANCH   4  10
TORSDOF 1
ENDMDL
MODEL 5
REMARK VINA RESULT:      -4.4     11.909     12.215
REMARK  1 active torsions:
REMARK  status: ('A' for Active; 'I' for Inactive)
REMARK    1  A    between atoms: C4_4  and  C7_7 
ROOT
HETATM    1  C1  UNL     1     -34.051  18.027  -0.434  1.00 20.00     0.015 A 
HETATM    2  C2  UNL     1     -33.926  18.454   0.889  1.00 20.00     0.008 A 
HETATM    3  C3  UNL     1     -31.651  18.237  -0.778  1.00 20.00     0.022 A 
HETATM    4  C4  UNL     1     -32.922  17.919  -1.261  1.00 20.00     0.002 A 
HETATM    5  C5  UNL     1     -32.661  18.754   1.365  1.00 20.00    -0.052 A 
HETATM    6  C6  UNL     1     -31.535  18.647   0.540  1.00 20.00    -0.051 A 
HETATM    7  C8  UNL     1     -32.282  19.263   2.720  1.00 20.00     0.039 C 
HETATM    8  C9  UNL     1     -30.300  19.075   1.267  1.00 20.00     0.039 C 
HETATM    9  C10 UNL     1     -30.770  18.993   2.727  1.00 20.00     0.009 C 
ENDROOT
BRANCH   4  10
HETATM   10  C7  UNL     1     -33.078  17.479  -2.639  1.00 20.00     0.269 C 
HETATM   11  O11 UNL     1     -33.286  16.304  -2.952  1.00 20.00    -0.301 OA
ENDBRANCH   4  10
TORSDOF 1
ENDMDL
MODEL 6
REMARK VINA RESULT:      -4.2      2.439      4.599
REMARK  1 active torsions:
REMARK  status: ('A' for Active; 'I' for Inactive)
REMARK    1  A    between atoms: C4_4  and  C7_7 
ROOT
HETATM    1  C1  UNL     1     -33.674   4.902   3.668  1.00 20.00     0.015 A 
HETATM    2  C2  UNL     1     -32.982   5.518   2.624  1.00 20.00     0.008 A 
HETATM    3  C3  UNL     1     -33.830   7.011   4.873  1.00 20.00     0.022 A 
HETATM    4  C4  UNL     1     -34.095   5.643   4.784  1.00 20.00     0.002 A 
HETATM    5  C5  UNL     1     -32.734   6.878   2.714  1.00 20.00    -0.052 A 
HETATM    6  C6  UNL     1     -33.153   7.616   3.827  1.00 20.00    -0.051 A 
HETATM    7  C8  UNL     1     -31.985   7.745   1.752  1.00 20.00     0.039 C 
HETATM    8  C9  UNL     1     -32.723   9.044   3.712  1.00 20.00     0.039 C 
HETATM    9  C10 UNL     1     -32.422   9.144   2.209  1.00 20.00     0.009 C 
ENDROOT
BRANCH   4  10
HETATM   10  C7  UNL     1     -34.809   4.976   5.862  1.00 20.00     0.269 C 
HETATM   11  O11 UNL     1     -34.860   5.420   7.012  1.00 20.00    -0.301 OA
ENDBRANCH   4  10
TORSDOF 1
ENDMDL
MODEL 7
REMARK VINA RESULT:      -4.2     12.352     12.764
REMARK  1 active torsions:
REMARK  status: ('A' for Active; 'I' for Inactive)
REMARK    1  A    between atoms: C4_4  and  C7_7 
ROOT
HETATM    1  C1  UNL     1     -30.773  18.602   1.197  1.00 20.00     0.015 A 
HETATM    2  C2  UNL     1     -30.975  18.333  -0.157  1.00 20.00     0.008 A 
HETATM    3  C3  UNL     1     -33.137  19.095   1.501  1.00 20.00     0.022 A 
HETATM    4  C4  UNL     1     -31.846  18.980   2.021  1.00 20.00     0.002 A 
HETATM    5  C5  UNL     1     -32.261  18.437  -0.662  1.00 20.00    -0.052 A 
HETATM    6  C6  UNL     1     -33.330  18.814   0.159  1.00 20.00    -0.051 A 
HETATM    7  C8  UNL     1     -32.716  18.239  -2.073  1.00 20.00     0.039 C 
HETATM    8  C9  UNL     1     -34.600  18.903  -0.628  1.00 20.00     0.039 C 
HETATM    9  C10 UNL     1     -34.233  18.090  -1.878  1.00 20.00     0.009 C 
ENDROOT
BRANCH   4  10
HETATM   10  C7  UNL     1     -31.609  19.261   3.428  1.00 20.00     0.269 C 
HETATM   11  O11 UNL     1     -30.551  18.988   4.001  1.00 20.00    -0.301 OA
ENDBRANCH   4  10
TORSDOF 1
ENDMDL
MODEL 8
REMARK VINA RESULT:      -4.2     12.379     12.692
REMARK  1 active torsions:
REMARK  status: ('A' for Active; 'I' for Inactive)
REMARK    1  A    between atoms: C4_4  and  C7_7 
ROOT
HETATM    1  C1  UNL     1     -31.421  19.261   3.826  1.00 20.00     0.015 A 
HETATM    2  C2  UNL     1     -32.550  19.262   3.006  1.00 20.00     0.008 A 
HETATM    3  C3  UNL     1     -29.987  18.732   1.932  1.00 20.00     0.022 A 
HETATM    4  C4  UNL     1     -30.149  18.999   3.294  1.00 20.00     0.002 A 
HETATM    5  C5  UNL     1     -32.380  19.010   1.655  1.00 20.00    -0.052 A 
HETATM    6  C6  UNL     1     -31.111  18.747   1.124  1.00 20.00    -0.051 A 
HETATM    7  C8  UNL     1     -33.430  18.919   0.593  1.00 20.00     0.039 C 
HETATM    8  C9  UNL     1     -31.197  18.457  -0.341  1.00 20.00     0.039 C 
HETATM    9  C10 UNL     1     -32.578  19.036  -0.679  1.00 20.00     0.009 C 
ENDROOT
BRANCH   4  10
HETATM   10  C7  UNL     1     -28.988  18.997   4.170  1.00 20.00     0.269 C 
HETATM   11  O11 UNL     1     -28.081  18.165   4.086  1.00 20.00    -0.301 OA
ENDBRANCH   4  10
TORSDOF 1
ENDMDL
MODEL 9
REMARK VINA RESULT:      -4.1     11.950     13.765
REMARK  1 active torsions:
REMARK  status: ('A' for Active; 'I' for Inactive)
REMARK    1  A    between atoms: C4_4  and  C7_7 
ROOT
HETATM    1  C1  UNL     1     -32.962  17.115  -1.879  1.00 20.00     0.015 A 
HETATM    2  C2  UNL     1     -33.616  16.486  -2.939  1.00 20.00     0.008 A 
HETATM    3  C3  UNL     1     -32.856  19.205  -3.124  1.00 20.00     0.022 A 
HETATM    4  C4  UNL     1     -32.585  18.465  -1.970  1.00 20.00     0.002 A 
HETATM    5  C5  UNL     1     -33.893  17.230  -4.074  1.00 20.00    -0.052 A 
HETATM    6  C6  UNL     1     -33.517  18.575  -4.165  1.00 20.00    -0.051 A 
HETATM    7  C8  UNL     1     -34.543  16.772  -5.341  1.00 20.00     0.039 C 
HETATM    8  C9  UNL     1     -33.879  19.140  -5.502  1.00 20.00     0.039 C 
HETATM    9  C10 UNL     1     -34.914  18.115  -5.988  1.00 20.00     0.009 C 
ENDROOT
BRANCH   4  10
HETATM   10  C7  UNL     1     -31.897  19.096  -0.855  1.00 20.00     0.269 C 
HETATM   11  O11 UNL     1     -30.761  18.776  -0.494  1.00 20.00    -0.301 OA
ENDBRANCH   4  10
TORSDOF 1
ENDMDL
