MODEL 1
REMARK VINA RESULT:      -4.7      0.000      0.000
REMARK  1 active torsions:
REMARK  status: ('A' for Active; 'I' for Inactive)
REMARK    1  A    between atoms: C5_5  and  C7_7 
ROOT
HETATM    1  C1  UNL     1     -33.406   7.224   4.925  1.00 20.00     0.010 C 
HETATM    2  C2  UNL     1     -33.790   6.741   6.356  1.00 20.00    -0.004 A 
HETATM    3  C3  UNL     1     -34.103   6.128   4.063  1.00 20.00    -0.004 A 
HETATM    4  C4  UNL     1     -35.142   6.060   6.267  1.00 20.00    -0.000 A 
HETATM    5  C5  UNL     1     -33.899   5.228   6.320  1.00 20.00    -0.000 A 
HETATM    6  C6  UNL     1     -35.340   5.671   4.810  1.00 20.00    -0.000 A 
HETATM    7  C7  UNL     1     -34.098   4.839   4.863  1.00 20.00    -0.000 A 
ENDROOT
TORSDOF 1
ENDMDL
MODEL 2
REMARK VINA RESULT:      -4.7      0.013      2.059
REMARK  1 active torsions:
REMARK  status: ('A' for Active; 'I' for Inactive)
REMARK    1  A    between atoms: C5_5  and  C7_7 
ROOT
HETATM    1  C1  UNL     1     -33.387   7.213   4.928  1.00 20.00     0.010 C 
HETATM    2  C2  UNL     1     -34.091   6.125   4.061  1.00 20.00    -0.004 A 
HETATM    3  C3  UNL     1     -33.783   6.732   6.357  1.00 20.00    -0.004 A 
HETATM    4  C4  UNL     1     -34.105   4.835   4.860  1.00 20.00    -0.000 A 
HETATM    5  C5  UNL     1     -35.338   5.680   4.802  1.00 20.00    -0.000 A 
HETATM    6  C6  UNL     1     -33.909   5.222   6.318  1.00 20.00    -0.000 A 
HETATM    7  C7  UNL     1     -35.142   6.066   6.260  1.00 20.00    -0.000 A 
ENDROOT
TORSDOF 1
ENDMDL
MODEL 3
REMARK VINA RESULT:      -4.6      0.535      1.472
REMARK  1 active torsions:
REMARK  status: ('A' for Active; 'I' for Inactive)
REMARK    1  A    between atoms: C5_5  and  C7_7 
ROOT
HETATM    1  C1  UNL     1     -33.945   6.788   6.368  1.00 20.00     0.010 C 
HETATM    2  C2  UNL     1     -34.616   5.392   6.198  1.00 20.00    -0.004 A 
HETATM    3  C3  UNL     1     -33.777   7.201   4.874  1.00 20.00    -0.004 A 
HETATM    4  C4  UNL     1     -35.451   5.430   4.932  1.00 20.00    -0.000 A 
HETATM    5  C5  UNL     1     -34.101   4.785   4.906  1.00 20.00    -0.000 A 
HETATM    6  C6  UNL     1     -34.917   6.580   4.092  1.00 20.00    -0.000 A 
HETATM    7  C7  UNL     1     -33.568   5.935   4.065  1.00 20.00    -0.000 A 
ENDROOT
TORSDOF 1
ENDMDL
MODEL 4
REMARK VINA RESULT:      -4.6      0.532      2.071
REMARK  1 active torsions:
REMARK  status: ('A' for Active; 'I' for Inactive)
REMARK    1  A    between atoms: C5_5  and  C7_7 
ROOT
HETATM    1  C1  UNL     1     -33.896   6.800   6.331  1.00 20.00     0.010 C 
HETATM    2  C2  UNL     1     -33.775   7.177   4.823  1.00 20.00    -0.004 A 
HETATM    3  C3  UNL     1     -34.580   5.404   6.217  1.00 20.00    -0.004 A 
HETATM    4  C4  UNL     1     -33.602   5.892   4.037  1.00 20.00    -0.000 A 
HETATM    5  C5  UNL     1     -34.946   6.546   4.094  1.00 20.00    -0.000 A 
HETATM    6  C6  UNL     1     -34.114   4.766   4.923  1.00 20.00    -0.000 A 
HETATM    7  C7  UNL     1     -35.458   5.420   4.979  1.00 20.00    -0.000 A 
ENDROOT
TORSDOF 1
ENDMDL
MODEL 5
REMARK VINA RESULT:      -4.5      0.810      2.048
REMARK  1 active torsions:
REMARK  status: ('A' for Active; 'I' for Inactive)
REMARK    1  A    between atoms: C5_5  and  C7_7 
ROOT
HETATM    1  C1  UNL     1     -34.341   5.761   6.619  1.00 20.00     0.010 C 
HETATM    2  C2  UNL     1     -33.879   7.103   5.976  1.00 20.00    -0.004 A 
HETATM    3  C3  UNL     1     -34.821   4.993   5.350  1.00 20.00    -0.004 A 
HETATM    4  C4  UNL     1     -33.374   6.797   4.578  1.00 20.00    -0.000 A 
HETATM    5  C5  UNL     1     -34.750   7.358   4.760  1.00 20.00    -0.000 A 
HETATM    6  C6  UNL     1     -33.973   5.457   4.182  1.00 20.00    -0.000 A 
HETATM    7  C7  UNL     1     -35.348   6.017   4.362  1.00 20.00    -0.000 A 
ENDROOT
TORSDOF 1
ENDMDL
MODEL 6
REMARK VINA RESULT:      -4.4      0.794      1.476
REMARK  1 active torsions:
REMARK  status: ('A' for Active; 'I' for Inactive)
REMARK    1  A    between atoms: C5_5  and  C7_7 
ROOT
HETATM    1  C1  UNL     1     -33.181   5.839   3.703  1.00 20.00     0.010 C 
HETATM    2  C2  UNL     1     -33.386   7.127   4.556  1.00 20.00    -0.004 A 
HETATM    3  C3  UNL     1     -34.274   4.916   4.321  1.00 20.00    -0.004 A 
HETATM    4  C4  UNL     1     -34.854   7.204   4.933  1.00 20.00    -0.000 A 
HETATM    5  C5  UNL     1     -33.861   6.699   5.932  1.00 20.00    -0.000 A 
HETATM    6  C6  UNL     1     -35.417   5.799   4.783  1.00 20.00    -0.000 A 
HETATM    7  C7  UNL     1     -34.426   5.294   5.783  1.00 20.00    -0.000 A 
ENDROOT
TORSDOF 1
ENDMDL
MODEL 7
REMARK VINA RESULT:      -4.4      0.794      2.070
REMARK  1 active torsions:
REMARK  status: ('A' for Active; 'I' for Inactive)
REMARK    1  A    between atoms: C5_5  and  C7_7 
ROOT
HETATM    1  C1  UNL     1     -33.188   5.828   3.697  1.00 20.00     0.010 C 
HETATM    2  C2  UNL     1     -34.287   4.918   4.325  1.00 20.00    -0.004 A 
HETATM    3  C3  UNL     1     -33.379   7.122   4.544  1.00 20.00    -0.004 A 
HETATM    4  C4  UNL     1     -34.431   5.306   5.784  1.00 20.00    -0.000 A 
HETATM    5  C5  UNL     1     -35.422   5.813   4.784  1.00 20.00    -0.000 A 
HETATM    6  C6  UNL     1     -33.855   6.707   5.923  1.00 20.00    -0.000 A 
HETATM    7  C7  UNL     1     -34.845   7.214   4.924  1.00 20.00    -0.000 A 
ENDROOT
TORSDOF 1
ENDMDL
MODEL 8
REMARK VINA RESULT:      -4.0      0.508      2.285
REMARK  1 active torsions:
REMARK  status: ('A' for Active; 'I' for Inactive)
REMARK    1  A    between atoms: C5_5  and  C7_7 
ROOT
HETATM    1  C1  UNL     1     -33.715   4.360   4.989  1.00 20.00     0.010 C 
HETATM    2  C2  UNL     1     -34.224   5.470   4.021  1.00 20.00    -0.004 A 
HETATM    3  C3  UNL     1     -33.932   5.065   6.362  1.00 20.00    -0.004 A 
HETATM    4  C4  UNL     1     -35.313   6.246   4.737  1.00 20.00    -0.000 A 
HETATM    5  C5  UNL     1     -33.931   6.814   4.663  1.00 20.00    -0.000 A 
HETATM    6  C6  UNL     1     -35.128   5.988   6.224  1.00 20.00    -0.000 A 
HETATM    7  C7  UNL     1     -33.746   6.556   6.151  1.00 20.00    -0.000 A 
ENDROOT
TORSDOF 1
ENDMDL
MODEL 9
REMARK VINA RESULT:      -3.9      1.683      3.110
REMARK  1 active torsions:
REMARK  status: ('A' for Active; 'I' for Inactive)
REMARK    1  A    between atoms: C5_5  and  C7_7 
ROOT
HETATM    1  C1  UNL     1     -33.095   6.199   3.465  1.00 20.00     0.010 C 
HETATM    2  C2  UNL     1     -33.924   6.726   4.675  1.00 20.00    -0.004 A 
HETATM    3  C3  UNL     1     -32.204   7.444   3.172  1.00 20.00    -0.004 A 
HETATM    4  C4  UNL     1     -33.054   7.703   5.443  1.00 20.00    -0.000 A 
HETATM    5  C5  UNL     1     -34.093   8.224   4.502  1.00 20.00    -0.000 A 
HETATM    6  C6  UNL     1     -31.961   8.159   4.488  1.00 20.00    -0.000 A 
HETATM    7  C7  UNL     1     -33.000   8.680   3.547  1.00 20.00    -0.000 A 
ENDROOT
TORSDOF 1
ENDMDL
