MODEL 1
REMARK VINA RESULT:      -4.7      0.000      0.000
REMARK  2 active torsions:
REMARK  status: ('A' for Active; 'I' for Inactive)
REMARK    1  A    between atoms: C1_1  and  C6_6 
REMARK    2  A    between atoms: C7_7  and  C9_9 
ROOT
HETATM    1  C2  UNL     1     -34.293   7.552   5.063  1.00 20.00     0.015 C 
HETATM    2  C3  UNL     1     -34.067   5.936   3.100  1.00 20.00     0.015 C 
HETATM    3  C4  UNL     1     -32.793   7.841   4.978  1.00 20.00     0.005 C 
HETATM    4  C5  UNL     1     -32.568   6.240   3.044  1.00 20.00     0.005 C 
HETATM    5  C6  UNL     1     -34.694   6.209   4.463  1.00 20.00     0.087 C 
HETATM    6  C7  UNL     1     -32.215   7.635   3.573  1.00 20.00    -0.015 C 
ENDROOT
BRANCH   5   7
HETATM    7  C1  UNL     1     -34.303   5.091   5.417  1.00 20.00     0.177 C 
HETATM    8  O10 UNL     1     -34.270   5.410   6.637  1.00 20.00    -0.648 OA
HETATM    9  O11 UNL     1     -34.060   3.983   4.862  1.00 20.00    -0.648 OA
ENDBRANCH   5   7
BRANCH   6  10
HETATM   10  C9  UNL     1     -32.659   8.737   2.608  1.00 20.00     0.000 C 
HETATM   11  C8  UNL     1     -32.208   8.465   1.212  1.00 20.00     0.005 C 
ENDBRANCH   6  10
TORSDOF 2
ENDMDL
MODEL 2
REMARK VINA RESULT:      -4.5      2.660      4.154
REMARK  2 active torsions:
REMARK  status: ('A' for Active; 'I' for Inactive)
REMARK    1  A    between atoms: C1_1  and  C6_6 
REMARK    2  A    between atoms: C7_7  and  C9_9 
ROOT
HETATM    1  C2  UNL     1     -32.185   8.465   4.616  1.00 20.00     0.015 C 
HETATM    2  C3  UNL     1     -32.720   6.297   3.378  1.00 20.00     0.015 C 
HETATM    3  C4  UNL     1     -33.658   8.583   5.014  1.00 20.00     0.005 C 
HETATM    4  C5  UNL     1     -34.187   6.446   3.787  1.00 20.00     0.005 C 
HETATM    5  C6  UNL     1     -31.953   7.616   3.372  1.00 20.00     0.087 C 
HETATM    6  C7  UNL     1     -34.375   7.230   5.090  1.00 20.00    -0.015 C 
ENDROOT
BRANCH   5   7
HETATM    7  C1  UNL     1     -32.348   8.408   2.135  1.00 20.00     0.177 C 
HETATM    8  O10 UNL     1     -32.866   9.535   2.361  1.00 20.00    -0.648 OA
HETATM    9  O11 UNL     1     -32.106   7.832   1.038  1.00 20.00    -0.648 OA
ENDBRANCH   5   7
BRANCH   6  10
HETATM   10  C9  UNL     1     -33.929   6.419   6.310  1.00 20.00     0.000 C 
HETATM   11  C8  UNL     1     -34.545   5.059   6.325  1.00 20.00     0.005 C 
ENDBRANCH   6  10
TORSDOF 2
ENDMDL
MODEL 3
REMARK VINA RESULT:      -4.1     12.363     13.522
REMARK  2 active torsions:
REMARK  status: ('A' for Active; 'I' for Inactive)
REMARK    1  A    between atoms: C1_1  and  C6_6 
REMARK    2  A    between atoms: C7_7  and  C9_9 
ROOT
HETATM    1  C2  UNL     1     -34.260  14.769  -4.514  1.00 20.00     0.015 C 
HETATM    2  C3  UNL     1     -35.214  17.126  -4.741  1.00 20.00     0.015 C 
HETATM    3  C4  UNL     1     -32.930  15.368  -4.052  1.00 20.00     0.005 C 
HETATM    4  C5  UNL     1     -33.870  17.696  -4.282  1.00 20.00     0.005 C 
HETATM    5  C6  UNL     1     -35.110  15.728  -5.340  1.00 20.00     0.087 C 
HETATM    6  C7  UNL     1     -33.083  16.738  -3.380  1.00 20.00    -0.015 C 
ENDROOT
BRANCH   5   7
HETATM    7  C1  UNL     1     -34.534  15.836  -6.743  1.00 20.00     0.177 C 
HETATM    8  O10 UNL     1     -33.852  14.846  -7.124  1.00 20.00    -0.648 OA
HETATM    9  O11 UNL     1     -34.814  16.909  -7.349  1.00 20.00    -0.648 OA
ENDBRANCH   5   7
BRANCH   6  10
HETATM   10  C9  UNL     1     -33.714  16.620  -1.990  1.00 20.00     0.000 C 
HETATM   11  C8  UNL     1     -33.308  17.750  -1.102  1.00 20.00     0.005 C 
ENDBRANCH   6  10
TORSDOF 2
ENDMDL
MODEL 4
REMARK VINA RESULT:      -3.9     12.392     13.522
REMARK  2 active torsions:
REMARK  status: ('A' for Active; 'I' for Inactive)
REMARK    1  A    between atoms: C1_1  and  C6_6 
REMARK    2  A    between atoms: C7_7  and  C9_9 
ROOT
HETATM    1  C2  UNL     1     -35.258  14.404  -4.809  1.00 20.00     0.015 C 
HETATM    2  C3  UNL     1     -35.754  16.903  -4.976  1.00 20.00     0.015 C 
HETATM    3  C4  UNL     1     -33.761  14.719  -4.771  1.00 20.00     0.005 C 
HETATM    4  C5  UNL     1     -34.250  17.186  -4.943  1.00 20.00     0.005 C 
HETATM    5  C6  UNL     1     -36.098  15.497  -5.459  1.00 20.00     0.087 C 
HETATM    6  C7  UNL     1     -33.448  16.109  -4.203  1.00 20.00    -0.015 C 
ENDROOT
BRANCH   5   7
HETATM    7  C1  UNL     1     -35.926  15.439  -6.968  1.00 20.00     0.177 C 
HETATM    8  O10 UNL     1     -35.775  16.555  -7.536  1.00 20.00    -0.648 OA
HETATM    9  O11 UNL     1     -35.958  14.277  -7.461  1.00 20.00    -0.648 OA
ENDBRANCH   5   7
BRANCH   6  10
HETATM   10  C9  UNL     1     -33.677  16.169  -2.691  1.00 20.00     0.000 C 
HETATM   11  C8  UNL     1     -33.068  17.391  -2.088  1.00 20.00     0.005 C 
ENDBRANCH   6  10
TORSDOF 2
ENDMDL
MODEL 5
REMARK VINA RESULT:      -3.6     11.812     13.289
REMARK  2 active torsions:
REMARK  status: ('A' for Active; 'I' for Inactive)
REMARK    1  A    between atoms: C1_1  and  C6_6 
REMARK    2  A    between atoms: C7_7  and  C9_9 
ROOT
HETATM    1  C2  UNL     1     -32.936  15.924  -3.624  1.00 20.00     0.015 C 
HETATM    2  C3  UNL     1     -34.241  17.807  -4.751  1.00 20.00     0.015 C 
HETATM    3  C4  UNL     1     -34.072  14.956  -3.960  1.00 20.00     0.005 C 
HETATM    4  C5  UNL     1     -35.364  16.816  -5.067  1.00 20.00     0.005 C 
HETATM    5  C6  UNL     1     -33.370  17.385  -3.572  1.00 20.00     0.087 C 
HETATM    6  C7  UNL     1     -34.874  15.370  -5.199  1.00 20.00    -0.015 C 
ENDROOT
BRANCH   5   7
HETATM    7  C1  UNL     1     -34.131  17.642  -2.282  1.00 20.00     0.177 C 
HETATM    8  O10 UNL     1     -35.088  18.459  -2.375  1.00 20.00    -0.648 OA
HETATM    9  O11 UNL     1     -33.705  17.004  -1.278  1.00 20.00    -0.648 OA
ENDBRANCH   5   7
BRANCH   6  10
HETATM   10  C9  UNL     1     -34.076  15.156  -6.489  1.00 20.00     0.000 C 
HETATM   11  C8  UNL     1     -34.815  15.657  -7.685  1.00 20.00     0.005 C 
ENDBRANCH   6  10
TORSDOF 2
ENDMDL
MODEL 6
REMARK VINA RESULT:      -3.6     12.336     13.534
REMARK  2 active torsions:
REMARK  status: ('A' for Active; 'I' for Inactive)
REMARK    1  A    between atoms: C1_1  and  C6_6 
REMARK    2  A    between atoms: C7_7  and  C9_9 
ROOT
HETATM    1  C2  UNL     1     -34.408  19.200  -3.098  1.00 20.00     0.015 C 
HETATM    2  C3  UNL     1     -33.210  17.043  -3.753  1.00 20.00     0.015 C 
HETATM    3  C4  UNL     1     -34.651  18.623  -1.702  1.00 20.00     0.005 C 
HETATM    4  C5  UNL     1     -33.474  16.491  -2.351  1.00 20.00     0.005 C 
HETATM    5  C6  UNL     1     -34.185  18.140  -4.170  1.00 20.00     0.087 C 
HETATM    6  C7  UNL     1     -33.604  17.584  -1.284  1.00 20.00    -0.015 C 
ENDROOT
BRANCH   5   7
HETATM    7  C1  UNL     1     -35.516  17.501  -4.535  1.00 20.00     0.177 C 
HETATM    8  O10 UNL     1     -36.534  18.206  -4.301  1.00 20.00    -0.648 OA
HETATM    9  O11 UNL     1     -35.429  16.341  -5.028  1.00 20.00    -0.648 OA
ENDBRANCH   5   7
BRANCH   6  10
HETATM   10  C9  UNL     1     -32.253  18.234  -0.971  1.00 20.00     0.000 C 
HETATM   11  C8  UNL     1     -32.112  18.541   0.483  1.00 20.00     0.005 C 
ENDBRANCH   6  10
TORSDOF 2
ENDMDL
MODEL 7
REMARK VINA RESULT:      -3.3     11.805     13.336
REMARK  2 active torsions:
REMARK  status: ('A' for Active; 'I' for Inactive)
REMARK    1  A    between atoms: C1_1  and  C6_6 
REMARK    2  A    between atoms: C7_7  and  C9_9 
ROOT
HETATM    1  C2  UNL     1     -36.443  15.993  -6.099  1.00 20.00     0.015 C 
HETATM    2  C3  UNL     1     -34.200  14.972  -5.431  1.00 20.00     0.015 C 
HETATM    3  C4  UNL     1     -36.283  17.032  -4.988  1.00 20.00     0.005 C 
HETATM    4  C5  UNL     1     -34.072  16.021  -4.324  1.00 20.00     0.005 C 
HETATM    5  C6  UNL     1     -35.640  14.718  -5.866  1.00 20.00     0.087 C 
HETATM    6  C7  UNL     1     -34.820  17.322  -4.634  1.00 20.00    -0.015 C 
ENDROOT
BRANCH   5   7
HETATM    7  C1  UNL     1     -36.330  13.870  -4.810  1.00 20.00     0.177 C 
HETATM    8  O10 UNL     1     -37.534  14.168  -4.583  1.00 20.00    -0.648 OA
HETATM    9  O11 UNL     1     -35.605  12.974  -4.294  1.00 20.00    -0.648 OA
ENDBRANCH   5   7
BRANCH   6  10
HETATM   10  C9  UNL     1     -34.121  18.131  -5.730  1.00 20.00     0.000 C 
HETATM   11  C8  UNL     1     -34.969  19.262  -6.208  1.00 20.00     0.005 C 
ENDBRANCH   6  10
TORSDOF 2
ENDMDL
MODEL 8
REMARK VINA RESULT:      -3.2     10.048     11.278
REMARK  2 active torsions:
REMARK  status: ('A' for Active; 'I' for Inactive)
REMARK    1  A    between atoms: C1_1  and  C6_6 
REMARK    2  A    between atoms: C7_7  and  C9_9 
ROOT
HETATM    1  C2  UNL     1     -40.475  14.826   7.196  1.00 20.00     0.015 C 
HETATM    2  C3  UNL     1     -42.750  13.867   6.545  1.00 20.00     0.015 C 
HETATM    3  C4  UNL     1     -39.917  13.404   7.278  1.00 20.00     0.005 C 
HETATM    4  C5  UNL     1     -42.164  12.456   6.642  1.00 20.00     0.005 C 
HETATM    5  C6  UNL     1     -41.988  14.901   7.367  1.00 20.00     0.087 C 
HETATM    6  C7  UNL     1     -40.655  12.409   6.375  1.00 20.00    -0.015 C 
ENDROOT
BRANCH   5   7
HETATM    7  C1  UNL     1     -42.342  14.719   8.835  1.00 20.00     0.177 C 
HETATM    8  O10 UNL     1     -41.521  15.217   9.652  1.00 20.00    -0.648 OA
HETATM    9  O11 UNL     1     -43.416  14.090   9.047  1.00 20.00    -0.648 OA
ENDBRANCH   5   7
BRANCH   6  10
HETATM   10  C9  UNL     1     -40.333  12.637   4.896  1.00 20.00     0.000 C 
HETATM   11  C8  UNL     1     -39.182  11.799   4.446  1.00 20.00     0.005 C 
ENDBRANCH   6  10
TORSDOF 2
ENDMDL
MODEL 9
REMARK VINA RESULT:      -3.2     12.776     14.238
REMARK  2 active torsions:
REMARK  status: ('A' for Active; 'I' for Inactive)
REMARK    1  A    between atoms: C1_1  and  C6_6 
REMARK    2  A    between atoms: C7_7  and  C9_9 
ROOT
HETATM    1  C2  UNL     1     -36.324  14.958  -5.501  1.00 20.00     0.015 C 
HETATM    2  C3  UNL     1     -36.072  17.424  -4.892  1.00 20.00     0.015 C 
HETATM    3  C4  UNL     1     -34.827  14.896  -5.808  1.00 20.00     0.005 C 
HETATM    4  C5  UNL     1     -34.578  17.333  -5.213  1.00 20.00     0.005 C 
HETATM    5  C6  UNL     1     -36.911  16.361  -5.594  1.00 20.00     0.087 C 
HETATM    6  C7  UNL     1     -34.004  15.924  -5.022  1.00 20.00    -0.015 C 
ENDROOT
BRANCH   5   7
HETATM    7  C1  UNL     1     -37.073  16.749  -7.055  1.00 20.00     0.177 C 
HETATM    8  O10 UNL     1     -37.072  17.989  -7.287  1.00 20.00    -0.648 OA
HETATM    9  O11 UNL     1     -37.189  15.775  -7.851  1.00 20.00    -0.648 OA
ENDBRANCH   5   7
BRANCH   6  10
HETATM   10  C9  UNL     1     -33.894  15.551  -3.541  1.00 20.00     0.000 C 
HETATM   11  C8  UNL     1     -33.272  16.646  -2.741  1.00 20.00     0.005 C 
ENDBRANCH   6  10
TORSDOF 2
ENDMDL
