MODEL 1
REMARK VINA RESULT:      -3.8      0.000      0.000
REMARK  2 active torsions:
REMARK  status: ('A' for Active; 'I' for Inactive)
REMARK    1  A    between atoms: C3_3  and  C9_9 
REMARK    2  A    between atoms: C4_4  and  C10_10 
ROOT
HETATM    1  C1  UNL     1     -42.017  12.638   6.707  1.00 20.00     0.009 A 
HETATM    2  C2  UNL     1     -42.261  13.396   7.773  1.00 20.00     0.009 A 
HETATM    3  C3  UNL     1     -40.820  13.149   5.978  1.00 20.00     0.076 A 
HETATM    4  C4  UNL     1     -41.254  14.492   7.864  1.00 20.00     0.076 A 
HETATM    5  C5  UNL     1     -41.169  13.609   4.565  1.00 20.00     0.050 C 
HETATM    6  C6  UNL     1     -41.900  15.870   7.741  1.00 20.00     0.050 C 
HETATM    7  O11 UNL     1     -40.375  14.303   6.730  1.00 20.00    -0.362 OA
ENDROOT
BRANCH   3   8
HETATM    8  C9  UNL     1     -39.686  12.127   5.959  1.00 20.00     0.037 C 
HETATM    9  C7  UNL     1     -39.292  11.763   4.565  1.00 20.00     0.008 C 
ENDBRANCH   3   8
BRANCH   4  10
HETATM   10  C10 UNL     1     -40.418  14.388   9.138  1.00 20.00     0.037 C 
HETATM   11  C8  UNL     1     -41.276  14.269  10.354  1.00 20.00     0.008 C 
ENDBRANCH   4  10
TORSDOF 2
ENDMDL
MODEL 2
REMARK VINA RESULT:      -3.7      8.660     10.513
REMARK  2 active torsions:
REMARK  status: ('A' for Active; 'I' for Inactive)
REMARK    1  A    between atoms: C3_3  and  C9_9 
REMARK    2  A    between atoms: C4_4  and  C10_10 
ROOT
HETATM    1  C1  UNL     1     -34.199   5.793   6.130  1.00 20.00     0.009 A 
HETATM    2  C2  UNL     1     -33.660   6.966   6.452  1.00 20.00     0.009 A 
HETATM    3  C3  UNL     1     -34.481   5.742   4.666  1.00 20.00     0.076 A 
HETATM    4  C4  UNL     1     -33.528   7.820   5.236  1.00 20.00     0.076 A 
HETATM    5  C5  UNL     1     -35.973   5.592   4.381  1.00 20.00     0.050 C 
HETATM    6  C6  UNL     1     -34.369   9.091   5.340  1.00 20.00     0.050 C 
HETATM    7  O11 UNL     1     -34.049   7.023   4.147  1.00 20.00    -0.362 OA
ENDROOT
BRANCH   3   8
HETATM    8  C9  UNL     1     -33.675   4.649   3.969  1.00 20.00     0.037 C 
HETATM    9  C7  UNL     1     -33.100   5.126   2.676  1.00 20.00     0.008 C 
ENDBRANCH   3   8
BRANCH   4  10
HETATM   10  C10 UNL     1     -32.069   8.149   4.930  1.00 20.00     0.037 C 
HETATM   11  C8  UNL     1     -31.797   8.143   3.462  1.00 20.00     0.008 C 
ENDBRANCH   4  10
TORSDOF 2
ENDMDL
MODEL 3
REMARK VINA RESULT:      -3.6     13.081     14.529
REMARK  2 active torsions:
REMARK  status: ('A' for Active; 'I' for Inactive)
REMARK    1  A    between atoms: C3_3  and  C9_9 
REMARK    2  A    between atoms: C4_4  and  C10_10 
ROOT
HETATM    1  C1  UNL     1     -34.441  16.250  -7.141  1.00 20.00     0.009 A 
HETATM    2  C2  UNL     1     -34.077  15.127  -6.529  1.00 20.00     0.009 A 
HETATM    3  C3  UNL     1     -35.154  17.147  -6.185  1.00 20.00     0.076 A 
HETATM    4  C4  UNL     1     -34.510  15.156  -5.102  1.00 20.00     0.076 A 
HETATM    5  C5  UNL     1     -36.597  17.400  -6.613  1.00 20.00     0.050 C 
HETATM    6  C6  UNL     1     -35.514  14.049  -4.790  1.00 20.00     0.050 C 
HETATM    7  O11 UNL     1     -35.175  16.430  -4.928  1.00 20.00    -0.362 OA
ENDROOT
BRANCH   3   8
HETATM    8  C9  UNL     1     -34.405  18.460  -5.971  1.00 20.00     0.037 C 
HETATM    9  C7  UNL     1     -34.887  19.180  -4.755  1.00 20.00     0.008 C 
ENDBRANCH   3   8
BRANCH   4  10
HETATM   10  C10 UNL     1     -33.320  15.106  -4.147  1.00 20.00     0.037 C 
HETATM   11  C8  UNL     1     -33.388  16.189  -3.121  1.00 20.00     0.008 C 
ENDBRANCH   4  10
TORSDOF 2
ENDMDL
MODEL 4
REMARK VINA RESULT:      -3.5     11.833     13.326
REMARK  2 active torsions:
REMARK  status: ('A' for Active; 'I' for Inactive)
REMARK    1  A    between atoms: C3_3  and  C9_9 
REMARK    2  A    between atoms: C4_4  and  C10_10 
ROOT
HETATM    1  C1  UNL     1     -35.812  17.821  -4.306  1.00 20.00     0.009 A 
HETATM    2  C2  UNL     1     -35.256  18.319  -3.205  1.00 20.00     0.009 A 
HETATM    3  C3  UNL     1     -34.804  17.041  -5.082  1.00 20.00     0.076 A 
HETATM    4  C4  UNL     1     -33.820  17.924  -3.132  1.00 20.00     0.076 A 
HETATM    5  C5  UNL     1     -34.551  17.650  -6.458  1.00 20.00     0.050 C 
HETATM    6  C6  UNL     1     -32.894  19.138  -3.176  1.00 20.00     0.050 C 
HETATM    7  O11 UNL     1     -33.578  17.130  -4.318  1.00 20.00    -0.362 OA
ENDROOT
BRANCH   3   8
HETATM    8  C9  UNL     1     -35.189  15.568  -5.195  1.00 20.00     0.037 C 
HETATM    9  C7  UNL     1     -34.163  14.679  -4.572  1.00 20.00     0.008 C 
ENDBRANCH   3   8
BRANCH   4  10
HETATM   10  C10 UNL     1     -33.531  17.056  -1.910  1.00 20.00     0.037 C 
HETATM   11  C8  UNL     1     -33.689  17.823  -0.638  1.00 20.00     0.008 C 
ENDBRANCH   4  10
TORSDOF 2
ENDMDL
MODEL 5
REMARK VINA RESULT:      -3.4     21.245     22.952
REMARK  2 active torsions:
REMARK  status: ('A' for Active; 'I' for Inactive)
REMARK    1  A    between atoms: C3_3  and  C9_9 
REMARK    2  A    between atoms: C4_4  and  C10_10 
ROOT
HETATM    1  C1  UNL     1     -24.329  -1.386  11.958  1.00 20.00     0.009 A 
HETATM    2  C2  UNL     1     -25.647  -1.209  11.976  1.00 20.00     0.009 A 
HETATM    3  C3  UNL     1     -23.995  -2.688  11.309  1.00 20.00     0.076 A 
HETATM    4  C4  UNL     1     -26.329  -2.374  11.343  1.00 20.00     0.076 A 
HETATM    5  C5  UNL     1     -23.297  -3.641  12.275  1.00 20.00     0.050 C 
HETATM    6  C6  UNL     1     -27.228  -3.113  12.332  1.00 20.00     0.050 C 
HETATM    7  O11 UNL     1     -25.268  -3.271  10.941  1.00 20.00    -0.362 OA
ENDROOT
BRANCH   3   8
HETATM    8  C9  UNL     1     -23.173  -2.495  10.037  1.00 20.00     0.037 C 
HETATM    9  C7  UNL     1     -23.734  -3.274   8.893  1.00 20.00     0.008 C 
ENDBRANCH   3   8
BRANCH   4  10
HETATM   10  C10 UNL     1     -27.107  -1.965  10.093  1.00 20.00     0.037 C 
HETATM   11  C8  UNL     1     -27.668  -0.587  10.218  1.00 20.00     0.008 C 
ENDBRANCH   4  10
TORSDOF 2
ENDMDL
MODEL 6
REMARK VINA RESULT:      -3.4      9.613     10.657
REMARK  2 active torsions:
REMARK  status: ('A' for Active; 'I' for Inactive)
REMARK    1  A    between atoms: C3_3  and  C9_9 
REMARK    2  A    between atoms: C4_4  and  C10_10 
ROOT
HETATM    1  C1  UNL     1     -32.636   6.141   3.011  1.00 20.00     0.009 A 
HETATM    2  C2  UNL     1     -33.551   5.338   3.547  1.00 20.00     0.009 A 
HETATM    3  C3  UNL     1     -32.845   7.542   3.478  1.00 20.00     0.076 A 
HETATM    4  C4  UNL     1     -34.466   6.121   4.427  1.00 20.00     0.076 A 
HETATM    5  C5  UNL     1     -33.177   8.483   2.323  1.00 20.00     0.050 C 
HETATM    6  C6  UNL     1     -35.907   6.090   3.920  1.00 20.00     0.050 C 
HETATM    7  O11 UNL     1     -33.993   7.487   4.358  1.00 20.00    -0.362 OA
ENDROOT
BRANCH   3   8
HETATM    8  C9  UNL     1     -31.653   8.057   4.283  1.00 20.00     0.037 C 
HETATM    9  C7  UNL     1     -32.021   9.237   5.121  1.00 20.00     0.008 C 
ENDBRANCH   3   8
BRANCH   4  10
HETATM   10  C10 UNL     1     -34.385   5.661   5.881  1.00 20.00     0.037 C 
HETATM   11  C8  UNL     1     -34.290   6.817   6.822  1.00 20.00     0.008 C 
ENDBRANCH   4  10
TORSDOF 2
ENDMDL
MODEL 7
REMARK VINA RESULT:      -3.4     11.041     13.031
REMARK  2 active torsions:
REMARK  status: ('A' for Active; 'I' for Inactive)
REMARK    1  A    between atoms: C3_3  and  C9_9 
REMARK    2  A    between atoms: C4_4  and  C10_10 
ROOT
HETATM    1  C1  UNL     1     -33.228  16.864  -1.920  1.00 20.00     0.009 A 
HETATM    2  C2  UNL     1     -33.774  17.122  -3.105  1.00 20.00     0.009 A 
HETATM    3  C3  UNL     1     -33.148  18.114  -1.109  1.00 20.00     0.076 A 
HETATM    4  C4  UNL     1     -34.114  18.571  -3.208  1.00 20.00     0.076 A 
HETATM    5  C5  UNL     1     -31.704  18.491  -0.788  1.00 20.00     0.050 C 
HETATM    6  C6  UNL     1     -33.330  19.260  -4.323  1.00 20.00     0.050 C 
HETATM    7  O11 UNL     1     -33.710  19.152  -1.946  1.00 20.00    -0.362 OA
ENDROOT
BRANCH   3   8
HETATM    8  C9  UNL     1     -33.988  18.021   0.163  1.00 20.00     0.037 C 
HETATM    9  C7  UNL     1     -34.786  19.263   0.390  1.00 20.00     0.008 C 
ENDBRANCH   3   8
BRANCH   4  10
HETATM   10  C10 UNL     1     -35.616  18.790  -3.375  1.00 20.00     0.037 C 
HETATM   11  C8  UNL     1     -36.169  17.990  -4.507  1.00 20.00     0.008 C 
ENDBRANCH   4  10
TORSDOF 2
ENDMDL
MODEL 8
REMARK VINA RESULT:      -3.4     12.609     14.142
REMARK  2 active torsions:
REMARK  status: ('A' for Active; 'I' for Inactive)
REMARK    1  A    between atoms: C3_3  and  C9_9 
REMARK    2  A    between atoms: C4_4  and  C10_10 
ROOT
HETATM    1  C1  UNL     1     -34.272  18.505  -5.388  1.00 20.00     0.009 A 
HETATM    2  C2  UNL     1     -34.540  17.538  -6.260  1.00 20.00     0.009 A 
HETATM    3  C3  UNL     1     -34.496  18.018  -3.996  1.00 20.00     0.076 A 
HETATM    4  C4  UNL     1     -34.973  16.305  -5.541  1.00 20.00     0.076 A 
HETATM    5  C5  UNL     1     -35.603  18.798  -3.293  1.00 20.00     0.050 C 
HETATM    6  C6  UNL     1     -36.407  15.914  -5.894  1.00 20.00     0.050 C 
HETATM    7  O11 UNL     1     -34.931  16.644  -4.135  1.00 20.00    -0.362 OA
ENDROOT
BRANCH   3   8
HETATM    8  C9  UNL     1     -33.208  18.029  -3.175  1.00 20.00     0.037 C 
HETATM    9  C7  UNL     1     -33.295  17.113  -1.998  1.00 20.00     0.008 C 
ENDBRANCH   3   8
BRANCH   4  10
HETATM   10  C10 UNL     1     -34.012  15.143  -5.779  1.00 20.00     0.037 C 
HETATM   11  C8  UNL     1     -33.638  14.464  -4.503  1.00 20.00     0.008 C 
ENDBRANCH   4  10
TORSDOF 2
ENDMDL
MODEL 9
REMARK VINA RESULT:      -3.4      0.793      3.984
REMARK  2 active torsions:
REMARK  status: ('A' for Active; 'I' for Inactive)
REMARK    1  A    between atoms: C3_3  and  C9_9 
REMARK    2  A    between atoms: C4_4  and  C10_10 
ROOT
HETATM    1  C1  UNL     1     -42.336  13.609   7.994  1.00 20.00     0.009 A 
HETATM    2  C2  UNL     1     -42.243  12.853   6.903  1.00 20.00     0.009 A 
HETATM    3  C3  UNL     1     -41.227  14.607   8.022  1.00 20.00     0.076 A 
HETATM    4  C4  UNL     1     -41.063  13.267   6.092  1.00 20.00     0.076 A 
HETATM    5  C5  UNL     1     -40.310  14.402   9.225  1.00 20.00     0.050 C 
HETATM    6  C6  UNL     1     -40.032  12.146   5.974  1.00 20.00     0.050 C 
HETATM    7  O11 UNL     1     -40.458  14.361   6.821  1.00 20.00    -0.362 OA
ENDROOT
BRANCH   3   8
HETATM    8  C9  UNL     1     -41.751  16.040   7.967  1.00 20.00     0.037 C 
HETATM    9  C7  UNL     1     -40.722  16.985   7.437  1.00 20.00     0.008 C 
ENDBRANCH   3   8
BRANCH   4  10
HETATM   10  C10 UNL     1     -41.474  13.783   4.715  1.00 20.00     0.037 C 
HETATM   11  C8  UNL     1     -42.825  14.419   4.743  1.00 20.00     0.008 C 
ENDBRANCH   4  10
TORSDOF 2
ENDMDL
