MODEL 1
REMARK VINA RESULT:      -4.7      0.000      0.000
REMARK  1 active torsions:
REMARK  status: ('A' for Active; 'I' for Inactive)
REMARK    1  A    between atoms: C6_6  and  C9_9 
ROOT
HETATM    1  C1  UNL     1     -32.484   8.934   4.894  1.00 20.00     0.127 C 
HETATM    2  C2  UNL     1     -33.681   8.828   5.810  1.00 20.00     0.079 C 
HETATM    3  C3  UNL     1     -32.575   8.197   3.577  1.00 20.00     0.079 C 
HETATM    4  C4  UNL     1     -34.094   7.373   5.986  1.00 20.00     0.012 C 
HETATM    5  C5  UNL     1     -33.012   6.755   3.799  1.00 20.00     0.012 C 
HETATM    6  C6  UNL     1     -34.296   6.669   4.637  1.00 20.00    -0.010 C 
HETATM    7  O10 UNL     1     -31.531   9.666   5.159  1.00 20.00    -0.298 OA
ENDROOT
BRANCH   6   8
HETATM    8  C9  UNL     1     -34.706   5.213   4.845  1.00 20.00    -0.019 C 
HETATM    9  C7  UNL     1     -33.840   4.285   3.997  1.00 20.00     0.010 C 
HETATM   10  C8  UNL     1     -34.611   4.835   6.322  1.00 20.00     0.010 C 
ENDBRANCH   6   8
TORSDOF 1
ENDMDL
MODEL 2
REMARK VINA RESULT:      -4.5      1.716      2.520
REMARK  1 active torsions:
REMARK  status: ('A' for Active; 'I' for Inactive)
REMARK    1  A    between atoms: C6_6  and  C9_9 
ROOT
HETATM    1  C1  UNL     1     -32.269   7.969   2.359  1.00 20.00     0.127 C 
HETATM    2  C2  UNL     1     -32.222   6.468   2.523  1.00 20.00     0.079 C 
HETATM    3  C3  UNL     1     -32.433   8.781   3.622  1.00 20.00     0.079 C 
HETATM    4  C4  UNL     1     -33.387   5.985   3.377  1.00 20.00     0.012 C 
HETATM    5  C5  UNL     1     -33.594   8.251   4.455  1.00 20.00     0.012 C 
HETATM    6  C6  UNL     1     -33.470   6.742   4.710  1.00 20.00    -0.010 C 
HETATM    7  O10 UNL     1     -32.080   8.505   1.268  1.00 20.00    -0.298 OA
ENDROOT
BRANCH   6   8
HETATM    8  C9  UNL     1     -34.648   6.239   5.542  1.00 20.00    -0.019 C 
HETATM    9  C7  UNL     1     -35.692   5.575   4.647  1.00 20.00     0.010 C 
HETATM   10  C8  UNL     1     -34.169   5.268   6.619  1.00 20.00     0.010 C 
ENDBRANCH   6   8
TORSDOF 1
ENDMDL
MODEL 3
REMARK VINA RESULT:      -4.4      2.179      4.018
REMARK  1 active torsions:
REMARK  status: ('A' for Active; 'I' for Inactive)
REMARK    1  A    between atoms: C6_6  and  C9_9 
ROOT
HETATM    1  C1  UNL     1     -34.606   5.804   6.075  1.00 20.00     0.127 C 
HETATM    2  C2  UNL     1     -34.936   5.632   4.611  1.00 20.00     0.079 C 
HETATM    3  C3  UNL     1     -34.201   7.192   6.516  1.00 20.00     0.079 C 
HETATM    4  C4  UNL     1     -33.835   6.221   3.738  1.00 20.00     0.012 C 
HETATM    5  C5  UNL     1     -33.115   7.750   5.604  1.00 20.00     0.012 C 
HETATM    6  C6  UNL     1     -33.517   7.673   4.124  1.00 20.00    -0.010 C 
HETATM    7  O10 UNL     1     -34.758   4.890   6.883  1.00 20.00    -0.298 OA
ENDROOT
BRANCH   6   8
HETATM    8  C9  UNL     1     -32.408   8.234   3.236  1.00 20.00    -0.019 C 
HETATM    9  C7  UNL     1     -32.008   7.217   2.170  1.00 20.00     0.010 C 
HETATM   10  C8  UNL     1     -32.851   9.544   2.589  1.00 20.00     0.010 C 
ENDBRANCH   6   8
TORSDOF 1
ENDMDL
MODEL 4
REMARK VINA RESULT:      -4.2     12.401     13.529
REMARK  1 active torsions:
REMARK  status: ('A' for Active; 'I' for Inactive)
REMARK    1  A    between atoms: C6_6  and  C9_9 
ROOT
HETATM    1  C1  UNL     1     -34.450  15.332  -5.801  1.00 20.00     0.127 C 
HETATM    2  C2  UNL     1     -35.252  16.536  -5.363  1.00 20.00     0.079 C 
HETATM    3  C3  UNL     1     -33.773  14.538  -4.707  1.00 20.00     0.079 C 
HETATM    4  C4  UNL     1     -34.433  17.416  -4.428  1.00 20.00     0.012 C 
HETATM    5  C5  UNL     1     -32.984  15.459  -3.785  1.00 20.00     0.012 C 
HETATM    6  C6  UNL     1     -33.847  16.614  -3.257  1.00 20.00    -0.010 C 
HETATM    7  O10 UNL     1     -34.435  14.959  -6.973  1.00 20.00    -0.298 OA
ENDROOT
BRANCH   6   8
HETATM    8  C9  UNL     1     -33.029  17.522  -2.340  1.00 20.00    -0.019 C 
HETATM    9  C7  UNL     1     -32.870  18.908  -2.961  1.00 20.00     0.010 C 
HETATM   10  C8  UNL     1     -33.680  17.621  -0.963  1.00 20.00     0.010 C 
ENDBRANCH   6   8
TORSDOF 1
ENDMDL
MODEL 5
REMARK VINA RESULT:      -4.1     12.339     13.513
REMARK  1 active torsions:
REMARK  status: ('A' for Active; 'I' for Inactive)
REMARK    1  A    between atoms: C6_6  and  C9_9 
ROOT
HETATM    1  C1  UNL     1     -34.012  17.339  -4.233  1.00 20.00     0.127 C 
HETATM    2  C2  UNL     1     -33.529  16.311  -3.237  1.00 20.00     0.079 C 
HETATM    3  C3  UNL     1     -33.300  18.672  -4.226  1.00 20.00     0.079 C 
HETATM    4  C4  UNL     1     -33.440  16.915  -1.841  1.00 20.00     0.012 C 
HETATM    5  C5  UNL     1     -33.215  19.228  -2.810  1.00 20.00     0.012 C 
HETATM    6  C6  UNL     1     -32.614  18.209  -1.831  1.00 20.00    -0.010 C 
HETATM    7  O10 UNL     1     -34.869  17.070  -5.074  1.00 20.00    -0.298 OA
ENDROOT
BRANCH   6   8
HETATM    8  C9  UNL     1     -32.547  18.793  -0.421  1.00 20.00    -0.019 C 
HETATM    9  C7  UNL     1     -33.652  18.208   0.455  1.00 20.00     0.010 C 
HETATM   10  C8  UNL     1     -31.176  18.535   0.201  1.00 20.00     0.010 C 
ENDBRANCH   6   8
TORSDOF 1
ENDMDL
MODEL 6
REMARK VINA RESULT:      -4.0      2.307      4.418
REMARK  1 active torsions:
REMARK  status: ('A' for Active; 'I' for Inactive)
REMARK    1  A    between atoms: C6_6  and  C9_9 
ROOT
HETATM    1  C1  UNL     1     -34.053   4.781   4.274  1.00 20.00     0.127 C 
HETATM    2  C2  UNL     1     -33.426   5.006   2.918  1.00 20.00     0.079 C 
HETATM    3  C3  UNL     1     -34.722   5.975   4.915  1.00 20.00     0.079 C 
HETATM    4  C4  UNL     1     -32.526   6.235   2.940  1.00 20.00     0.012 C 
HETATM    5  C5  UNL     1     -33.796   7.184   4.896  1.00 20.00     0.012 C 
HETATM    6  C6  UNL     1     -33.258   7.469   3.486  1.00 20.00    -0.010 C 
HETATM    7  O10 UNL     1     -34.106   3.662   4.783  1.00 20.00    -0.298 OA
ENDROOT
BRANCH   6   8
HETATM    8  C9  UNL     1     -32.330   8.682   3.499  1.00 20.00    -0.019 C 
HETATM    9  C7  UNL     1     -32.826   9.748   2.524  1.00 20.00     0.010 C 
HETATM   10  C8  UNL     1     -32.218   9.256   4.910  1.00 20.00     0.010 C 
ENDBRANCH   6   8
TORSDOF 1
ENDMDL
MODEL 7
REMARK VINA RESULT:      -3.9      2.306      4.014
REMARK  1 active torsions:
REMARK  status: ('A' for Active; 'I' for Inactive)
REMARK    1  A    between atoms: C6_6  and  C9_9 
ROOT
HETATM    1  C1  UNL     1     -34.483   5.462   4.866  1.00 20.00     0.127 C 
HETATM    2  C2  UNL     1     -34.037   6.702   5.605  1.00 20.00     0.079 C 
HETATM    3  C3  UNL     1     -33.531   4.915   3.829  1.00 20.00     0.079 C 
HETATM    4  C4  UNL     1     -33.568   7.771   4.625  1.00 20.00     0.012 C 
HETATM    5  C5  UNL     1     -33.071   6.019   2.885  1.00 20.00     0.012 C 
HETATM    6  C6  UNL     1     -32.513   7.228   3.651  1.00 20.00    -0.010 C 
HETATM    7  O10 UNL     1     -35.519   4.870   5.166  1.00 20.00    -0.298 OA
ENDROOT
BRANCH   6   8
HETATM    8  C9  UNL     1     -32.066   8.319   2.680  1.00 20.00    -0.019 C 
HETATM    9  C7  UNL     1     -32.130   7.815   1.240  1.00 20.00     0.010 C 
HETATM   10  C8  UNL     1     -32.922   9.572   2.850  1.00 20.00     0.010 C 
ENDBRANCH   6   8
TORSDOF 1
ENDMDL
MODEL 8
REMARK VINA RESULT:      -3.9     12.262     13.562
REMARK  1 active torsions:
REMARK  status: ('A' for Active; 'I' for Inactive)
REMARK    1  A    between atoms: C6_6  and  C9_9 
ROOT
HETATM    1  C1  UNL     1     -34.502  15.364  -5.842  1.00 20.00     0.127 C 
HETATM    2  C2  UNL     1     -33.483  14.770  -4.898  1.00 20.00     0.079 C 
HETATM    3  C3  UNL     1     -34.620  16.871  -5.846  1.00 20.00     0.079 C 
HETATM    4  C4  UNL     1     -33.650  15.343  -3.497  1.00 20.00     0.012 C 
HETATM    5  C5  UNL     1     -34.764  17.402  -4.425  1.00 20.00     0.012 C 
HETATM    6  C6  UNL     1     -33.651  16.879  -3.505  1.00 20.00    -0.010 C 
HETATM    7  O10 UNL     1     -35.128  14.666  -6.639  1.00 20.00    -0.298 OA
ENDROOT
BRANCH   6   8
HETATM    8  C9  UNL     1     -33.825  17.423  -2.089  1.00 20.00    -0.019 C 
HETATM    9  C7  UNL     1     -32.492  17.931  -1.542  1.00 20.00     0.010 C 
HETATM   10  C8  UNL     1     -34.873  18.534  -2.066  1.00 20.00     0.010 C 
ENDBRANCH   6   8
TORSDOF 1
ENDMDL
MODEL 9
REMARK VINA RESULT:      -3.9     12.107     12.710
REMARK  1 active torsions:
REMARK  status: ('A' for Active; 'I' for Inactive)
REMARK    1  A    between atoms: C6_6  and  C9_9 
ROOT
HETATM    1  C1  UNL     1     -31.749  18.834   1.530  1.00 20.00     0.127 C 
HETATM    2  C2  UNL     1     -33.230  19.129   1.592  1.00 20.00     0.079 C 
HETATM    3  C3  UNL     1     -31.090  18.970   0.177  1.00 20.00     0.079 C 
HETATM    4  C4  UNL     1     -33.975  18.368   0.503  1.00 20.00     0.012 C 
HETATM    5  C5  UNL     1     -31.879  18.213  -0.884  1.00 20.00     0.012 C 
HETATM    6  C6  UNL     1     -33.362  18.611  -0.884  1.00 20.00    -0.010 C 
HETATM    7  O10 UNL     1     -31.096  18.596   2.545  1.00 20.00    -0.298 OA
ENDROOT
BRANCH   6   8
HETATM    8  C9  UNL     1     -34.127  17.833  -1.953  1.00 20.00    -0.019 C 
HETATM    9  C7  UNL     1     -34.543  18.758  -3.095  1.00 20.00     0.010 C 
HETATM   10  C8  UNL     1     -33.283  16.675  -2.480  1.00 20.00     0.010 C 
ENDBRANCH   6   8
TORSDOF 1
ENDMDL
