MODEL 1
REMARK VINA RESULT:      -3.8      0.000      0.000
REMARK  2 active torsions:
REMARK  status: ('A' for Active; 'I' for Inactive)
REMARK    1  A    between atoms: C2_2  and  C4_4 
REMARK    2  A    between atoms: C3_3  and  C4_4 
ROOT
HETATM    1  C4  UNL     1     -34.021   6.860   4.747  1.00 20.00     0.127 C 
HETATM    2 CL7  UNL     1     -34.273   6.738   6.514  1.00 20.00    -0.121 Cl
ENDROOT
BRANCH   1   3
HETATM    3  C2  UNL     1     -32.681   7.527   4.463  1.00 20.00     0.164 A 
HETATM    4  C1  UNL     1     -32.434   8.964   4.825  1.00 20.00     0.201 A 
HETATM    5  O5  UNL     1     -32.730   8.564   3.478  1.00 20.00    -0.380 OA
ENDBRANCH   1   3
BRANCH   1   6
HETATM    6  C3  UNL     1     -34.182   5.490   4.084  1.00 20.00     0.137 C 
HETATM    7 CL6  UNL     1     -33.058   5.212   2.731  1.00 20.00    -0.129 Cl
ENDBRANCH   1   6
TORSDOF 2
ENDMDL
MODEL 2
REMARK VINA RESULT:      -3.7      1.127      2.446
REMARK  2 active torsions:
REMARK  status: ('A' for Active; 'I' for Inactive)
REMARK    1  A    between atoms: C2_2  and  C4_4 
REMARK    2  A    between atoms: C3_3  and  C4_4 
ROOT
HETATM    1  C4  UNL     1     -33.397   6.255   4.191  1.00 20.00     0.127 C 
HETATM    2 CL7  UNL     1     -32.925   5.520   2.630  1.00 20.00    -0.121 Cl
ENDROOT
BRANCH   1   3
HETATM    3  C2  UNL     1     -33.381   7.773   4.071  1.00 20.00     0.164 A 
HETATM    4  C1  UNL     1     -32.304   8.595   4.720  1.00 20.00     0.201 A 
HETATM    5  O5  UNL     1     -33.612   8.470   5.300  1.00 20.00    -0.380 OA
ENDBRANCH   1   3
BRANCH   1   6
HETATM    6  C3  UNL     1     -34.734   5.687   4.671  1.00 20.00     0.137 C 
HETATM    7 CL6  UNL     1     -34.805   5.412   6.429  1.00 20.00    -0.129 Cl
ENDBRANCH   1   6
TORSDOF 2
ENDMDL
MODEL 3
REMARK VINA RESULT:      -3.5      2.247      2.868
REMARK  2 active torsions:
REMARK  status: ('A' for Active; 'I' for Inactive)
REMARK    1  A    between atoms: C2_2  and  C4_4 
REMARK    2  A    between atoms: C3_3  and  C4_4 
ROOT
HETATM    1  C4  UNL     1     -33.273   6.801   4.588  1.00 20.00     0.127 C 
HETATM    2 CL7  UNL     1     -33.363   8.502   5.136  1.00 20.00    -0.121 Cl
ENDROOT
BRANCH   1   3
HETATM    3  C2  UNL     1     -34.595   6.098   4.870  1.00 20.00     0.164 A 
HETATM    4  C1  UNL     1     -34.847   5.409   6.181  1.00 20.00     0.201 A 
HETATM    5  O5  UNL     1     -34.498   4.676   4.996  1.00 20.00    -0.380 OA
ENDBRANCH   1   3
BRANCH   1   6
HETATM    6  C3  UNL     1     -32.834   6.729   3.124  1.00 20.00     0.137 C 
HETATM    7 CL6  UNL     1     -32.803   5.074   2.466  1.00 20.00    -0.129 Cl
ENDBRANCH   1   6
TORSDOF 2
ENDMDL
MODEL 4
REMARK VINA RESULT:      -3.5      1.401      1.459
REMARK  2 active torsions:
REMARK  status: ('A' for Active; 'I' for Inactive)
REMARK    1  A    between atoms: C2_2  and  C4_4 
REMARK    2  A    between atoms: C3_3  and  C4_4 
ROOT
HETATM    1  C4  UNL     1     -33.945   7.299   4.822  1.00 20.00     0.127 C 
HETATM    2 CL7  UNL     1     -34.131   7.276   6.601  1.00 20.00    -0.121 Cl
ENDROOT
BRANCH   1   3
HETATM    3  C2  UNL     1     -32.604   7.921   4.453  1.00 20.00     0.164 A 
HETATM    4  C1  UNL     1     -32.474   8.848   3.277  1.00 20.00     0.201 A 
HETATM    5  O5  UNL     1     -32.064   7.474   3.205  1.00 20.00    -0.380 OA
ENDBRANCH   1   3
BRANCH   1   6
HETATM    6  C3  UNL     1     -34.158   5.900   4.240  1.00 20.00     0.137 C 
HETATM    7 CL6  UNL     1     -34.508   4.660   5.470  1.00 20.00    -0.129 Cl
ENDBRANCH   1   6
TORSDOF 2
ENDMDL
MODEL 5
REMARK VINA RESULT:      -3.4      2.471      3.592
REMARK  2 active torsions:
REMARK  status: ('A' for Active; 'I' for Inactive)
REMARK    1  A    between atoms: C2_2  and  C4_4 
REMARK    2  A    between atoms: C3_3  and  C4_4 
ROOT
HETATM    1  C4  UNL     1     -34.070   6.842   4.278  1.00 20.00     0.127 C 
HETATM    2 CL7  UNL     1     -32.911   6.042   3.175  1.00 20.00    -0.121 Cl
ENDROOT
BRANCH   1   3
HETATM    3  C2  UNL     1     -34.978   5.798   4.916  1.00 20.00     0.164 A 
HETATM    4  C1  UNL     1     -34.534   5.008   6.114  1.00 20.00     0.201 A 
HETATM    5  O5  UNL     1     -34.514   4.450   4.791  1.00 20.00    -0.380 OA
ENDBRANCH   1   3
BRANCH   1   6
HETATM    6  C3  UNL     1     -33.332   7.720   5.291  1.00 20.00     0.137 C 
HETATM    7 CL6  UNL     1     -32.196   8.872   4.545  1.00 20.00    -0.129 Cl
ENDBRANCH   1   6
TORSDOF 2
ENDMDL
MODEL 6
REMARK VINA RESULT:      -3.3      2.198      3.354
REMARK  2 active torsions:
REMARK  status: ('A' for Active; 'I' for Inactive)
REMARK    1  A    between atoms: C2_2  and  C4_4 
REMARK    2  A    between atoms: C3_3  and  C4_4 
ROOT
HETATM    1  C4  UNL     1     -33.576   6.809   4.243  1.00 20.00     0.127 C 
HETATM    2 CL7  UNL     1     -33.468   5.324   3.252  1.00 20.00    -0.121 Cl
ENDROOT
BRANCH   1   3
HETATM    3  C2  UNL     1     -33.500   6.448   5.721  1.00 20.00     0.164 A 
HETATM    4  C1  UNL     1     -34.623   5.720   6.404  1.00 20.00     0.201 A 
HETATM    5  O5  UNL     1     -34.441   7.137   6.551  1.00 20.00    -0.380 OA
ENDBRANCH   1   3
BRANCH   1   6
HETATM    6  C3  UNL     1     -32.525   7.829   3.801  1.00 20.00     0.137 C 
HETATM    7 CL6  UNL     1     -32.244   9.128   4.987  1.00 20.00    -0.129 Cl
ENDBRANCH   1   6
TORSDOF 2
ENDMDL
MODEL 7
REMARK VINA RESULT:      -3.2      2.302      3.198
REMARK  2 active torsions:
REMARK  status: ('A' for Active; 'I' for Inactive)
REMARK    1  A    between atoms: C2_2  and  C4_4 
REMARK    2  A    between atoms: C3_3  and  C4_4 
ROOT
HETATM    1  C4  UNL     1     -33.646   6.831   5.137  1.00 20.00     0.127 C 
HETATM    2 CL7  UNL     1     -34.388   6.960   6.760  1.00 20.00    -0.121 Cl
ENDROOT
BRANCH   1   3
HETATM    3  C2  UNL     1     -34.386   5.784   4.314  1.00 20.00     0.164 A 
HETATM    4  C1  UNL     1     -33.993   4.335   4.364  1.00 20.00     0.201 A 
HETATM    5  O5  UNL     1     -33.606   5.185   3.274  1.00 20.00    -0.380 OA
ENDBRANCH   1   3
BRANCH   1   6
HETATM    6  C3  UNL     1     -33.573   8.205   4.468  1.00 20.00     0.137 C 
HETATM    7 CL6  UNL     1     -32.119   9.138   4.904  1.00 20.00    -0.129 Cl
ENDBRANCH   1   6
TORSDOF 2
ENDMDL
MODEL 8
REMARK VINA RESULT:      -3.2      1.401      2.373
REMARK  2 active torsions:
REMARK  status: ('A' for Active; 'I' for Inactive)
REMARK    1  A    between atoms: C2_2  and  C4_4 
REMARK    2  A    between atoms: C3_3  and  C4_4 
ROOT
HETATM    1  C4  UNL     1     -33.358   6.862   5.003  1.00 20.00     0.127 C 
HETATM    2 CL7  UNL     1     -34.009   5.656   3.853  1.00 20.00    -0.121 Cl
ENDROOT
BRANCH   1   3
HETATM    3  C2  UNL     1     -33.393   8.248   4.371  1.00 20.00     0.164 A 
HETATM    4  C1  UNL     1     -32.357   8.673   3.369  1.00 20.00     0.201 A 
HETATM    5  O5  UNL     1     -32.302   9.098   4.740  1.00 20.00    -0.380 OA
ENDBRANCH   1   3
BRANCH   1   6
HETATM    6  C3  UNL     1     -34.089   6.776   6.344  1.00 20.00     0.137 C 
HETATM    7 CL6  UNL     1     -34.875   5.203   6.631  1.00 20.00    -0.129 Cl
ENDBRANCH   1   6
TORSDOF 2
ENDMDL
MODEL 9
REMARK VINA RESULT:      -3.2      1.783      2.546
REMARK  2 active torsions:
REMARK  status: ('A' for Active; 'I' for Inactive)
REMARK    1  A    between atoms: C2_2  and  C4_4 
REMARK    2  A    between atoms: C3_3  and  C4_4 
ROOT
HETATM    1  C4  UNL     1     -32.457   6.877   3.233  1.00 20.00     0.127 C 
HETATM    2 CL7  UNL     1     -32.117   7.754   1.711  1.00 20.00    -0.121 Cl
ENDROOT
BRANCH   1   3
HETATM    3  C2  UNL     1     -33.221   7.783   4.190  1.00 20.00     0.164 A 
HETATM    4  C1  UNL     1     -32.521   8.864   4.965  1.00 20.00     0.201 A 
HETATM    5  O5  UNL     1     -32.882   7.612   5.570  1.00 20.00    -0.380 OA
ENDBRANCH   1   3
BRANCH   1   6
HETATM    6  C3  UNL     1     -33.161   5.550   2.945  1.00 20.00     0.137 C 
HETATM    7 CL6  UNL     1     -34.246   5.016   4.252  1.00 20.00    -0.129 Cl
ENDBRANCH   1   6
TORSDOF 2
ENDMDL
