MODEL 1
REMARK VINA RESULT:      -3.7      0.000      0.000
REMARK  2 active torsions:
REMARK  status: ('A' for Active; 'I' for Inactive)
REMARK    1  A    between atoms: C2_2  and  C4_4 
REMARK    2  A    between atoms: C3_3  and  C4_4 
ROOT
HETATM    1  C4  UNL     1     -33.603   6.540   5.026  1.00 20.00     0.127 C 
HETATM    2 CL7  UNL     1     -34.500   6.384   6.566  1.00 20.00    -0.121 Cl
ENDROOT
BRANCH   1   3
HETATM    3  C2  UNL     1     -33.566   8.003   4.601  1.00 20.00     0.164 A 
HETATM    4  C1  UNL     1     -32.352   8.855   4.846  1.00 20.00     0.201 A 
HETATM    5  O5  UNL     1     -32.634   8.295   3.554  1.00 20.00    -0.380 OA
ENDBRANCH   1   3
BRANCH   1   6
HETATM    6  C3  UNL     1     -34.178   5.604   3.961  1.00 20.00     0.137 C 
HETATM    7 CL6  UNL     1     -32.997   5.130   2.713  1.00 20.00    -0.129 Cl
ENDBRANCH   1   6
TORSDOF 2
ENDMDL
MODEL 2
REMARK VINA RESULT:      -3.7      1.055      2.450
REMARK  2 active torsions:
REMARK  status: ('A' for Active; 'I' for Inactive)
REMARK    1  A    between atoms: C2_2  and  C4_4 
REMARK    2  A    between atoms: C3_3  and  C4_4 
ROOT
HETATM    1  C4  UNL     1     -33.955   6.319   3.959  1.00 20.00     0.127 C 
HETATM    2 CL7  UNL     1     -32.955   5.408   2.788  1.00 20.00    -0.121 Cl
ENDROOT
BRANCH   1   3
HETATM    3  C2  UNL     1     -33.060   7.199   4.823  1.00 20.00     0.164 A 
HETATM    4  C1  UNL     1     -32.522   8.505   4.310  1.00 20.00     0.201 A 
HETATM    5  O5  UNL     1     -33.644   8.448   5.207  1.00 20.00    -0.380 OA
ENDBRANCH   1   3
BRANCH   1   6
HETATM    6  C3  UNL     1     -34.853   5.377   4.762  1.00 20.00     0.137 C 
HETATM    7 CL6  UNL     1     -34.511   5.380   6.511  1.00 20.00    -0.129 Cl
ENDBRANCH   1   6
TORSDOF 2
ENDMDL
MODEL 3
REMARK VINA RESULT:      -3.6      2.200      3.417
REMARK  2 active torsions:
REMARK  status: ('A' for Active; 'I' for Inactive)
REMARK    1  A    between atoms: C2_2  and  C4_4 
REMARK    2  A    between atoms: C3_3  and  C4_4 
ROOT
HETATM    1  C4  UNL     1     -33.133   6.527   4.155  1.00 20.00     0.127 C 
HETATM    2 CL7  UNL     1     -33.077   5.387   2.777  1.00 20.00    -0.121 Cl
ENDROOT
BRANCH   1   3
HETATM    3  C2  UNL     1     -34.453   6.369   4.898  1.00 20.00     0.164 A 
HETATM    4  C1  UNL     1     -34.608   5.365   6.005  1.00 20.00     0.201 A 
HETATM    5  O5  UNL     1     -34.413   6.763   6.274  1.00 20.00    -0.380 OA
ENDBRANCH   1   3
BRANCH   1   6
HETATM    6  C3  UNL     1     -32.854   7.959   3.692  1.00 20.00     0.137 C 
HETATM    7 CL6  UNL     1     -32.269   9.029   4.991  1.00 20.00    -0.129 Cl
ENDBRANCH   1   6
TORSDOF 2
ENDMDL
MODEL 4
REMARK VINA RESULT:      -3.3      2.243      2.621
REMARK  2 active torsions:
REMARK  status: ('A' for Active; 'I' for Inactive)
REMARK    1  A    between atoms: C2_2  and  C4_4 
REMARK    2  A    between atoms: C3_3  and  C4_4 
ROOT
HETATM    1  C4  UNL     1     -33.214   7.574   4.238  1.00 20.00     0.127 C 
HETATM    2 CL7  UNL     1     -32.321   8.953   4.947  1.00 20.00    -0.121 Cl
ENDROOT
BRANCH   1   3
HETATM    3  C2  UNL     1     -33.505   6.541   5.319  1.00 20.00     0.164 A 
HETATM    4  C1  UNL     1     -34.367   6.876   6.504  1.00 20.00     0.201 A 
HETATM    5  O5  UNL     1     -34.873   6.122   5.390  1.00 20.00    -0.380 OA
ENDBRANCH   1   3
BRANCH   1   6
HETATM    6  C3  UNL     1     -32.471   7.005   3.027  1.00 20.00     0.137 C 
HETATM    7 CL6  UNL     1     -32.911   5.321   2.644  1.00 20.00    -0.129 Cl
ENDBRANCH   1   6
TORSDOF 2
ENDMDL
MODEL 5
REMARK VINA RESULT:      -3.3      2.260      3.110
REMARK  2 active torsions:
REMARK  status: ('A' for Active; 'I' for Inactive)
REMARK    1  A    between atoms: C2_2  and  C4_4 
REMARK    2  A    between atoms: C3_3  and  C4_4 
ROOT
HETATM    1  C4  UNL     1     -33.068   6.508   4.157  1.00 20.00     0.127 C 
HETATM    2 CL7  UNL     1     -33.147   5.349   2.795  1.00 20.00    -0.121 Cl
ENDROOT
BRANCH   1   3
HETATM    3  C2  UNL     1     -34.389   6.497   4.917  1.00 20.00     0.164 A 
HETATM    4  C1  UNL     1     -34.624   5.543   6.054  1.00 20.00     0.201 A 
HETATM    5  O5  UNL     1     -34.295   6.924   6.280  1.00 20.00    -0.380 OA
ENDBRANCH   1   3
BRANCH   1   6
HETATM    6  C3  UNL     1     -32.650   7.897   3.669  1.00 20.00     0.137 C 
HETATM    7 CL6  UNL     1     -32.157   7.936   1.958  1.00 20.00    -0.129 Cl
ENDBRANCH   1   6
TORSDOF 2
ENDMDL
MODEL 6
REMARK VINA RESULT:      -3.3      2.551      3.295
REMARK  2 active torsions:
REMARK  status: ('A' for Active; 'I' for Inactive)
REMARK    1  A    between atoms: C2_2  and  C4_4 
REMARK    2  A    between atoms: C3_3  and  C4_4 
ROOT
HETATM    1  C4  UNL     1     -34.234   7.017   4.874  1.00 20.00     0.127 C 
HETATM    2 CL7  UNL     1     -33.947   6.847   6.632  1.00 20.00    -0.121 Cl
ENDROOT
BRANCH   1   3
HETATM    3  C2  UNL     1     -34.803   5.716   4.319  1.00 20.00     0.164 A 
HETATM    4  C1  UNL     1     -33.934   4.504   4.134  1.00 20.00     0.201 A 
HETATM    5  O5  UNL     1     -34.828   4.631   5.253  1.00 20.00    -0.380 OA
ENDBRANCH   1   3
BRANCH   1   6
HETATM    6  C3  UNL     1     -32.970   7.492   4.156  1.00 20.00     0.137 C 
HETATM    7 CL6  UNL     1     -32.259   8.967   4.860  1.00 20.00    -0.129 Cl
ENDBRANCH   1   6
TORSDOF 2
ENDMDL
MODEL 7
REMARK VINA RESULT:      -3.1      2.257      3.022
REMARK  2 active torsions:
REMARK  status: ('A' for Active; 'I' for Inactive)
REMARK    1  A    between atoms: C2_2  and  C4_4 
REMARK    2  A    between atoms: C3_3  and  C4_4 
ROOT
HETATM    1  C4  UNL     1     -33.092   7.192   5.120  1.00 20.00     0.127 C 
HETATM    2 CL7  UNL     1     -32.457   8.858   4.961  1.00 20.00    -0.121 Cl
ENDROOT
BRANCH   1   3
HETATM    3  C2  UNL     1     -33.629   6.717   3.775  1.00 20.00     0.164 A 
HETATM    4  C1  UNL     1     -32.750   5.984   2.801  1.00 20.00     0.201 A 
HETATM    5  O5  UNL     1     -33.699   5.295   3.631  1.00 20.00    -0.380 OA
ENDBRANCH   1   3
BRANCH   1   6
HETATM    6  C3  UNL     1     -34.112   7.102   6.257  1.00 20.00     0.137 C 
HETATM    7 CL6  UNL     1     -34.705   5.448   6.555  1.00 20.00    -0.129 Cl
ENDBRANCH   1   6
TORSDOF 2
ENDMDL
MODEL 8
REMARK VINA RESULT:      -3.0     12.237     12.440
REMARK  2 active torsions:
REMARK  status: ('A' for Active; 'I' for Inactive)
REMARK    1  A    between atoms: C2_2  and  C4_4 
REMARK    2  A    between atoms: C3_3  and  C4_4 
ROOT
HETATM    1  C4  UNL     1     -33.205  18.239  -0.126  1.00 20.00     0.127 C 
HETATM    2 CL7  UNL     1     -34.484  18.775   1.004  1.00 20.00    -0.121 Cl
ENDROOT
BRANCH   1   3
HETATM    3  C2  UNL     1     -31.993  19.155  -0.001  1.00 20.00     0.164 A 
HETATM    4  C1  UNL     1     -30.825  18.787   0.870  1.00 20.00     0.201 A 
HETATM    5  O5  UNL     1     -30.786  18.625  -0.558  1.00 20.00    -0.380 OA
ENDBRANCH   1   3
BRANCH   1   6
HETATM    6  C3  UNL     1     -33.746  18.126  -1.552  1.00 20.00     0.137 C 
HETATM    7 CL6  UNL     1     -33.413  16.553  -2.321  1.00 20.00    -0.129 Cl
ENDBRANCH   1   6
TORSDOF 2
ENDMDL
MODEL 9
REMARK VINA RESULT:      -2.9      9.260      9.806
REMARK  2 active torsions:
REMARK  status: ('A' for Active; 'I' for Inactive)
REMARK    1  A    between atoms: C2_2  and  C4_4 
REMARK    2  A    between atoms: C3_3  and  C4_4 
ROOT
HETATM    1  C4  UNL     1     -40.655  12.900   6.277  1.00 20.00     0.127 C 
HETATM    2 CL7  UNL     1     -41.277  13.548   4.729  1.00 20.00    -0.121 Cl
ENDROOT
BRANCH   1   3
HETATM    3  C2  UNL     1     -40.464  14.039   7.270  1.00 20.00     0.164 A 
HETATM    4  C1  UNL     1     -41.406  14.232   8.425  1.00 20.00     0.201 A 
HETATM    5  O5  UNL     1     -40.116  13.622   8.595  1.00 20.00    -0.380 OA
ENDBRANCH   1   3
BRANCH   1   6
HETATM    6  C3  UNL     1     -39.396  12.060   6.053  1.00 20.00     0.137 C 
HETATM    7 CL6  UNL     1     -39.065  11.711   4.337  1.00 20.00    -0.129 Cl
ENDBRANCH   1   6
TORSDOF 2
ENDMDL
