MODEL 1
REMARK VINA RESULT:      -3.9      0.000      0.000
REMARK  2 active torsions:
REMARK  status: ('A' for Active; 'I' for Inactive)
REMARK    1  A    between atoms: C1_1  and  C2_2 
REMARK    2  A    between atoms: C2_2  and  C3_3 
ROOT
HETATM    1  C1  UNL     1     -34.826   5.203   4.902  1.00 20.00     0.173 C 
HETATM    2  O4  UNL     1     -35.760   5.856   4.355  1.00 20.00    -0.648 OA
HETATM    3  O5  UNL     1     -34.164   4.225   4.455  1.00 20.00    -0.648 OA
ENDROOT
BRANCH   1   4
HETATM    4  C2  UNL     1     -34.452   5.696   6.305  1.00 20.00     0.128 C 
BRANCH   4   5
HETATM    5  C3  UNL     1     -34.070   7.161   6.438  1.00 20.00     0.125 C 
HETATM    6 CL6  UNL     1     -33.060   7.688   5.068  1.00 20.00    -0.130 Cl
ENDBRANCH   4   5
ENDBRANCH   1   4
TORSDOF 2
ENDMDL
MODEL 2
REMARK VINA RESULT:      -3.9      0.022      1.319
REMARK  2 active torsions:
REMARK  status: ('A' for Active; 'I' for Inactive)
REMARK    1  A    between atoms: C1_1  and  C2_2 
REMARK    2  A    between atoms: C2_2  and  C3_3 
ROOT
HETATM    1  C1  UNL     1     -34.840   5.218   4.888  1.00 20.00     0.173 C 
HETATM    2  O4  UNL     1     -34.172   4.230   4.466  1.00 20.00    -0.648 OA
HETATM    3  O5  UNL     1     -35.773   5.852   4.323  1.00 20.00    -0.648 OA
ENDROOT
BRANCH   1   4
HETATM    4  C2  UNL     1     -34.449   5.685   6.295  1.00 20.00     0.128 C 
BRANCH   4   5
HETATM    5  C3  UNL     1     -34.066   7.147   6.450  1.00 20.00     0.125 C 
HETATM    6 CL6  UNL     1     -33.069   7.699   5.081  1.00 20.00    -0.130 Cl
ENDBRANCH   4   5
ENDBRANCH   1   4
TORSDOF 2
ENDMDL
MODEL 3
REMARK VINA RESULT:      -3.7      3.163      3.403
REMARK  2 active torsions:
REMARK  status: ('A' for Active; 'I' for Inactive)
REMARK    1  A    between atoms: C1_1  and  C2_2 
REMARK    2  A    between atoms: C2_2  and  C3_3 
ROOT
HETATM    1  C1  UNL     1     -32.574   8.105   4.363  1.00 20.00     0.173 C 
HETATM    2  O4  UNL     1     -32.189   9.134   4.989  1.00 20.00    -0.648 OA
HETATM    3  O5  UNL     1     -32.013   7.488   3.416  1.00 20.00    -0.648 OA
ENDROOT
BRANCH   1   4
HETATM    4  C2  UNL     1     -33.911   7.536   4.853  1.00 20.00     0.128 C 
BRANCH   4   5
HETATM    5  C3  UNL     1     -33.931   6.934   6.248  1.00 20.00     0.125 C 
HETATM    6 CL6  UNL     1     -34.653   5.306   6.235  1.00 20.00    -0.130 Cl
ENDBRANCH   4   5
ENDBRANCH   1   4
TORSDOF 2
ENDMDL
MODEL 4
REMARK VINA RESULT:      -3.7      3.168      3.541
REMARK  2 active torsions:
REMARK  status: ('A' for Active; 'I' for Inactive)
REMARK    1  A    between atoms: C1_1  and  C2_2 
REMARK    2  A    between atoms: C2_2  and  C3_3 
ROOT
HETATM    1  C1  UNL     1     -32.566   8.106   4.367  1.00 20.00     0.173 C 
HETATM    2  O4  UNL     1     -32.016   7.480   3.416  1.00 20.00    -0.648 OA
HETATM    3  O5  UNL     1     -32.179   9.144   4.972  1.00 20.00    -0.648 OA
ENDROOT
BRANCH   1   4
HETATM    4  C2  UNL     1     -33.900   7.505   4.826  1.00 20.00     0.128 C 
BRANCH   4   5
HETATM    5  C3  UNL     1     -33.947   6.934   6.233  1.00 20.00     0.125 C 
HETATM    6 CL6  UNL     1     -34.654   5.298   6.239  1.00 20.00    -0.130 Cl
ENDBRANCH   4   5
ENDBRANCH   1   4
TORSDOF 2
ENDMDL
MODEL 5
REMARK VINA RESULT:      -3.6      1.417      1.487
REMARK  2 active torsions:
REMARK  status: ('A' for Active; 'I' for Inactive)
REMARK    1  A    between atoms: C1_1  and  C2_2 
REMARK    2  A    between atoms: C2_2  and  C3_3 
ROOT
HETATM    1  C1  UNL     1     -34.514   5.305   5.315  1.00 20.00     0.173 C 
HETATM    2  O4  UNL     1     -34.852   5.411   6.529  1.00 20.00    -0.648 OA
HETATM    3  O5  UNL     1     -34.415   4.270   4.600  1.00 20.00    -0.648 OA
ENDROOT
BRANCH   1   4
HETATM    4  C2  UNL     1     -34.197   6.641   4.632  1.00 20.00     0.128 C 
BRANCH   4   5
HETATM    5  C3  UNL     1     -33.444   7.671   5.456  1.00 20.00     0.125 C 
HETATM    6 CL6  UNL     1     -32.309   8.599   4.445  1.00 20.00    -0.130 Cl
ENDBRANCH   4   5
ENDBRANCH   1   4
TORSDOF 2
ENDMDL
MODEL 6
REMARK VINA RESULT:      -3.6      1.410      1.726
REMARK  2 active torsions:
REMARK  status: ('A' for Active; 'I' for Inactive)
REMARK    1  A    between atoms: C1_1  and  C2_2 
REMARK    2  A    between atoms: C2_2  and  C3_3 
ROOT
HETATM    1  C1  UNL     1     -34.517   5.311   5.316  1.00 20.00     0.173 C 
HETATM    2  O4  UNL     1     -34.413   4.285   4.584  1.00 20.00    -0.648 OA
HETATM    3  O5  UNL     1     -34.868   5.400   6.525  1.00 20.00    -0.648 OA
ENDROOT
BRANCH   1   4
HETATM    4  C2  UNL     1     -34.146   6.623   4.614  1.00 20.00     0.128 C 
BRANCH   4   5
HETATM    5  C3  UNL     1     -33.500   7.700   5.470  1.00 20.00     0.125 C 
HETATM    6 CL6  UNL     1     -32.295   8.625   4.539  1.00 20.00    -0.130 Cl
ENDBRANCH   4   5
ENDBRANCH   1   4
TORSDOF 2
ENDMDL
MODEL 7
REMARK VINA RESULT:      -3.5      1.310      1.372
REMARK  2 active torsions:
REMARK  status: ('A' for Active; 'I' for Inactive)
REMARK    1  A    between atoms: C1_1  and  C2_2 
REMARK    2  A    between atoms: C2_2  and  C3_3 
ROOT
HETATM    1  C1  UNL     1     -34.044   5.164   4.160  1.00 20.00     0.173 C 
HETATM    2  O4  UNL     1     -33.405   5.590   3.155  1.00 20.00    -0.648 OA
HETATM    3  O5  UNL     1     -34.168   3.983   4.587  1.00 20.00    -0.648 OA
ENDROOT
BRANCH   1   4
HETATM    4  C2  UNL     1     -34.750   6.260   4.966  1.00 20.00     0.128 C 
BRANCH   4   5
HETATM    5  C3  UNL     1     -33.895   7.057   5.937  1.00 20.00     0.125 C 
HETATM    6 CL6  UNL     1     -33.062   8.396   5.109  1.00 20.00    -0.130 Cl
ENDBRANCH   4   5
ENDBRANCH   1   4
TORSDOF 2
ENDMDL
MODEL 8
REMARK VINA RESULT:      -3.5      1.523      1.895
REMARK  2 active torsions:
REMARK  status: ('A' for Active; 'I' for Inactive)
REMARK    1  A    between atoms: C1_1  and  C2_2 
REMARK    2  A    between atoms: C2_2  and  C3_3 
ROOT
HETATM    1  C1  UNL     1     -34.667   5.982   5.577  1.00 20.00     0.173 C 
HETATM    2  O4  UNL     1     -34.736   5.149   6.526  1.00 20.00    -0.648 OA
HETATM    3  O5  UNL     1     -35.256   5.974   4.462  1.00 20.00    -0.648 OA
ENDROOT
BRANCH   1   4
HETATM    4  C2  UNL     1     -33.735   7.169   5.850  1.00 20.00     0.128 C 
BRANCH   4   5
HETATM    5  C3  UNL     1     -33.523   8.151   4.710  1.00 20.00     0.125 C 
HETATM    6 CL6  UNL     1     -32.208   7.613   3.636  1.00 20.00    -0.130 Cl
ENDBRANCH   4   5
ENDBRANCH   1   4
TORSDOF 2
ENDMDL
MODEL 9
REMARK VINA RESULT:      -3.3      2.510      2.965
REMARK  2 active torsions:
REMARK  status: ('A' for Active; 'I' for Inactive)
REMARK    1  A    between atoms: C1_1  and  C2_2 
REMARK    2  A    between atoms: C2_2  and  C3_3 
ROOT
HETATM    1  C1  UNL     1     -34.073   6.977   5.519  1.00 20.00     0.173 C 
HETATM    2  O4  UNL     1     -33.262   7.701   4.873  1.00 20.00    -0.648 OA
HETATM    3  O5  UNL     1     -34.344   6.983   6.751  1.00 20.00    -0.648 OA
ENDROOT
BRANCH   1   4
HETATM    4  C2  UNL     1     -34.831   5.961   4.657  1.00 20.00     0.128 C 
BRANCH   4   5
HETATM    5  C3  UNL     1     -34.051   4.747   4.181  1.00 20.00     0.125 C 
HETATM    6 CL6  UNL     1     -33.082   5.131   2.737  1.00 20.00    -0.130 Cl
ENDBRANCH   4   5
ENDBRANCH   1   4
TORSDOF 2
ENDMDL
