MODEL 1
REMARK VINA RESULT:      -4.2      0.000      0.000
REMARK  1 active torsions:
REMARK  status: ('A' for Active; 'I' for Inactive)
REMARK    1  A    between atoms: C1_1  and  C6_6 
ROOT
HETATM    1  C3  UNL     1     -34.461   5.805   6.398  1.00 20.00     0.022 C 
HETATM    2  C4  UNL     1     -33.905   4.448   4.353  1.00 20.00     0.022 C 
HETATM    3  C5  UNL     1     -35.791   6.080   4.297  1.00 20.00     0.022 C 
HETATM    4  C6  UNL     1     -34.387   5.812   4.866  1.00 20.00     0.009 C 
ENDROOT
BRANCH   4   5
HETATM    5  C1  UNL     1     -33.430   6.933   4.418  1.00 20.00     0.130 C 
HETATM    6  C2  UNL     1     -33.407   8.219   5.210  1.00 20.00     0.091 C 
HETATM    7  O7  UNL     1     -32.706   6.815   3.426  1.00 20.00    -0.298 OA
ENDBRANCH   4   5
TORSDOF 1
ENDMDL
MODEL 2
REMARK VINA RESULT:      -4.2      0.032      1.642
REMARK  1 active torsions:
REMARK  status: ('A' for Active; 'I' for Inactive)
REMARK    1  A    between atoms: C1_1  and  C6_6 
ROOT
HETATM    1  C3  UNL     1     -35.791   6.099   4.275  1.00 20.00     0.022 C 
HETATM    2  C4  UNL     1     -34.489   5.781   6.404  1.00 20.00     0.022 C 
HETATM    3  C5  UNL     1     -33.910   4.453   4.373  1.00 20.00     0.022 C 
HETATM    4  C6  UNL     1     -34.406   5.821   4.872  1.00 20.00     0.009 C 
ENDROOT
BRANCH   4   5
HETATM    5  C1  UNL     1     -33.432   6.920   4.405  1.00 20.00     0.130 C 
HETATM    6  C2  UNL     1     -33.371   8.209   5.191  1.00 20.00     0.091 C 
HETATM    7  O7  UNL     1     -32.724   6.782   3.405  1.00 20.00    -0.298 OA
ENDBRANCH   4   5
TORSDOF 1
ENDMDL
MODEL 3
REMARK VINA RESULT:      -4.2      0.070      1.647
REMARK  1 active torsions:
REMARK  status: ('A' for Active; 'I' for Inactive)
REMARK    1  A    between atoms: C1_1  and  C6_6 
ROOT
HETATM    1  C3  UNL     1     -33.849   4.501   4.270  1.00 20.00     0.022 C 
HETATM    2  C4  UNL     1     -35.784   6.109   4.257  1.00 20.00     0.022 C 
HETATM    3  C5  UNL     1     -34.451   5.772   6.339  1.00 20.00     0.022 C 
HETATM    4  C6  UNL     1     -34.375   5.839   4.803  1.00 20.00     0.009 C 
ENDROOT
BRANCH   4   5
HETATM    5  C1  UNL     1     -33.404   6.960   4.386  1.00 20.00     0.130 C 
HETATM    6  C2  UNL     1     -33.356   8.218   5.221  1.00 20.00     0.091 C 
HETATM    7  O7  UNL     1     -32.688   6.863   3.387  1.00 20.00    -0.298 OA
ENDBRANCH   4   5
TORSDOF 1
ENDMDL
MODEL 4
REMARK VINA RESULT:      -4.1      1.535      2.705
REMARK  1 active torsions:
REMARK  status: ('A' for Active; 'I' for Inactive)
REMARK    1  A    between atoms: C1_1  and  C6_6 
ROOT
HETATM    1  C3  UNL     1     -35.875   6.305   4.259  1.00 20.00     0.022 C 
HETATM    2  C4  UNL     1     -33.656   7.393   4.732  1.00 20.00     0.022 C 
HETATM    3  C5  UNL     1     -34.560   5.665   6.288  1.00 20.00     0.022 C 
HETATM    4  C6  UNL     1     -34.461   6.088   4.812  1.00 20.00     0.009 C 
ENDROOT
BRANCH   4   5
HETATM    5  C1  UNL     1     -33.775   4.971   4.003  1.00 20.00     0.130 C 
HETATM    6  C2  UNL     1     -32.966   5.356   2.787  1.00 20.00     0.091 C 
HETATM    7  O7  UNL     1     -33.886   3.782   4.309  1.00 20.00    -0.298 OA
ENDBRANCH   4   5
TORSDOF 1
ENDMDL
MODEL 5
REMARK VINA RESULT:      -4.0      1.535      2.438
REMARK  1 active torsions:
REMARK  status: ('A' for Active; 'I' for Inactive)
REMARK    1  A    between atoms: C1_1  and  C6_6 
ROOT
HETATM    1  C3  UNL     1     -33.675   7.359   4.693  1.00 20.00     0.022 C 
HETATM    2  C4  UNL     1     -34.608   5.652   6.289  1.00 20.00     0.022 C 
HETATM    3  C5  UNL     1     -35.893   6.293   4.248  1.00 20.00     0.022 C 
HETATM    4  C6  UNL     1     -34.481   6.061   4.815  1.00 20.00     0.009 C 
ENDROOT
BRANCH   4   5
HETATM    5  C1  UNL     1     -33.778   4.958   4.000  1.00 20.00     0.130 C 
HETATM    6  C2  UNL     1     -32.972   5.361   2.789  1.00 20.00     0.091 C 
HETATM    7  O7  UNL     1     -33.875   3.765   4.299  1.00 20.00    -0.298 OA
ENDBRANCH   4   5
TORSDOF 1
ENDMDL
MODEL 6
REMARK VINA RESULT:      -4.0      1.156      2.032
REMARK  1 active torsions:
REMARK  status: ('A' for Active; 'I' for Inactive)
REMARK    1  A    between atoms: C1_1  and  C6_6 
ROOT
HETATM    1  C3  UNL     1     -35.805   6.134   4.247  1.00 20.00     0.022 C 
HETATM    2  C4  UNL     1     -34.461   5.430   6.254  1.00 20.00     0.022 C 
HETATM    3  C5  UNL     1     -33.702   4.810   3.959  1.00 20.00     0.022 C 
HETATM    4  C6  UNL     1     -34.392   5.903   4.795  1.00 20.00     0.009 C 
ENDROOT
BRANCH   4   5
HETATM    5  C1  UNL     1     -33.592   7.215   4.683  1.00 20.00     0.130 C 
HETATM    6  C2  UNL     1     -32.554   7.335   3.592  1.00 20.00     0.091 C 
HETATM    7  O7  UNL     1     -33.763   8.151   5.467  1.00 20.00    -0.298 OA
ENDBRANCH   4   5
TORSDOF 1
ENDMDL
MODEL 7
REMARK VINA RESULT:      -3.4      8.702      9.525
REMARK  1 active torsions:
REMARK  status: ('A' for Active; 'I' for Inactive)
REMARK    1  A    between atoms: C1_1  and  C6_6 
ROOT
HETATM    1  C3  UNL     1     -40.578  14.329   7.080  1.00 20.00     0.022 C 
HETATM    2  C4  UNL     1     -42.150  12.388   6.771  1.00 20.00     0.022 C 
HETATM    3  C5  UNL     1     -41.417  13.731   4.800  1.00 20.00     0.022 C 
HETATM    4  C6  UNL     1     -40.975  13.166   6.162  1.00 20.00     0.009 C 
ENDROOT
BRANCH   4   5
HETATM    5  C1  UNL     1     -39.754  12.247   5.964  1.00 20.00     0.130 C 
HETATM    6  C2  UNL     1     -39.414  11.794   4.564  1.00 20.00     0.091 C 
HETATM    7  O7  UNL     1     -39.069  11.861   6.914  1.00 20.00    -0.298 OA
ENDBRANCH   4   5
TORSDOF 1
ENDMDL
MODEL 8
REMARK VINA RESULT:      -3.4      8.698      9.611
REMARK  1 active torsions:
REMARK  status: ('A' for Active; 'I' for Inactive)
REMARK    1  A    between atoms: C1_1  and  C6_6 
ROOT
HETATM    1  C3  UNL     1     -41.358  13.709   4.752  1.00 20.00     0.022 C 
HETATM    2  C4  UNL     1     -40.593  14.376   7.054  1.00 20.00     0.022 C 
HETATM    3  C5  UNL     1     -42.122  12.427   6.760  1.00 20.00     0.022 C 
HETATM    4  C6  UNL     1     -40.944  13.197   6.137  1.00 20.00     0.009 C 
ENDROOT
BRANCH   4   5
HETATM    5  C1  UNL     1     -39.739  12.250   5.979  1.00 20.00     0.130 C 
HETATM    6  C2  UNL     1     -39.400  11.740   4.598  1.00 20.00     0.091 C 
HETATM    7  O7  UNL     1     -39.065  11.885   6.945  1.00 20.00    -0.298 OA
ENDBRANCH   4   5
TORSDOF 1
ENDMDL
MODEL 9
REMARK VINA RESULT:      -3.4      1.202      1.824
REMARK  1 active torsions:
REMARK  status: ('A' for Active; 'I' for Inactive)
REMARK    1  A    between atoms: C1_1  and  C6_6 
ROOT
HETATM    1  C3  UNL     1     -33.717   5.803   6.095  1.00 20.00     0.022 C 
HETATM    2  C4  UNL     1     -35.597   6.086   4.446  1.00 20.00     0.022 C 
HETATM    3  C5  UNL     1     -34.239   8.058   5.147  1.00 20.00     0.022 C 
HETATM    4  C6  UNL     1     -34.188   6.551   4.842  1.00 20.00     0.009 C 
ENDROOT
BRANCH   4   5
HETATM    5  C1  UNL     1     -33.186   6.293   3.700  1.00 20.00     0.130 C 
HETATM    6  C2  UNL     1     -32.215   7.389   3.333  1.00 20.00     0.091 C 
HETATM    7  O7  UNL     1     -33.173   5.232   3.072  1.00 20.00    -0.298 OA
ENDBRANCH   4   5
TORSDOF 1
ENDMDL
