MODEL 1
REMARK VINA RESULT:      -3.4      0.000      0.000
REMARK  3 active torsions:
REMARK  status: ('A' for Active; 'I' for Inactive)
REMARK    1  A    between atoms: C3_3  and  C4_4 
REMARK    2  A    between atoms: C3_3  and  S7_7 
REMARK    3  A    between atoms: C4_4  and  S8_8 
ROOT
HETATM    1  C1  UNL     1     -31.802  18.554  -0.118  1.00 20.00     0.133 C 
HETATM    2  N5  UNL     1     -30.681  18.635  -0.407  1.00 20.00    -0.184 NA
HETATM    3  S7  UNL     1     -33.431  18.438   0.314  1.00 20.00    -0.050 SA
ENDROOT
BRANCH   3   4
HETATM    4  C3  UNL     1     -34.122  18.137  -1.340  1.00 20.00     0.101 C 
BRANCH   4   5
HETATM    5  C4  UNL     1     -33.477  16.907  -1.962  1.00 20.00     0.101 C 
BRANCH   5   6
HETATM    6  S8  UNL     1     -33.681  16.937  -3.767  1.00 20.00    -0.050 SA
HETATM    7  C2  UNL     1     -33.677  15.270  -4.043  1.00 20.00     0.133 C 
HETATM    8  N6  UNL     1     -33.675  14.127  -4.240  1.00 20.00    -0.184 NA
ENDBRANCH   5   6
ENDBRANCH   4   5
ENDBRANCH   3   4
TORSDOF 3
ENDMDL
MODEL 2
REMARK VINA RESULT:      -3.4      1.731      1.890
REMARK  3 active torsions:
REMARK  status: ('A' for Active; 'I' for Inactive)
REMARK    1  A    between atoms: C3_3  and  C4_4 
REMARK    2  A    between atoms: C3_3  and  S7_7 
REMARK    3  A    between atoms: C4_4  and  S8_8 
ROOT
HETATM    1  C1  UNL     1     -31.853  18.561  -1.010  1.00 20.00     0.133 C 
HETATM    2  N5  UNL     1     -30.842  18.582  -0.442  1.00 20.00    -0.184 NA
HETATM    3  S7  UNL     1     -33.327  18.544  -1.836  1.00 20.00    -0.050 SA
ENDROOT
BRANCH   3   4
HETATM    4  C3  UNL     1     -33.374  16.775  -2.254  1.00 20.00     0.101 C 
BRANCH   4   5
HETATM    5  C4  UNL     1     -33.531  16.596  -3.758  1.00 20.00     0.101 C 
BRANCH   5   6
HETATM    6  S8  UNL     1     -33.734  14.836  -4.161  1.00 20.00    -0.050 SA
HETATM    7  C2  UNL     1     -33.953  14.991  -5.830  1.00 20.00     0.133 C 
HETATM    8  N6  UNL     1     -34.104  15.088  -6.976  1.00 20.00    -0.184 NA
ENDBRANCH   5   6
ENDBRANCH   4   5
ENDBRANCH   3   4
TORSDOF 3
ENDMDL
MODEL 3
REMARK VINA RESULT:      -3.4      1.746      5.403
REMARK  3 active torsions:
REMARK  status: ('A' for Active; 'I' for Inactive)
REMARK    1  A    between atoms: C3_3  and  C4_4 
REMARK    2  A    between atoms: C3_3  and  S7_7 
REMARK    3  A    between atoms: C4_4  and  S8_8 
ROOT
HETATM    1  C1  UNL     1     -34.051  14.991  -5.838  1.00 20.00     0.133 C 
HETATM    2  N5  UNL     1     -34.286  15.085  -6.970  1.00 20.00    -0.184 NA
HETATM    3  S7  UNL     1     -33.710  14.842  -4.190  1.00 20.00    -0.050 SA
ENDROOT
BRANCH   3   4
HETATM    4  C3  UNL     1     -33.631  16.610  -3.776  1.00 20.00     0.101 C 
BRANCH   4   5
HETATM    5  C4  UNL     1     -33.340  16.789  -2.293  1.00 20.00     0.101 C 
BRANCH   5   6
HETATM    6  S8  UNL     1     -33.330  18.555  -1.864  1.00 20.00    -0.050 SA
HETATM    7  C2  UNL     1     -31.864  18.595  -1.024  1.00 20.00     0.133 C 
HETATM    8  N6  UNL     1     -30.859  18.630  -0.445  1.00 20.00    -0.184 NA
ENDBRANCH   5   6
ENDBRANCH   4   5
ENDBRANCH   3   4
TORSDOF 3
ENDMDL
MODEL 4
REMARK VINA RESULT:      -3.4     12.210     12.921
REMARK  3 active torsions:
REMARK  status: ('A' for Active; 'I' for Inactive)
REMARK    1  A    between atoms: C3_3  and  C4_4 
REMARK    2  A    between atoms: C3_3  and  S7_7 
REMARK    3  A    between atoms: C4_4  and  S8_8 
ROOT
HETATM    1  C1  UNL     1     -34.395   4.837   5.028  1.00 20.00     0.133 C 
HETATM    2  N5  UNL     1     -34.086   4.190   4.116  1.00 20.00    -0.184 NA
HETATM    3  S7  UNL     1     -34.853   5.771   6.360  1.00 20.00    -0.050 SA
ENDROOT
BRANCH   3   4
HETATM    4  C3  UNL     1     -33.480   6.961   6.333  1.00 20.00     0.101 C 
BRANCH   4   5
HETATM    5  C4  UNL     1     -33.812   8.125   5.411  1.00 20.00     0.101 C 
BRANCH   5   6
HETATM    6  S8  UNL     1     -32.320   8.677   4.534  1.00 20.00    -0.050 SA
HETATM    7  C2  UNL     1     -32.290   7.491   3.330  1.00 20.00     0.133 C 
HETATM    8  N6  UNL     1     -32.263   6.681   2.500  1.00 20.00    -0.184 NA
ENDBRANCH   5   6
ENDBRANCH   4   5
ENDBRANCH   3   4
TORSDOF 3
ENDMDL
MODEL 5
REMARK VINA RESULT:      -3.4     12.195     12.749
REMARK  3 active torsions:
REMARK  status: ('A' for Active; 'I' for Inactive)
REMARK    1  A    between atoms: C3_3  and  C4_4 
REMARK    2  A    between atoms: C3_3  and  S7_7 
REMARK    3  A    between atoms: C4_4  and  S8_8 
ROOT
HETATM    1  C1  UNL     1     -32.298   7.576   3.379  1.00 20.00     0.133 C 
HETATM    2  N5  UNL     1     -32.254   6.768   2.548  1.00 20.00    -0.184 NA
HETATM    3  S7  UNL     1     -32.351   8.759   4.585  1.00 20.00    -0.050 SA
ENDROOT
BRANCH   3   4
HETATM    4  C3  UNL     1     -33.830   8.174   5.464  1.00 20.00     0.101 C 
BRANCH   4   5
HETATM    5  C4  UNL     1     -33.482   6.978   6.338  1.00 20.00     0.101 C 
BRANCH   5   6
HETATM    6  S8  UNL     1     -34.864   5.798   6.366  1.00 20.00    -0.050 SA
HETATM    7  C2  UNL     1     -34.404   4.849   5.046  1.00 20.00     0.133 C 
HETATM    8  N6  UNL     1     -34.095   4.193   4.140  1.00 20.00    -0.184 NA
ENDBRANCH   5   6
ENDBRANCH   4   5
ENDBRANCH   3   4
TORSDOF 3
ENDMDL
MODEL 6
REMARK VINA RESULT:      -3.3     12.016     12.579
REMARK  3 active torsions:
REMARK  status: ('A' for Active; 'I' for Inactive)
REMARK    1  A    between atoms: C3_3  and  C4_4 
REMARK    2  A    between atoms: C3_3  and  S7_7 
REMARK    3  A    between atoms: C4_4  and  S8_8 
ROOT
HETATM    1  C1  UNL     1     -34.594   5.614   5.660  1.00 20.00     0.133 C 
HETATM    2  N5  UNL     1     -34.973   4.670   5.103  1.00 20.00    -0.184 NA
HETATM    3  S7  UNL     1     -34.041   6.982   6.483  1.00 20.00    -0.050 SA
ENDROOT
BRANCH   3   4
HETATM    4  C3  UNL     1     -33.832   8.084   5.052  1.00 20.00     0.101 C 
BRANCH   4   5
HETATM    5  C4  UNL     1     -32.368   8.137   4.641  1.00 20.00     0.101 C 
BRANCH   5   6
HETATM    6  S8  UNL     1     -32.216   7.977   2.838  1.00 20.00    -0.050 SA
HETATM    7  C2  UNL     1     -32.573   6.331   2.706  1.00 20.00     0.133 C 
HETATM    8  N6  UNL     1     -32.817   5.201   2.608  1.00 20.00    -0.184 NA
ENDBRANCH   5   6
ENDBRANCH   4   5
ENDBRANCH   3   4
TORSDOF 3
ENDMDL
MODEL 7
REMARK VINA RESULT:      -3.1     15.525     16.157
REMARK  3 active torsions:
REMARK  status: ('A' for Active; 'I' for Inactive)
REMARK    1  A    between atoms: C3_3  and  C4_4 
REMARK    2  A    between atoms: C3_3  and  S7_7 
REMARK    3  A    between atoms: C4_4  and  S8_8 
ROOT
HETATM    1  C1  UNL     1     -21.455  17.838   8.060  1.00 20.00     0.133 C 
HETATM    2  N5  UNL     1     -21.530  17.031   7.229  1.00 20.00    -0.184 NA
HETATM    3  S7  UNL     1     -21.335  19.016   9.265  1.00 20.00    -0.050 SA
ENDROOT
BRANCH   3   4
HETATM    4  C3  UNL     1     -22.986  18.815   9.996  1.00 20.00     0.101 C 
BRANCH   4   5
HETATM    5  C4  UNL     1     -22.901  17.970  11.259  1.00 20.00     0.101 C 
BRANCH   5   6
HETATM    6  S8  UNL     1     -24.378  16.922  11.413  1.00 20.00    -0.050 SA
HETATM    7  C2  UNL     1     -25.460  18.101  11.957  1.00 20.00     0.133 C 
HETATM    8  N6  UNL     1     -26.209  18.905  12.331  1.00 20.00    -0.184 NA
ENDBRANCH   5   6
ENDBRANCH   4   5
ENDBRANCH   3   4
TORSDOF 3
ENDMDL
MODEL 8
REMARK VINA RESULT:      -3.0      2.536      5.601
REMARK  3 active torsions:
REMARK  status: ('A' for Active; 'I' for Inactive)
REMARK    1  A    between atoms: C3_3  and  C4_4 
REMARK    2  A    between atoms: C3_3  and  S7_7 
REMARK    3  A    between atoms: C4_4  and  S8_8 
ROOT
HETATM    1  C1  UNL     1     -36.024  14.131  -5.043  1.00 20.00     0.133 C 
HETATM    2  N5  UNL     1     -35.837  13.155  -4.444  1.00 20.00    -0.184 NA
HETATM    3  S7  UNL     1     -36.308  15.550  -5.917  1.00 20.00    -0.050 SA
ENDROOT
BRANCH   3   4
HETATM    4  C3  UNL     1     -34.648  16.279  -5.783  1.00 20.00     0.101 C 
BRANCH   4   5
HETATM    5  C4  UNL     1     -34.494  16.988  -4.445  1.00 20.00     0.101 C 
BRANCH   5   6
HETATM    6  S8  UNL     1     -33.258  16.135  -3.422  1.00 20.00    -0.050 SA
HETATM    7  C2  UNL     1     -33.526  16.962  -1.973  1.00 20.00     0.133 C 
HETATM    8  N6  UNL     1     -33.705  17.524  -0.974  1.00 20.00    -0.184 NA
ENDBRANCH   5   6
ENDBRANCH   4   5
ENDBRANCH   3   4
TORSDOF 3
ENDMDL
MODEL 9
REMARK VINA RESULT:      -3.0     11.361     11.953
REMARK  3 active torsions:
REMARK  status: ('A' for Active; 'I' for Inactive)
REMARK    1  A    between atoms: C3_3  and  C4_4 
REMARK    2  A    between atoms: C3_3  and  S7_7 
REMARK    3  A    between atoms: C4_4  and  S8_8 
ROOT
HETATM    1  C1  UNL     1     -32.553   8.685   1.908  1.00 20.00     0.133 C 
HETATM    2  N5  UNL     1     -32.808   9.589   1.227  1.00 20.00    -0.184 NA
HETATM    3  S7  UNL     1     -32.179   7.361   2.888  1.00 20.00    -0.050 SA
ENDROOT
BRANCH   3   4
HETATM    4  C3  UNL     1     -32.369   8.169   4.506  1.00 20.00     0.101 C 
BRANCH   4   5
HETATM    5  C4  UNL     1     -33.822   8.110   4.953  1.00 20.00     0.101 C 
BRANCH   5   6
HETATM    6  S8  UNL     1     -34.010   6.928   6.321  1.00 20.00    -0.050 SA
HETATM    7  C2  UNL     1     -34.445   5.570   5.414  1.00 20.00     0.133 C 
HETATM    8  N6  UNL     1     -34.744   4.633   4.799  1.00 20.00    -0.184 NA
ENDBRANCH   5   6
ENDBRANCH   4   5
ENDBRANCH   3   4
TORSDOF 3
ENDMDL
