MODEL 1
REMARK VINA RESULT:      -5.0      0.000      0.000
REMARK  1 active torsions:
REMARK  status: ('A' for Active; 'I' for Inactive)
REMARK    1  A    between atoms: C3_3  and  C8_8 
ROOT
HETATM    1  C1  UNL     1     -34.055   5.069   6.029  1.00 20.00    -0.026 C 
HETATM    2  C2  UNL     1     -34.281   6.348   6.362  1.00 20.00    -0.025 C 
HETATM    3  C4  UNL     1     -35.576   5.907   4.503  1.00 20.00     0.017 C 
HETATM    4  C5  UNL     1     -33.331   5.672   3.746  1.00 20.00     0.021 C 
HETATM    5  C6  UNL     1     -34.404   4.921   4.567  1.00 20.00     0.009 C 
HETATM    6  C7  UNL     1     -34.771   7.057   5.118  1.00 20.00     0.019 C 
HETATM    7  C8  UNL     1     -33.612   7.161   4.097  1.00 20.00     0.055 C 
ENDROOT
BRANCH   7   8
HETATM    8  C3  UNL     1     -32.409   7.875   4.633  1.00 20.00     0.236 C 
HETATM    9  O9  UNL     1     -32.369   9.086   4.821  1.00 20.00    -0.306 OA
ENDBRANCH   7   8
TORSDOF 1
ENDMDL
MODEL 2
REMARK VINA RESULT:      -4.3      1.203      1.226
REMARK  1 active torsions:
REMARK  status: ('A' for Active; 'I' for Inactive)
REMARK    1  A    between atoms: C3_3  and  C8_8 
ROOT
HETATM    1  C1  UNL     1     -33.908   5.742   6.305  1.00 20.00    -0.026 C 
HETATM    2  C2  UNL     1     -33.980   7.006   5.865  1.00 20.00    -0.025 C 
HETATM    3  C4  UNL     1     -35.604   5.816   4.735  1.00 20.00     0.017 C 
HETATM    4  C5  UNL     1     -33.546   4.849   4.030  1.00 20.00     0.021 C 
HETATM    5  C6  UNL     1     -34.513   4.863   5.235  1.00 20.00     0.009 C 
HETATM    6  C7  UNL     1     -34.624   6.970   4.495  1.00 20.00     0.019 C 
HETATM    7  C8  UNL     1     -33.653   6.305   3.489  1.00 20.00     0.055 C 
ENDROOT
BRANCH   7   8
HETATM    8  C3  UNL     1     -32.328   6.996   3.395  1.00 20.00     0.236 C 
HETATM    9  O9  UNL     1     -32.049   7.808   2.519  1.00 20.00    -0.306 OA
ENDBRANCH   7   8
TORSDOF 1
ENDMDL
MODEL 3
REMARK VINA RESULT:      -4.1      8.806     10.034
REMARK  1 active torsions:
REMARK  status: ('A' for Active; 'I' for Inactive)
REMARK    1  A    between atoms: C3_3  and  C8_8 
ROOT
HETATM    1  C1  UNL     1     -41.917   8.229  -0.722  1.00 20.00    -0.026 C 
HETATM    2  C2  UNL     1     -42.934   7.893   0.084  1.00 20.00    -0.025 C 
HETATM    3  C4  UNL     1     -40.992   7.543   1.283  1.00 20.00     0.017 C 
HETATM    4  C5  UNL     1     -40.873   5.998  -0.525  1.00 20.00     0.021 C 
HETATM    5  C6  UNL     1     -40.692   7.503  -0.219  1.00 20.00     0.009 C 
HETATM    6  C7  UNL     1     -42.389   6.932   1.120  1.00 20.00     0.019 C 
HETATM    7  C8  UNL     1     -42.027   5.592   0.436  1.00 20.00     0.055 C 
ENDROOT
BRANCH   7   8
HETATM    8  C3  UNL     1     -43.183   4.953  -0.271  1.00 20.00     0.236 C 
HETATM    9  O9  UNL     1     -43.212   4.759  -1.481  1.00 20.00    -0.306 OA
ENDBRANCH   7   8
TORSDOF 1
ENDMDL
MODEL 4
REMARK VINA RESULT:      -3.9     15.676     16.696
REMARK  1 active torsions:
REMARK  status: ('A' for Active; 'I' for Inactive)
REMARK    1  A    between atoms: C3_3  and  C8_8 
ROOT
HETATM    1  C1  UNL     1     -24.443  18.888  12.231  1.00 20.00    -0.026 C 
HETATM    2  C2  UNL     1     -25.102  18.496  11.132  1.00 20.00    -0.025 C 
HETATM    3  C4  UNL     1     -23.760  16.728  11.768  1.00 20.00     0.017 C 
HETATM    4  C5  UNL     1     -22.238  18.469  11.199  1.00 20.00     0.021 C 
HETATM    5  C6  UNL     1     -23.198  18.038  12.331  1.00 20.00     0.009 C 
HETATM    6  C7  UNL     1     -24.290  17.391  10.490  1.00 20.00     0.019 C 
HETATM    7  C8  UNL     1     -22.978  17.982   9.920  1.00 20.00     0.055 C 
ENDROOT
BRANCH   7   8
HETATM    8  C3  UNL     1     -23.203  19.074   8.920  1.00 20.00     0.236 C 
HETATM    9  O9  UNL     1     -23.408  18.869   7.729  1.00 20.00    -0.306 OA
ENDBRANCH   7   8
TORSDOF 1
ENDMDL
MODEL 5
REMARK VINA RESULT:      -3.8      0.888      2.002
REMARK  1 active torsions:
REMARK  status: ('A' for Active; 'I' for Inactive)
REMARK    1  A    between atoms: C3_3  and  C8_8 
ROOT
HETATM    1  C1  UNL     1     -35.761   5.856   4.550  1.00 20.00    -0.026 C 
HETATM    2  C2  UNL     1     -34.838   6.219   3.647  1.00 20.00    -0.025 C 
HETATM    3  C4  UNL     1     -33.836   4.669   5.033  1.00 20.00     0.017 C 
HETATM    4  C5  UNL     1     -34.328   6.518   6.450  1.00 20.00     0.021 C 
HETATM    5  C6  UNL     1     -35.019   5.324   5.754  1.00 20.00     0.009 C 
HETATM    6  C7  UNL     1     -33.479   5.940   4.254  1.00 20.00     0.019 C 
HETATM    7  C8  UNL     1     -33.229   6.922   5.425  1.00 20.00     0.055 C 
ENDROOT
BRANCH   7   8
HETATM    8  C3  UNL     1     -33.303   8.362   5.020  1.00 20.00     0.236 C 
HETATM    9  O9  UNL     1     -32.319   9.037   4.737  1.00 20.00    -0.306 OA
ENDBRANCH   7   8
TORSDOF 1
ENDMDL
MODEL 6
REMARK VINA RESULT:      -3.8     12.447     13.634
REMARK  1 active torsions:
REMARK  status: ('A' for Active; 'I' for Inactive)
REMARK    1  A    between atoms: C3_3  and  C8_8 
ROOT
HETATM    1  C1  UNL     1     -33.286  16.984  -3.349  1.00 20.00    -0.026 C 
HETATM    2  C2  UNL     1     -33.505  16.597  -2.084  1.00 20.00    -0.025 C 
HETATM    3  C4  UNL     1     -34.851  18.435  -2.459  1.00 20.00     0.017 C 
HETATM    4  C5  UNL     1     -32.627  19.263  -2.659  1.00 20.00     0.021 C 
HETATM    5  C6  UNL     1     -33.675  18.441  -3.443  1.00 20.00     0.009 C 
HETATM    6  C7  UNL     1     -34.030  17.800  -1.330  1.00 20.00     0.019 C 
HETATM    7  C8  UNL     1     -32.900  18.848  -1.185  1.00 20.00     0.055 C 
ENDROOT
BRANCH   7   8
HETATM    8  C3  UNL     1     -31.684  18.320  -0.488  1.00 20.00     0.236 C 
HETATM    9  O9  UNL     1     -30.598  18.888  -0.498  1.00 20.00    -0.306 OA
ENDBRANCH   7   8
TORSDOF 1
ENDMDL
MODEL 7
REMARK VINA RESULT:      -3.7      2.003      3.321
REMARK  1 active torsions:
REMARK  status: ('A' for Active; 'I' for Inactive)
REMARK    1  A    between atoms: C3_3  and  C8_8 
ROOT
HETATM    1  C1  UNL     1     -32.198   7.621   4.327  1.00 20.00    -0.026 C 
HETATM    2  C2  UNL     1     -33.002   6.851   3.579  1.00 20.00    -0.025 C 
HETATM    3  C4  UNL     1     -34.339   8.466   4.546  1.00 20.00     0.017 C 
HETATM    4  C5  UNL     1     -33.506   7.194   6.379  1.00 20.00     0.021 C 
HETATM    5  C6  UNL     1     -33.063   8.282   5.374  1.00 20.00     0.009 C 
HETATM    6  C7  UNL     1     -34.403   6.990   4.136  1.00 20.00     0.019 C 
HETATM    7  C8  UNL     1     -34.471   6.318   5.528  1.00 20.00     0.055 C 
ENDROOT
BRANCH   7   8
HETATM    8  C3  UNL     1     -34.087   4.870   5.510  1.00 20.00     0.236 C 
HETATM    9  O9  UNL     1     -34.307   4.124   4.562  1.00 20.00    -0.306 OA
ENDBRANCH   7   8
TORSDOF 1
ENDMDL
MODEL 8
REMARK VINA RESULT:      -3.7      9.162     10.280
REMARK  1 active torsions:
REMARK  status: ('A' for Active; 'I' for Inactive)
REMARK    1  A    between atoms: C3_3  and  C8_8 
ROOT
HETATM    1  C1  UNL     1     -43.044   5.815   2.025  1.00 20.00    -0.026 C 
HETATM    2  C2  UNL     1     -42.165   4.944   1.509  1.00 20.00    -0.025 C 
HETATM    3  C4  UNL     1     -41.363   7.057   1.036  1.00 20.00     0.017 C 
HETATM    4  C5  UNL     1     -43.417   6.909  -0.158  1.00 20.00     0.021 C 
HETATM    5  C6  UNL     1     -42.875   7.115   1.275  1.00 20.00     0.009 C 
HETATM    6  C7  UNL     1     -41.417   5.660   0.404  1.00 20.00     0.019 C 
HETATM    7  C8  UNL     1     -42.380   5.928  -0.777  1.00 20.00     0.055 C 
ENDROOT
BRANCH   7   8
HETATM    8  C3  UNL     1     -43.005   4.684  -1.330  1.00 20.00     0.236 C 
HETATM    9  O9  UNL     1     -42.785   4.260  -2.459  1.00 20.00    -0.306 OA
ENDBRANCH   7   8
TORSDOF 1
ENDMDL
MODEL 9
REMARK VINA RESULT:      -3.6      8.607     10.071
REMARK  1 active torsions:
REMARK  status: ('A' for Active; 'I' for Inactive)
REMARK    1  A    between atoms: C3_3  and  C8_8 
ROOT
HETATM    1  C1  UNL     1     -40.561   6.657   0.686  1.00 20.00    -0.026 C 
HETATM    2  C2  UNL     1     -40.915   5.994  -0.424  1.00 20.00    -0.025 C 
HETATM    3  C4  UNL     1     -42.083   7.985  -0.440  1.00 20.00     0.017 C 
HETATM    4  C5  UNL     1     -42.897   6.821   1.471  1.00 20.00     0.021 C 
HETATM    5  C6  UNL     1     -41.672   7.633   0.994  1.00 20.00     0.009 C 
HETATM    6  C7  UNL     1     -42.270   6.520  -0.850  1.00 20.00     0.019 C 
HETATM    7  C8  UNL     1     -43.338   6.077   0.178  1.00 20.00     0.055 C 
ENDROOT
BRANCH   7   8
HETATM    8  C3  UNL     1     -43.417   4.592   0.353  1.00 20.00     0.236 C 
HETATM    9  O9  UNL     1     -43.148   4.019   1.403  1.00 20.00    -0.306 OA
ENDBRANCH   7   8
TORSDOF 1
ENDMDL
