MODEL 1
REMARK VINA RESULT:      -4.0      0.000      0.000
REMARK  1 active torsions:
REMARK  status: ('A' for Active; 'I' for Inactive)
REMARK    1  A    between atoms: C8_8  and  O9_9 
ROOT
HETATM    1  C1  UNL     1     -36.036  13.652  -4.619  1.00 20.00     0.015 C 
HETATM    2  C2  UNL     1     -35.120  14.366  -4.925  1.00 20.00    -0.079 C 
HETATM    3  C3  UNL     1     -33.932  17.523  -3.390  1.00 20.00     0.000 C 
HETATM    4  C4  UNL     1     -34.990  17.450  -4.487  1.00 20.00     0.004 C 
HETATM    5  C5  UNL     1     -33.457  16.135  -2.969  1.00 20.00     0.004 C 
HETATM    6  C6  UNL     1     -34.501  16.641  -5.689  1.00 20.00     0.051 C 
HETATM    7  C7  UNL     1     -32.964  15.322  -4.167  1.00 20.00     0.051 C 
HETATM    8  C8  UNL     1     -33.996  15.241  -5.303  1.00 20.00     0.120 C 
ENDROOT
BRANCH   8   9
HETATM    9  O9  UNL     1     -33.364  14.659  -6.444  1.00 20.00    -0.378 OA
HETATM   10  H21 UNL     1     -32.447  14.485  -6.190  1.00 20.00     0.211 HD
ENDBRANCH   8   9
TORSDOF 1
ENDMDL
MODEL 2
REMARK VINA RESULT:      -4.0      1.367      3.069
REMARK  1 active torsions:
REMARK  status: ('A' for Active; 'I' for Inactive)
REMARK    1  A    between atoms: C8_8  and  O9_9 
ROOT
HETATM    1  C1  UNL     1     -33.523  16.646  -3.195  1.00 20.00     0.015 C 
HETATM    2  C2  UNL     1     -33.748  15.779  -3.994  1.00 20.00    -0.079 C 
HETATM    3  C3  UNL     1     -36.143  15.697  -6.820  1.00 20.00     0.000 C 
HETATM    4  C4  UNL     1     -36.484  15.262  -5.399  1.00 20.00     0.004 C 
HETATM    5  C5  UNL     1     -34.711  16.214  -6.927  1.00 20.00     0.004 C 
HETATM    6  C6  UNL     1     -35.481  14.238  -4.867  1.00 20.00     0.051 C 
HETATM    7  C7  UNL     1     -33.704  15.191  -6.400  1.00 20.00     0.051 C 
HETATM    8  C8  UNL     1     -34.023  14.714  -4.975  1.00 20.00     0.120 C 
ENDROOT
BRANCH   8   9
HETATM    9  O9  UNL     1     -33.166  13.614  -4.665  1.00 20.00    -0.378 OA
HETATM   10  H21 UNL     1     -32.960  13.685  -3.721  1.00 20.00     0.211 HD
ENDBRANCH   8   9
TORSDOF 1
ENDMDL
MODEL 3
REMARK VINA RESULT:      -4.0     12.220     13.229
REMARK  1 active torsions:
REMARK  status: ('A' for Active; 'I' for Inactive)
REMARK    1  A    between atoms: C8_8  and  O9_9 
ROOT
HETATM    1  C1  UNL     1     -33.920   5.008   6.743  1.00 20.00     0.015 C 
HETATM    2  C2  UNL     1     -34.257   5.557   5.730  1.00 20.00    -0.079 C 
HETATM    3  C3  UNL     1     -32.249   7.445   3.253  1.00 20.00     0.000 C 
HETATM    4  C4  UNL     1     -32.898   8.072   4.484  1.00 20.00     0.004 C 
HETATM    5  C5  UNL     1     -32.488   5.939   3.192  1.00 20.00     0.004 C 
HETATM    6  C6  UNL     1     -34.388   7.740   4.565  1.00 20.00     0.051 C 
HETATM    7  C7  UNL     1     -33.977   5.603   3.269  1.00 20.00     0.051 C 
HETATM    8  C8  UNL     1     -34.672   6.231   4.487  1.00 20.00     0.120 C 
ENDROOT
BRANCH   8   9
HETATM    9  O9  UNL     1     -36.082   6.044   4.349  1.00 20.00    -0.378 OA
HETATM   10  H21 UNL     1     -36.206   5.140   4.024  1.00 20.00     0.211 HD
ENDBRANCH   8   9
TORSDOF 1
ENDMDL
MODEL 4
REMARK VINA RESULT:      -3.9     12.590     13.655
REMARK  1 active torsions:
REMARK  status: ('A' for Active; 'I' for Inactive)
REMARK    1  A    between atoms: C8_8  and  O9_9 
ROOT
HETATM    1  C1  UNL     1     -33.119   4.897   2.862  1.00 20.00     0.015 C 
HETATM    2  C2  UNL     1     -33.907   5.401   3.614  1.00 20.00    -0.079 C 
HETATM    3  C3  UNL     1     -33.340   7.384   6.693  1.00 20.00     0.000 C 
HETATM    4  C4  UNL     1     -33.469   5.864   6.667  1.00 20.00     0.004 C 
HETATM    5  C5  UNL     1     -33.425   7.984   5.292  1.00 20.00     0.004 C 
HETATM    6  C6  UNL     1     -34.743   5.419   5.947  1.00 20.00     0.051 C 
HETATM    7  C7  UNL     1     -34.700   7.545   4.570  1.00 20.00     0.051 C 
HETATM    8  C8  UNL     1     -34.875   6.018   4.538  1.00 20.00     0.120 C 
ENDROOT
BRANCH   8   9
HETATM    9  O9  UNL     1     -36.184   5.726   4.045  1.00 20.00    -0.378 OA
HETATM   10  H21 UNL     1     -36.802   5.967   4.750  1.00 20.00     0.211 HD
ENDBRANCH   8   9
TORSDOF 1
ENDMDL
MODEL 5
REMARK VINA RESULT:      -3.8      1.581      2.676
REMARK  1 active torsions:
REMARK  status: ('A' for Active; 'I' for Inactive)
REMARK    1  A    between atoms: C8_8  and  O9_9 
ROOT
HETATM    1  C1  UNL     1     -33.720  15.500  -7.887  1.00 20.00     0.015 C 
HETATM    2  C2  UNL     1     -34.342  15.383  -6.867  1.00 20.00    -0.079 C 
HETATM    3  C3  UNL     1     -33.583  16.601  -3.451  1.00 20.00     0.000 C 
HETATM    4  C4  UNL     1     -33.127  15.252  -3.998  1.00 20.00     0.004 C 
HETATM    5  C5  UNL     1     -34.349  17.407  -4.496  1.00 20.00     0.004 C 
HETATM    6  C6  UNL     1     -34.298  14.452  -4.571  1.00 20.00     0.051 C 
HETATM    7  C7  UNL     1     -35.523  16.612  -5.070  1.00 20.00     0.051 C 
HETATM    8  C8  UNL     1     -35.107  15.237  -5.616  1.00 20.00     0.120 C 
ENDROOT
BRANCH   8   9
HETATM    9  O9  UNL     1     -36.290  14.496  -5.920  1.00 20.00    -0.378 OA
HETATM   10  H21 UNL     1     -36.503  13.983  -5.127  1.00 20.00     0.211 HD
ENDBRANCH   8   9
TORSDOF 1
ENDMDL
MODEL 6
REMARK VINA RESULT:      -3.8     12.416     13.381
REMARK  1 active torsions:
REMARK  status: ('A' for Active; 'I' for Inactive)
REMARK    1  A    between atoms: C8_8  and  O9_9 
ROOT
HETATM    1  C1  UNL     1     -36.745   6.257   3.828  1.00 20.00     0.015 C 
HETATM    2  C2  UNL     1     -35.655   5.941   4.218  1.00 20.00    -0.079 C 
HETATM    3  C3  UNL     1     -32.878   8.030   5.504  1.00 20.00     0.000 C 
HETATM    4  C4  UNL     1     -33.078   7.686   4.031  1.00 20.00     0.004 C 
HETATM    5  C5  UNL     1     -33.986   7.449   6.377  1.00 20.00     0.004 C 
HETATM    6  C6  UNL     1     -33.220   6.179   3.819  1.00 20.00     0.051 C 
HETATM    7  C7  UNL     1     -34.131   5.940   6.171  1.00 20.00     0.051 C 
HETATM    8  C8  UNL     1     -34.316   5.552   4.696  1.00 20.00     0.120 C 
ENDROOT
BRANCH   8   9
HETATM    9  O9  UNL     1     -34.220   4.130   4.589  1.00 20.00    -0.378 OA
HETATM   10  H21 UNL     1     -33.293   3.932   4.394  1.00 20.00     0.211 HD
ENDBRANCH   8   9
TORSDOF 1
ENDMDL
MODEL 7
REMARK VINA RESULT:      -3.7     11.749     13.410
REMARK  1 active torsions:
REMARK  status: ('A' for Active; 'I' for Inactive)
REMARK    1  A    between atoms: C8_8  and  O9_9 
ROOT
HETATM    1  C1  UNL     1     -43.417   4.383  -0.964  1.00 20.00     0.015 C 
HETATM    2  C2  UNL     1     -42.972   5.097  -0.108  1.00 20.00    -0.079 C 
HETATM    3  C3  UNL     1     -41.535   8.504  -0.347  1.00 20.00     0.000 C 
HETATM    4  C4  UNL     1     -40.723   7.221  -0.497  1.00 20.00     0.004 C 
HETATM    5  C5  UNL     1     -43.018   8.214  -0.132  1.00 20.00     0.004 C 
HETATM    6  C6  UNL     1     -40.940   6.275   0.683  1.00 20.00     0.051 C 
HETATM    7  C7  UNL     1     -43.241   7.270   1.050  1.00 20.00     0.051 C 
HETATM    8  C8  UNL     1     -42.425   5.972   0.944  1.00 20.00     0.120 C 
ENDROOT
BRANCH   8   9
HETATM    9  O9  UNL     1     -42.531   5.270   2.183  1.00 20.00    -0.378 OA
HETATM   10  H21 UNL     1     -42.291   4.350   1.998  1.00 20.00     0.211 HD
ENDBRANCH   8   9
TORSDOF 1
ENDMDL
MODEL 8
REMARK VINA RESULT:      -3.7     11.681     13.366
REMARK  1 active torsions:
REMARK  status: ('A' for Active; 'I' for Inactive)
REMARK    1  A    between atoms: C8_8  and  O9_9 
ROOT
HETATM    1  C1  UNL     1     -43.417   5.339   2.567  1.00 20.00     0.015 C 
HETATM    2  C2  UNL     1     -42.982   5.449   1.454  1.00 20.00    -0.079 C 
HETATM    3  C3  UNL     1     -41.246   8.295  -0.162  1.00 20.00     0.000 C 
HETATM    4  C4  UNL     1     -42.759   8.108  -0.159  1.00 20.00     0.004 C 
HETATM    5  C5  UNL     1     -40.537   7.194   0.621  1.00 20.00     0.004 C 
HETATM    6  C6  UNL     1     -43.156   6.721  -0.666  1.00 20.00     0.051 C 
HETATM    7  C7  UNL     1     -40.928   5.804   0.116  1.00 20.00     0.051 C 
HETATM    8  C8  UNL     1     -42.448   5.583   0.087  1.00 20.00     0.120 C 
ENDROOT
BRANCH   8   9
HETATM    9  O9  UNL     1     -42.712   4.357  -0.598  1.00 20.00    -0.378 OA
HETATM   10  H21 UNL     1     -42.245   3.664  -0.108  1.00 20.00     0.211 HD
ENDBRANCH   8   9
TORSDOF 1
ENDMDL
MODEL 9
REMARK VINA RESULT:      -3.7     12.417     13.663
REMARK  1 active torsions:
REMARK  status: ('A' for Active; 'I' for Inactive)
REMARK    1  A    between atoms: C8_8  and  O9_9 
ROOT
HETATM    1  C1  UNL     1     -43.417   4.184  -1.815  1.00 20.00     0.015 C 
HETATM    2  C2  UNL     1     -42.675   4.841  -1.137  1.00 20.00    -0.079 C 
HETATM    3  C3  UNL     1     -43.417   7.197   1.626  1.00 20.00     0.000 C 
HETATM    4  C4  UNL     1     -43.351   7.598   0.156  1.00 20.00     0.004 C 
HETATM    5  C5  UNL     1     -43.188   5.700   1.816  1.00 20.00     0.004 C 
HETATM    6  C6  UNL     1     -42.041   7.149  -0.492  1.00 20.00     0.051 C 
HETATM    7  C7  UNL     1     -41.876   5.246   1.173  1.00 20.00     0.051 C 
HETATM    8  C8  UNL     1     -41.764   5.648  -0.306  1.00 20.00     0.120 C 
ENDROOT
BRANCH   8   9
HETATM    9  O9  UNL     1     -40.431   5.377  -0.746  1.00 20.00    -0.378 OA
HETATM   10  H21 UNL     1     -40.453   5.399  -1.714  1.00 20.00     0.211 HD
ENDBRANCH   8   9
TORSDOF 1
ENDMDL
