MODEL 1
REMARK VINA RESULT:      -5.5      0.000      0.000
REMARK  0 active torsions:
REMARK  status: ('A' for Active; 'I' for Inactive)
ROOT
HETATM    1  C1  UNL     1     -33.265   6.980   4.061  1.00 20.00    -0.017 C 
HETATM    2  C2  UNL     1     -33.538   5.559   3.686  1.00 20.00     0.159 C 
HETATM    3  C3  UNL     1     -32.326   7.759   3.531  1.00 20.00     0.023 C 
HETATM    4  C4  UNL     1     -33.986   6.461   6.375  1.00 20.00     0.010 C 
HETATM    5  C5  UNL     1     -34.252   4.993   5.955  1.00 20.00     0.013 C 
HETATM    6  C6  UNL     1     -35.495   6.462   4.543  1.00 20.00     0.022 C 
HETATM    7  C7  UNL     1     -34.318   7.270   5.105  1.00 20.00     0.022 C 
HETATM    8  C8  UNL     1     -34.737   5.128   4.504  1.00 20.00     0.061 C 
HETATM    9  O9  UNL     1     -32.890   4.877   2.915  1.00 20.00    -0.292 OA
ENDROOT
TORSDOF 0
ENDMDL
MODEL 2
REMARK VINA RESULT:      -5.3      1.032      1.088
REMARK  0 active torsions:
REMARK  status: ('A' for Active; 'I' for Inactive)
ROOT
HETATM    1  C1  UNL     1     -33.508   7.314   4.903  1.00 20.00    -0.017 C 
HETATM    2  C2  UNL     1     -33.311   6.342   3.784  1.00 20.00     0.159 C 
HETATM    3  C3  UNL     1     -32.847   8.457   5.068  1.00 20.00     0.023 C 
HETATM    4  C4  UNL     1     -34.091   5.417   6.389  1.00 20.00     0.010 C 
HETATM    5  C5  UNL     1     -33.871   4.435   5.209  1.00 20.00     0.013 C 
HETATM    6  C6  UNL     1     -35.475   6.088   4.581  1.00 20.00     0.022 C 
HETATM    7  C7  UNL     1     -34.626   6.692   5.707  1.00 20.00     0.022 C 
HETATM    8  C8  UNL     1     -34.335   5.246   3.990  1.00 20.00     0.061 C 
HETATM    9  O9  UNL     1     -32.461   6.400   2.916  1.00 20.00    -0.292 OA
ENDROOT
TORSDOF 0
ENDMDL
MODEL 3
REMARK VINA RESULT:      -4.9      1.215      1.418
REMARK  0 active torsions:
REMARK  status: ('A' for Active; 'I' for Inactive)
ROOT
HETATM    1  C1  UNL     1     -33.535   5.785   3.682  1.00 20.00    -0.017 C 
HETATM    2  C2  UNL     1     -34.083   4.659   4.499  1.00 20.00     0.159 C 
HETATM    3  C3  UNL     1     -32.685   5.669   2.665  1.00 20.00     0.023 C 
HETATM    4  C4  UNL     1     -33.651   7.236   5.689  1.00 20.00     0.010 C 
HETATM    5  C5  UNL     1     -34.211   6.045   6.508  1.00 20.00     0.013 C 
HETATM    6  C6  UNL     1     -35.594   6.417   4.598  1.00 20.00     0.022 C 
HETATM    7  C7  UNL     1     -34.212   7.000   4.272  1.00 20.00     0.022 C 
HETATM    8  C8  UNL     1     -35.055   5.280   5.479  1.00 20.00     0.061 C 
HETATM    9  O9  UNL     1     -33.767   3.487   4.419  1.00 20.00    -0.292 OA
ENDROOT
TORSDOF 0
ENDMDL
MODEL 4
REMARK VINA RESULT:      -4.2      8.198      9.282
REMARK  0 active torsions:
REMARK  status: ('A' for Active; 'I' for Inactive)
ROOT
HETATM    1  C1  UNL     1     -41.987   5.813   0.926  1.00 20.00    -0.017 C 
HETATM    2  C2  UNL     1     -41.009   6.130  -0.159  1.00 20.00     0.159 C 
HETATM    3  C3  UNL     1     -42.347   4.593   1.319  1.00 20.00     0.023 C 
HETATM    4  C4  UNL     1     -43.220   7.887   0.359  1.00 20.00     0.010 C 
HETATM    5  C5  UNL     1     -42.191   8.183  -0.762  1.00 20.00     0.013 C 
HETATM    6  C6  UNL     1     -41.048   7.920   1.317  1.00 20.00     0.022 C 
HETATM    7  C7  UNL     1     -42.384   7.176   1.442  1.00 20.00     0.022 C 
HETATM    8  C8  UNL     1     -40.878   7.638  -0.183  1.00 20.00     0.061 C 
HETATM    9  O9  UNL     1     -40.470   5.333  -0.903  1.00 20.00    -0.292 OA
ENDROOT
TORSDOF 0
ENDMDL
MODEL 5
REMARK VINA RESULT:      -3.8      8.561      9.196
REMARK  0 active torsions:
REMARK  status: ('A' for Active; 'I' for Inactive)
ROOT
HETATM    1  C1  UNL     1     -41.555   7.439   0.087  1.00 20.00    -0.017 C 
HETATM    2  C2  UNL     1     -41.122   6.028  -0.159  1.00 20.00     0.159 C 
HETATM    3  C3  UNL     1     -40.792   8.521  -0.042  1.00 20.00     0.023 C 
HETATM    4  C4  UNL     1     -43.110   6.610   1.831  1.00 20.00     0.010 C 
HETATM    5  C5  UNL     1     -42.633   5.160   1.555  1.00 20.00     0.013 C 
HETATM    6  C6  UNL     1     -43.417   6.139  -0.476  1.00 20.00     0.022 C 
HETATM    7  C7  UNL     1     -43.014   7.293   0.452  1.00 20.00     0.022 C 
HETATM    8  C8  UNL     1     -42.350   5.167   0.046  1.00 20.00     0.061 C 
HETATM    9  O9  UNL     1     -39.995   5.653  -0.421  1.00 20.00    -0.292 OA
ENDROOT
TORSDOF 0
ENDMDL
MODEL 6
REMARK VINA RESULT:      -3.8      8.635      9.599
REMARK  0 active torsions:
REMARK  status: ('A' for Active; 'I' for Inactive)
ROOT
HETATM    1  C1  UNL     1     -41.286   7.620   0.264  1.00 20.00    -0.017 C 
HETATM    2  C2  UNL     1     -42.738   7.570  -0.092  1.00 20.00     0.159 C 
HETATM    3  C3  UNL     1     -40.530   8.714   0.296  1.00 20.00     0.023 C 
HETATM    4  C4  UNL     1     -41.018   5.353  -0.701  1.00 20.00     0.010 C 
HETATM    5  C5  UNL     1     -42.526   5.336  -1.063  1.00 20.00     0.013 C 
HETATM    6  C6  UNL     1     -42.272   5.754   1.274  1.00 20.00     0.022 C 
HETATM    7  C7  UNL     1     -40.963   6.183   0.597  1.00 20.00     0.022 C 
HETATM    8  C8  UNL     1     -43.168   6.130   0.085  1.00 20.00     0.061 C 
HETATM    9  O9  UNL     1     -43.417   8.497  -0.492  1.00 20.00    -0.292 OA
ENDROOT
TORSDOF 0
ENDMDL
MODEL 7
REMARK VINA RESULT:      -3.7      1.215      2.432
REMARK  0 active torsions:
REMARK  status: ('A' for Active; 'I' for Inactive)
ROOT
HETATM    1  C1  UNL     1     -33.352   5.546   3.538  1.00 20.00    -0.017 C 
HETATM    2  C2  UNL     1     -32.889   6.878   4.036  1.00 20.00     0.159 C 
HETATM    3  C3  UNL     1     -32.883   4.909   2.469  1.00 20.00     0.023 C 
HETATM    4  C4  UNL     1     -35.621   6.066   4.391  1.00 20.00     0.010 C 
HETATM    5  C5  UNL     1     -35.109   7.443   4.890  1.00 20.00     0.013 C 
HETATM    6  C6  UNL     1     -33.770   5.707   5.835  1.00 20.00     0.022 C 
HETATM    7  C7  UNL     1     -34.396   5.143   4.553  1.00 20.00     0.022 C 
HETATM    8  C8  UNL     1     -33.663   7.146   5.310  1.00 20.00     0.061 C 
HETATM    9  O9  UNL     1     -32.088   7.616   3.493  1.00 20.00    -0.292 OA
ENDROOT
TORSDOF 0
ENDMDL
MODEL 8
REMARK VINA RESULT:      -3.7      8.450      9.880
REMARK  0 active torsions:
REMARK  status: ('A' for Active; 'I' for Inactive)
ROOT
HETATM    1  C1  UNL     1     -42.910   5.033   0.332  1.00 20.00    -0.017 C 
HETATM    2  C2  UNL     1     -42.919   5.962   1.505  1.00 20.00     0.159 C 
HETATM    3  C3  UNL     1     -43.417   3.803   0.309  1.00 20.00     0.023 C 
HETATM    4  C4  UNL     1     -40.762   6.038  -0.390  1.00 20.00     0.010 C 
HETATM    5  C5  UNL     1     -40.799   6.982   0.839  1.00 20.00     0.013 C 
HETATM    6  C6  UNL     1     -42.807   7.244  -0.425  1.00 20.00     0.022 C 
HETATM    7  C7  UNL     1     -42.250   5.852  -0.752  1.00 20.00     0.022 C 
HETATM    8  C8  UNL     1     -42.298   7.256   1.024  1.00 20.00     0.061 C 
HETATM    9  O9  UNL     1     -43.303   5.703   2.630  1.00 20.00    -0.292 OA
ENDROOT
TORSDOF 0
ENDMDL
MODEL 9
REMARK VINA RESULT:      -3.7     12.502     13.640
REMARK  0 active torsions:
REMARK  status: ('A' for Active; 'I' for Inactive)
ROOT
HETATM    1  C1  UNL     1     -34.034  16.025  -4.255  1.00 20.00    -0.017 C 
HETATM    2  C2  UNL     1     -34.544  14.670  -4.629  1.00 20.00     0.159 C 
HETATM    3  C3  UNL     1     -33.282  16.309  -3.196  1.00 20.00     0.023 C 
HETATM    4  C4  UNL     1     -36.077  17.018  -5.249  1.00 20.00     0.010 C 
HETATM    5  C5  UNL     1     -36.579  15.598  -5.616  1.00 20.00     0.013 C 
HETATM    6  C6  UNL     1     -34.416  15.946  -6.563  1.00 20.00     0.022 C 
HETATM    7  C7  UNL     1     -34.544  16.906  -5.372  1.00 20.00     0.022 C 
HETATM    8  C8  UNL     1     -35.283  14.842  -5.940  1.00 20.00     0.061 C 
HETATM    9  O9  UNL     1     -34.428  13.649  -3.979  1.00 20.00    -0.292 OA
ENDROOT
TORSDOF 0
ENDMDL
