MODEL 1
REMARK VINA RESULT:      -4.0      0.000      0.000
REMARK  1 active torsions:
REMARK  status: ('A' for Active; 'I' for Inactive)
REMARK    1  A    between atoms: C3_3  and  C6_6 
ROOT
HETATM    1  C1  UNL     1     -33.257   5.815   3.418  1.00 20.00     0.100 C 
HETATM    2  C2  UNL     1     -33.536   8.112   4.510  1.00 20.00     0.169 A 
HETATM    3  C3  UNL     1     -33.830   6.627   4.449  1.00 20.00     0.174 A 
HETATM    4  C4  UNL     1     -32.667   8.816   3.527  1.00 20.00     0.044 C 
HETATM    5  N7  UNL     1     -32.794   5.157   2.582  1.00 20.00    -0.194 NA
HETATM    6  O8  UNL     1     -32.847   7.175   5.344  1.00 20.00    -0.354 OA
ENDROOT
BRANCH   3   7
HETATM    7  C6  UNL     1     -35.040   6.095   5.148  1.00 20.00     0.052 C 
HETATM    8  C5  UNL     1     -34.700   5.290   6.374  1.00 20.00     0.009 C 
ENDBRANCH   3   7
TORSDOF 1
ENDMDL
MODEL 2
REMARK VINA RESULT:      -4.0      0.980      2.988
REMARK  1 active torsions:
REMARK  status: ('A' for Active; 'I' for Inactive)
REMARK    1  A    between atoms: C3_3  and  C6_6 
ROOT
HETATM    1  C1  UNL     1     -33.198   6.047   3.574  1.00 20.00     0.100 C 
HETATM    2  C2  UNL     1     -34.060   6.676   5.899  1.00 20.00     0.169 A 
HETATM    3  C3  UNL     1     -33.385   7.037   4.592  1.00 20.00     0.174 A 
HETATM    4  C4  UNL     1     -34.553   5.308   6.217  1.00 20.00     0.044 C 
HETATM    5  N7  UNL     1     -33.046   5.245   2.749  1.00 20.00    -0.194 NA
HETATM    6  O8  UNL     1     -34.770   7.331   4.843  1.00 20.00    -0.354 OA
ENDROOT
BRANCH   3   7
HETATM    7  C6  UNL     1     -32.520   8.255   4.530  1.00 20.00     0.052 C 
HETATM    8  C5  UNL     1     -32.462   8.862   3.154  1.00 20.00     0.009 C 
ENDBRANCH   3   7
TORSDOF 1
ENDMDL
MODEL 3
REMARK VINA RESULT:      -3.5      1.945      2.666
REMARK  1 active torsions:
REMARK  status: ('A' for Active; 'I' for Inactive)
REMARK    1  A    between atoms: C3_3  and  C6_6 
ROOT
HETATM    1  C1  UNL     1     -33.259   7.457   4.435  1.00 20.00     0.100 C 
HETATM    2  C2  UNL     1     -33.815   5.051   3.768  1.00 20.00     0.169 A 
HETATM    3  C3  UNL     1     -33.952   6.234   4.705  1.00 20.00     0.174 A 
HETATM    4  C4  UNL     1     -32.969   5.069   2.544  1.00 20.00     0.044 C 
HETATM    5  N7  UNL     1     -32.697   8.449   4.217  1.00 20.00    -0.194 NA
HETATM    6  O8  UNL     1     -34.949   5.923   3.717  1.00 20.00    -0.354 OA
ENDROOT
BRANCH   3   7
HETATM    7  C6  UNL     1     -34.413   6.002   6.109  1.00 20.00     0.052 C 
HETATM    8  C5  UNL     1     -34.274   7.223   6.978  1.00 20.00     0.009 C 
ENDBRANCH   3   7
TORSDOF 1
ENDMDL
MODEL 4
REMARK VINA RESULT:      -3.5      1.766      2.728
REMARK  1 active torsions:
REMARK  status: ('A' for Active; 'I' for Inactive)
REMARK    1  A    between atoms: C3_3  and  C6_6 
ROOT
HETATM    1  C1  UNL     1     -34.394   5.630   4.605  1.00 20.00     0.100 C 
HETATM    2  C2  UNL     1     -33.173   7.783   5.255  1.00 20.00     0.169 A 
HETATM    3  C3  UNL     1     -33.518   6.705   4.248  1.00 20.00     0.174 A 
HETATM    4  C4  UNL     1     -33.694   7.798   6.650  1.00 20.00     0.044 C 
HETATM    5  N7  UNL     1     -35.104   4.759   4.895  1.00 20.00    -0.194 NA
HETATM    6  O8  UNL     1     -34.170   7.986   4.249  1.00 20.00    -0.354 OA
ENDROOT
BRANCH   3   7
HETATM    7  C6  UNL     1     -32.621   6.495   3.070  1.00 20.00     0.052 C 
HETATM    8  C5  UNL     1     -32.834   5.162   2.404  1.00 20.00     0.009 C 
ENDBRANCH   3   7
TORSDOF 1
ENDMDL
MODEL 5
REMARK VINA RESULT:      -3.4      9.611     10.120
REMARK  1 active torsions:
REMARK  status: ('A' for Active; 'I' for Inactive)
REMARK    1  A    between atoms: C3_3  and  C6_6 
ROOT
HETATM    1  C1  UNL     1     -41.366  13.775   4.959  1.00 20.00     0.100 C 
HETATM    2  C2  UNL     1     -39.484  12.278   5.833  1.00 20.00     0.169 A 
HETATM    3  C3  UNL     1     -40.581  13.299   6.058  1.00 20.00     0.174 A 
HETATM    4  C4  UNL     1     -39.145  11.721   4.495  1.00 20.00     0.044 C 
HETATM    5  N7  UNL     1     -42.001  14.162   4.069  1.00 20.00    -0.194 NA
HETATM    6  O8  UNL     1     -40.775  11.899   6.323  1.00 20.00    -0.354 OA
ENDROOT
BRANCH   3   7
HETATM    7  C6  UNL     1     -40.551  14.140   7.294  1.00 20.00     0.052 C 
HETATM    8  C5  UNL     1     -41.908  14.294   7.928  1.00 20.00     0.009 C 
ENDBRANCH   3   7
TORSDOF 1
ENDMDL
MODEL 6
REMARK VINA RESULT:      -3.4      2.172      2.475
REMARK  1 active torsions:
REMARK  status: ('A' for Active; 'I' for Inactive)
REMARK    1  A    between atoms: C3_3  and  C6_6 
ROOT
HETATM    1  C1  UNL     1     -34.041   6.876   5.782  1.00 20.00     0.100 C 
HETATM    2  C2  UNL     1     -32.574   8.014   4.021  1.00 20.00     0.169 A 
HETATM    3  C3  UNL     1     -33.555   6.936   4.437  1.00 20.00     0.174 A 
HETATM    4  C4  UNL     1     -32.052   9.050   4.953  1.00 20.00     0.044 C 
HETATM    5  N7  UNL     1     -34.434   6.827   6.873  1.00 20.00    -0.194 NA
HETATM    6  O8  UNL     1     -33.973   8.121   3.740  1.00 20.00    -0.354 OA
ENDROOT
BRANCH   3   7
HETATM    7  C6  UNL     1     -33.663   5.692   3.613  1.00 20.00     0.052 C 
HETATM    8  C5  UNL     1     -34.117   4.500   4.413  1.00 20.00     0.009 C 
ENDBRANCH   3   7
TORSDOF 1
ENDMDL
MODEL 7
REMARK VINA RESULT:      -3.3     12.244     13.115
REMARK  1 active torsions:
REMARK  status: ('A' for Active; 'I' for Inactive)
REMARK    1  A    between atoms: C3_3  and  C6_6 
ROOT
HETATM    1  C1  UNL     1     -35.309  14.066  -4.826  1.00 20.00     0.100 C 
HETATM    2  C2  UNL     1     -34.633  16.033  -6.317  1.00 20.00     0.169 A 
HETATM    3  C3  UNL     1     -34.311  14.997  -5.258  1.00 20.00     0.174 A 
HETATM    4  C4  UNL     1     -35.970  16.161  -6.957  1.00 20.00     0.044 C 
HETATM    5  N7  UNL     1     -36.119  13.311  -4.476  1.00 20.00    -0.194 NA
HETATM    6  O8  UNL     1     -33.938  14.823  -6.635  1.00 20.00    -0.354 OA
ENDROOT
BRANCH   3   7
HETATM    7  C6  UNL     1     -33.145  15.222  -4.349  1.00 20.00     0.052 C 
HETATM    8  C5  UNL     1     -33.497  16.050  -3.142  1.00 20.00     0.009 C 
ENDBRANCH   3   7
TORSDOF 1
ENDMDL
MODEL 8
REMARK VINA RESULT:      -3.3     12.676     13.071
REMARK  1 active torsions:
REMARK  status: ('A' for Active; 'I' for Inactive)
REMARK    1  A    between atoms: C3_3  and  C6_6 
ROOT
HETATM    1  C1  UNL     1     -31.727  18.501  -0.795  1.00 20.00     0.100 C 
HETATM    2  C2  UNL     1     -34.271  18.595  -0.530  1.00 20.00     0.169 A 
HETATM    3  C3  UNL     1     -33.031  18.224  -1.318  1.00 20.00     0.174 A 
HETATM    4  C4  UNL     1     -34.227  19.263   0.800  1.00 20.00     0.044 C 
HETATM    5  N7  UNL     1     -30.671  18.726  -0.370  1.00 20.00    -0.194 NA
HETATM    6  O8  UNL     1     -33.757  17.259  -0.538  1.00 20.00    -0.354 OA
ENDROOT
BRANCH   3   7
HETATM    7  C6  UNL     1     -33.144  18.004  -2.793  1.00 20.00     0.052 C 
HETATM    8  C5  UNL     1     -33.300  16.551  -3.156  1.00 20.00     0.009 C 
ENDBRANCH   3   7
TORSDOF 1
ENDMDL
MODEL 9
REMARK VINA RESULT:      -3.3      9.872     10.507
REMARK  1 active torsions:
REMARK  status: ('A' for Active; 'I' for Inactive)
REMARK    1  A    between atoms: C3_3  and  C6_6 
ROOT
HETATM    1  C1  UNL     1     -41.502  13.785   4.721  1.00 20.00     0.100 C 
HETATM    2  C2  UNL     1     -41.939  12.572   6.931  1.00 20.00     0.169 A 
HETATM    3  C3  UNL     1     -40.994  13.092   5.866  1.00 20.00     0.174 A 
HETATM    4  C4  UNL     1     -43.417  12.730   6.862  1.00 20.00     0.044 C 
HETATM    5  N7  UNL     1     -41.913  14.347   3.792  1.00 20.00    -0.194 NA
HETATM    6  O8  UNL     1     -41.220  13.799   7.097  1.00 20.00    -0.354 OA
ENDROOT
BRANCH   3   7
HETATM    7  C6  UNL     1     -39.623  12.505   5.760  1.00 20.00     0.052 C 
HETATM    8  C5  UNL     1     -39.395  11.785   4.458  1.00 20.00     0.009 C 
ENDBRANCH   3   7
TORSDOF 1
ENDMDL
