MODEL 1
REMARK VINA RESULT:      -5.9      0.000      0.000
REMARK  0 active torsions:
REMARK  status: ('A' for Active; 'I' for Inactive)
ROOT
HETATM    1  C1  UNL     1     -34.199   5.613   6.362  1.00 20.00    -0.029 C 
HETATM    2  C2  UNL     1     -33.785   6.883   6.334  1.00 20.00    -0.023 C 
HETATM    3  C3  UNL     1     -33.151   6.083   3.373  1.00 20.00     0.264 C 
HETATM    4  C4  UNL     1     -34.811   5.200   5.062  1.00 20.00     0.042 C 
HETATM    5  C5  UNL     1     -32.874   8.150   4.339  1.00 20.00     0.188 C 
HETATM    6  C6  UNL     1     -34.075   7.533   5.016  1.00 20.00     0.046 C 
HETATM    7  C7  UNL     1     -34.434   6.349   4.127  1.00 20.00     0.098 C 
HETATM    8  O8  UNL     1     -32.920   5.098   2.689  1.00 20.00    -0.265 OA
HETATM    9  O9  UNL     1     -32.272   7.112   3.559  1.00 20.00    -0.320 OA
ENDROOT
TORSDOF 0
ENDMDL
MODEL 2
REMARK VINA RESULT:      -5.0      1.092      1.365
REMARK  0 active torsions:
REMARK  status: ('A' for Active; 'I' for Inactive)
ROOT
HETATM    1  C1  UNL     1     -33.777   6.854   6.614  1.00 20.00    -0.029 C 
HETATM    2  C2  UNL     1     -33.211   7.622   5.679  1.00 20.00    -0.023 C 
HETATM    3  C3  UNL     1     -33.811   5.081   3.949  1.00 20.00     0.264 C 
HETATM    4  C4  UNL     1     -34.870   6.006   6.050  1.00 20.00     0.042 C 
HETATM    5  C5  UNL     1     -32.894   7.062   3.230  1.00 20.00     0.188 C 
HETATM    6  C6  UNL     1     -33.852   7.427   4.338  1.00 20.00     0.046 C 
HETATM    7  C7  UNL     1     -34.682   6.166   4.541  1.00 20.00     0.098 C 
HETATM    8  O8  UNL     1     -33.995   3.879   4.066  1.00 20.00    -0.265 OA
HETATM    9  O9  UNL     1     -32.778   5.635   3.248  1.00 20.00    -0.320 OA
ENDROOT
TORSDOF 0
ENDMDL
MODEL 3
REMARK VINA RESULT:      -4.7      1.719      2.912
REMARK  0 active torsions:
REMARK  status: ('A' for Active; 'I' for Inactive)
ROOT
HETATM    1  C1  UNL     1     -33.241   4.950   3.384  1.00 20.00    -0.029 C 
HETATM    2  C2  UNL     1     -34.048   4.609   4.392  1.00 20.00    -0.023 C 
HETATM    3  C3  UNL     1     -33.241   7.483   5.342  1.00 20.00     0.264 C 
HETATM    4  C4  UNL     1     -33.342   6.405   3.058  1.00 20.00     0.042 C 
HETATM    5  C5  UNL     1     -34.710   6.045   6.370  1.00 20.00     0.188 C 
HETATM    6  C6  UNL     1     -34.840   5.781   4.889  1.00 20.00     0.046 C 
HETATM    7  C7  UNL     1     -34.135   6.965   4.239  1.00 20.00     0.098 C 
HETATM    8  O8  UNL     1     -32.351   8.308   5.207  1.00 20.00    -0.265 OA
HETATM    9  O9  UNL     1     -33.572   6.899   6.531  1.00 20.00    -0.320 OA
ENDROOT
TORSDOF 0
ENDMDL
MODEL 4
REMARK VINA RESULT:      -4.5      1.932      3.354
REMARK  0 active torsions:
REMARK  status: ('A' for Active; 'I' for Inactive)
ROOT
HETATM    1  C1  UNL     1     -32.410   7.489   3.778  1.00 20.00    -0.029 C 
HETATM    2  C2  UNL     1     -32.703   6.244   3.392  1.00 20.00    -0.023 C 
HETATM    3  C3  UNL     1     -34.377   6.358   6.036  1.00 20.00     0.264 C 
HETATM    4  C4  UNL     1     -33.571   8.151   4.447  1.00 20.00     0.042 C 
HETATM    5  C5  UNL     1     -34.271   4.618   4.538  1.00 20.00     0.188 C 
HETATM    6  C6  UNL     1     -34.119   5.879   3.721  1.00 20.00     0.046 C 
HETATM    7  C7  UNL     1     -34.541   6.990   4.674  1.00 20.00     0.098 C 
HETATM    8  O8  UNL     1     -34.419   6.950   7.104  1.00 20.00    -0.265 OA
HETATM    9  O9  UNL     1     -34.179   5.012   5.911  1.00 20.00    -0.320 OA
ENDROOT
TORSDOF 0
ENDMDL
MODEL 5
REMARK VINA RESULT:      -4.2      8.751      9.693
REMARK  0 active torsions:
REMARK  status: ('A' for Active; 'I' for Inactive)
ROOT
HETATM    1  C1  UNL     1     -42.686   8.576  -0.421  1.00 20.00    -0.029 C 
HETATM    2  C2  UNL     1     -43.417   7.936   0.496  1.00 20.00    -0.023 C 
HETATM    3  C3  UNL     1     -41.166   5.800   0.068  1.00 20.00     0.264 C 
HETATM    4  C4  UNL     1     -41.225   8.307  -0.252  1.00 20.00     0.042 C 
HETATM    5  C5  UNL     1     -42.917   5.689   1.552  1.00 20.00     0.188 C 
HETATM    6  C6  UNL     1     -42.559   7.151   1.442  1.00 20.00     0.046 C 
HETATM    7  C7  UNL     1     -41.204   7.150   0.747  1.00 20.00     0.098 C 
HETATM    8  O8  UNL     1     -40.345   5.446  -0.764  1.00 20.00    -0.265 OA
HETATM    9  O9  UNL     1     -42.187   5.015   0.521  1.00 20.00    -0.320 OA
ENDROOT
TORSDOF 0
ENDMDL
MODEL 6
REMARK VINA RESULT:      -4.1     15.842     16.546
REMARK  0 active torsions:
REMARK  status: ('A' for Active; 'I' for Inactive)
ROOT
HETATM    1  C1  UNL     1     -24.687  17.781  10.713  1.00 20.00    -0.029 C 
HETATM    2  C2  UNL     1     -23.459  17.257  10.750  1.00 20.00    -0.023 C 
HETATM    3  C3  UNL     1     -23.258  18.819   8.042  1.00 20.00     0.264 C 
HETATM    4  C4  UNL     1     -24.692  19.144  10.099  1.00 20.00     0.042 C 
HETATM    5  C5  UNL     1     -21.593  17.618   9.076  1.00 20.00     0.188 C 
HETATM    6  C6  UNL     1     -22.437  18.198  10.186  1.00 20.00     0.046 C 
HETATM    7  C7  UNL     1     -23.292  19.249   9.491  1.00 20.00     0.098 C 
HETATM    8  O8  UNL     1     -23.967  19.263   7.152  1.00 20.00    -0.265 OA
HETATM    9  O9  UNL     1     -22.307  17.855   7.859  1.00 20.00    -0.320 OA
ENDROOT
TORSDOF 0
ENDMDL
MODEL 7
REMARK VINA RESULT:      -3.9      9.082      9.699
REMARK  0 active torsions:
REMARK  status: ('A' for Active; 'I' for Inactive)
ROOT
HETATM    1  C1  UNL     1     -43.201   5.917   1.937  1.00 20.00    -0.029 C 
HETATM    2  C2  UNL     1     -43.417   7.165   1.513  1.00 20.00    -0.023 C 
HETATM    3  C3  UNL     1     -41.169   6.333  -0.502  1.00 20.00     0.264 C 
HETATM    4  C4  UNL     1     -42.869   4.996   0.806  1.00 20.00     0.042 C 
HETATM    5  C5  UNL     1     -42.309   8.327  -0.445  1.00 20.00     0.188 C 
HETATM    6  C6  UNL     1     -43.287   7.277   0.025  1.00 20.00     0.046 C 
HETATM    7  C7  UNL     1     -42.626   5.959  -0.357  1.00 20.00     0.098 C 
HETATM    8  O8  UNL     1     -40.241   5.547  -0.611  1.00 20.00    -0.265 OA
HETATM    9  O9  UNL     1     -41.028   7.692  -0.501  1.00 20.00    -0.320 OA
ENDROOT
TORSDOF 0
ENDMDL
MODEL 8
REMARK VINA RESULT:      -3.9      1.509      2.595
REMARK  0 active torsions:
REMARK  status: ('A' for Active; 'I' for Inactive)
ROOT
HETATM    1  C1  UNL     1     -35.205   5.539   5.133  1.00 20.00    -0.029 C 
HETATM    2  C2  UNL     1     -34.406   5.472   4.064  1.00 20.00    -0.023 C 
HETATM    3  C3  UNL     1     -33.531   8.267   5.174  1.00 20.00     0.264 C 
HETATM    4  C4  UNL     1     -34.543   6.232   6.280  1.00 20.00     0.042 C 
HETATM    5  C5  UNL     1     -32.664   7.167   3.352  1.00 20.00     0.188 C 
HETATM    6  C6  UNL     1     -33.068   6.092   4.332  1.00 20.00     0.046 C 
HETATM    7  C7  UNL     1     -33.300   6.847   5.635  1.00 20.00     0.098 C 
HETATM    8  O8  UNL     1     -33.947   9.181   5.869  1.00 20.00    -0.265 OA
HETATM    9  O9  UNL     1     -33.199   8.395   3.855  1.00 20.00    -0.320 OA
ENDROOT
TORSDOF 0
ENDMDL
MODEL 9
REMARK VINA RESULT:      -3.6      1.238      2.543
REMARK  0 active torsions:
REMARK  status: ('A' for Active; 'I' for Inactive)
ROOT
HETATM    1  C1  UNL     1     -33.485   8.739   4.462  1.00 20.00    -0.029 C 
HETATM    2  C2  UNL     1     -34.180   8.260   5.497  1.00 20.00    -0.023 C 
HETATM    3  C3  UNL     1     -33.792   5.607   3.878  1.00 20.00     0.264 C 
HETATM    4  C4  UNL     1     -32.469   7.759   3.972  1.00 20.00     0.042 C 
HETATM    5  C5  UNL     1     -34.819   5.846   5.919  1.00 20.00     0.188 C 
HETATM    6  C6  UNL     1     -33.724   6.885   5.882  1.00 20.00     0.046 C 
HETATM    7  C7  UNL     1     -32.861   6.470   4.697  1.00 20.00     0.098 C 
HETATM    8  O8  UNL     1     -33.581   5.216   2.740  1.00 20.00    -0.265 OA
HETATM    9  O9  UNL     1     -34.916   5.312   4.595  1.00 20.00    -0.320 OA
ENDROOT
TORSDOF 0
ENDMDL
