MODEL 1
REMARK VINA RESULT:      -4.0      0.000      0.000
REMARK  0 active torsions:
REMARK  status: ('A' for Active; 'I' for Inactive)
ROOT
HETATM    1  C1  UNL     1     -32.919   5.815   3.004  1.00 20.00     0.128 C 
HETATM    2  C2  UNL     1     -33.513   5.012   4.139  1.00 20.00     0.087 C 
HETATM    3  C3  UNL     1     -32.144   7.050   3.395  1.00 20.00     0.087 C 
HETATM    4  C4  UNL     1     -33.684   7.205   5.412  1.00 20.00     0.018 C 
HETATM    5  C5  UNL     1     -34.407   5.883   5.036  1.00 20.00    -0.041 C 
HETATM    6  C6  UNL     1     -32.991   7.992   4.268  1.00 20.00    -0.041 C 
HETATM    7  C7  UNL     1     -35.763   6.133   4.353  1.00 20.00     0.015 C 
HETATM    8  C8  UNL     1     -34.694   5.108   6.341  1.00 20.00     0.015 C 
HETATM    9  C9  UNL     1     -33.998   8.763   3.395  1.00 20.00     0.015 C 
HETATM   10  C10 UNL     1     -32.054   9.041   4.907  1.00 20.00     0.015 C 
HETATM   11  O11 UNL     1     -32.996   5.439   1.835  1.00 20.00    -0.298 OA
ENDROOT
TORSDOF 0
ENDMDL
MODEL 2
REMARK VINA RESULT:      -3.6     12.107     13.375
REMARK  0 active torsions:
REMARK  status: ('A' for Active; 'I' for Inactive)
ROOT
HETATM    1  C1  UNL     1     -33.394  15.501  -3.979  1.00 20.00     0.128 C 
HETATM    2  C2  UNL     1     -34.644  15.211  -4.777  1.00 20.00     0.087 C 
HETATM    3  C3  UNL     1     -33.552  16.444  -2.811  1.00 20.00     0.087 C 
HETATM    4  C4  UNL     1     -35.423  17.544  -4.134  1.00 20.00     0.018 C 
HETATM    5  C5  UNL     1     -35.300  16.507  -5.283  1.00 20.00    -0.041 C 
HETATM    6  C6  UNL     1     -34.171  17.782  -3.248  1.00 20.00    -0.041 C 
HETATM    7  C7  UNL     1     -34.521  17.061  -6.490  1.00 20.00     0.015 C 
HETATM    8  C8  UNL     1     -36.724  16.173  -5.780  1.00 20.00     0.015 C 
HETATM    9  C9  UNL     1     -33.114  18.652  -3.953  1.00 20.00     0.015 C 
HETATM   10  C10 UNL     1     -34.618  18.552  -1.985  1.00 20.00     0.015 C 
HETATM   11  O11 UNL     1     -32.327  14.938  -4.219  1.00 20.00    -0.298 OA
ENDROOT
TORSDOF 0
ENDMDL
MODEL 3
REMARK VINA RESULT:      -3.6     11.844     13.609
REMARK  0 active torsions:
REMARK  status: ('A' for Active; 'I' for Inactive)
ROOT
HETATM    1  C1  UNL     1     -33.497  16.392  -3.387  1.00 20.00     0.128 C 
HETATM    2  C2  UNL     1     -34.483  17.106  -4.284  1.00 20.00     0.087 C 
HETATM    3  C3  UNL     1     -33.650  16.633  -1.904  1.00 20.00     0.087 C 
HETATM    4  C4  UNL     1     -34.557  18.929  -2.513  1.00 20.00     0.018 C 
HETATM    5  C5  UNL     1     -34.474  18.623  -4.033  1.00 20.00    -0.041 C 
HETATM    6  C6  UNL     1     -33.613  18.134  -1.571  1.00 20.00    -0.041 C 
HETATM    7  C7  UNL     1     -33.237  19.263  -4.691  1.00 20.00     0.015 C 
HETATM    8  C8  UNL     1     -35.717  19.239  -4.713  1.00 20.00     0.015 C 
HETATM    9  C9  UNL     1     -32.164  18.654  -1.621  1.00 20.00     0.015 C 
HETATM   10  C10 UNL     1     -34.110  18.327  -0.121  1.00 20.00     0.015 C 
HETATM   11  O11 UNL     1     -32.671  15.599  -3.834  1.00 20.00    -0.298 OA
ENDROOT
TORSDOF 0
ENDMDL
MODEL 4
REMARK VINA RESULT:      -3.5     10.592     11.681
REMARK  0 active torsions:
REMARK  status: ('A' for Active; 'I' for Inactive)
ROOT
HETATM    1  C1  UNL     1     -42.362  15.128   5.623  1.00 20.00     0.128 C 
HETATM    2  C2  UNL     1     -41.596  13.899   5.190  1.00 20.00     0.087 C 
HETATM    3  C3  UNL     1     -41.708  15.980   6.685  1.00 20.00     0.087 C 
HETATM    4  C4  UNL     1     -40.636  13.841   7.543  1.00 20.00     0.018 C 
HETATM    5  C5  UNL     1     -41.248  13.001   6.389  1.00 20.00    -0.041 C 
HETATM    6  C6  UNL     1     -41.364  15.154   7.935  1.00 20.00    -0.041 C 
HETATM    7  C7  UNL     1     -42.490  12.209   6.837  1.00 20.00     0.015 C 
HETATM    8  C8  UNL     1     -40.192  11.969   5.937  1.00 20.00     0.015 C 
HETATM    9  C9  UNL     1     -42.634  14.893   8.766  1.00 20.00     0.015 C 
HETATM   10  C10 UNL     1     -40.409  15.983   8.823  1.00 20.00     0.015 C 
HETATM   11  O11 UNL     1     -43.417  15.457   5.085  1.00 20.00    -0.298 OA
ENDROOT
TORSDOF 0
ENDMDL
MODEL 5
REMARK VINA RESULT:      -3.4     10.789     11.993
REMARK  0 active torsions:
REMARK  status: ('A' for Active; 'I' for Inactive)
ROOT
HETATM    1  C1  UNL     1     -42.949  13.102   8.166  1.00 20.00     0.128 C 
HETATM    2  C2  UNL     1     -42.958  13.124   6.654  1.00 20.00     0.087 C 
HETATM    3  C3  UNL     1     -42.740  14.432   8.850  1.00 20.00     0.087 C 
HETATM    4  C4  UNL     1     -41.372  15.104   6.814  1.00 20.00     0.018 C 
HETATM    5  C5  UNL     1     -41.677  13.763   6.094  1.00 20.00    -0.041 C 
HETATM    6  C6  UNL     1     -41.451  15.117   8.365  1.00 20.00    -0.041 C 
HETATM    7  C7  UNL     1     -40.504  12.770   6.186  1.00 20.00     0.015 C 
HETATM    8  C8  UNL     1     -41.896  14.065   4.595  1.00 20.00     0.015 C 
HETATM    9  C9  UNL     1     -40.221  14.459   9.017  1.00 20.00     0.015 C 
HETATM   10  C10 UNL     1     -41.473  16.590   8.830  1.00 20.00     0.015 C 
HETATM   11  O11 UNL     1     -43.179  12.075   8.801  1.00 20.00    -0.298 OA
ENDROOT
TORSDOF 0
ENDMDL
MODEL 6
REMARK VINA RESULT:      -3.3     12.122     13.824
REMARK  0 active torsions:
REMARK  status: ('A' for Active; 'I' for Inactive)
ROOT
HETATM    1  C1  UNL     1     -33.989  15.070  -4.420  1.00 20.00     0.128 C 
HETATM    2  C2  UNL     1     -33.319  16.232  -3.724  1.00 20.00     0.087 C 
HETATM    3  C3  UNL     1     -34.045  15.138  -5.927  1.00 20.00     0.087 C 
HETATM    4  C4  UNL     1     -34.104  17.666  -5.670  1.00 20.00     0.018 C 
HETATM    5  C5  UNL     1     -33.956  17.572  -4.127  1.00 20.00    -0.041 C 
HETATM    6  C6  UNL     1     -34.706  16.440  -6.407  1.00 20.00    -0.041 C 
HETATM    7  C7  UNL     1     -35.299  17.763  -3.399  1.00 20.00     0.015 C 
HETATM    8  C8  UNL     1     -33.025  18.715  -3.666  1.00 20.00     0.015 C 
HETATM    9  C9  UNL     1     -36.235  16.352  -6.242  1.00 20.00     0.015 C 
HETATM   10  C10 UNL     1     -34.426  16.605  -7.918  1.00 20.00     0.015 C 
HETATM   11  O11 UNL     1     -34.394  14.088  -3.799  1.00 20.00    -0.298 OA
ENDROOT
TORSDOF 0
ENDMDL
MODEL 7
REMARK VINA RESULT:      -3.3     10.728     12.060
REMARK  0 active torsions:
REMARK  status: ('A' for Active; 'I' for Inactive)
ROOT
HETATM    1  C1  UNL     1     -40.501  14.385   8.547  1.00 20.00     0.128 C 
HETATM    2  C2  UNL     1     -40.930  15.802   8.239  1.00 20.00     0.087 C 
HETATM    3  C3  UNL     1     -40.122  13.531   7.361  1.00 20.00     0.087 C 
HETATM    4  C4  UNL     1     -41.783  14.908   6.017  1.00 20.00     0.018 C 
HETATM    5  C5  UNL     1     -42.089  15.830   7.229  1.00 20.00    -0.041 C 
HETATM    6  C6  UNL     1     -41.253  13.482   6.320  1.00 20.00    -0.041 C 
HETATM    7  C7  UNL     1     -43.411  15.459   7.926  1.00 20.00     0.015 C 
HETATM    8  C8  UNL     1     -42.245  17.274   6.704  1.00 20.00     0.015 C 
HETATM    9  C9  UNL     1     -42.369  12.531   6.792  1.00 20.00     0.015 C 
HETATM   10  C10 UNL     1     -40.686  12.894   5.008  1.00 20.00     0.015 C 
HETATM   11  O11 UNL     1     -40.389  13.979   9.702  1.00 20.00    -0.298 OA
ENDROOT
TORSDOF 0
ENDMDL
MODEL 8
REMARK VINA RESULT:      -3.3     12.299     14.409
REMARK  0 active torsions:
REMARK  status: ('A' for Active; 'I' for Inactive)
ROOT
HETATM    1  C1  UNL     1     -36.892  16.242  -6.048  1.00 20.00     0.128 C 
HETATM    2  C2  UNL     1     -36.733  17.612  -5.429  1.00 20.00     0.087 C 
HETATM    3  C3  UNL     1     -36.148  15.114  -5.373  1.00 20.00     0.087 C 
HETATM    4  C4  UNL     1     -34.423  16.851  -4.687  1.00 20.00     0.018 C 
HETATM    5  C5  UNL     1     -35.251  18.007  -5.312  1.00 20.00    -0.041 C 
HETATM    6  C6  UNL     1     -34.647  15.423  -5.254  1.00 20.00    -0.041 C 
HETATM    7  C7  UNL     1     -34.707  18.439  -6.686  1.00 20.00     0.015 C 
HETATM    8  C8  UNL     1     -35.144  19.231  -4.377  1.00 20.00     0.015 C 
HETATM    9  C9  UNL     1     -33.952  15.219  -6.613  1.00 20.00     0.015 C 
HETATM   10  C10 UNL     1     -34.015  14.414  -4.269  1.00 20.00     0.015 C 
HETATM   11  O11 UNL     1     -37.647  16.044  -6.998  1.00 20.00    -0.298 OA
ENDROOT
TORSDOF 0
ENDMDL
MODEL 9
REMARK VINA RESULT:      -3.2     11.856     13.756
REMARK  0 active torsions:
REMARK  status: ('A' for Active; 'I' for Inactive)
ROOT
HETATM    1  C1  UNL     1     -35.309  15.439  -7.106  1.00 20.00     0.128 C 
HETATM    2  C2  UNL     1     -34.067  15.031  -6.346  1.00 20.00     0.087 C 
HETATM    3  C3  UNL     1     -35.791  16.853  -6.884  1.00 20.00     0.087 C 
HETATM    4  C4  UNL     1     -34.798  16.676  -4.550  1.00 20.00     0.018 C 
HETATM    5  C5  UNL     1     -34.234  15.257  -4.834  1.00 20.00    -0.041 C 
HETATM    6  C6  UNL     1     -36.017  17.142  -5.391  1.00 20.00    -0.041 C 
HETATM    7  C7  UNL     1     -35.110  14.147  -4.224  1.00 20.00     0.015 C 
HETATM    8  C8  UNL     1     -32.844  15.153  -4.168  1.00 20.00     0.015 C 
HETATM    9  C9  UNL     1     -37.333  16.498  -4.917  1.00 20.00     0.015 C 
HETATM   10  C10 UNL     1     -36.171  18.668  -5.204  1.00 20.00     0.015 C 
HETATM   11  O11 UNL     1     -35.847  14.689  -7.918  1.00 20.00    -0.298 OA
ENDROOT
TORSDOF 0
ENDMDL
