MODEL 1
REMARK VINA RESULT:      -3.5      0.000      0.000
REMARK  2 active torsions:
REMARK  status: ('A' for Active; 'I' for Inactive)
REMARK    1  A    between atoms: C1_1  and  C2_2 
REMARK    2  A    between atoms: C1_1  and  C3_3 
ROOT
HETATM    1  C1  UNL     1     -34.086   5.118   4.196  1.00 20.00     0.168 C 
HETATM    2  O4  UNL     1     -34.058   3.923   4.488  1.00 20.00    -0.294 OA
ENDROOT
BRANCH   1   3
HETATM    3  C2  UNL     1     -33.187   5.668   3.118  1.00 20.00     0.301 C 
HETATM    4  F5  UNL     1     -32.835   4.699   2.229  1.00 20.00    -0.248 F 
ENDBRANCH   1   3
BRANCH   1   5
HETATM    5  C3  UNL     1     -34.994   6.122   4.867  1.00 20.00     0.195 C 
HETATM    6 CL6  UNL     1     -34.398   6.525   6.484  1.00 20.00    -0.122 Cl
ENDBRANCH   1   5
TORSDOF 2
ENDMDL
MODEL 2
REMARK VINA RESULT:      -3.5      3.241      3.544
REMARK  2 active torsions:
REMARK  status: ('A' for Active; 'I' for Inactive)
REMARK    1  A    between atoms: C1_1  and  C2_2 
REMARK    2  A    between atoms: C1_1  and  C3_3 
ROOT
HETATM    1  C1  UNL     1     -33.853   6.834   4.856  1.00 20.00     0.168 C 
HETATM    2  O4  UNL     1     -33.370   7.829   4.320  1.00 20.00    -0.294 OA
ENDROOT
BRANCH   1   3
HETATM    3  C2  UNL     1     -34.174   6.832   6.329  1.00 20.00     0.301 C 
HETATM    4  F5  UNL     1     -34.826   5.694   6.690  1.00 20.00    -0.248 F 
ENDBRANCH   1   3
BRANCH   1   5
HETATM    5  C3  UNL     1     -34.165   5.553   4.117  1.00 20.00     0.195 C 
HETATM    6 CL6  UNL     1     -33.044   5.319   2.767  1.00 20.00    -0.122 Cl
ENDBRANCH   1   5
TORSDOF 2
ENDMDL
MODEL 3
REMARK VINA RESULT:      -3.5      2.975      3.146
REMARK  2 active torsions:
REMARK  status: ('A' for Active; 'I' for Inactive)
REMARK    1  A    between atoms: C1_1  and  C2_2 
REMARK    2  A    between atoms: C1_1  and  C3_3 
ROOT
HETATM    1  C1  UNL     1     -33.988   6.909   5.448  1.00 20.00     0.168 C 
HETATM    2  O4  UNL     1     -34.312   6.973   6.632  1.00 20.00    -0.294 OA
ENDROOT
BRANCH   1   3
HETATM    3  C2  UNL     1     -34.514   5.806   4.565  1.00 20.00     0.301 C 
HETATM    4  F5  UNL     1     -35.851   5.939   4.354  1.00 20.00    -0.248 F 
ENDBRANCH   1   3
BRANCH   1   5
HETATM    5  C3  UNL     1     -33.061   7.897   4.779  1.00 20.00     0.195 C 
HETATM    6 CL6  UNL     1     -32.377   7.211   3.297  1.00 20.00    -0.122 Cl
ENDBRANCH   1   5
TORSDOF 2
ENDMDL
MODEL 4
REMARK VINA RESULT:      -3.5      2.922      3.227
REMARK  2 active torsions:
REMARK  status: ('A' for Active; 'I' for Inactive)
REMARK    1  A    between atoms: C1_1  and  C2_2 
REMARK    2  A    between atoms: C1_1  and  C3_3 
ROOT
HETATM    1  C1  UNL     1     -34.055   6.497   4.914  1.00 20.00     0.168 C 
HETATM    2  O4  UNL     1     -34.345   5.652   4.070  1.00 20.00    -0.294 OA
ENDROOT
BRANCH   1   3
HETATM    3  C2  UNL     1     -34.424   6.297   6.362  1.00 20.00     0.301 C 
HETATM    4  F5  UNL     1     -34.064   5.058   6.795  1.00 20.00    -0.248 F 
ENDBRANCH   1   3
BRANCH   1   5
HETATM    5  C3  UNL     1     -33.323   7.780   4.596  1.00 20.00     0.195 C 
HETATM    6 CL6  UNL     1     -32.168   7.532   3.277  1.00 20.00    -0.122 Cl
ENDBRANCH   1   5
TORSDOF 2
ENDMDL
MODEL 5
REMARK VINA RESULT:      -3.4      2.364      2.423
REMARK  2 active torsions:
REMARK  status: ('A' for Active; 'I' for Inactive)
REMARK    1  A    between atoms: C1_1  and  C2_2 
REMARK    2  A    between atoms: C1_1  and  C3_3 
ROOT
HETATM    1  C1  UNL     1     -33.403   7.465   4.581  1.00 20.00     0.168 C 
HETATM    2  O4  UNL     1     -33.483   8.452   5.308  1.00 20.00    -0.294 OA
ENDROOT
BRANCH   1   3
HETATM    3  C2  UNL     1     -32.388   7.409   3.467  1.00 20.00     0.301 C 
HETATM    4  F5  UNL     1     -32.468   6.234   2.786  1.00 20.00    -0.248 F 
ENDBRANCH   1   3
BRANCH   1   5
HETATM    5  C3  UNL     1     -34.284   6.246   4.725  1.00 20.00     0.195 C 
HETATM    6 CL6  UNL     1     -34.558   5.868   6.432  1.00 20.00    -0.122 Cl
ENDBRANCH   1   5
TORSDOF 2
ENDMDL
MODEL 6
REMARK VINA RESULT:      -3.4      2.847      3.172
REMARK  2 active torsions:
REMARK  status: ('A' for Active; 'I' for Inactive)
REMARK    1  A    between atoms: C1_1  and  C2_2 
REMARK    2  A    between atoms: C1_1  and  C3_3 
ROOT
HETATM    1  C1  UNL     1     -34.342   5.645   5.003  1.00 20.00     0.168 C 
HETATM    2  O4  UNL     1     -34.863   4.550   4.799  1.00 20.00    -0.294 OA
ENDROOT
BRANCH   1   3
HETATM    3  C2  UNL     1     -34.440   6.303   6.356  1.00 20.00     0.301 C 
HETATM    4  F5  UNL     1     -33.297   6.976   6.660  1.00 20.00    -0.248 F 
ENDBRANCH   1   3
BRANCH   1   5
HETATM    5  C3  UNL     1     -33.576   6.415   3.954  1.00 20.00     0.195 C 
HETATM    6 CL6  UNL     1     -32.960   5.326   2.701  1.00 20.00    -0.122 Cl
ENDBRANCH   1   5
TORSDOF 2
ENDMDL
MODEL 7
REMARK VINA RESULT:      -3.4      3.001      3.027
REMARK  2 active torsions:
REMARK  status: ('A' for Active; 'I' for Inactive)
REMARK    1  A    between atoms: C1_1  and  C2_2 
REMARK    2  A    between atoms: C1_1  and  C3_3 
ROOT
HETATM    1  C1  UNL     1     -33.289   7.177   4.590  1.00 20.00     0.168 C 
HETATM    2  O4  UNL     1     -33.507   6.274   3.785  1.00 20.00    -0.294 OA
ENDROOT
BRANCH   1   3
HETATM    3  C2  UNL     1     -32.426   8.354   4.211  1.00 20.00     0.301 C 
HETATM    4  F5  UNL     1     -32.415   9.294   5.195  1.00 20.00    -0.248 F 
ENDBRANCH   1   3
BRANCH   1   5
HETATM    5  C3  UNL     1     -33.848   7.201   5.993  1.00 20.00     0.195 C 
HETATM    6 CL6  UNL     1     -34.639   5.664   6.379  1.00 20.00    -0.122 Cl
ENDBRANCH   1   5
TORSDOF 2
ENDMDL
MODEL 8
REMARK VINA RESULT:      -3.4      3.122      3.270
REMARK  2 active torsions:
REMARK  status: ('A' for Active; 'I' for Inactive)
REMARK    1  A    between atoms: C1_1  and  C2_2 
REMARK    2  A    between atoms: C1_1  and  C3_3 
ROOT
HETATM    1  C1  UNL     1     -34.234   6.409   5.388  1.00 20.00     0.168 C 
HETATM    2  O4  UNL     1     -34.559   6.383   6.574  1.00 20.00    -0.294 OA
ENDROOT
BRANCH   1   3
HETATM    3  C2  UNL     1     -33.566   7.625   4.800  1.00 20.00     0.301 C 
HETATM    4  F5  UNL     1     -33.832   8.738   5.536  1.00 20.00    -0.248 F 
ENDBRANCH   1   3
BRANCH   1   5
HETATM    5  C3  UNL     1     -34.462   5.261   4.432  1.00 20.00     0.195 C 
HETATM    6 CL6  UNL     1     -33.302   5.318   3.096  1.00 20.00    -0.122 Cl
ENDBRANCH   1   5
TORSDOF 2
ENDMDL
MODEL 9
REMARK VINA RESULT:      -3.3      1.867      2.030
REMARK  2 active torsions:
REMARK  status: ('A' for Active; 'I' for Inactive)
REMARK    1  A    between atoms: C1_1  and  C2_2 
REMARK    2  A    between atoms: C1_1  and  C3_3 
ROOT
HETATM    1  C1  UNL     1     -33.565   6.256   4.055  1.00 20.00     0.168 C 
HETATM    2  O4  UNL     1     -32.871   6.131   3.048  1.00 20.00    -0.294 OA
ENDROOT
BRANCH   1   3
HETATM    3  C2  UNL     1     -34.523   5.170   4.469  1.00 20.00     0.301 C 
HETATM    4  F5  UNL     1     -33.933   3.945   4.414  1.00 20.00    -0.248 F 
ENDBRANCH   1   3
BRANCH   1   5
HETATM    5  C3  UNL     1     -33.526   7.472   4.951  1.00 20.00     0.195 C 
HETATM    6 CL6  UNL     1     -34.176   7.091   6.553  1.00 20.00    -0.122 Cl
ENDBRANCH   1   5
TORSDOF 2
ENDMDL
