MODEL 1
REMARK VINA RESULT:      -4.1      0.000      0.000
REMARK  4 active torsions:
REMARK  status: ('A' for Active; 'I' for Inactive)
REMARK    1  A    between atoms: C1_1  and  C7_7 
REMARK    2  A    between atoms: C1_1  and  C8_8 
REMARK    3  A    between atoms: C7_7  and  C9_9 
REMARK    4  A    between atoms: C8_8  and  C10_10 
ROOT
HETATM    1  C1  UNL     1     -41.645  13.148   6.425  1.00 20.00     0.131 C 
HETATM    2  O11 UNL     1     -42.099  12.165   7.011  1.00 20.00    -0.298 OA
ENDROOT
BRANCH   1   3
HETATM    3  C7  UNL     1     -40.776  13.010   5.181  1.00 20.00     0.082 C 
BRANCH   3   4
HETATM    4  C9  UNL     1     -39.786  11.839   5.256  1.00 20.00    -0.016 C 
HETATM    5  C3  UNL     1     -39.010  11.682   3.945  1.00 20.00     0.010 C 
HETATM    6  C4  UNL     1     -38.810  12.050   6.415  1.00 20.00     0.010 C 
ENDBRANCH   3   4
ENDBRANCH   1   3
BRANCH   1   7
HETATM    7  C8  UNL     1     -41.899  14.573   6.924  1.00 20.00     0.054 C 
HETATM    8  C2  UNL     1     -42.550  15.414   5.824  1.00 20.00     0.018 C 
BRANCH   7   9
HETATM    9  C10 UNL     1     -40.598  15.173   7.512  1.00 20.00    -0.012 C 
HETATM   10  C5  UNL     1     -40.279  14.575   8.886  1.00 20.00     0.010 C 
HETATM   11  C6  UNL     1     -40.614  16.701   7.605  1.00 20.00     0.010 C 
ENDBRANCH   7   9
ENDBRANCH   1   7
TORSDOF 4
ENDMDL
MODEL 2
REMARK VINA RESULT:      -3.9     10.015     10.843
REMARK  4 active torsions:
REMARK  status: ('A' for Active; 'I' for Inactive)
REMARK    1  A    between atoms: C1_1  and  C7_7 
REMARK    2  A    between atoms: C1_1  and  C8_8 
REMARK    3  A    between atoms: C7_7  and  C9_9 
REMARK    4  A    between atoms: C8_8  and  C10_10 
ROOT
HETATM    1  C1  UNL     1     -32.744   6.818   3.138  1.00 20.00     0.131 C 
HETATM    2  O11 UNL     1     -32.704   5.624   2.841  1.00 20.00    -0.298 OA
ENDROOT
BRANCH   1   3
HETATM    3  C7  UNL     1     -31.907   7.857   2.404  1.00 20.00     0.082 C 
BRANCH   3   4
HETATM    4  C9  UNL     1     -32.596   8.421   1.152  1.00 20.00    -0.016 C 
HETATM    5  C3  UNL     1     -32.918   9.909   1.318  1.00 20.00     0.010 C 
HETATM    6  C4  UNL     1     -31.705   8.216  -0.074  1.00 20.00     0.010 C 
ENDBRANCH   3   4
ENDBRANCH   1   3
BRANCH   1   7
HETATM    7  C8  UNL     1     -33.615   7.334   4.287  1.00 20.00     0.054 C 
HETATM    8  C2  UNL     1     -32.856   8.386   5.099  1.00 20.00     0.018 C 
BRANCH   7   9
HETATM    9  C10 UNL     1     -34.163   6.148   5.118  1.00 20.00    -0.012 C 
HETATM   10  C5  UNL     1     -35.514   5.667   4.579  1.00 20.00     0.010 C 
HETATM   11  C6  UNL     1     -34.282   6.450   6.614  1.00 20.00     0.010 C 
ENDBRANCH   7   9
ENDBRANCH   1   7
TORSDOF 4
ENDMDL
MODEL 3
REMARK VINA RESULT:      -3.9      0.894      3.871
REMARK  4 active torsions:
REMARK  status: ('A' for Active; 'I' for Inactive)
REMARK    1  A    between atoms: C1_1  and  C7_7 
REMARK    2  A    between atoms: C1_1  and  C8_8 
REMARK    3  A    between atoms: C7_7  and  C9_9 
REMARK    4  A    between atoms: C8_8  and  C10_10 
ROOT
HETATM    1  C1  UNL     1     -41.734  13.192   6.995  1.00 20.00     0.131 C 
HETATM    2  O11 UNL     1     -42.377  12.158   7.173  1.00 20.00    -0.298 OA
ENDROOT
BRANCH   1   3
HETATM    3  C7  UNL     1     -41.846  14.380   7.942  1.00 20.00     0.082 C 
BRANCH   3   4
HETATM    4  C9  UNL     1     -40.532  15.159   8.101  1.00 20.00    -0.016 C 
HETATM    5  C3  UNL     1     -40.671  16.595   7.588  1.00 20.00     0.010 C 
HETATM    6  C4  UNL     1     -40.105  15.171   9.570  1.00 20.00     0.010 C 
ENDBRANCH   3   4
ENDBRANCH   1   3
BRANCH   1   7
HETATM    7  C8  UNL     1     -40.801  13.365   5.793  1.00 20.00     0.054 C 
HETATM    8  C2  UNL     1     -41.594  13.817   4.565  1.00 20.00     0.018 C 
BRANCH   7   9
HETATM    9  C10 UNL     1     -39.956  12.085   5.582  1.00 20.00    -0.012 C 
HETATM   10  C5  UNL     1     -38.824  11.988   6.609  1.00 20.00     0.010 C 
HETATM   11  C6  UNL     1     -39.385  11.953   4.168  1.00 20.00     0.010 C 
ENDBRANCH   7   9
ENDBRANCH   1   7
TORSDOF 4
ENDMDL
MODEL 4
REMARK VINA RESULT:      -3.8      9.250     10.571
REMARK  4 active torsions:
REMARK  status: ('A' for Active; 'I' for Inactive)
REMARK    1  A    between atoms: C1_1  and  C7_7 
REMARK    2  A    between atoms: C1_1  and  C8_8 
REMARK    3  A    between atoms: C7_7  and  C9_9 
REMARK    4  A    between atoms: C8_8  and  C10_10 
ROOT
HETATM    1  C1  UNL     1     -32.440   7.740   3.710  1.00 20.00     0.131 C 
HETATM    2  O11 UNL     1     -31.353   8.005   4.225  1.00 20.00    -0.298 OA
ENDROOT
BRANCH   1   3
HETATM    3  C7  UNL     1     -32.567   7.417   2.226  1.00 20.00     0.082 C 
BRANCH   3   4
HETATM    4  C9  UNL     1     -32.203   8.595   1.311  1.00 20.00    -0.016 C 
HETATM    5  C3  UNL     1     -32.472   8.262  -0.158  1.00 20.00     0.010 C 
HETATM    6  C4  UNL     1     -32.996   9.838   1.717  1.00 20.00     0.010 C 
ENDBRANCH   3   4
ENDBRANCH   1   3
BRANCH   1   7
HETATM    7  C8  UNL     1     -33.740   7.750   4.518  1.00 20.00     0.054 C 
HETATM    8  C2  UNL     1     -33.652   8.768   5.656  1.00 20.00     0.018 C 
BRANCH   7   9
HETATM    9  C10 UNL     1     -34.104   6.312   4.963  1.00 20.00    -0.012 C 
HETATM   10  C5  UNL     1     -35.416   5.846   4.326  1.00 20.00     0.010 C 
HETATM   11  C6  UNL     1     -34.179   6.141   6.483  1.00 20.00     0.010 C 
ENDBRANCH   7   9
ENDBRANCH   1   7
TORSDOF 4
ENDMDL
MODEL 5
REMARK VINA RESULT:      -3.7     11.541     13.708
REMARK  4 active torsions:
REMARK  status: ('A' for Active; 'I' for Inactive)
REMARK    1  A    between atoms: C1_1  and  C7_7 
REMARK    2  A    between atoms: C1_1  and  C8_8 
REMARK    3  A    between atoms: C7_7  and  C9_9 
REMARK    4  A    between atoms: C8_8  and  C10_10 
ROOT
HETATM    1  C1  UNL     1     -33.921  15.069  -4.298  1.00 20.00     0.131 C 
HETATM    2  O11 UNL     1     -33.790  13.848  -4.208  1.00 20.00    -0.298 OA
ENDROOT
BRANCH   1   3
HETATM    3  C7  UNL     1     -33.010  16.031  -3.546  1.00 20.00     0.082 C 
BRANCH   3   4
HETATM    4  C9  UNL     1     -33.756  17.232  -2.943  1.00 20.00    -0.016 C 
HETATM    5  C3  UNL     1     -33.655  17.239  -1.416  1.00 20.00     0.010 C 
HETATM    6  C4  UNL     1     -33.191  18.536  -3.508  1.00 20.00     0.010 C 
ENDBRANCH   3   4
ENDBRANCH   1   3
BRANCH   1   7
HETATM    7  C8  UNL     1     -35.027  15.702  -5.146  1.00 20.00     0.054 C 
HETATM    8  C2  UNL     1     -36.101  14.665  -5.480  1.00 20.00     0.018 C 
BRANCH   7   9
HETATM    9  C10 UNL     1     -34.416  16.418  -6.376  1.00 20.00    -0.012 C 
HETATM   10  C5  UNL     1     -35.341  17.522  -6.896  1.00 20.00     0.010 C 
HETATM   11  C6  UNL     1     -34.050  15.469  -7.520  1.00 20.00     0.010 C 
ENDBRANCH   7   9
ENDBRANCH   1   7
TORSDOF 4
ENDMDL
MODEL 6
REMARK VINA RESULT:      -3.7     11.208     13.334
REMARK  4 active torsions:
REMARK  status: ('A' for Active; 'I' for Inactive)
REMARK    1  A    between atoms: C1_1  and  C7_7 
REMARK    2  A    between atoms: C1_1  and  C8_8 
REMARK    3  A    between atoms: C7_7  and  C9_9 
REMARK    4  A    between atoms: C8_8  and  C10_10 
ROOT
HETATM    1  C1  UNL     1     -33.541  17.144  -3.418  1.00 20.00     0.131 C 
HETATM    2  O11 UNL     1     -33.257  18.216  -3.952  1.00 20.00    -0.298 OA
ENDROOT
BRANCH   1   3
HETATM    3  C7  UNL     1     -33.345  16.913  -1.925  1.00 20.00     0.082 C 
BRANCH   3   4
HETATM    4  C9  UNL     1     -33.148  18.211  -1.128  1.00 20.00    -0.016 C 
HETATM    5  C3  UNL     1     -33.981  18.206   0.157  1.00 20.00     0.010 C 
HETATM    6  C4  UNL     1     -31.669  18.397  -0.788  1.00 20.00     0.010 C 
ENDBRANCH   3   4
ENDBRANCH   1   3
BRANCH   1   7
HETATM    7  C8  UNL     1     -34.079  15.959  -4.225  1.00 20.00     0.054 C 
HETATM    8  C2  UNL     1     -33.049  14.828  -4.261  1.00 20.00     0.018 C 
BRANCH   7   9
HETATM    9  C10 UNL     1     -34.564  16.435  -5.617  1.00 20.00    -0.012 C 
HETATM   10  C5  UNL     1     -36.060  16.764  -5.604  1.00 20.00     0.010 C 
HETATM   11  C6  UNL     1     -34.263  15.444  -6.744  1.00 20.00     0.010 C 
ENDBRANCH   7   9
ENDBRANCH   1   7
TORSDOF 4
ENDMDL
MODEL 7
REMARK VINA RESULT:      -3.7      9.736     10.982
REMARK  4 active torsions:
REMARK  status: ('A' for Active; 'I' for Inactive)
REMARK    1  A    between atoms: C1_1  and  C7_7 
REMARK    2  A    between atoms: C1_1  and  C8_8 
REMARK    3  A    between atoms: C7_7  and  C9_9 
REMARK    4  A    between atoms: C8_8  and  C10_10 
ROOT
HETATM    1  C1  UNL     1     -33.013   6.510   3.276  1.00 20.00     0.131 C 
HETATM    2  O11 UNL     1     -32.747   5.414   2.780  1.00 20.00    -0.298 OA
ENDROOT
BRANCH   1   3
HETATM    3  C7  UNL     1     -34.186   6.695   4.230  1.00 20.00     0.082 C 
BRANCH   3   4
HETATM    4  C9  UNL     1     -33.901   6.190   5.652  1.00 20.00    -0.016 C 
HETATM    5  C3  UNL     1     -34.193   7.272   6.696  1.00 20.00     0.010 C 
HETATM    6  C4  UNL     1     -34.740   4.946   5.945  1.00 20.00     0.010 C 
ENDBRANCH   3   4
ENDBRANCH   1   3
BRANCH   1   7
HETATM    7  C8  UNL     1     -32.203   7.765   2.941  1.00 20.00     0.054 C 
HETATM    8  C2  UNL     1     -32.171   8.713   4.141  1.00 20.00     0.018 C 
BRANCH   7   9
HETATM    9  C10 UNL     1     -32.720   8.402   1.628  1.00 20.00    -0.012 C 
HETATM   10  C5  UNL     1     -31.785   8.096   0.454  1.00 20.00     0.010 C 
HETATM   11  C6  UNL     1     -32.949   9.913   1.727  1.00 20.00     0.010 C 
ENDBRANCH   7   9
ENDBRANCH   1   7
TORSDOF 4
ENDMDL
MODEL 8
REMARK VINA RESULT:      -3.6      9.481     10.449
REMARK  4 active torsions:
REMARK  status: ('A' for Active; 'I' for Inactive)
REMARK    1  A    between atoms: C1_1  and  C7_7 
REMARK    2  A    between atoms: C1_1  and  C8_8 
REMARK    3  A    between atoms: C7_7  and  C9_9 
REMARK    4  A    between atoms: C8_8  and  C10_10 
ROOT
HETATM    1  C1  UNL     1     -33.865   7.528   5.371  1.00 20.00     0.131 C 
HETATM    2  O11 UNL     1     -34.029   7.860   6.545  1.00 20.00    -0.298 OA
ENDROOT
BRANCH   1   3
HETATM    3  C7  UNL     1     -34.883   6.669   4.631  1.00 20.00     0.082 C 
BRANCH   3   4
HETATM    4  C9  UNL     1     -34.868   5.196   5.064  1.00 20.00    -0.016 C 
HETATM    5  C3  UNL     1     -33.937   4.365   4.177  1.00 20.00     0.010 C 
HETATM    6  C4  UNL     1     -34.430   5.083   6.525  1.00 20.00     0.010 C 
ENDBRANCH   3   4
ENDBRANCH   1   3
BRANCH   1   7
HETATM    7  C8  UNL     1     -32.613   7.928   4.586  1.00 20.00     0.054 C 
HETATM    8  C2  UNL     1     -32.081   9.273   5.083  1.00 20.00     0.018 C 
BRANCH   7   9
HETATM    9  C10 UNL     1     -32.893   7.866   3.064  1.00 20.00    -0.012 C 
HETATM   10  C5  UNL     1     -32.035   6.796   2.383  1.00 20.00     0.010 C 
HETATM   11  C6  UNL     1     -32.709   9.207   2.351  1.00 20.00     0.010 C 
ENDBRANCH   7   9
ENDBRANCH   1   7
TORSDOF 4
ENDMDL
MODEL 9
REMARK VINA RESULT:      -3.5      9.614     10.919
REMARK  4 active torsions:
REMARK  status: ('A' for Active; 'I' for Inactive)
REMARK    1  A    between atoms: C1_1  and  C7_7 
REMARK    2  A    between atoms: C1_1  and  C8_8 
REMARK    3  A    between atoms: C7_7  and  C9_9 
REMARK    4  A    between atoms: C8_8  and  C10_10 
ROOT
HETATM    1  C1  UNL     1     -32.789   7.966   4.199  1.00 20.00     0.131 C 
HETATM    2  O11 UNL     1     -31.777   8.507   4.645  1.00 20.00    -0.298 OA
ENDROOT
BRANCH   1   3
HETATM    3  C7  UNL     1     -33.990   7.656   5.083  1.00 20.00     0.082 C 
BRANCH   3   4
HETATM    4  C9  UNL     1     -34.317   6.158   5.163  1.00 20.00    -0.016 C 
HETATM    5  C3  UNL     1     -34.436   5.692   6.617  1.00 20.00     0.010 C 
HETATM    6  C4  UNL     1     -35.618   5.864   4.415  1.00 20.00     0.010 C 
ENDBRANCH   3   4
ENDBRANCH   1   3
BRANCH   1   7
HETATM    7  C8  UNL     1     -32.896   7.541   2.732  1.00 20.00     0.054 C 
HETATM    8  C2  UNL     1     -32.371   6.116   2.551  1.00 20.00     0.018 C 
BRANCH   7   9
HETATM    9  C10 UNL     1     -32.227   8.597   1.818  1.00 20.00    -0.012 C 
HETATM   10  C5  UNL     1     -33.085   9.861   1.705  1.00 20.00     0.010 C 
HETATM   11  C6  UNL     1     -31.891   8.074   0.419  1.00 20.00     0.010 C 
ENDBRANCH   7   9
ENDBRANCH   1   7
TORSDOF 4
ENDMDL
