MODEL 1
REMARK VINA RESULT:      -5.1      0.000      0.000
REMARK  1 active torsions:
REMARK  status: ('A' for Active; 'I' for Inactive)
REMARK    1  A    between atoms: C3_3  and  C6_6 
ROOT
HETATM    1  C1  UNL     1     -31.850   8.290   3.524  1.00 20.00    -0.030 C 
HETATM    2  C2  UNL     1     -32.253   7.363   2.647  1.00 20.00    -0.026 C 
HETATM    3  C4  UNL     1     -32.408   8.406   4.907  1.00 20.00     0.031 C 
HETATM    4  C5  UNL     1     -33.285   6.310   2.958  1.00 20.00     0.014 C 
HETATM    5  C6  UNL     1     -33.656   6.247   4.461  1.00 20.00     0.058 C 
HETATM    6  C7  UNL     1     -33.739   7.653   5.091  1.00 20.00    -0.004 C 
HETATM    7  C8  UNL     1     -32.787   4.943   2.469  1.00 20.00     0.015 C 
HETATM    8  C9  UNL     1     -34.094   7.605   6.581  1.00 20.00     0.011 C 
ENDROOT
BRANCH   5   9
HETATM    9  C3  UNL     1     -34.980   5.546   4.592  1.00 20.00     0.236 C 
HETATM   10  O10 UNL     1     -35.121   4.469   5.163  1.00 20.00    -0.306 OA
ENDBRANCH   5   9
TORSDOF 1
ENDMDL
MODEL 2
REMARK VINA RESULT:      -5.0      1.981      3.901
REMARK  1 active torsions:
REMARK  status: ('A' for Active; 'I' for Inactive)
REMARK    1  A    between atoms: C3_3  and  C6_6 
ROOT
HETATM    1  C1  UNL     1     -34.014   4.474   3.771  1.00 20.00    -0.030 C 
HETATM    2  C2  UNL     1     -34.627   5.058   4.807  1.00 20.00    -0.026 C 
HETATM    3  C4  UNL     1     -33.026   5.182   2.899  1.00 20.00     0.031 C 
HETATM    4  C5  UNL     1     -34.370   6.479   5.238  1.00 20.00     0.014 C 
HETATM    5  C6  UNL     1     -33.153   7.120   4.525  1.00 20.00     0.058 C 
HETATM    6  C7  UNL     1     -33.081   6.714   3.038  1.00 20.00    -0.004 C 
HETATM    7  C8  UNL     1     -34.187   6.528   6.761  1.00 20.00     0.015 C 
HETATM    8  C9  UNL     1     -31.875   7.332   2.322  1.00 20.00     0.011 C 
ENDROOT
BRANCH   5   9
HETATM    9  C3  UNL     1     -33.268   8.614   4.644  1.00 20.00     0.236 C 
HETATM   10  O10 UNL     1     -32.378   9.327   5.096  1.00 20.00    -0.306 OA
ENDBRANCH   5   9
TORSDOF 1
ENDMDL
MODEL 3
REMARK VINA RESULT:      -5.0      2.057      3.145
REMARK  1 active torsions:
REMARK  status: ('A' for Active; 'I' for Inactive)
REMARK    1  A    between atoms: C3_3  and  C6_6 
ROOT
HETATM    1  C1  UNL     1     -33.875   4.760   3.487  1.00 20.00    -0.030 C 
HETATM    2  C2  UNL     1     -32.955   5.417   2.771  1.00 20.00    -0.026 C 
HETATM    3  C4  UNL     1     -34.434   5.279   4.774  1.00 20.00     0.031 C 
HETATM    4  C5  UNL     1     -32.400   6.764   3.156  1.00 20.00     0.014 C 
HETATM    5  C6  UNL     1     -33.173   7.429   4.323  1.00 20.00     0.058 C 
HETATM    6  C7  UNL     1     -33.584   6.401   5.398  1.00 20.00    -0.004 C 
HETATM    7  C8  UNL     1     -32.387   7.684   1.928  1.00 20.00     0.015 C 
HETATM    8  C9  UNL     1     -34.359   7.043   6.554  1.00 20.00     0.011 C 
ENDROOT
BRANCH   5   9
HETATM    9  C3  UNL     1     -32.292   8.484   4.933  1.00 20.00     0.236 C 
HETATM   10  O10 UNL     1     -32.226   9.635   4.511  1.00 20.00    -0.306 OA
ENDBRANCH   5   9
TORSDOF 1
ENDMDL
MODEL 4
REMARK VINA RESULT:      -5.0      2.025      3.986
REMARK  1 active torsions:
REMARK  status: ('A' for Active; 'I' for Inactive)
REMARK    1  A    between atoms: C3_3  and  C6_6 
ROOT
HETATM    1  C1  UNL     1     -34.531   6.148   5.769  1.00 20.00    -0.030 C 
HETATM    2  C2  UNL     1     -34.202   7.445   5.751  1.00 20.00    -0.026 C 
HETATM    3  C4  UNL     1     -34.116   5.183   4.704  1.00 20.00     0.031 C 
HETATM    4  C5  UNL     1     -33.350   8.076   4.680  1.00 20.00     0.014 C 
HETATM    5  C6  UNL     1     -32.688   7.039   3.739  1.00 20.00     0.058 C 
HETATM    6  C7  UNL     1     -33.642   5.871   3.411  1.00 20.00    -0.004 C 
HETATM    7  C8  UNL     1     -32.285   8.968   5.331  1.00 20.00     0.015 C 
HETATM    8  C9  UNL     1     -32.996   4.830   2.490  1.00 20.00     0.011 C 
ENDROOT
BRANCH   5   9
HETATM    9  C3  UNL     1     -32.282   7.740   2.473  1.00 20.00     0.236 C 
HETATM   10  O10 UNL     1     -32.681   8.858   2.161  1.00 20.00    -0.306 OA
ENDBRANCH   5   9
TORSDOF 1
ENDMDL
MODEL 5
REMARK VINA RESULT:      -4.8      2.023      3.137
REMARK  1 active torsions:
REMARK  status: ('A' for Active; 'I' for Inactive)
REMARK    1  A    between atoms: C3_3  and  C6_6 
ROOT
HETATM    1  C1  UNL     1     -34.688   5.051   5.660  1.00 20.00    -0.030 C 
HETATM    2  C2  UNL     1     -34.040   4.506   4.623  1.00 20.00    -0.026 C 
HETATM    3  C4  UNL     1     -34.602   6.503   6.007  1.00 20.00     0.031 C 
HETATM    4  C5  UNL     1     -33.181   5.292   3.667  1.00 20.00     0.014 C 
HETATM    5  C6  UNL     1     -33.313   6.825   3.850  1.00 20.00     0.058 C 
HETATM    6  C7  UNL     1     -33.413   7.219   5.338  1.00 20.00    -0.004 C 
HETATM    7  C8  UNL     1     -33.518   4.891   2.225  1.00 20.00     0.015 C 
HETATM    8  C9  UNL     1     -33.557   8.732   5.533  1.00 20.00     0.011 C 
ENDROOT
BRANCH   5   9
HETATM    9  C3  UNL     1     -32.114   7.481   3.225  1.00 20.00     0.236 C 
HETATM   10  O10 UNL     1     -32.116   7.955   2.093  1.00 20.00    -0.306 OA
ENDBRANCH   5   9
TORSDOF 1
ENDMDL
MODEL 6
REMARK VINA RESULT:      -4.7      1.391      2.992
REMARK  1 active torsions:
REMARK  status: ('A' for Active; 'I' for Inactive)
REMARK    1  A    between atoms: C3_3  and  C6_6 
ROOT
HETATM    1  C1  UNL     1     -33.473   8.397   5.704  1.00 20.00    -0.030 C 
HETATM    2  C2  UNL     1     -33.874   7.163   6.027  1.00 20.00    -0.026 C 
HETATM    3  C4  UNL     1     -32.862   8.740   4.382  1.00 20.00     0.031 C 
HETATM    4  C5  UNL     1     -33.791   5.984   5.092  1.00 20.00     0.014 C 
HETATM    5  C6  UNL     1     -33.427   6.385   3.640  1.00 20.00     0.058 C 
HETATM    6  C7  UNL     1     -32.369   7.507   3.603  1.00 20.00    -0.004 C 
HETATM    7  C8  UNL     1     -35.116   5.211   5.121  1.00 20.00     0.015 C 
HETATM    8  C9  UNL     1     -32.008   7.922   2.172  1.00 20.00     0.011 C 
ENDROOT
BRANCH   5   9
HETATM    9  C3  UNL     1     -32.908   5.166   2.929  1.00 20.00     0.236 C 
HETATM   10  O10 UNL     1     -33.363   4.759   1.865  1.00 20.00    -0.306 OA
ENDBRANCH   5   9
TORSDOF 1
ENDMDL
MODEL 7
REMARK VINA RESULT:      -4.5      1.339      2.281
REMARK  1 active torsions:
REMARK  status: ('A' for Active; 'I' for Inactive)
REMARK    1  A    between atoms: C3_3  and  C6_6 
ROOT
HETATM    1  C1  UNL     1     -32.396   6.268   2.313  1.00 20.00    -0.030 C 
HETATM    2  C2  UNL     1     -33.375   5.485   2.781  1.00 20.00    -0.026 C 
HETATM    3  C4  UNL     1     -31.929   7.504   3.015  1.00 20.00     0.031 C 
HETATM    4  C5  UNL     1     -34.096   5.734   4.081  1.00 20.00     0.014 C 
HETATM    5  C6  UNL     1     -33.432   6.837   4.943  1.00 20.00     0.058 C 
HETATM    6  C7  UNL     1     -32.921   8.009   4.080  1.00 20.00    -0.004 C 
HETATM    7  C8  UNL     1     -34.197   4.422   4.871  1.00 20.00     0.015 C 
HETATM    8  C9  UNL     1     -32.250   9.103   4.918  1.00 20.00     0.011 C 
ENDROOT
BRANCH   5   9
HETATM    9  C3  UNL     1     -34.445   7.335   5.936  1.00 20.00     0.236 C 
HETATM   10  O10 UNL     1     -34.494   6.952   7.101  1.00 20.00    -0.306 OA
ENDBRANCH   5   9
TORSDOF 1
ENDMDL
MODEL 8
REMARK VINA RESULT:      -4.5      1.482      2.530
REMARK  1 active torsions:
REMARK  status: ('A' for Active; 'I' for Inactive)
REMARK    1  A    between atoms: C3_3  and  C6_6 
ROOT
HETATM    1  C1  UNL     1     -33.611   8.558   5.977  1.00 20.00    -0.030 C 
HETATM    2  C2  UNL     1     -33.134   8.789   4.749  1.00 20.00    -0.026 C 
HETATM    3  C4  UNL     1     -34.110   7.220   6.424  1.00 20.00     0.031 C 
HETATM    4  C5  UNL     1     -33.010   7.728   3.686  1.00 20.00     0.014 C 
HETATM    5  C6  UNL     1     -33.256   6.296   4.225  1.00 20.00     0.058 C 
HETATM    6  C7  UNL     1     -34.403   6.260   5.256  1.00 20.00    -0.004 C 
HETATM    7  C8  UNL     1     -31.629   7.823   3.023  1.00 20.00     0.015 C 
HETATM    8  C9  UNL     1     -34.649   4.851   5.807  1.00 20.00     0.011 C 
ENDROOT
BRANCH   5   9
HETATM    9  C3  UNL     1     -33.583   5.402   3.061  1.00 20.00     0.236 C 
HETATM   10  O10 UNL     1     -32.744   4.732   2.467  1.00 20.00    -0.306 OA
ENDBRANCH   5   9
TORSDOF 1
ENDMDL
MODEL 9
REMARK VINA RESULT:      -4.4      1.838      3.005
REMARK  1 active torsions:
REMARK  status: ('A' for Active; 'I' for Inactive)
REMARK    1  A    between atoms: C3_3  and  C6_6 
ROOT
HETATM    1  C1  UNL     1     -33.204   5.080   2.796  1.00 20.00    -0.030 C 
HETATM    2  C2  UNL     1     -32.473   6.181   2.590  1.00 20.00    -0.026 C 
HETATM    3  C4  UNL     1     -34.100   4.901   3.981  1.00 20.00     0.031 C 
HETATM    4  C5  UNL     1     -32.491   7.380   3.502  1.00 20.00     0.014 C 
HETATM    5  C6  UNL     1     -33.617   7.318   4.566  1.00 20.00     0.058 C 
HETATM    6  C7  UNL     1     -33.802   5.891   5.122  1.00 20.00    -0.004 C 
HETATM    7  C8  UNL     1     -32.611   8.660   2.666  1.00 20.00     0.015 C 
HETATM    8  C9  UNL     1     -34.921   5.813   6.167  1.00 20.00     0.011 C 
ENDROOT
BRANCH   5   9
HETATM    9  C3  UNL     1     -33.266   8.263   5.681  1.00 20.00     0.236 C 
HETATM   10  O10 UNL     1     -33.985   9.194   6.030  1.00 20.00    -0.306 OA
ENDBRANCH   5   9
TORSDOF 1
ENDMDL
