MODEL 1
REMARK VINA RESULT:      -3.7      0.000      0.000
REMARK  1 active torsions:
REMARK  status: ('A' for Active; 'I' for Inactive)
REMARK    1  A    between atoms: C1_1  and  C3_3 
ROOT
HETATM    1  C1  UNL     1     -33.842   7.007   6.160  1.00 20.00     0.000 C 
HETATM    2  C2  UNL     1     -33.354   7.468   5.006  1.00 20.00     0.081 C 
HETATM    3 CL4  UNL     1     -32.415   8.897   4.893  1.00 20.00    -0.097 Cl
ENDROOT
BRANCH   1   4
HETATM    4  C3  UNL     1     -34.653   5.759   6.267  1.00 20.00     0.142 C 
HETATM    5 CL5  UNL     1     -34.620   4.880   4.722  1.00 20.00    -0.126 Cl
ENDBRANCH   1   4
TORSDOF 1
ENDMDL
MODEL 2
REMARK VINA RESULT:      -3.5      1.584      3.227
REMARK  1 active torsions:
REMARK  status: ('A' for Active; 'I' for Inactive)
REMARK    1  A    between atoms: C1_1  and  C3_3 
ROOT
HETATM    1  C1  UNL     1     -33.262   7.652   5.442  1.00 20.00     0.000 C 
HETATM    2  C2  UNL     1     -34.034   6.610   5.122  1.00 20.00     0.081 C 
HETATM    3 CL4  UNL     1     -34.833   5.646   6.291  1.00 20.00    -0.097 Cl
ENDROOT
BRANCH   1   4
HETATM    4  C3  UNL     1     -32.569   8.501   4.428  1.00 20.00     0.142 C 
HETATM    5 CL5  UNL     1     -32.180   7.532   2.991  1.00 20.00    -0.126 Cl
ENDBRANCH   1   4
TORSDOF 1
ENDMDL
MODEL 3
REMARK VINA RESULT:      -3.4      1.243      1.414
REMARK  1 active torsions:
REMARK  status: ('A' for Active; 'I' for Inactive)
REMARK    1  A    between atoms: C1_1  and  C3_3 
ROOT
HETATM    1  C1  UNL     1     -33.809   7.448   4.991  1.00 20.00     0.000 C 
HETATM    2  C2  UNL     1     -32.739   8.173   4.658  1.00 20.00     0.081 C 
HETATM    3 CL4  UNL     1     -32.495   8.811   3.087  1.00 20.00    -0.097 Cl
ENDROOT
BRANCH   1   4
HETATM    4  C3  UNL     1     -34.033   6.896   6.360  1.00 20.00     0.142 C 
HETATM    5 CL5  UNL     1     -34.676   5.243   6.249  1.00 20.00    -0.126 Cl
ENDBRANCH   1   4
TORSDOF 1
ENDMDL
MODEL 4
REMARK VINA RESULT:      -3.4      2.226      2.813
REMARK  1 active torsions:
REMARK  status: ('A' for Active; 'I' for Inactive)
REMARK    1  A    between atoms: C1_1  and  C3_3 
ROOT
HETATM    1  C1  UNL     1     -34.375   4.960   4.753  1.00 20.00     0.000 C 
HETATM    2  C2  UNL     1     -33.610   5.691   3.938  1.00 20.00     0.081 C 
HETATM    3 CL4  UNL     1     -33.026   5.111   2.435  1.00 20.00    -0.097 Cl
ENDROOT
BRANCH   1   4
HETATM    4  C3  UNL     1     -34.894   5.462   6.059  1.00 20.00     0.142 C 
HETATM    5 CL5  UNL     1     -34.145   7.025   6.449  1.00 20.00    -0.126 Cl
ENDBRANCH   1   4
TORSDOF 1
ENDMDL
MODEL 5
REMARK VINA RESULT:      -3.4      1.197      1.334
REMARK  1 active torsions:
REMARK  status: ('A' for Active; 'I' for Inactive)
REMARK    1  A    between atoms: C1_1  and  C3_3 
ROOT
HETATM    1  C1  UNL     1     -33.883   6.769   4.411  1.00 20.00     0.000 C 
HETATM    2  C2  UNL     1     -33.392   7.648   5.288  1.00 20.00     0.081 C 
HETATM    3 CL4  UNL     1     -32.297   8.891   4.850  1.00 20.00    -0.097 Cl
ENDROOT
BRANCH   1   4
HETATM    4  C3  UNL     1     -34.844   5.689   4.784  1.00 20.00     0.142 C 
HETATM    5 CL5  UNL     1     -34.699   5.320   6.516  1.00 20.00    -0.126 Cl
ENDBRANCH   1   4
TORSDOF 1
ENDMDL
MODEL 6
REMARK VINA RESULT:      -3.1      1.169      3.517
REMARK  1 active torsions:
REMARK  status: ('A' for Active; 'I' for Inactive)
REMARK    1  A    between atoms: C1_1  and  C3_3 
ROOT
HETATM    1  C1  UNL     1     -33.492   6.852   4.384  1.00 20.00     0.000 C 
HETATM    2  C2  UNL     1     -33.831   6.860   5.675  1.00 20.00     0.081 C 
HETATM    3 CL4  UNL     1     -34.811   5.651   6.391  1.00 20.00    -0.097 Cl
ENDROOT
BRANCH   1   4
HETATM    4  C3  UNL     1     -32.632   7.898   3.756  1.00 20.00     0.142 C 
HETATM    5 CL5  UNL     1     -32.226   9.147   4.952  1.00 20.00    -0.126 Cl
ENDBRANCH   1   4
TORSDOF 1
ENDMDL
MODEL 7
REMARK VINA RESULT:      -3.1      2.332      2.953
REMARK  1 active torsions:
REMARK  status: ('A' for Active; 'I' for Inactive)
REMARK    1  A    between atoms: C1_1  and  C3_3 
ROOT
HETATM    1  C1  UNL     1     -33.031   7.350   4.131  1.00 20.00     0.000 C 
HETATM    2  C2  UNL     1     -33.458   6.113   3.865  1.00 20.00     0.081 C 
HETATM    3 CL4  UNL     1     -32.915   5.209   2.515  1.00 20.00    -0.097 Cl
ENDROOT
BRANCH   1   4
HETATM    4  C3  UNL     1     -33.494   8.141   5.311  1.00 20.00     0.142 C 
HETATM    5 CL5  UNL     1     -34.221   7.058   6.518  1.00 20.00    -0.126 Cl
ENDBRANCH   1   4
TORSDOF 1
ENDMDL
MODEL 8
REMARK VINA RESULT:      -2.9      1.689      2.176
REMARK  1 active torsions:
REMARK  status: ('A' for Active; 'I' for Inactive)
REMARK    1  A    between atoms: C1_1  and  C3_3 
ROOT
HETATM    1  C1  UNL     1     -32.597   6.774   3.334  1.00 20.00     0.000 C 
HETATM    2  C2  UNL     1     -33.022   7.497   4.373  1.00 20.00     0.081 C 
HETATM    3 CL4  UNL     1     -32.355   9.019   4.787  1.00 20.00    -0.097 Cl
ENDROOT
BRANCH   1   4
HETATM    4  C3  UNL     1     -33.180   5.450   2.963  1.00 20.00     0.142 C 
HETATM    5 CL5  UNL     1     -34.228   4.861   4.272  1.00 20.00    -0.126 Cl
ENDBRANCH   1   4
TORSDOF 1
ENDMDL
MODEL 9
REMARK VINA RESULT:      -2.8      2.093      3.557
REMARK  1 active torsions:
REMARK  status: ('A' for Active; 'I' for Inactive)
REMARK    1  A    between atoms: C1_1  and  C3_3 
ROOT
HETATM    1  C1  UNL     1     -32.757   7.821   4.486  1.00 20.00     0.000 C 
HETATM    2  C2  UNL     1     -33.690   6.990   4.955  1.00 20.00     0.081 C 
HETATM    3 CL4  UNL     1     -34.296   7.074   6.555  1.00 20.00    -0.097 Cl
ENDROOT
BRANCH   1   4
HETATM    4  C3  UNL     1     -32.230   7.758   3.090  1.00 20.00     0.142 C 
HETATM    5 CL5  UNL     1     -32.732   9.205   2.188  1.00 20.00    -0.126 Cl
ENDBRANCH   1   4
TORSDOF 1
ENDMDL
