MODEL 1
REMARK VINA RESULT:      -4.5      0.000      0.000
REMARK  1 active torsions:
REMARK  status: ('A' for Active; 'I' for Inactive)
REMARK    1  A    between atoms: C4_4  and  C12_12 
ROOT
HETATM    1  C1  UNL     1     -33.706  15.203  -3.800  1.00 20.00     0.005 C 
HETATM    2  C2  UNL     1     -34.436  14.448  -4.634  1.00 20.00     0.001 C 
HETATM    3  C3  UNL     1     -34.310  17.271  -4.911  1.00 20.00    -0.012 C 
HETATM    4  C4  UNL     1     -33.716  16.650  -3.877  1.00 20.00    -0.058 C 
HETATM    5  C5  UNL     1     -37.243  16.117  -5.641  1.00 20.00     0.004 C 
HETATM    6  C6  UNL     1     -36.364  17.083  -6.368  1.00 20.00     0.065 C 
HETATM    7  C7  UNL     1     -34.992  16.521  -6.032  1.00 20.00     0.042 C 
HETATM    8  C8  UNL     1     -35.298  15.042  -5.710  1.00 20.00     0.138 C 
HETATM    9  C9  UNL     1     -38.683  16.434  -5.401  1.00 20.00     0.065 C 
HETATM   10  N13 UNL     1     -36.711  14.996  -5.268  1.00 20.00    -0.289 NA
ENDROOT
BRANCH   4  11
HETATM   11  C12 UNL     1     -33.016  17.392  -2.780  1.00 20.00     0.010 C 
HETATM   12  C10 UNL     1     -32.936  18.879  -3.113  1.00 20.00     0.015 C 
HETATM   13  C11 UNL     1     -33.717  17.171  -1.442  1.00 20.00     0.015 C 
ENDBRANCH   4  11
TORSDOF 1
ENDMDL
MODEL 2
REMARK VINA RESULT:      -4.4     12.313     14.146
REMARK  1 active torsions:
REMARK  status: ('A' for Active; 'I' for Inactive)
REMARK    1  A    between atoms: C4_4  and  C12_12 
ROOT
HETATM    1  C1  UNL     1     -41.685  12.228   6.406  1.00 20.00     0.005 C 
HETATM    2  C2  UNL     1     -42.591  12.848   7.176  1.00 20.00     0.001 C 
HETATM    3  C3  UNL     1     -39.987  13.914   6.796  1.00 20.00    -0.012 C 
HETATM    4  C4  UNL     1     -40.325  12.716   6.287  1.00 20.00    -0.058 C 
HETATM    5  C5  UNL     1     -41.076  14.434   9.797  1.00 20.00     0.004 C 
HETATM    6  C6  UNL     1     -40.432  15.360   8.816  1.00 20.00     0.065 C 
HETATM    7  C7  UNL     1     -40.975  14.807   7.509  1.00 20.00     0.042 C 
HETATM    8  C8  UNL     1     -42.270  14.092   7.952  1.00 20.00     0.138 C 
HETATM    9  C9  UNL     1     -40.595  14.371  11.209  1.00 20.00     0.065 C 
HETATM   10  N13 UNL     1     -42.078  13.729   9.376  1.00 20.00    -0.289 NA
ENDROOT
BRANCH   4  11
HETATM   11  C12 UNL     1     -39.353  11.843   5.555  1.00 20.00     0.010 C 
HETATM   12  C10 UNL     1     -39.509  12.023   4.048  1.00 20.00     0.015 C 
HETATM   13  C11 UNL     1     -37.921  12.139   5.993  1.00 20.00     0.015 C 
ENDBRANCH   4  11
TORSDOF 1
ENDMDL
MODEL 3
REMARK VINA RESULT:      -4.2      1.862      2.759
REMARK  1 active torsions:
REMARK  status: ('A' for Active; 'I' for Inactive)
REMARK    1  A    between atoms: C4_4  and  C12_12 
ROOT
HETATM    1  C1  UNL     1     -33.172  16.792  -2.203  1.00 20.00     0.005 C 
HETATM    2  C2  UNL     1     -33.609  16.234  -3.341  1.00 20.00     0.001 C 
HETATM    3  C3  UNL     1     -33.228  19.038  -3.113  1.00 20.00    -0.012 C 
HETATM    4  C4  UNL     1     -33.069  18.229  -2.051  1.00 20.00    -0.058 C 
HETATM    5  C5  UNL     1     -35.784  18.315  -4.959  1.00 20.00     0.004 C 
HETATM    6  C6  UNL     1     -34.651  19.263  -5.186  1.00 20.00     0.065 C 
HETATM    7  C7  UNL     1     -33.519  18.516  -4.501  1.00 20.00     0.042 C 
HETATM    8  C8  UNL     1     -34.004  17.051  -4.537  1.00 20.00     0.138 C 
HETATM    9  C9  UNL     1     -37.195  18.755  -5.171  1.00 20.00     0.065 C 
HETATM   10  N13 UNL     1     -35.483  17.104  -4.610  1.00 20.00    -0.289 NA
ENDROOT
BRANCH   4  11
HETATM   11  C12 UNL     1     -32.753  18.745  -0.680  1.00 20.00     0.010 C 
HETATM   12  C10 UNL     1     -33.705  18.137   0.346  1.00 20.00     0.015 C 
HETATM   13  C11 UNL     1     -31.300  18.456  -0.313  1.00 20.00     0.015 C 
ENDBRANCH   4  11
TORSDOF 1
ENDMDL
MODEL 4
REMARK VINA RESULT:      -4.1      2.332      4.881
REMARK  1 active torsions:
REMARK  status: ('A' for Active; 'I' for Inactive)
REMARK    1  A    between atoms: C4_4  and  C12_12 
ROOT
HETATM    1  C1  UNL     1     -35.312  17.853  -4.529  1.00 20.00     0.005 C 
HETATM    2  C2  UNL     1     -35.216  19.009  -3.859  1.00 20.00     0.001 C 
HETATM    3  C3  UNL     1     -33.288  16.949  -3.547  1.00 20.00    -0.012 C 
HETATM    4  C4  UNL     1     -34.385  16.762  -4.301  1.00 20.00    -0.058 C 
HETATM    5  C5  UNL     1     -33.839  18.513  -0.770  1.00 20.00     0.004 C 
HETATM    6  C6  UNL     1     -32.559  18.136  -1.442  1.00 20.00     0.065 C 
HETATM    7  C7  UNL     1     -32.956  18.275  -2.902  1.00 20.00     0.042 C 
HETATM    8  C8  UNL     1     -34.141  19.263  -2.841  1.00 20.00     0.138 C 
HETATM    9  C9  UNL     1     -34.051  18.219   0.679  1.00 20.00     0.065 C 
HETATM   10  N13 UNL     1     -34.726  19.129  -1.486  1.00 20.00    -0.289 NA
ENDROOT
BRANCH   4  11
HETATM   11  C12 UNL     1     -34.700  15.455  -4.964  1.00 20.00     0.010 C 
HETATM   12  C10 UNL     1     -34.261  15.484  -6.425  1.00 20.00     0.015 C 
HETATM   13  C11 UNL     1     -34.041  14.297  -4.220  1.00 20.00     0.015 C 
ENDBRANCH   4  11
TORSDOF 1
ENDMDL
MODEL 5
REMARK VINA RESULT:      -4.1     11.475     13.100
REMARK  1 active torsions:
REMARK  status: ('A' for Active; 'I' for Inactive)
REMARK    1  A    between atoms: C4_4  and  C12_12 
ROOT
HETATM    1  C1  UNL     1     -41.791  15.770   6.443  1.00 20.00     0.005 C 
HETATM    2  C2  UNL     1     -42.241  15.028   5.421  1.00 20.00     0.001 C 
HETATM    3  C3  UNL     1     -40.845  13.861   7.600  1.00 20.00    -0.012 C 
HETATM    4  C4  UNL     1     -40.994  15.194   7.508  1.00 20.00    -0.058 C 
HETATM    5  C5  UNL     1     -40.136  12.410   4.798  1.00 20.00     0.004 C 
HETATM    6  C6  UNL     1     -40.512  11.838   6.127  1.00 20.00     0.065 C 
HETATM    7  C7  UNL     1     -41.480  12.898   6.624  1.00 20.00     0.042 C 
HETATM    8  C8  UNL     1     -41.969  13.555   5.315  1.00 20.00     0.138 C 
HETATM    9  C9  UNL     1     -38.950  11.886   4.056  1.00 20.00     0.065 C 
HETATM   10  N13 UNL     1     -40.897  13.339   4.315  1.00 20.00    -0.289 NA
ENDROOT
BRANCH   4  11
HETATM   11  C12 UNL     1     -40.387  16.148   8.492  1.00 20.00     0.010 C 
HETATM   12  C10 UNL     1     -41.272  17.380   8.649  1.00 20.00     0.015 C 
HETATM   13  C11 UNL     1     -40.160  15.466   9.839  1.00 20.00     0.015 C 
ENDBRANCH   4  11
TORSDOF 1
ENDMDL
MODEL 6
REMARK VINA RESULT:      -4.0     11.707     13.094
REMARK  1 active torsions:
REMARK  status: ('A' for Active; 'I' for Inactive)
REMARK    1  A    between atoms: C4_4  and  C12_12 
ROOT
HETATM    1  C1  UNL     1     -42.037  12.172   6.748  1.00 20.00     0.005 C 
HETATM    2  C2  UNL     1     -43.096  12.937   7.047  1.00 20.00     0.001 C 
HETATM    3  C3  UNL     1     -41.346  13.595   4.911  1.00 20.00    -0.012 C 
HETATM    4  C4  UNL     1     -41.086  12.555   5.722  1.00 20.00    -0.058 C 
HETATM    5  C5  UNL     1     -42.425  16.233   6.441  1.00 20.00     0.004 C 
HETATM    6  C6  UNL     1     -42.348  15.911   4.983  1.00 20.00     0.065 C 
HETATM    7  C7  UNL     1     -42.611  14.415   5.012  1.00 20.00     0.042 C 
HETATM    8  C8  UNL     1     -43.382  14.229   6.337  1.00 20.00     0.138 C 
HETATM    9  C9  UNL     1     -41.914  17.538   6.957  1.00 20.00     0.065 C 
HETATM   10  N13 UNL     1     -42.980  15.354   7.213  1.00 20.00    -0.289 NA
ENDROOT
BRANCH   4  11
HETATM   11  C12 UNL     1     -39.845  11.725   5.604  1.00 20.00     0.010 C 
HETATM   12  C10 UNL     1     -39.290  11.802   4.185  1.00 20.00     0.015 C 
HETATM   13  C11 UNL     1     -38.798  12.167   6.623  1.00 20.00     0.015 C 
ENDBRANCH   4  11
TORSDOF 1
ENDMDL
MODEL 7
REMARK VINA RESULT:      -3.9      1.885      4.719
REMARK  1 active torsions:
REMARK  status: ('A' for Active; 'I' for Inactive)
REMARK    1  A    between atoms: C4_4  and  C12_12 
ROOT
HETATM    1  C1  UNL     1     -34.739  17.747  -5.739  1.00 20.00     0.005 C 
HETATM    2  C2  UNL     1     -33.955  18.685  -5.188  1.00 20.00     0.001 C 
HETATM    3  C3  UNL     1     -34.235  16.111  -4.024  1.00 20.00    -0.012 C 
HETATM    4  C4  UNL     1     -34.961  16.467  -5.097  1.00 20.00    -0.058 C 
HETATM    5  C5  UNL     1     -33.963  18.425  -1.780  1.00 20.00     0.004 C 
HETATM    6  C6  UNL     1     -33.269  17.108  -1.915  1.00 20.00     0.065 C 
HETATM    7  C7  UNL     1     -33.167  16.999  -3.427  1.00 20.00     0.042 C 
HETATM    8  C8  UNL     1     -33.243  18.472  -3.883  1.00 20.00     0.138 C 
HETATM    9  C9  UNL     1     -34.579  18.827  -0.480  1.00 20.00     0.065 C 
HETATM   10  N13 UNL     1     -33.972  19.200  -2.818  1.00 20.00    -0.289 NA
ENDROOT
BRANCH   4  11
HETATM   11  C12 UNL     1     -36.000  15.575  -5.705  1.00 20.00     0.010 C 
HETATM   12  C10 UNL     1     -35.849  14.151  -5.179  1.00 20.00     0.015 C 
HETATM   13  C11 UNL     1     -37.403  16.110  -5.430  1.00 20.00     0.015 C 
ENDBRANCH   4  11
TORSDOF 1
ENDMDL
MODEL 8
REMARK VINA RESULT:      -3.8      1.365      2.197
REMARK  1 active torsions:
REMARK  status: ('A' for Active; 'I' for Inactive)
REMARK    1  A    between atoms: C4_4  and  C12_12 
ROOT
HETATM    1  C1  UNL     1     -34.447  15.198  -6.177  1.00 20.00     0.005 C 
HETATM    2  C2  UNL     1     -35.228  15.493  -7.225  1.00 20.00     0.001 C 
HETATM    3  C3  UNL     1     -35.210  17.104  -4.888  1.00 20.00    -0.012 C 
HETATM    4  C4  UNL     1     -34.505  15.961  -4.946  1.00 20.00    -0.058 C 
HETATM    5  C5  UNL     1     -38.163  16.908  -6.194  1.00 20.00     0.004 C 
HETATM    6  C6  UNL     1     -37.383  18.089  -5.715  1.00 20.00     0.065 C 
HETATM    7  C7  UNL     1     -35.971  17.656  -6.072  1.00 20.00     0.042 C 
HETATM    8  C8  UNL     1     -36.203  16.635  -7.207  1.00 20.00     0.138 C 
HETATM    9  C9  UNL     1     -39.583  16.716  -5.773  1.00 20.00     0.065 C 
HETATM   10  N13 UNL     1     -37.568  16.094  -7.007  1.00 20.00    -0.289 NA
ENDROOT
BRANCH   4  11
HETATM   11  C12 UNL     1     -33.729  15.428  -3.780  1.00 20.00     0.010 C 
HETATM   12  C10 UNL     1     -32.491  14.681  -4.267  1.00 20.00     0.015 C 
HETATM   13  C11 UNL     1     -33.344  16.554  -2.824  1.00 20.00     0.015 C 
ENDBRANCH   4  11
TORSDOF 1
ENDMDL
MODEL 9
REMARK VINA RESULT:      -3.8      1.234      2.292
REMARK  1 active torsions:
REMARK  status: ('A' for Active; 'I' for Inactive)
REMARK    1  A    between atoms: C4_4  and  C12_12 
ROOT
HETATM    1  C1  UNL     1     -34.690  15.849  -6.082  1.00 20.00     0.005 C 
HETATM    2  C2  UNL     1     -35.814  15.960  -6.804  1.00 20.00     0.001 C 
HETATM    3  C3  UNL     1     -35.405  17.491  -4.448  1.00 20.00    -0.012 C 
HETATM    4  C4  UNL     1     -34.518  16.555  -4.827  1.00 20.00    -0.058 C 
HETATM    5  C5  UNL     1     -38.496  16.602  -4.785  1.00 20.00     0.004 C 
HETATM    6  C6  UNL     1     -37.891  17.929  -4.464  1.00 20.00     0.065 C 
HETATM    7  C7  UNL     1     -36.611  17.859  -5.280  1.00 20.00     0.042 C 
HETATM    8  C8  UNL     1     -36.961  16.830  -6.377  1.00 20.00     0.138 C 
HETATM    9  C9  UNL     1     -39.622  16.062  -3.964  1.00 20.00     0.065 C 
HETATM   10  N13 UNL     1     -38.029  15.970  -5.815  1.00 20.00    -0.289 NA
ENDROOT
BRANCH   4  11
HETATM   11  C12 UNL     1     -33.307  16.209  -4.016  1.00 20.00     0.010 C 
HETATM   12  C10 UNL     1     -33.537  16.555  -2.548  1.00 20.00     0.015 C 
HETATM   13  C11 UNL     1     -32.949  14.734  -4.177  1.00 20.00     0.015 C 
ENDBRANCH   4  11
TORSDOF 1
ENDMDL
