MODEL 1
REMARK VINA RESULT:      -4.7      0.000      0.000
REMARK  2 active torsions:
REMARK  status: ('A' for Active; 'I' for Inactive)
REMARK    1  A    between atoms: C2_2  and  C4_4 
REMARK    2  A    between atoms: C5_5  and  C9_9 
ROOT
HETATM    1  C1  UNL     1     -32.759   6.458   2.420  1.00 20.00    -0.016 C 
HETATM    2  C2  UNL     1     -32.434   7.753   2.313  1.00 20.00    -0.024 C 
HETATM    3  C6  UNL     1     -33.400   5.883   3.651  1.00 20.00     0.036 C 
HETATM    4  C7  UNL     1     -32.640   8.758   3.404  1.00 20.00     0.042 C 
HETATM    5  C8  UNL     1     -32.926   8.106   4.762  1.00 20.00     0.014 C 
HETATM    6  C9  UNL     1     -33.931   6.954   4.620  1.00 20.00     0.017 C 
ENDROOT
BRANCH   6   7
HETATM    7  C5  UNL     1     -34.251   6.347   5.951  1.00 20.00    -0.089 C 
HETATM    8  C3  UNL     1     -34.308   7.082   7.071  1.00 20.00     0.014 C 
HETATM    9  C10 UNL     1     -34.506   4.869   5.960  1.00 20.00     0.043 C 
ENDBRANCH   6   7
BRANCH   2  10
HETATM   10  C4  UNL     1     -31.821   8.201   1.059  1.00 20.00     0.265 C 
HETATM   11  O11 UNL     1     -32.446   8.813   0.201  1.00 20.00    -0.302 OA
ENDBRANCH   2  10
TORSDOF 2
ENDMDL
MODEL 2
REMARK VINA RESULT:      -4.4     11.820     12.753
REMARK  2 active torsions:
REMARK  status: ('A' for Active; 'I' for Inactive)
REMARK    1  A    between atoms: C2_2  and  C4_4 
REMARK    2  A    between atoms: C5_5  and  C9_9 
ROOT
HETATM    1  C1  UNL     1     -30.791  18.534   1.205  1.00 20.00    -0.016 C 
HETATM    2  C2  UNL     1     -31.717  18.930   2.088  1.00 20.00    -0.024 C 
HETATM    3  C6  UNL     1     -31.107  18.281  -0.242  1.00 20.00     0.036 C 
HETATM    4  C7  UNL     1     -33.162  19.135   1.747  1.00 20.00     0.042 C 
HETATM    5  C8  UNL     1     -33.544  18.516   0.397  1.00 20.00     0.014 C 
HETATM    6  C9  UNL     1     -32.483  18.821  -0.670  1.00 20.00     0.017 C 
ENDROOT
BRANCH   6   7
HETATM    7  C5  UNL     1     -32.877  18.261  -2.002  1.00 20.00    -0.089 C 
HETATM    8  C3  UNL     1     -33.273  16.988  -2.147  1.00 20.00     0.014 C 
HETATM    9  C10 UNL     1     -32.804  19.205  -3.165  1.00 20.00     0.043 C 
ENDBRANCH   6   7
BRANCH   2  10
HETATM   10  C4  UNL     1     -31.289  19.154   3.471  1.00 20.00     0.265 C 
HETATM   11  O11 UNL     1     -30.164  18.874   3.867  1.00 20.00    -0.302 OA
ENDBRANCH   2  10
TORSDOF 2
ENDMDL
MODEL 3
REMARK VINA RESULT:      -4.4      0.319      1.546
REMARK  2 active torsions:
REMARK  status: ('A' for Active; 'I' for Inactive)
REMARK    1  A    between atoms: C2_2  and  C4_4 
REMARK    2  A    between atoms: C5_5  and  C9_9 
ROOT
HETATM    1  C1  UNL     1     -32.744   8.644   3.212  1.00 20.00    -0.016 C 
HETATM    2  C2  UNL     1     -32.432   7.736   2.277  1.00 20.00    -0.024 C 
HETATM    3  C6  UNL     1     -33.327   8.267   4.544  1.00 20.00     0.036 C 
HETATM    4  C7  UNL     1     -32.655   6.263   2.437  1.00 20.00     0.042 C 
HETATM    5  C8  UNL     1     -33.585   5.930   3.609  1.00 20.00     0.014 C 
HETATM    6  C9  UNL     1     -33.230   6.762   4.850  1.00 20.00     0.017 C 
ENDROOT
BRANCH   6   7
HETATM    7  C5  UNL     1     -34.104   6.403   6.012  1.00 20.00    -0.089 C 
HETATM    8  C3  UNL     1     -34.331   7.259   7.019  1.00 20.00     0.014 C 
HETATM    9  C10 UNL     1     -34.710   5.032   5.985  1.00 20.00     0.043 C 
ENDBRANCH   6   7
BRANCH   2  10
HETATM   10  C4  UNL     1     -31.861   8.222   1.018  1.00 20.00     0.265 C 
HETATM   11  O11 UNL     1     -32.487   8.931   0.240  1.00 20.00    -0.302 OA
ENDBRANCH   2  10
TORSDOF 2
ENDMDL
MODEL 4
REMARK VINA RESULT:      -4.3     11.703     12.457
REMARK  2 active torsions:
REMARK  status: ('A' for Active; 'I' for Inactive)
REMARK    1  A    between atoms: C2_2  and  C4_4 
REMARK    2  A    between atoms: C5_5  and  C9_9 
ROOT
HETATM    1  C1  UNL     1     -33.461  18.635   1.166  1.00 20.00    -0.016 C 
HETATM    2  C2  UNL     1     -32.136  18.794   1.288  1.00 20.00    -0.024 C 
HETATM    3  C6  UNL     1     -34.105  18.157  -0.105  1.00 20.00     0.036 C 
HETATM    4  C7  UNL     1     -31.160  18.548   0.178  1.00 20.00     0.042 C 
HETATM    5  C8  UNL     1     -31.839  18.440  -1.193  1.00 20.00     0.014 C 
HETATM    6  C9  UNL     1     -33.103  17.573  -1.116  1.00 20.00     0.017 C 
ENDROOT
BRANCH   6   7
HETATM    7  C5  UNL     1     -33.741  17.424  -2.463  1.00 20.00    -0.089 C 
HETATM    8  C3  UNL     1     -34.617  18.322  -2.936  1.00 20.00     0.014 C 
HETATM    9  C10 UNL     1     -33.345  16.212  -3.253  1.00 20.00     0.043 C 
ENDBRANCH   6   7
BRANCH   2  10
HETATM   10  C4  UNL     1     -31.621  19.257   2.579  1.00 20.00     0.265 C 
HETATM   11  O11 UNL     1     -30.660  18.737   3.131  1.00 20.00    -0.302 OA
ENDBRANCH   2  10
TORSDOF 2
ENDMDL
MODEL 5
REMARK VINA RESULT:      -4.3     11.443     12.767
REMARK  2 active torsions:
REMARK  status: ('A' for Active; 'I' for Inactive)
REMARK    1  A    between atoms: C2_2  and  C4_4 
REMARK    2  A    between atoms: C5_5  and  C9_9 
ROOT
HETATM    1  C1  UNL     1     -35.096  17.073  -5.439  1.00 20.00    -0.016 C 
HETATM    2  C2  UNL     1     -34.651  15.835  -5.692  1.00 20.00    -0.024 C 
HETATM    3  C6  UNL     1     -34.644  17.867  -4.246  1.00 20.00     0.036 C 
HETATM    4  C7  UNL     1     -33.689  15.097  -4.811  1.00 20.00     0.042 C 
HETATM    5  C8  UNL     1     -33.538  15.743  -3.430  1.00 20.00     0.014 C 
HETATM    6  C9  UNL     1     -33.412  17.269  -3.545  1.00 20.00     0.017 C 
ENDROOT
BRANCH   6   7
HETATM    7  C5  UNL     1     -33.214  17.900  -2.201  1.00 20.00    -0.089 C 
HETATM    8  C3  UNL     1     -33.669  17.330  -1.076  1.00 20.00     0.014 C 
HETATM    9  C10 UNL     1     -32.476  19.206  -2.185  1.00 20.00     0.043 C 
ENDBRANCH   6   7
BRANCH   2  10
HETATM   10  C4  UNL     1     -35.156  15.161  -6.891  1.00 20.00     0.265 C 
HETATM   11  O11 UNL     1     -35.984  14.260  -6.842  1.00 20.00    -0.302 OA
ENDBRANCH   2  10
TORSDOF 2
ENDMDL
MODEL 6
REMARK VINA RESULT:      -4.2     11.458     12.716
REMARK  2 active torsions:
REMARK  status: ('A' for Active; 'I' for Inactive)
REMARK    1  A    between atoms: C2_2  and  C4_4 
REMARK    2  A    between atoms: C5_5  and  C9_9 
ROOT
HETATM    1  C1  UNL     1     -35.131  17.001  -5.322  1.00 20.00    -0.016 C 
HETATM    2  C2  UNL     1     -34.598  15.795  -5.563  1.00 20.00    -0.024 C 
HETATM    3  C6  UNL     1     -34.686  17.869  -4.179  1.00 20.00     0.036 C 
HETATM    4  C7  UNL     1     -33.534  15.168  -4.714  1.00 20.00     0.042 C 
HETATM    5  C8  UNL     1     -33.367  15.871  -3.362  1.00 20.00     0.014 C 
HETATM    6  C9  UNL     1     -33.374  17.398  -3.528  1.00 20.00     0.017 C 
ENDROOT
BRANCH   6   7
HETATM    7  C5  UNL     1     -33.160  18.087  -2.216  1.00 20.00    -0.089 C 
HETATM    8  C3  UNL     1     -32.507  19.255  -2.127  1.00 20.00     0.014 C 
HETATM    9  C10 UNL     1     -33.718  17.397  -1.008  1.00 20.00     0.043 C 
ENDBRANCH   6   7
BRANCH   2  10
HETATM   10  C4  UNL     1     -35.106  15.042  -6.712  1.00 20.00     0.265 C 
HETATM   11  O11 UNL     1     -35.989  14.199  -6.611  1.00 20.00    -0.302 OA
ENDBRANCH   2  10
TORSDOF 2
ENDMDL
MODEL 7
REMARK VINA RESULT:      -4.2     11.676     13.225
REMARK  2 active torsions:
REMARK  status: ('A' for Active; 'I' for Inactive)
REMARK    1  A    between atoms: C2_2  and  C4_4 
REMARK    2  A    between atoms: C5_5  and  C9_9 
ROOT
HETATM    1  C1  UNL     1     -32.899  19.051  -3.250  1.00 20.00    -0.016 C 
HETATM    2  C2  UNL     1     -32.735  18.386  -2.098  1.00 20.00    -0.024 C 
HETATM    3  C6  UNL     1     -33.587  18.447  -4.442  1.00 20.00     0.036 C 
HETATM    4  C7  UNL     1     -33.184  16.974  -1.878  1.00 20.00     0.042 C 
HETATM    5  C8  UNL     1     -33.525  16.252  -3.187  1.00 20.00     0.014 C 
HETATM    6  C9  UNL     1     -34.352  17.152  -4.116  1.00 20.00     0.017 C 
ENDROOT
BRANCH   6   7
HETATM    7  C5  UNL     1     -34.729  16.433  -5.374  1.00 20.00    -0.089 C 
HETATM    8  C3  UNL     1     -35.621  16.937  -6.239  1.00 20.00     0.014 C 
HETATM    9  C10 UNL     1     -34.052  15.117  -5.612  1.00 20.00     0.043 C 
ENDBRANCH   6   7
BRANCH   2  10
HETATM   10  C4  UNL     1     -32.057  19.081  -1.001  1.00 20.00     0.265 C 
HETATM   11  O11 UNL     1     -30.912  18.813  -0.659  1.00 20.00    -0.302 OA
ENDBRANCH   2  10
TORSDOF 2
ENDMDL
MODEL 8
REMARK VINA RESULT:      -4.1     11.513     12.660
REMARK  2 active torsions:
REMARK  status: ('A' for Active; 'I' for Inactive)
REMARK    1  A    between atoms: C2_2  and  C4_4 
REMARK    2  A    between atoms: C5_5  and  C9_9 
ROOT
HETATM    1  C1  UNL     1     -33.618  15.339  -4.307  1.00 20.00    -0.016 C 
HETATM    2  C2  UNL     1     -34.236  15.961  -5.321  1.00 20.00    -0.024 C 
HETATM    3  C6  UNL     1     -33.290  16.030  -3.013  1.00 20.00     0.036 C 
HETATM    4  C7  UNL     1     -34.637  17.404  -5.294  1.00 20.00     0.042 C 
HETATM    5  C8  UNL     1     -33.968  18.182  -4.156  1.00 20.00     0.014 C 
HETATM    6  C9  UNL     1     -34.002  17.383  -2.845  1.00 20.00     0.017 C 
ENDROOT
BRANCH   6   7
HETATM    7  C5  UNL     1     -33.395  18.162  -1.719  1.00 20.00    -0.089 C 
HETATM    8  C3  UNL     1     -33.675  17.890  -0.437  1.00 20.00     0.014 C 
HETATM    9  C10 UNL     1     -32.453  19.262  -2.109  1.00 20.00     0.043 C 
ENDBRANCH   6   7
BRANCH   2  10
HETATM   10  C4  UNL     1     -34.512  15.182  -6.531  1.00 20.00     0.265 C 
HETATM   11  O11 UNL     1     -33.682  15.024  -7.417  1.00 20.00    -0.302 OA
ENDBRANCH   2  10
TORSDOF 2
ENDMDL
MODEL 9
REMARK VINA RESULT:      -3.9     11.624     12.715
REMARK  2 active torsions:
REMARK  status: ('A' for Active; 'I' for Inactive)
REMARK    1  A    between atoms: C2_2  and  C4_4 
REMARK    2  A    between atoms: C5_5  and  C9_9 
ROOT
HETATM    1  C1  UNL     1     -35.249  18.360  -3.611  1.00 20.00    -0.016 C 
HETATM    2  C2  UNL     1     -34.784  17.344  -4.351  1.00 20.00    -0.024 C 
HETATM    3  C6  UNL     1     -34.644  18.741  -2.289  1.00 20.00     0.036 C 
HETATM    4  C7  UNL     1     -33.644  16.464  -3.939  1.00 20.00     0.042 C 
HETATM    5  C8  UNL     1     -33.294  16.607  -2.453  1.00 20.00     0.014 C 
HETATM    6  C9  UNL     1     -33.277  18.083  -2.030  1.00 20.00     0.017 C 
ENDROOT
BRANCH   6   7
HETATM    7  C5  UNL     1     -32.886  18.230  -0.592  1.00 20.00    -0.089 C 
HETATM    8  C3  UNL     1     -33.780  18.113   0.402  1.00 20.00     0.014 C 
HETATM    9  C10 UNL     1     -31.439  18.516  -0.325  1.00 20.00     0.043 C 
ENDBRANCH   6   7
BRANCH   2  10
HETATM   10  C4  UNL     1     -35.449  17.072  -5.628  1.00 20.00     0.265 C 
HETATM   11  O11 UNL     1     -34.831  16.919  -6.675  1.00 20.00    -0.302 OA
ENDBRANCH   2  10
TORSDOF 2
ENDMDL
