MODEL 1
REMARK VINA RESULT:      -4.7      0.000      0.000
REMARK  0 active torsions:
REMARK  status: ('A' for Active; 'I' for Inactive)
ROOT
HETATM    1  C1  UNL     1     -33.531   5.264   3.726  1.00 20.00    -0.018 C 
HETATM    2  C2  UNL     1     -33.955   4.434   4.694  1.00 20.00    -0.025 C 
HETATM    3  C3  UNL     1     -33.642   7.114   5.216  1.00 20.00     0.135 C 
HETATM    4  C4  UNL     1     -34.143   6.255   6.378  1.00 20.00     0.087 C 
HETATM    5  C5  UNL     1     -35.570   6.082   4.468  1.00 20.00     0.025 C 
HETATM    6  C6  UNL     1     -34.230   6.580   3.918  1.00 20.00     0.078 C 
HETATM    7  C7  UNL     1     -34.934   5.206   5.557  1.00 20.00     0.016 C 
HETATM    8  O8  UNL     1     -32.861   8.047   5.313  1.00 20.00    -0.297 OA
ENDROOT
TORSDOF 0
ENDMDL
MODEL 2
REMARK VINA RESULT:      -4.6      1.532      2.361
REMARK  0 active torsions:
REMARK  status: ('A' for Active; 'I' for Inactive)
ROOT
HETATM    1  C1  UNL     1     -34.237   4.972   5.907  1.00 20.00    -0.018 C 
HETATM    2  C2  UNL     1     -34.039   6.225   6.353  1.00 20.00    -0.025 C 
HETATM    3  C3  UNL     1     -33.535   5.605   3.723  1.00 20.00     0.135 C 
HETATM    4  C4  UNL     1     -33.295   7.058   4.131  1.00 20.00     0.087 C 
HETATM    5  C5  UNL     1     -35.537   6.370   4.589  1.00 20.00     0.025 C 
HETATM    6  C6  UNL     1     -34.735   5.069   4.492  1.00 20.00     0.078 C 
HETATM    7  C7  UNL     1     -34.389   7.171   5.221  1.00 20.00     0.016 C 
HETATM    8  O8  UNL     1     -32.848   4.966   2.942  1.00 20.00    -0.297 OA
ENDROOT
TORSDOF 0
ENDMDL
MODEL 3
REMARK VINA RESULT:      -4.0      8.397      9.538
REMARK  0 active torsions:
REMARK  status: ('A' for Active; 'I' for Inactive)
ROOT
HETATM    1  C1  UNL     1     -41.259   8.439  -0.138  1.00 20.00    -0.018 C 
HETATM    2  C2  UNL     1     -42.561   8.449  -0.473  1.00 20.00    -0.025 C 
HETATM    3  C3  UNL     1     -41.198   6.067  -0.308  1.00 20.00     0.135 C 
HETATM    4  C4  UNL     1     -42.678   5.973  -0.681  1.00 20.00     0.087 C 
HETATM    5  C5  UNL     1     -42.361   7.100   1.403  1.00 20.00     0.025 C 
HETATM    6  C6  UNL     1     -41.012   7.206   0.686  1.00 20.00     0.078 C 
HETATM    7  C7  UNL     1     -43.190   7.200   0.113  1.00 20.00     0.016 C 
HETATM    8  O8  UNL     1     -40.307   5.371  -0.767  1.00 20.00    -0.297 OA
ENDROOT
TORSDOF 0
ENDMDL
MODEL 4
REMARK VINA RESULT:      -3.8      8.573      9.540
REMARK  0 active torsions:
REMARK  status: ('A' for Active; 'I' for Inactive)
ROOT
HETATM    1  C1  UNL     1     -42.260   5.706  -0.837  1.00 20.00    -0.018 C 
HETATM    2  C2  UNL     1     -40.952   5.767  -0.532  1.00 20.00    -0.025 C 
HETATM    3  C3  UNL     1     -42.522   8.013  -0.316  1.00 20.00     0.135 C 
HETATM    4  C4  UNL     1     -41.051   8.179   0.067  1.00 20.00     0.087 C 
HETATM    5  C5  UNL     1     -42.112   6.464   1.351  1.00 20.00     0.025 C 
HETATM    6  C6  UNL     1     -42.987   6.625   0.104  1.00 20.00     0.078 C 
HETATM    7  C7  UNL     1     -40.797   6.751   0.610  1.00 20.00     0.016 C 
HETATM    8  O8  UNL     1     -43.198   8.842  -0.904  1.00 20.00    -0.297 OA
ENDROOT
TORSDOF 0
ENDMDL
MODEL 5
REMARK VINA RESULT:      -3.8      8.840      9.812
REMARK  0 active torsions:
REMARK  status: ('A' for Active; 'I' for Inactive)
ROOT
HETATM    1  C1  UNL     1     -42.929   7.258   1.137  1.00 20.00    -0.018 C 
HETATM    2  C2  UNL     1     -41.641   7.208   1.519  1.00 20.00    -0.025 C 
HETATM    3  C3  UNL     1     -42.442   5.952  -0.790  1.00 20.00     0.135 C 
HETATM    4  C4  UNL     1     -40.956   5.850  -0.448  1.00 20.00     0.087 C 
HETATM    5  C5  UNL     1     -41.674   8.124  -0.611  1.00 20.00     0.025 C 
HETATM    6  C6  UNL     1     -42.954   7.321  -0.365  1.00 20.00     0.078 C 
HETATM    7  C7  UNL     1     -40.794   7.217   0.262  1.00 20.00     0.016 C 
HETATM    8  O8  UNL     1     -43.117   5.062  -1.283  1.00 20.00    -0.297 OA
ENDROOT
TORSDOF 0
ENDMDL
MODEL 6
REMARK VINA RESULT:      -3.8     16.109     17.213
REMARK  0 active torsions:
REMARK  status: ('A' for Active; 'I' for Inactive)
ROOT
HETATM    1  C1  UNL     1     -23.920  16.633  10.542  1.00 20.00    -0.018 C 
HETATM    2  C2  UNL     1     -24.199  16.637  11.857  1.00 20.00    -0.025 C 
HETATM    3  C3  UNL     1     -22.387  18.429  10.828  1.00 20.00     0.135 C 
HETATM    4  C4  UNL     1     -22.647  18.522  12.331  1.00 20.00     0.087 C 
HETATM    5  C5  UNL     1     -24.661  18.768  11.068  1.00 20.00     0.025 C 
HETATM    6  C6  UNL     1     -23.685  18.058  10.125  1.00 20.00     0.078 C 
HETATM    7  C7  UNL     1     -24.130  18.076  12.332  1.00 20.00     0.016 C 
HETATM    8  O8  UNL     1     -21.304  18.584  10.286  1.00 20.00    -0.297 OA
ENDROOT
TORSDOF 0
ENDMDL
MODEL 7
REMARK VINA RESULT:      -3.8     12.812     13.630
REMARK  0 active torsions:
REMARK  status: ('A' for Active; 'I' for Inactive)
ROOT
HETATM    1  C1  UNL     1     -32.811  17.359  -2.363  1.00 20.00    -0.018 C 
HETATM    2  C2  UNL     1     -33.757  16.944  -1.503  1.00 20.00    -0.025 C 
HETATM    3  C3  UNL     1     -31.760  18.627  -0.646  1.00 20.00     0.135 C 
HETATM    4  C4  UNL     1     -32.797  18.223   0.402  1.00 20.00     0.087 C 
HETATM    5  C5  UNL     1     -33.814  19.262  -1.495  1.00 20.00     0.025 C 
HETATM    6  C6  UNL     1     -32.452  18.771  -1.995  1.00 20.00     0.078 C 
HETATM    7  C7  UNL     1     -34.022  18.081  -0.535  1.00 20.00     0.016 C 
HETATM    8  O8  UNL     1     -30.565  18.767  -0.442  1.00 20.00    -0.297 OA
ENDROOT
TORSDOF 0
ENDMDL
MODEL 8
REMARK VINA RESULT:      -3.7     16.012     16.950
REMARK  0 active torsions:
REMARK  status: ('A' for Active; 'I' for Inactive)
ROOT
HETATM    1  C1  UNL     1     -22.488  18.240  11.129  1.00 20.00    -0.018 C 
HETATM    2  C2  UNL     1     -23.038  18.479  12.332  1.00 20.00    -0.025 C 
HETATM    3  C3  UNL     1     -24.598  18.533  10.069  1.00 20.00     0.135 C 
HETATM    4  C4  UNL     1     -25.317  18.803  11.390  1.00 20.00     0.087 C 
HETATM    5  C5  UNL     1     -24.195  16.693  11.410  1.00 20.00     0.025 C 
HETATM    6  C6  UNL     1     -23.505  17.500  10.305  1.00 20.00     0.078 C 
HETATM    7  C7  UNL     1     -24.445  17.913  12.309  1.00 20.00     0.016 C 
HETATM    8  O8  UNL     1     -24.833  19.090   9.009  1.00 20.00    -0.297 OA
ENDROOT
TORSDOF 0
ENDMDL
MODEL 9
REMARK VINA RESULT:      -3.7      8.453      9.466
REMARK  0 active torsions:
REMARK  status: ('A' for Active; 'I' for Inactive)
ROOT
HETATM    1  C1  UNL     1     -43.072   5.024   0.896  1.00 20.00    -0.018 C 
HETATM    2  C2  UNL     1     -43.107   5.918   1.900  1.00 20.00    -0.025 C 
HETATM    3  C3  UNL     1     -41.287   6.207  -0.139  1.00 20.00     0.135 C 
HETATM    4  C4  UNL     1     -41.257   7.281   0.948  1.00 20.00     0.087 C 
HETATM    5  C5  UNL     1     -43.414   7.107  -0.067  1.00 20.00     0.025 C 
HETATM    6  C6  UNL     1     -42.728   5.771  -0.363  1.00 20.00     0.078 C 
HETATM    7  C7  UNL     1     -42.761   7.273   1.314  1.00 20.00     0.016 C 
HETATM    8  O8  UNL     1     -40.308   5.743  -0.703  1.00 20.00    -0.297 OA
ENDROOT
TORSDOF 0
ENDMDL
