MODEL 1
REMARK VINA RESULT:      -3.7      0.000      0.000
REMARK  1 active torsions:
REMARK  status: ('A' for Active; 'I' for Inactive)
REMARK    1  A    between atoms: C6_6  and  C10_10 
ROOT
HETATM    1  C1  UNL     1     -33.318  16.616  -2.515  1.00 20.00     0.053 A 
HETATM    2  C2  UNL     1     -34.218  17.610  -2.607  1.00 20.00    -0.075 A 
HETATM    3  C3  UNL     1     -33.286  15.954  -3.839  1.00 20.00     0.159 A 
HETATM    4  C4  UNL     1     -34.099  18.040  -5.152  1.00 20.00     0.029 A 
HETATM    5  C5  UNL     1     -34.892  17.739  -3.911  1.00 20.00     0.032 A 
HETATM    6  C6  UNL     1     -34.298  16.598  -4.739  1.00 20.00     0.035 A 
HETATM    7  C7  UNL     1     -34.555  18.555  -1.504  1.00 20.00     0.044 C 
HETATM    8  O11 UNL     1     -32.560  15.031  -4.161  1.00 20.00    -0.292 OA
ENDROOT
BRANCH   6   9
HETATM    9  C10 UNL     1     -35.217  15.740  -5.558  1.00 20.00    -0.006 C 
HETATM   10  C8  UNL     1     -34.654  15.498  -6.967  1.00 20.00     0.011 C 
HETATM   11  C9  UNL     1     -35.488  14.392  -4.874  1.00 20.00     0.011 C 
ENDBRANCH   6   9
TORSDOF 1
ENDMDL
MODEL 2
REMARK VINA RESULT:      -3.7     11.760     13.432
REMARK  1 active torsions:
REMARK  status: ('A' for Active; 'I' for Inactive)
REMARK    1  A    between atoms: C6_6  and  C10_10 
ROOT
HETATM    1  C1  UNL     1     -39.454  12.616   6.745  1.00 20.00     0.053 A 
HETATM    2  C2  UNL     1     -39.965  12.627   5.502  1.00 20.00    -0.075 A 
HETATM    3  C3  UNL     1     -40.328  13.485   7.566  1.00 20.00     0.159 A 
HETATM    4  C4  UNL     1     -42.426  13.170   6.072  1.00 20.00     0.029 A 
HETATM    5  C5  UNL     1     -41.162  13.466   5.314  1.00 20.00     0.032 A 
HETATM    6  C6  UNL     1     -41.393  14.082   6.694  1.00 20.00     0.035 A 
HETATM    7  C7  UNL     1     -39.408  11.865   4.349  1.00 20.00     0.044 C 
HETATM    8  O11 UNL     1     -40.213  13.693   8.761  1.00 20.00    -0.292 OA
ENDROOT
BRANCH   6   9
HETATM    9  C10 UNL     1     -41.700  15.547   6.794  1.00 20.00    -0.006 C 
HETATM   10  C8  UNL     1     -42.981  15.800   7.603  1.00 20.00     0.011 C 
HETATM   11  C9  UNL     1     -40.534  16.326   7.422  1.00 20.00     0.011 C 
ENDBRANCH   6   9
TORSDOF 1
ENDMDL
MODEL 3
REMARK VINA RESULT:      -3.7      1.329      1.428
REMARK  1 active torsions:
REMARK  status: ('A' for Active; 'I' for Inactive)
REMARK    1  A    between atoms: C6_6  and  C10_10 
ROOT
HETATM    1  C1  UNL     1     -33.381  15.781  -3.506  1.00 20.00     0.053 A 
HETATM    2  C2  UNL     1     -33.775  16.917  -2.904  1.00 20.00    -0.075 A 
HETATM    3  C3  UNL     1     -33.937  15.818  -4.878  1.00 20.00     0.159 A 
HETATM    4  C4  UNL     1     -34.078  18.407  -4.994  1.00 20.00     0.029 A 
HETATM    5  C5  UNL     1     -34.615  17.811  -3.721  1.00 20.00     0.032 A 
HETATM    6  C6  UNL     1     -34.763  17.059  -5.044  1.00 20.00     0.035 A 
HETATM    7  C7  UNL     1     -33.420  17.306  -1.510  1.00 20.00     0.044 C 
HETATM    8  O11 UNL     1     -33.761  14.981  -5.745  1.00 20.00    -0.292 OA
ENDROOT
BRANCH   6   9
HETATM    9  C10 UNL     1     -36.118  16.969  -5.681  1.00 20.00    -0.006 C 
HETATM   10  C8  UNL     1     -36.055  17.265  -7.187  1.00 20.00     0.011 C 
HETATM   11  C9  UNL     1     -36.757  15.590  -5.455  1.00 20.00     0.011 C 
ENDBRANCH   6   9
TORSDOF 1
ENDMDL
MODEL 4
REMARK VINA RESULT:      -3.6      2.177      2.900
REMARK  1 active torsions:
REMARK  status: ('A' for Active; 'I' for Inactive)
REMARK    1  A    between atoms: C6_6  and  C10_10 
ROOT
HETATM    1  C1  UNL     1     -34.521  14.760  -4.921  1.00 20.00     0.053 A 
HETATM    2  C2  UNL     1     -34.183  15.948  -4.392  1.00 20.00    -0.075 A 
HETATM    3  C3  UNL     1     -35.487  15.043  -6.007  1.00 20.00     0.159 A 
HETATM    4  C4  UNL     1     -34.637  17.456  -6.441  1.00 20.00     0.029 A 
HETATM    5  C5  UNL     1     -34.845  17.122  -4.990  1.00 20.00     0.032 A 
HETATM    6  C6  UNL     1     -35.759  16.518  -6.056  1.00 20.00     0.035 A 
HETATM    7  C7  UNL     1     -33.211  16.136  -3.278  1.00 20.00     0.044 C 
HETATM    8  O11 UNL     1     -35.991  14.220  -6.750  1.00 20.00    -0.292 OA
ENDROOT
BRANCH   6   9
HETATM    9  C10 UNL     1     -37.172  17.009  -6.166  1.00 20.00    -0.006 C 
HETATM   10  C8  UNL     1     -37.686  16.928  -7.611  1.00 20.00     0.011 C 
HETATM   11  C9  UNL     1     -38.115  16.226  -5.240  1.00 20.00     0.011 C 
ENDBRANCH   6   9
TORSDOF 1
ENDMDL
MODEL 5
REMARK VINA RESULT:      -3.6     12.348     13.439
REMARK  1 active torsions:
REMARK  status: ('A' for Active; 'I' for Inactive)
REMARK    1  A    between atoms: C6_6  and  C10_10 
ROOT
HETATM    1  C1  UNL     1     -33.805   7.116   6.429  1.00 20.00     0.053 A 
HETATM    2  C2  UNL     1     -34.388   5.949   6.103  1.00 20.00    -0.075 A 
HETATM    3  C3  UNL     1     -33.304   7.703   5.165  1.00 20.00     0.159 A 
HETATM    4  C4  UNL     1     -35.016   6.474   3.652  1.00 20.00     0.029 A 
HETATM    5  C5  UNL     1     -34.346   5.596   4.672  1.00 20.00     0.032 A 
HETATM    6  C6  UNL     1     -33.581   6.757   4.035  1.00 20.00     0.035 A 
HETATM    7  C7  UNL     1     -35.050   5.031   7.072  1.00 20.00     0.044 C 
HETATM    8  O11 UNL     1     -32.752   8.782   5.046  1.00 20.00    -0.292 OA
ENDROOT
BRANCH   6   9
HETATM    9  C10 UNL     1     -32.502   6.455   3.038  1.00 20.00    -0.006 C 
HETATM   10  C8  UNL     1     -32.802   5.169   2.253  1.00 20.00     0.011 C 
HETATM   11  C9  UNL     1     -32.298   7.620   2.057  1.00 20.00     0.011 C 
ENDBRANCH   6   9
TORSDOF 1
ENDMDL
MODEL 6
REMARK VINA RESULT:      -3.6     11.848     13.082
REMARK  1 active torsions:
REMARK  status: ('A' for Active; 'I' for Inactive)
REMARK    1  A    between atoms: C6_6  and  C10_10 
ROOT
HETATM    1  C1  UNL     1     -32.483   8.289   3.593  1.00 20.00     0.053 A 
HETATM    2  C2  UNL     1     -32.563   7.635   2.422  1.00 20.00    -0.075 A 
HETATM    3  C3  UNL     1     -32.968   7.352   4.632  1.00 20.00     0.159 A 
HETATM    4  C4  UNL     1     -32.381   5.208   3.292  1.00 20.00     0.029 A 
HETATM    5  C5  UNL     1     -33.098   6.262   2.495  1.00 20.00     0.032 A 
HETATM    6  C6  UNL     1     -33.411   6.076   3.980  1.00 20.00     0.035 A 
HETATM    7  C7  UNL     1     -32.154   8.198   1.104  1.00 20.00     0.044 C 
HETATM    8  O11 UNL     1     -33.007   7.568   5.830  1.00 20.00    -0.292 OA
ENDROOT
BRANCH   6   9
HETATM    9  C10 UNL     1     -34.719   5.456   4.374  1.00 20.00    -0.006 C 
HETATM   10  C8  UNL     1     -34.711   5.005   5.842  1.00 20.00     0.011 C 
HETATM   11  C9  UNL     1     -35.893   6.420   4.139  1.00 20.00     0.011 C 
ENDBRANCH   6   9
TORSDOF 1
ENDMDL
MODEL 7
REMARK VINA RESULT:      -3.6      1.545      4.009
REMARK  1 active torsions:
REMARK  status: ('A' for Active; 'I' for Inactive)
REMARK    1  A    between atoms: C6_6  and  C10_10 
ROOT
HETATM    1  C1  UNL     1     -34.754  17.070  -5.656  1.00 20.00     0.053 A 
HETATM    2  C2  UNL     1     -34.912  15.816  -5.199  1.00 20.00    -0.075 A 
HETATM    3  C3  UNL     1     -33.920  17.778  -4.658  1.00 20.00     0.159 A 
HETATM    4  C4  UNL     1     -32.777  15.630  -3.755  1.00 20.00     0.029 A 
HETATM    5  C5  UNL     1     -34.270  15.524  -3.904  1.00 20.00     0.032 A 
HETATM    6  C6  UNL     1     -33.629  16.856  -3.511  1.00 20.00     0.035 A 
HETATM    7  C7  UNL     1     -35.671  14.744  -5.905  1.00 20.00     0.044 C 
HETATM    8  O11 UNL     1     -33.525  18.927  -4.740  1.00 20.00    -0.292 OA
ENDROOT
BRANCH   6   9
HETATM    9  C10 UNL     1     -33.786  17.349  -2.103  1.00 20.00    -0.006 C 
HETATM   10  C8  UNL     1     -32.463  17.898  -1.547  1.00 20.00     0.011 C 
HETATM   11  C9  UNL     1     -34.873  18.430  -2.002  1.00 20.00     0.011 C 
ENDBRANCH   6   9
TORSDOF 1
ENDMDL
MODEL 8
REMARK VINA RESULT:      -3.5      2.175      3.393
REMARK  1 active torsions:
REMARK  status: ('A' for Active; 'I' for Inactive)
REMARK    1  A    between atoms: C6_6  and  C10_10 
ROOT
HETATM    1  C1  UNL     1     -33.898  19.043  -1.029  1.00 20.00     0.053 A 
HETATM    2  C2  UNL     1     -32.724  18.421  -1.230  1.00 20.00    -0.075 A 
HETATM    3  C3  UNL     1     -34.815  18.564  -2.089  1.00 20.00     0.159 A 
HETATM    4  C4  UNL     1     -33.580  16.310  -2.451  1.00 20.00     0.029 A 
HETATM    5  C5  UNL     1     -32.677  17.510  -2.389  1.00 20.00     0.032 A 
HETATM    6  C6  UNL     1     -34.074  17.630  -3.000  1.00 20.00     0.035 A 
HETATM    7  C7  UNL     1     -31.514  18.592  -0.377  1.00 20.00     0.044 C 
HETATM    8  O11 UNL     1     -35.987  18.870  -2.214  1.00 20.00    -0.292 OA
ENDROOT
BRANCH   6   9
HETATM    9  C10 UNL     1     -34.206  17.782  -4.486  1.00 20.00    -0.006 C 
HETATM   10  C8  UNL     1     -35.451  17.056  -5.019  1.00 20.00     0.011 C 
HETATM   11  C9  UNL     1     -34.259  19.262  -4.899  1.00 20.00     0.011 C 
ENDBRANCH   6   9
TORSDOF 1
ENDMDL
MODEL 9
REMARK VINA RESULT:      -3.4     12.065     13.552
REMARK  1 active torsions:
REMARK  status: ('A' for Active; 'I' for Inactive)
REMARK    1  A    between atoms: C6_6  and  C10_10 
ROOT
HETATM    1  C1  UNL     1     -40.801  13.193   4.499  1.00 20.00     0.053 A 
HETATM    2  C2  UNL     1     -39.894  12.607   5.299  1.00 20.00    -0.075 A 
HETATM    3  C3  UNL     1     -41.802  13.823   5.391  1.00 20.00     0.159 A 
HETATM    4  C4  UNL     1     -40.180  14.085   7.400  1.00 20.00     0.029 A 
HETATM    5  C5  UNL     1     -40.146  12.731   6.746  1.00 20.00     0.032 A 
HETATM    6  C6  UNL     1     -41.456  13.517   6.818  1.00 20.00     0.035 A 
HETATM    7  C7  UNL     1     -38.690  11.870   4.820  1.00 20.00     0.044 C 
HETATM    8  O11 UNL     1     -42.760  14.486   5.037  1.00 20.00    -0.292 OA
ENDROOT
BRANCH   6   9
HETATM    9  C10 UNL     1     -42.529  13.058   7.760  1.00 20.00    -0.006 C 
HETATM   10  C8  UNL     1     -43.405  14.228   8.231  1.00 20.00     0.011 C 
HETATM   11  C9  UNL     1     -43.415  11.976   7.122  1.00 20.00     0.011 C 
ENDBRANCH   6   9
TORSDOF 1
ENDMDL
