MODEL 1
REMARK VINA RESULT:      -4.0      0.000      0.000
REMARK  1 active torsions:
REMARK  status: ('A' for Active; 'I' for Inactive)
REMARK    1  A    between atoms: C6_6  and  C10_10 
ROOT
HETATM    1  C1  UNL     1     -35.870  15.318  -6.229  1.00 20.00     0.127 C 
HETATM    2  C2  UNL     1     -37.026  15.935  -5.472  1.00 20.00     0.082 C 
HETATM    3  C3  UNL     1     -34.567  16.089  -6.260  1.00 20.00     0.083 C 
HETATM    4  C4  UNL     1     -35.498  17.699  -4.501  1.00 20.00     0.010 C 
HETATM    5  C5  UNL     1     -36.798  17.434  -5.277  1.00 20.00    -0.011 C 
HETATM    6  C6  UNL     1     -34.311  16.813  -4.936  1.00 20.00    -0.004 C 
HETATM    7  C7  UNL     1     -37.990  18.080  -4.574  1.00 20.00     0.010 C 
HETATM    8  O11 UNL     1     -35.989  14.237  -6.803  1.00 20.00    -0.298 OA
ENDROOT
BRANCH   6   9
HETATM    9  C10 UNL     1     -33.933  15.821  -3.830  1.00 20.00    -0.018 C 
HETATM   10  C8  UNL     1     -32.894  14.824  -4.336  1.00 20.00     0.010 C 
HETATM   11  C9  UNL     1     -33.413  16.561  -2.599  1.00 20.00     0.010 C 
ENDBRANCH   6   9
TORSDOF 1
ENDMDL
MODEL 2
REMARK VINA RESULT:      -3.9      1.856      2.706
REMARK  1 active torsions:
REMARK  status: ('A' for Active; 'I' for Inactive)
REMARK    1  A    between atoms: C6_6  and  C10_10 
ROOT
HETATM    1  C1  UNL     1     -34.196  14.983  -4.302  1.00 20.00     0.127 C 
HETATM    2  C2  UNL     1     -35.217  15.689  -5.167  1.00 20.00     0.082 C 
HETATM    3  C3  UNL     1     -32.968  15.768  -3.892  1.00 20.00     0.083 C 
HETATM    4  C4  UNL     1     -34.048  17.901  -4.808  1.00 20.00     0.010 C 
HETATM    5  C5  UNL     1     -34.592  16.907  -5.846  1.00 20.00    -0.011 C 
HETATM    6  C6  UNL     1     -33.304  17.238  -3.629  1.00 20.00    -0.004 C 
HETATM    7  C7  UNL     1     -35.595  17.588  -6.776  1.00 20.00     0.010 C 
HETATM    8  O11 UNL     1     -34.354  13.813  -3.954  1.00 20.00    -0.298 OA
ENDROOT
BRANCH   6   9
HETATM    9  C10 UNL     1     -34.091  17.398  -2.324  1.00 20.00    -0.018 C 
HETATM   10  C8  UNL     1     -33.146  17.675  -1.157  1.00 20.00     0.010 C 
HETATM   11  C9  UNL     1     -35.126  18.513  -2.454  1.00 20.00     0.010 C 
ENDBRANCH   6   9
TORSDOF 1
ENDMDL
MODEL 3
REMARK VINA RESULT:      -3.6     24.454     26.072
REMARK  1 active torsions:
REMARK  status: ('A' for Active; 'I' for Inactive)
REMARK    1  A    between atoms: C6_6  and  C10_10 
ROOT
HETATM    1  C1  UNL     1     -27.919  -0.740  11.666  1.00 20.00     0.127 C 
HETATM    2  C2  UNL     1     -26.593  -1.035  12.332  1.00 20.00     0.082 C 
HETATM    3  C3  UNL     1     -28.122  -1.257  10.258  1.00 20.00     0.083 C 
HETATM    4  C4  UNL     1     -25.969  -2.628  10.470  1.00 20.00     0.010 C 
HETATM    5  C5  UNL     1     -25.538  -1.399  11.287  1.00 20.00    -0.011 C 
HETATM    6  C6  UNL     1     -27.457  -2.623  10.060  1.00 20.00    -0.004 C 
HETATM    7  C7  UNL     1     -24.178  -1.633  11.942  1.00 20.00     0.010 C 
HETATM    8  O11 UNL     1     -28.793  -0.095  12.244  1.00 20.00    -0.298 OA
ENDROOT
BRANCH   6   9
HETATM    9  C10 UNL     1     -28.232  -3.723  10.795  1.00 20.00    -0.018 C 
HETATM   10  C8  UNL     1     -29.208  -4.416   9.847  1.00 20.00     0.010 C 
HETATM   11  C9  UNL     1     -27.271  -4.737  11.411  1.00 20.00     0.010 C 
ENDBRANCH   6   9
TORSDOF 1
ENDMDL
MODEL 4
REMARK VINA RESULT:      -3.5     12.707     13.558
REMARK  1 active torsions:
REMARK  status: ('A' for Active; 'I' for Inactive)
REMARK    1  A    between atoms: C6_6  and  C10_10 
ROOT
HETATM    1  C1  UNL     1     -42.521  12.641   7.057  1.00 20.00     0.127 C 
HETATM    2  C2  UNL     1     -41.790  13.264   8.225  1.00 20.00     0.082 C 
HETATM    3  C3  UNL     1     -42.115  13.081   5.666  1.00 20.00     0.083 C 
HETATM    4  C4  UNL     1     -40.098  14.304   6.662  1.00 20.00     0.010 C 
HETATM    5  C5  UNL     1     -41.103  14.560   7.797  1.00 20.00    -0.011 C 
HETATM    6  C6  UNL     1     -40.608  13.333   5.575  1.00 20.00    -0.004 C 
HETATM    7  C7  UNL     1     -40.418  15.233   8.985  1.00 20.00     0.010 C 
HETATM    8  O11 UNL     1     -43.417  11.816   7.231  1.00 20.00    -0.298 OA
ENDROOT
BRANCH   6   9
HETATM    9  C10 UNL     1     -39.826  12.015   5.607  1.00 20.00    -0.018 C 
HETATM   10  C8  UNL     1     -39.279  11.681   4.221  1.00 20.00     0.010 C 
HETATM   11  C9  UNL     1     -38.693  12.087   6.629  1.00 20.00     0.010 C 
ENDBRANCH   6   9
TORSDOF 1
ENDMDL
MODEL 5
REMARK VINA RESULT:      -3.5     12.474     13.991
REMARK  1 active torsions:
REMARK  status: ('A' for Active; 'I' for Inactive)
REMARK    1  A    between atoms: C6_6  and  C10_10 
ROOT
HETATM    1  C1  UNL     1     -32.728   8.039   3.820  1.00 20.00     0.127 C 
HETATM    2  C2  UNL     1     -32.137   6.798   3.188  1.00 20.00     0.082 C 
HETATM    3  C3  UNL     1     -34.184   7.988   4.229  1.00 20.00     0.083 C 
HETATM    4  C4  UNL     1     -34.199   5.465   3.790  1.00 20.00     0.010 C 
HETATM    5  C5  UNL     1     -33.245   5.887   2.660  1.00 20.00    -0.011 C 
HETATM    6  C6  UNL     1     -34.568   6.604   4.763  1.00 20.00    -0.004 C 
HETATM    7  C7  UNL     1     -32.659   4.663   1.960  1.00 20.00     0.010 C 
HETATM    8  O11 UNL     1     -32.052   9.054   3.984  1.00 20.00    -0.298 OA
ENDROOT
BRANCH   6   9
HETATM    9  C10 UNL     1     -33.959   6.361   6.149  1.00 20.00    -0.018 C 
HETATM   10  C8  UNL     1     -34.200   7.563   7.059  1.00 20.00     0.010 C 
HETATM   11  C9  UNL     1     -34.534   5.091   6.772  1.00 20.00     0.010 C 
ENDBRANCH   6   9
TORSDOF 1
ENDMDL
MODEL 6
REMARK VINA RESULT:      -3.5      1.405      3.560
REMARK  1 active torsions:
REMARK  status: ('A' for Active; 'I' for Inactive)
REMARK    1  A    between atoms: C6_6  and  C10_10 
ROOT
HETATM    1  C1  UNL     1     -35.742  15.016  -6.583  1.00 20.00     0.127 C 
HETATM    2  C2  UNL     1     -34.351  14.945  -5.993  1.00 20.00     0.082 C 
HETATM    3  C3  UNL     1     -36.710  16.005  -5.968  1.00 20.00     0.083 C 
HETATM    4  C4  UNL     1     -34.785  17.021  -4.618  1.00 20.00     0.010 C 
HETATM    5  C5  UNL     1     -34.332  15.552  -4.591  1.00 20.00    -0.011 C 
HETATM    6  C6  UNL     1     -35.999  17.290  -5.533  1.00 20.00    -0.004 C 
HETATM    7  C7  UNL     1     -32.947  15.425  -3.959  1.00 20.00     0.010 C 
HETATM    8  O11 UNL     1     -36.076  14.291  -7.519  1.00 20.00    -0.298 OA
ENDROOT
BRANCH   6   9
HETATM    9  C10 UNL     1     -35.594  18.132  -6.749  1.00 20.00    -0.018 C 
HETATM   10  C8  UNL     1     -36.657  19.185  -7.051  1.00 20.00     0.010 C 
HETATM   11  C9  UNL     1     -34.236  18.792  -6.516  1.00 20.00     0.010 C 
ENDBRANCH   6   9
TORSDOF 1
ENDMDL
MODEL 7
REMARK VINA RESULT:      -3.5      2.069      3.559
REMARK  1 active torsions:
REMARK  status: ('A' for Active; 'I' for Inactive)
REMARK    1  A    between atoms: C6_6  and  C10_10 
ROOT
HETATM    1  C1  UNL     1     -34.911  18.088  -5.169  1.00 20.00     0.127 C 
HETATM    2  C2  UNL     1     -34.820  17.979  -3.663  1.00 20.00     0.082 C 
HETATM    3  C3  UNL     1     -34.175  17.050  -5.989  1.00 20.00     0.083 C 
HETATM    4  C4  UNL     1     -33.733  15.705  -3.856  1.00 20.00     0.010 C 
HETATM    5  C5  UNL     1     -33.623  17.118  -3.261  1.00 20.00    -0.011 C 
HETATM    6  C6  UNL     1     -34.218  15.673  -5.321  1.00 20.00    -0.004 C 
HETATM    7  C7  UNL     1     -33.480  17.057  -1.741  1.00 20.00     0.010 C 
HETATM    8  O11 UNL     1     -35.552  18.992  -5.705  1.00 20.00    -0.298 OA
ENDROOT
BRANCH   6   9
HETATM    9  C10 UNL     1     -35.617  15.056  -5.422  1.00 20.00    -0.018 C 
HETATM   10  C8  UNL     1     -36.011  14.853  -6.883  1.00 20.00     0.010 C 
HETATM   11  C9  UNL     1     -35.677  13.733  -4.661  1.00 20.00     0.010 C 
ENDBRANCH   6   9
TORSDOF 1
ENDMDL
MODEL 8
REMARK VINA RESULT:      -3.5     12.188     13.079
REMARK  1 active torsions:
REMARK  status: ('A' for Active; 'I' for Inactive)
REMARK    1  A    between atoms: C6_6  and  C10_10 
ROOT
HETATM    1  C1  UNL     1     -41.328  13.932   7.691  1.00 20.00     0.127 C 
HETATM    2  C2  UNL     1     -41.466  15.237   6.938  1.00 20.00     0.082 C 
HETATM    3  C3  UNL     1     -41.657  12.658   6.943  1.00 20.00     0.083 C 
HETATM    4  C4  UNL     1     -41.778  13.992   4.761  1.00 20.00     0.010 C 
HETATM    5  C5  UNL     1     -42.357  15.055   5.710  1.00 20.00    -0.011 C 
HETATM    6  C6  UNL     1     -41.226  12.741   5.476  1.00 20.00    -0.004 C 
HETATM    7  C7  UNL     1     -42.559  16.381   4.979  1.00 20.00     0.010 C 
HETATM    8  O11 UNL     1     -40.972  13.910   8.868  1.00 20.00    -0.298 OA
ENDROOT
BRANCH   6   9
HETATM    9  C10 UNL     1     -39.700  12.665   5.346  1.00 20.00    -0.018 C 
HETATM   10  C8  UNL     1     -39.101  11.878   6.510  1.00 20.00     0.010 C 
HETATM   11  C9  UNL     1     -39.305  12.034   4.012  1.00 20.00     0.010 C 
ENDBRANCH   6   9
TORSDOF 1
ENDMDL
MODEL 9
REMARK VINA RESULT:      -3.5     12.107     13.277
REMARK  1 active torsions:
REMARK  status: ('A' for Active; 'I' for Inactive)
REMARK    1  A    between atoms: C6_6  and  C10_10 
ROOT
HETATM    1  C1  UNL     1     -42.163  14.037   4.610  1.00 20.00     0.127 C 
HETATM    2  C2  UNL     1     -40.826  13.339   4.728  1.00 20.00     0.082 C 
HETATM    3  C3  UNL     1     -42.960  14.235   5.881  1.00 20.00     0.083 C 
HETATM    4  C4  UNL     1     -40.931  13.483   7.250  1.00 20.00     0.010 C 
HETATM    5  C5  UNL     1     -40.745  12.556   6.038  1.00 20.00    -0.011 C 
HETATM    6  C6  UNL     1     -42.049  14.534   7.075  1.00 20.00    -0.004 C 
HETATM    7  C7  UNL     1     -39.426  11.793   6.138  1.00 20.00     0.010 C 
HETATM    8  O11 UNL     1     -42.589  14.417   3.520  1.00 20.00    -0.298 OA
ENDROOT
BRANCH   6   9
HETATM    9  C10 UNL     1     -41.463  15.947   6.979  1.00 20.00    -0.018 C 
HETATM   10  C8  UNL     1     -42.578  16.989   6.939  1.00 20.00     0.010 C 
HETATM   11  C9  UNL     1     -40.518  16.216   8.148  1.00 20.00     0.010 C 
ENDBRANCH   6   9
TORSDOF 1
ENDMDL
