MODEL 1
REMARK VINA RESULT:      -4.8      0.000      0.000
REMARK  0 active torsions:
REMARK  status: ('A' for Active; 'I' for Inactive)
ROOT
HETATM    1  C1  UNL     1     -33.307   6.464   3.906  1.00 20.00    -0.021 C 
HETATM    2  C2  UNL     1     -33.539   5.136   3.906  1.00 20.00    -0.021 C 
HETATM    3  C3  UNL     1     -34.060   6.597   6.252  1.00 20.00    -0.021 C 
HETATM    4  C4  UNL     1     -34.292   5.269   6.252  1.00 20.00    -0.021 C 
HETATM    5  C5  UNL     1     -35.505   6.164   4.515  1.00 20.00     0.024 C 
HETATM    6  C6  UNL     1     -34.325   7.093   4.841  1.00 20.00     0.031 C 
HETATM    7  C7  UNL     1     -34.710   4.891   4.842  1.00 20.00     0.031 C 
ENDROOT
TORSDOF 0
ENDMDL
MODEL 2
REMARK VINA RESULT:      -4.8      0.088      2.437
REMARK  0 active torsions:
REMARK  status: ('A' for Active; 'I' for Inactive)
ROOT
HETATM    1  C1  UNL     1     -34.322   5.323   6.289  1.00 20.00    -0.021 C 
HETATM    2  C2  UNL     1     -34.030   6.636   6.217  1.00 20.00    -0.021 C 
HETATM    3  C3  UNL     1     -33.588   5.029   3.953  1.00 20.00    -0.021 C 
HETATM    4  C4  UNL     1     -33.295   6.343   3.880  1.00 20.00    -0.021 C 
HETATM    5  C5  UNL     1     -35.501   6.178   4.510  1.00 20.00     0.024 C 
HETATM    6  C6  UNL     1     -34.764   4.889   4.902  1.00 20.00     0.031 C 
HETATM    7  C7  UNL     1     -34.279   7.067   4.782  1.00 20.00     0.031 C 
ENDROOT
TORSDOF 0
ENDMDL
MODEL 3
REMARK VINA RESULT:      -3.8      8.046      9.282
REMARK  0 active torsions:
REMARK  status: ('A' for Active; 'I' for Inactive)
ROOT
HETATM    1  C1  UNL     1     -41.008   8.287  -0.122  1.00 20.00    -0.021 C 
HETATM    2  C2  UNL     1     -42.271   8.308  -0.591  1.00 20.00    -0.021 C 
HETATM    3  C3  UNL     1     -40.988   5.825  -0.282  1.00 20.00    -0.021 C 
HETATM    4  C4  UNL     1     -42.253   5.846  -0.751  1.00 20.00    -0.021 C 
HETATM    5  C5  UNL     1     -42.264   6.951   1.267  1.00 20.00     0.024 C 
HETATM    6  C6  UNL     1     -40.849   7.000   0.670  1.00 20.00     0.031 C 
HETATM    7  C7  UNL     1     -42.944   7.035  -0.108  1.00 20.00     0.031 C 
ENDROOT
TORSDOF 0
ENDMDL
MODEL 4
REMARK VINA RESULT:      -3.7      8.062      9.296
REMARK  0 active torsions:
REMARK  status: ('A' for Active; 'I' for Inactive)
ROOT
HETATM    1  C1  UNL     1     -42.291   5.857  -0.748  1.00 20.00    -0.021 C 
HETATM    2  C2  UNL     1     -41.027   5.819  -0.283  1.00 20.00    -0.021 C 
HETATM    3  C3  UNL     1     -42.279   8.319  -0.585  1.00 20.00    -0.021 C 
HETATM    4  C4  UNL     1     -41.013   8.281  -0.121  1.00 20.00    -0.021 C 
HETATM    5  C5  UNL     1     -42.282   6.959   1.271  1.00 20.00     0.024 C 
HETATM    6  C6  UNL     1     -42.966   7.055  -0.101  1.00 20.00     0.031 C 
HETATM    7  C7  UNL     1     -40.869   6.992   0.669  1.00 20.00     0.031 C 
ENDROOT
TORSDOF 0
ENDMDL
MODEL 5
REMARK VINA RESULT:      -3.6      0.544      2.052
REMARK  0 active torsions:
REMARK  status: ('A' for Active; 'I' for Inactive)
ROOT
HETATM    1  C1  UNL     1     -33.904   6.714   6.342  1.00 20.00    -0.021 C 
HETATM    2  C2  UNL     1     -34.354   5.445   6.399  1.00 20.00    -0.021 C 
HETATM    3  C3  UNL     1     -35.261   7.106   4.320  1.00 20.00    -0.021 C 
HETATM    4  C4  UNL     1     -35.712   5.836   4.377  1.00 20.00    -0.021 C 
HETATM    5  C5  UNL     1     -33.415   5.734   4.320  1.00 20.00     0.024 C 
HETATM    6  C6  UNL     1     -33.848   7.100   4.874  1.00 20.00     0.031 C 
HETATM    7  C7  UNL     1     -34.594   4.995   4.969  1.00 20.00     0.031 C 
ENDROOT
TORSDOF 0
ENDMDL
MODEL 6
REMARK VINA RESULT:      -3.6      0.527      2.133
REMARK  0 active torsions:
REMARK  status: ('A' for Active; 'I' for Inactive)
ROOT
HETATM    1  C1  UNL     1     -35.709   5.748   4.410  1.00 20.00    -0.021 C 
HETATM    2  C2  UNL     1     -35.301   7.030   4.325  1.00 20.00    -0.021 C 
HETATM    3  C3  UNL     1     -34.325   5.438   6.428  1.00 20.00    -0.021 C 
HETATM    4  C4  UNL     1     -33.916   6.720   6.344  1.00 20.00    -0.021 C 
HETATM    5  C5  UNL     1     -33.411   5.719   4.336  1.00 20.00     0.024 C 
HETATM    6  C6  UNL     1     -34.561   4.954   5.008  1.00 20.00     0.031 C 
HETATM    7  C7  UNL     1     -33.883   7.079   4.869  1.00 20.00     0.031 C 
ENDROOT
TORSDOF 0
ENDMDL
MODEL 7
REMARK VINA RESULT:      -3.5     16.885     17.658
REMARK  0 active torsions:
REMARK  status: ('A' for Active; 'I' for Inactive)
ROOT
HETATM    1  C1  UNL     1     -22.803   9.088  -7.918  1.00 20.00    -0.021 C 
HETATM    2  C2  UNL     1     -23.576  10.139  -7.581  1.00 20.00    -0.021 C 
HETATM    3  C3  UNL     1     -21.295   9.589  -6.031  1.00 20.00    -0.021 C 
HETATM    4  C4  UNL     1     -22.068  10.641  -5.693  1.00 20.00    -0.021 C 
HETATM    5  C5  UNL     1     -21.442  10.941  -7.886  1.00 20.00     0.024 C 
HETATM    6  C6  UNL     1     -21.376   9.446  -7.540  1.00 20.00     0.031 C 
HETATM    7  C7  UNL     1     -22.657  11.190  -6.981  1.00 20.00     0.031 C 
ENDROOT
TORSDOF 0
ENDMDL
MODEL 8
REMARK VINA RESULT:      -3.5      8.016      9.499
REMARK  0 active torsions:
REMARK  status: ('A' for Active; 'I' for Inactive)
ROOT
HETATM    1  C1  UNL     1     -42.998   6.539   1.556  1.00 20.00    -0.021 C 
HETATM    2  C2  UNL     1     -43.417   7.633   0.889  1.00 20.00    -0.021 C 
HETATM    3  C3  UNL     1     -40.729   6.846   0.637  1.00 20.00    -0.021 C 
HETATM    4  C4  UNL     1     -41.148   7.940  -0.030  1.00 20.00    -0.021 C 
HETATM    5  C5  UNL     1     -42.512   6.201  -0.667  1.00 20.00     0.024 C 
HETATM    6  C6  UNL     1     -41.911   5.895   0.713  1.00 20.00     0.031 C 
HETATM    7  C7  UNL     1     -42.605   7.709  -0.392  1.00 20.00     0.031 C 
ENDROOT
TORSDOF 0
ENDMDL
MODEL 9
REMARK VINA RESULT:      -3.5      8.022      9.131
REMARK  0 active torsions:
REMARK  status: ('A' for Active; 'I' for Inactive)
ROOT
HETATM    1  C1  UNL     1     -40.844   7.048   0.720  1.00 20.00    -0.021 C 
HETATM    2  C2  UNL     1     -40.800   6.155  -0.288  1.00 20.00    -0.021 C 
HETATM    3  C3  UNL     1     -42.819   5.900   1.653  1.00 20.00    -0.021 C 
HETATM    4  C4  UNL     1     -42.775   5.006   0.643  1.00 20.00    -0.021 C 
HETATM    5  C5  UNL     1     -42.899   7.095  -0.311  1.00 20.00     0.024 C 
HETATM    6  C6  UNL     1     -42.305   7.218   1.100  1.00 20.00     0.031 C 
HETATM    7  C7  UNL     1     -42.232   5.737  -0.572  1.00 20.00     0.031 C 
ENDROOT
TORSDOF 0
ENDMDL
