MODEL 1
REMARK VINA RESULT:      -4.6      0.000      0.000
REMARK  2 active torsions:
REMARK  status: ('A' for Active; 'I' for Inactive)
REMARK    1  A    between atoms: C2_2  and  C3_3 
REMARK    2  A    between atoms: N9_9  and  N10_10 
ROOT
HETATM    1  C1  UNL     1     -32.825  19.006  -3.041  1.00 20.00    -0.018 C 
HETATM    2  C2  UNL     1     -32.694  18.362  -1.876  1.00 20.00    -0.043 C 
HETATM    3  C5  UNL     1     -33.586  18.195  -4.037  1.00 20.00     0.028 C 
HETATM    4  C6  UNL     1     -33.348  17.017  -1.909  1.00 20.00     0.040 C 
HETATM    5  C7  UNL     1     -33.603  16.806  -3.401  1.00 20.00     0.008 C 
ENDROOT
BRANCH   2   6
HETATM    6  C3  UNL     1     -32.039  18.856  -0.706  1.00 20.00     0.147 C 
HETATM    7  N9  UNL     1     -30.793  18.608  -0.432  1.00 20.00    -0.163 NA
BRANCH   7   8
HETATM    8  N10 UNL     1     -30.414  19.207   0.764  1.00 20.00    -0.168 NA
HETATM    9  C4  UNL     1     -30.636  18.412   1.758  1.00 20.00     0.109 C 
HETATM   10  C8  UNL     1     -30.313  18.828   3.157  1.00 20.00     0.059 C 
ENDBRANCH   7   8
ENDBRANCH   2   6
TORSDOF 2
ENDMDL
MODEL 2
REMARK VINA RESULT:      -4.3      2.084      3.045
REMARK  2 active torsions:
REMARK  status: ('A' for Active; 'I' for Inactive)
REMARK    1  A    between atoms: C2_2  and  C3_3 
REMARK    2  A    between atoms: N9_9  and  N10_10 
ROOT
HETATM    1  C1  UNL     1     -31.282  18.386  -0.511  1.00 20.00    -0.018 C 
HETATM    2  C2  UNL     1     -31.612  18.605   0.766  1.00 20.00    -0.043 C 
HETATM    3  C5  UNL     1     -32.489  18.206  -1.370  1.00 20.00     0.028 C 
HETATM    4  C6  UNL     1     -33.094  18.606   0.964  1.00 20.00     0.040 C 
HETATM    5  C7  UNL     1     -33.606  18.008  -0.347  1.00 20.00     0.008 C 
ENDROOT
BRANCH   2   6
HETATM    6  C3  UNL     1     -30.705  18.836   1.846  1.00 20.00     0.147 C 
HETATM    7  N9  UNL     1     -31.057  18.773   3.095  1.00 20.00    -0.163 NA
BRANCH   7   8
HETATM    8  N10 UNL     1     -29.981  19.042   3.934  1.00 20.00    -0.168 NA
HETATM    9  C4  UNL     1     -28.891  18.560   3.437  1.00 20.00     0.109 C 
HETATM   10  C8  UNL     1     -27.588  18.718   4.156  1.00 20.00     0.059 C 
ENDBRANCH   7   8
ENDBRANCH   2   6
TORSDOF 2
ENDMDL
MODEL 3
REMARK VINA RESULT:      -4.2      1.311      5.779
REMARK  2 active torsions:
REMARK  status: ('A' for Active; 'I' for Inactive)
REMARK    1  A    between atoms: C2_2  and  C3_3 
REMARK    2  A    between atoms: N9_9  and  N10_10 
ROOT
HETATM    1  C1  UNL     1     -31.397  19.081   3.558  1.00 20.00    -0.018 C 
HETATM    2  C2  UNL     1     -30.756  19.090   2.384  1.00 20.00    -0.043 C 
HETATM    3  C5  UNL     1     -30.453  19.247   4.702  1.00 20.00     0.028 C 
HETATM    4  C6  UNL     1     -29.281  19.263   2.558  1.00 20.00     0.040 C 
HETATM    5  C7  UNL     1     -29.090  19.013   4.054  1.00 20.00     0.008 C 
ENDROOT
BRANCH   2   6
HETATM    6  C3  UNL     1     -31.357  18.972   1.092  1.00 20.00     0.147 C 
HETATM    7  N9  UNL     1     -30.667  18.868  -0.004  1.00 20.00    -0.163 NA
BRANCH   7   8
HETATM    8  N10 UNL     1     -31.501  18.771  -1.113  1.00 20.00    -0.168 NA
HETATM    9  C4  UNL     1     -32.553  18.078  -0.827  1.00 20.00     0.109 C 
HETATM   10  C8  UNL     1     -33.607  17.829  -1.859  1.00 20.00     0.059 C 
ENDBRANCH   7   8
ENDBRANCH   2   6
TORSDOF 2
ENDMDL
MODEL 4
REMARK VINA RESULT:      -4.2      2.441      5.414
REMARK  2 active torsions:
REMARK  status: ('A' for Active; 'I' for Inactive)
REMARK    1  A    between atoms: C2_2  and  C3_3 
REMARK    2  A    between atoms: N9_9  and  N10_10 
ROOT
HETATM    1  C1  UNL     1     -31.257  18.483  -0.433  1.00 20.00    -0.018 C 
HETATM    2  C2  UNL     1     -32.517  18.195  -0.778  1.00 20.00    -0.043 C 
HETATM    3  C5  UNL     1     -31.146  18.818   1.017  1.00 20.00     0.028 C 
HETATM    4  C6  UNL     1     -33.448  18.292   0.388  1.00 20.00     0.040 C 
HETATM    5  C7  UNL     1     -32.602  19.023   1.431  1.00 20.00     0.008 C 
ENDROOT
BRANCH   2   6
HETATM    6  C3  UNL     1     -32.972  17.816  -2.079  1.00 20.00     0.147 C 
HETATM    7  N9  UNL     1     -33.295  16.597  -2.391  1.00 20.00    -0.163 NA
BRANCH   7   8
HETATM    8  N10 UNL     1     -33.700  16.509  -3.718  1.00 20.00    -0.168 NA
HETATM    9  C4  UNL     1     -33.670  15.282  -4.119  1.00 20.00     0.109 C 
HETATM   10  C8  UNL     1     -34.062  14.926  -5.518  1.00 20.00     0.059 C 
ENDBRANCH   7   8
ENDBRANCH   2   6
TORSDOF 2
ENDMDL
MODEL 5
REMARK VINA RESULT:      -4.1      2.380      5.426
REMARK  2 active torsions:
REMARK  status: ('A' for Active; 'I' for Inactive)
REMARK    1  A    between atoms: C2_2  and  C3_3 
REMARK    2  A    between atoms: N9_9  and  N10_10 
ROOT
HETATM    1  C1  UNL     1     -33.359  18.454   0.400  1.00 20.00    -0.018 C 
HETATM    2  C2  UNL     1     -32.557  18.236  -0.648  1.00 20.00    -0.043 C 
HETATM    3  C5  UNL     1     -32.588  18.875   1.606  1.00 20.00     0.028 C 
HETATM    4  C6  UNL     1     -31.121  18.477  -0.307  1.00 20.00     0.040 C 
HETATM    5  C7  UNL     1     -31.147  18.546   1.219  1.00 20.00     0.008 C 
ENDROOT
BRANCH   2   6
HETATM    6  C3  UNL     1     -32.967  17.839  -1.958  1.00 20.00     0.147 C 
HETATM    7  N9  UNL     1     -33.349  16.631  -2.248  1.00 20.00    -0.163 NA
BRANCH   7   8
HETATM    8  N10 UNL     1     -33.690  16.522  -3.592  1.00 20.00    -0.168 NA
HETATM    9  C4  UNL     1     -33.616  15.292  -3.978  1.00 20.00     0.109 C 
HETATM   10  C8  UNL     1     -33.935  14.913  -5.389  1.00 20.00     0.059 C 
ENDBRANCH   7   8
ENDBRANCH   2   6
TORSDOF 2
ENDMDL
MODEL 6
REMARK VINA RESULT:      -4.1     11.863     13.065
REMARK  2 active torsions:
REMARK  status: ('A' for Active; 'I' for Inactive)
REMARK    1  A    between atoms: C2_2  and  C3_3 
REMARK    2  A    between atoms: N9_9  and  N10_10 
ROOT
HETATM    1  C1  UNL     1     -34.404   5.224   4.654  1.00 20.00    -0.018 C 
HETATM    2  C2  UNL     1     -33.858   6.425   4.436  1.00 20.00    -0.043 C 
HETATM    3  C5  UNL     1     -34.856   5.073   6.069  1.00 20.00     0.028 C 
HETATM    4  C6  UNL     1     -33.858   7.268   5.671  1.00 20.00     0.040 C 
HETATM    5  C7  UNL     1     -34.184   6.253   6.767  1.00 20.00     0.008 C 
ENDROOT
BRANCH   2   6
HETATM    6  C3  UNL     1     -33.340   6.905   3.193  1.00 20.00     0.147 C 
HETATM    7  N9  UNL     1     -32.192   7.504   3.086  1.00 20.00    -0.163 NA
BRANCH   7   8
HETATM    8  N10 UNL     1     -31.937   7.867   1.768  1.00 20.00    -0.168 NA
HETATM    9  C4  UNL     1     -32.685   8.861   1.422  1.00 20.00     0.109 C 
HETATM   10  C8  UNL     1     -32.599   9.438   0.044  1.00 20.00     0.059 C 
ENDBRANCH   7   8
ENDBRANCH   2   6
TORSDOF 2
ENDMDL
MODEL 7
REMARK VINA RESULT:      -4.0      2.101      3.067
REMARK  2 active torsions:
REMARK  status: ('A' for Active; 'I' for Inactive)
REMARK    1  A    between atoms: C2_2  and  C3_3 
REMARK    2  A    between atoms: N9_9  and  N10_10 
ROOT
HETATM    1  C1  UNL     1     -34.409  17.033  -4.624  1.00 20.00    -0.018 C 
HETATM    2  C2  UNL     1     -33.755  16.300  -3.716  1.00 20.00    -0.043 C 
HETATM    3  C5  UNL     1     -34.773  16.227  -5.826  1.00 20.00     0.028 C 
HETATM    4  C6  UNL     1     -33.579  14.885  -4.169  1.00 20.00     0.040 C 
HETATM    5  C7  UNL     1     -33.932  14.963  -5.654  1.00 20.00     0.008 C 
ENDROOT
BRANCH   2   6
HETATM    6  C3  UNL     1     -33.278  16.752  -2.448  1.00 20.00     0.147 C 
HETATM    7  N9  UNL     1     -33.891  17.654  -1.740  1.00 20.00    -0.163 NA
BRANCH   7   8
HETATM    8  N10 UNL     1     -33.211  17.907  -0.553  1.00 20.00    -0.168 NA
HETATM    9  C4  UNL     1     -32.028  18.364  -0.800  1.00 20.00     0.109 C 
HETATM   10  C8  UNL     1     -31.095  18.713   0.316  1.00 20.00     0.059 C 
ENDBRANCH   7   8
ENDBRANCH   2   6
TORSDOF 2
ENDMDL
MODEL 8
REMARK VINA RESULT:      -3.9     15.559     17.293
REMARK  2 active torsions:
REMARK  status: ('A' for Active; 'I' for Inactive)
REMARK    1  A    between atoms: C2_2  and  C3_3 
REMARK    2  A    between atoms: N9_9  and  N10_10 
ROOT
HETATM    1  C1  UNL     1     -40.918   6.701  -0.348  1.00 20.00    -0.018 C 
HETATM    2  C2  UNL     1     -41.945   5.844  -0.336  1.00 20.00    -0.043 C 
HETATM    3  C5  UNL     1     -40.950   7.614   0.832  1.00 20.00     0.028 C 
HETATM    4  C6  UNL     1     -42.826   6.049   0.855  1.00 20.00     0.040 C 
HETATM    5  C7  UNL     1     -42.357   7.402   1.388  1.00 20.00     0.008 C 
ENDROOT
BRANCH   2   6
HETATM    6  C3  UNL     1     -42.207   4.826  -1.304  1.00 20.00     0.147 C 
HETATM    7  N9  UNL     1     -43.398   4.563  -1.755  1.00 20.00    -0.163 NA
BRANCH   7   8
HETATM    8  N10 UNL     1     -43.366   3.528  -2.682  1.00 20.00    -0.168 NA
HETATM    9  C4  UNL     1     -42.188   3.424  -3.202  1.00 20.00     0.109 C 
HETATM   10  C8  UNL     1     -41.897   2.379  -4.233  1.00 20.00     0.059 C 
ENDBRANCH   7   8
ENDBRANCH   2   6
TORSDOF 2
ENDMDL
MODEL 9
REMARK VINA RESULT:      -3.8      2.808      5.625
REMARK  2 active torsions:
REMARK  status: ('A' for Active; 'I' for Inactive)
REMARK    1  A    between atoms: C2_2  and  C3_3 
REMARK    2  A    between atoms: N9_9  and  N10_10 
ROOT
HETATM    1  C1  UNL     1     -33.694  17.805   0.027  1.00 20.00    -0.018 C 
HETATM    2  C2  UNL     1     -33.235  17.653  -1.220  1.00 20.00    -0.043 C 
HETATM    3  C5  UNL     1     -33.035  18.950   0.722  1.00 20.00     0.028 C 
HETATM    4  C6  UNL     1     -32.196  18.675  -1.557  1.00 20.00     0.040 C 
HETATM    5  C7  UNL     1     -31.849  19.262  -0.189  1.00 20.00     0.008 C 
ENDROOT
BRANCH   2   6
HETATM    6  C3  UNL     1     -33.662  16.670  -2.164  1.00 20.00     0.147 C 
HETATM    7  N9  UNL     1     -32.977  16.358  -3.224  1.00 20.00    -0.163 NA
BRANCH   7   8
HETATM    8  N10 UNL     1     -33.623  15.376  -3.967  1.00 20.00    -0.168 NA
HETATM    9  C4  UNL     1     -34.403  15.914  -4.845  1.00 20.00     0.109 C 
HETATM   10  C8  UNL     1     -35.213  15.063  -5.770  1.00 20.00     0.059 C 
ENDBRANCH   7   8
ENDBRANCH   2   6
TORSDOF 2
ENDMDL
