MODEL 1
REMARK VINA RESULT:      -3.5      0.000      0.000
REMARK  0 active torsions:
REMARK  status: ('A' for Active; 'I' for Inactive)
ROOT
HETATM    1  C1  UNL     1     -24.001  16.767  11.293  1.00 20.00     0.118 C 
HETATM    2  C2  UNL     1     -22.523  17.295   9.404  1.00 20.00     0.118 C 
HETATM    3  C3  UNL     1     -23.281  17.801  10.550  1.00 20.00     0.288 C 
HETATM    4  N4  UNL     1     -24.573  15.945  11.881  1.00 20.00    -0.193 NA
HETATM    5  N5  UNL     1     -21.923  16.891   8.496  1.00 20.00    -0.193 NA
HETATM    6 CL6  UNL     1     -24.466  18.988   9.954  1.00 20.00    -0.069 Cl
HETATM    7 CL7  UNL     1     -22.143  18.597  11.663  1.00 20.00    -0.069 Cl
ENDROOT
TORSDOF 0
ENDMDL
MODEL 2
REMARK VINA RESULT:      -3.4      0.024      3.111
REMARK  0 active torsions:
REMARK  status: ('A' for Active; 'I' for Inactive)
ROOT
HETATM    1  C1  UNL     1     -22.520  17.277   9.388  1.00 20.00     0.118 C 
HETATM    2  C2  UNL     1     -23.991  16.766  11.286  1.00 20.00     0.118 C 
HETATM    3  C3  UNL     1     -23.268  17.793  10.534  1.00 20.00     0.288 C 
HETATM    4  N4  UNL     1     -21.926  16.866   8.479  1.00 20.00    -0.193 NA
HETATM    5  N5  UNL     1     -24.564  15.950  11.881  1.00 20.00    -0.193 NA
HETATM    6 CL6  UNL     1     -22.119  18.587  11.638  1.00 20.00    -0.069 Cl
HETATM    7 CL7  UNL     1     -24.448  18.985   9.940  1.00 20.00    -0.069 Cl
ENDROOT
TORSDOF 0
ENDMDL
MODEL 3
REMARK VINA RESULT:      -3.4      1.921      2.941
REMARK  0 active torsions:
REMARK  status: ('A' for Active; 'I' for Inactive)
ROOT
HETATM    1  C1  UNL     1     -22.605  17.310   9.183  1.00 20.00     0.118 C 
HETATM    2  C2  UNL     1     -22.500  18.211  11.466  1.00 20.00     0.118 C 
HETATM    3  C3  UNL     1     -23.346  17.711  10.380  1.00 20.00     0.288 C 
HETATM    4  N4  UNL     1     -22.017  16.992   8.235  1.00 20.00    -0.193 NA
HETATM    5  N5  UNL     1     -21.828  18.606  12.326  1.00 20.00    -0.193 NA
HETATM    6 CL6  UNL     1     -24.487  19.000   9.924  1.00 20.00    -0.069 Cl
HETATM    7 CL7  UNL     1     -24.246  16.298  10.979  1.00 20.00    -0.069 Cl
ENDROOT
TORSDOF 0
ENDMDL
MODEL 4
REMARK VINA RESULT:      -3.4     16.303     16.907
REMARK  0 active torsions:
REMARK  status: ('A' for Active; 'I' for Inactive)
ROOT
HETATM    1  C1  UNL     1     -33.852   7.372   5.040  1.00 20.00     0.118 C 
HETATM    2  C2  UNL     1     -33.544   5.441   3.555  1.00 20.00     0.118 C 
HETATM    3  C3  UNL     1     -34.312   6.040   4.648  1.00 20.00     0.288 C 
HETATM    4  N4  UNL     1     -33.485   8.429   5.351  1.00 20.00    -0.193 NA
HETATM    5  N5  UNL     1     -32.934   4.967   2.688  1.00 20.00    -0.193 NA
HETATM    6 CL6  UNL     1     -34.194   4.969   6.065  1.00 20.00    -0.069 Cl
HETATM    7 CL7  UNL     1     -36.011   6.166   4.133  1.00 20.00    -0.069 Cl
ENDROOT
TORSDOF 0
ENDMDL
MODEL 5
REMARK VINA RESULT:      -3.4     16.314     16.931
REMARK  0 active torsions:
REMARK  status: ('A' for Active; 'I' for Inactive)
ROOT
HETATM    1  C1  UNL     1     -33.550   5.435   3.554  1.00 20.00     0.118 C 
HETATM    2  C2  UNL     1     -33.861   7.363   5.042  1.00 20.00     0.118 C 
HETATM    3  C3  UNL     1     -34.321   6.031   4.645  1.00 20.00     0.288 C 
HETATM    4  N4  UNL     1     -32.937   4.963   2.688  1.00 20.00    -0.193 NA
HETATM    5  N5  UNL     1     -33.495   8.419   5.356  1.00 20.00    -0.193 NA
HETATM    6 CL6  UNL     1     -36.018   6.160   4.124  1.00 20.00    -0.069 Cl
HETATM    7 CL7  UNL     1     -34.209   4.957   6.059  1.00 20.00    -0.069 Cl
ENDROOT
TORSDOF 0
ENDMDL
MODEL 6
REMARK VINA RESULT:      -3.4      2.009      2.959
REMARK  0 active torsions:
REMARK  status: ('A' for Active; 'I' for Inactive)
ROOT
HETATM    1  C1  UNL     1     -22.697  17.298   9.720  1.00 20.00     0.118 C 
HETATM    2  C2  UNL     1     -24.661  18.559  10.484  1.00 20.00     0.118 C 
HETATM    3  C3  UNL     1     -23.553  17.672  10.845  1.00 20.00     0.288 C 
HETATM    4  N4  UNL     1     -22.019  17.001   8.825  1.00 20.00    -0.193 NA
HETATM    5  N5  UNL     1     -25.538  19.263  10.196  1.00 20.00    -0.193 NA
HETATM    6 CL6  UNL     1     -24.236  16.185  11.546  1.00 20.00    -0.069 Cl
HETATM    7 CL7  UNL     1     -22.549  18.499  12.059  1.00 20.00    -0.069 Cl
ENDROOT
TORSDOF 0
ENDMDL
MODEL 7
REMARK VINA RESULT:      -3.3      2.008      2.333
REMARK  0 active torsions:
REMARK  status: ('A' for Active; 'I' for Inactive)
ROOT
HETATM    1  C1  UNL     1     -24.665  18.555  10.362  1.00 20.00     0.118 C 
HETATM    2  C2  UNL     1     -22.704  17.306   9.569  1.00 20.00     0.118 C 
HETATM    3  C3  UNL     1     -23.557  17.663  10.705  1.00 20.00     0.288 C 
HETATM    4  N4  UNL     1     -25.544  19.263  10.089  1.00 20.00    -0.193 NA
HETATM    5  N5  UNL     1     -22.030  17.024   8.667  1.00 20.00    -0.193 NA
HETATM    6 CL6  UNL     1     -22.547  18.472  11.927  1.00 20.00    -0.069 Cl
HETATM    7 CL7  UNL     1     -24.236  16.166  11.385  1.00 20.00    -0.069 Cl
ENDROOT
TORSDOF 0
ENDMDL
MODEL 8
REMARK VINA RESULT:      -3.2     19.190     19.867
REMARK  0 active torsions:
REMARK  status: ('A' for Active; 'I' for Inactive)
ROOT
HETATM    1  C1  UNL     1     -34.009  15.163  -6.569  1.00 20.00     0.118 C 
HETATM    2  C2  UNL     1     -35.368  14.140  -4.797  1.00 20.00     0.118 C 
HETATM    3  C3  UNL     1     -34.455  15.219  -5.177  1.00 20.00     0.288 C 
HETATM    4  N4  UNL     1     -33.656  15.116  -7.674  1.00 20.00    -0.193 NA
HETATM    5  N5  UNL     1     -36.092  13.283  -4.499  1.00 20.00    -0.193 NA
HETATM    6 CL6  UNL     1     -33.019  15.130  -4.127  1.00 20.00    -0.069 Cl
HETATM    7 CL7  UNL     1     -35.288  16.771  -4.920  1.00 20.00    -0.069 Cl
ENDROOT
TORSDOF 0
ENDMDL
MODEL 9
REMARK VINA RESULT:      -3.2     19.193     19.639
REMARK  0 active torsions:
REMARK  status: ('A' for Active; 'I' for Inactive)
ROOT
HETATM    1  C1  UNL     1     -35.373  14.142  -4.800  1.00 20.00     0.118 C 
HETATM    2  C2  UNL     1     -34.009  15.162  -6.570  1.00 20.00     0.118 C 
HETATM    3  C3  UNL     1     -34.461  15.222  -5.178  1.00 20.00     0.288 C 
HETATM    4  N4  UNL     1     -36.097  13.286  -4.502  1.00 20.00    -0.193 NA
HETATM    5  N5  UNL     1     -33.651  15.113  -7.673  1.00 20.00    -0.193 NA
HETATM    6 CL6  UNL     1     -35.299  16.773  -4.931  1.00 20.00    -0.069 Cl
HETATM    7 CL7  UNL     1     -33.031  15.139  -4.123  1.00 20.00    -0.069 Cl
ENDROOT
TORSDOF 0
ENDMDL
