MODEL 1
REMARK VINA RESULT:      -3.4      0.000      0.000
REMARK  1 active torsions:
REMARK  status: ('A' for Active; 'I' for Inactive)
REMARK    1  A    between atoms: C1_1  and  C5_5 
ROOT
HETATM    1  C2  UNL     1     -35.835   6.102   4.252  1.00 20.00     0.022 C 
HETATM    2  C3  UNL     1     -34.466   5.354   6.218  1.00 20.00     0.022 C 
HETATM    3  C4  UNL     1     -33.683   7.272   4.801  1.00 20.00     0.022 C 
HETATM    4  C5  UNL     1     -34.415   5.927   4.798  1.00 20.00     0.002 C 
ENDROOT
BRANCH   4   5
HETATM    5  C1  UNL     1     -33.665   4.987   3.862  1.00 20.00     0.239 C 
HETATM    6  O6  UNL     1     -33.089   5.337   2.836  1.00 20.00    -0.306 OA
ENDBRANCH   4   5
TORSDOF 1
ENDMDL
MODEL 2
REMARK VINA RESULT:      -3.4      0.051      1.777
REMARK  1 active torsions:
REMARK  status: ('A' for Active; 'I' for Inactive)
REMARK    1  A    between atoms: C1_1  and  C5_5 
ROOT
HETATM    1  C2  UNL     1     -34.470   5.375   6.208  1.00 20.00     0.022 C 
HETATM    2  C3  UNL     1     -33.733   7.340   4.831  1.00 20.00     0.022 C 
HETATM    3  C4  UNL     1     -35.844   6.116   4.241  1.00 20.00     0.022 C 
HETATM    4  C5  UNL     1     -34.425   5.973   4.799  1.00 20.00     0.002 C 
ENDROOT
BRANCH   4   5
HETATM    5  C1  UNL     1     -33.664   5.003   3.902  1.00 20.00     0.239 C 
HETATM    6  O6  UNL     1     -33.127   5.309   2.841  1.00 20.00    -0.306 OA
ENDBRANCH   4   5
TORSDOF 1
ENDMDL
MODEL 3
REMARK VINA RESULT:      -3.4      0.052      1.788
REMARK  1 active torsions:
REMARK  status: ('A' for Active; 'I' for Inactive)
REMARK    1  A    between atoms: C1_1  and  C5_5 
ROOT
HETATM    1  C2  UNL     1     -33.698   7.274   4.819  1.00 20.00     0.022 C 
HETATM    2  C3  UNL     1     -35.862   6.150   4.227  1.00 20.00     0.022 C 
HETATM    3  C4  UNL     1     -34.494   5.300   6.151  1.00 20.00     0.022 C 
HETATM    4  C5  UNL     1     -34.441   5.936   4.759  1.00 20.00     0.002 C 
ENDROOT
BRANCH   4   5
HETATM    5  C1  UNL     1     -33.656   5.003   3.846  1.00 20.00     0.239 C 
HETATM    6  O6  UNL     1     -33.079   5.354   2.821  1.00 20.00    -0.306 OA
ENDBRANCH   4   5
TORSDOF 1
ENDMDL
MODEL 4
REMARK VINA RESULT:      -3.4      0.980      1.981
REMARK  1 active torsions:
REMARK  status: ('A' for Active; 'I' for Inactive)
REMARK    1  A    between atoms: C1_1  and  C5_5 
ROOT
HETATM    1  C2  UNL     1     -35.829   6.113   4.285  1.00 20.00     0.022 C 
HETATM    2  C3  UNL     1     -33.730   4.776   3.958  1.00 20.00     0.022 C 
HETATM    3  C4  UNL     1     -34.478   5.389   6.274  1.00 20.00     0.022 C 
HETATM    4  C5  UNL     1     -34.416   5.846   4.814  1.00 20.00     0.002 C 
ENDROOT
BRANCH   4   5
HETATM    5  C1  UNL     1     -33.641   7.157   4.765  1.00 20.00     0.239 C 
HETATM    6  O6  UNL     1     -32.756   7.415   3.955  1.00 20.00    -0.306 OA
ENDBRANCH   4   5
TORSDOF 1
ENDMDL
MODEL 5
REMARK VINA RESULT:      -3.4      1.007      2.017
REMARK  1 active torsions:
REMARK  status: ('A' for Active; 'I' for Inactive)
REMARK    1  A    between atoms: C1_1  and  C5_5 
ROOT
HETATM    1  C2  UNL     1     -33.656   4.891   3.933  1.00 20.00     0.022 C 
HETATM    2  C3  UNL     1     -34.514   5.359   6.245  1.00 20.00     0.022 C 
HETATM    3  C4  UNL     1     -35.826   6.116   4.243  1.00 20.00     0.022 C 
HETATM    4  C5  UNL     1     -34.421   5.887   4.809  1.00 20.00     0.002 C 
ENDROOT
BRANCH   4   5
HETATM    5  C1  UNL     1     -33.677   7.216   4.769  1.00 20.00     0.239 C 
HETATM    6  O6  UNL     1     -32.732   7.464   4.026  1.00 20.00    -0.306 OA
ENDBRANCH   4   5
TORSDOF 1
ENDMDL
MODEL 6
REMARK VINA RESULT:      -3.4      1.003      2.267
REMARK  1 active torsions:
REMARK  status: ('A' for Active; 'I' for Inactive)
REMARK    1  A    between atoms: C1_1  and  C5_5 
ROOT
HETATM    1  C2  UNL     1     -34.436   5.382   6.251  1.00 20.00     0.022 C 
HETATM    2  C3  UNL     1     -35.832   6.076   4.284  1.00 20.00     0.022 C 
HETATM    3  C4  UNL     1     -33.652   4.886   3.918  1.00 20.00     0.022 C 
HETATM    4  C5  UNL     1     -34.403   5.884   4.805  1.00 20.00     0.002 C 
ENDROOT
BRANCH   4   5
HETATM    5  C1  UNL     1     -33.637   7.201   4.782  1.00 20.00     0.239 C 
HETATM    6  O6  UNL     1     -32.733   7.468   3.996  1.00 20.00    -0.306 OA
ENDBRANCH   4   5
TORSDOF 1
ENDMDL
MODEL 7
REMARK VINA RESULT:      -3.0      1.733      2.659
REMARK  1 active torsions:
REMARK  status: ('A' for Active; 'I' for Inactive)
REMARK    1  A    between atoms: C1_1  and  C5_5 
ROOT
HETATM    1  C2  UNL     1     -33.767   7.241   5.044  1.00 20.00     0.022 C 
HETATM    2  C3  UNL     1     -33.537   5.386   3.369  1.00 20.00     0.022 C 
HETATM    3  C4  UNL     1     -35.817   6.170   4.067  1.00 20.00     0.022 C 
HETATM    4  C5  UNL     1     -34.376   5.934   4.528  1.00 20.00     0.002 C 
ENDROOT
BRANCH   4   5
HETATM    5  C1  UNL     1     -34.410   4.944   5.686  1.00 20.00     0.239 C 
HETATM    6  O6  UNL     1     -34.065   5.202   6.835  1.00 20.00    -0.306 OA
ENDBRANCH   4   5
TORSDOF 1
ENDMDL
MODEL 8
REMARK VINA RESULT:      -2.9     16.732     17.669
REMARK  1 active torsions:
REMARK  status: ('A' for Active; 'I' for Inactive)
REMARK    1  A    between atoms: C1_1  and  C5_5 
ROOT
HETATM    1  C2  UNL     1     -22.839  17.485  10.005  1.00 20.00     0.022 C 
HETATM    2  C3  UNL     1     -24.378  16.342  11.626  1.00 20.00     0.022 C 
HETATM    3  C4  UNL     1     -24.899  18.663  10.825  1.00 20.00     0.022 C 
HETATM    4  C5  UNL     1     -23.780  17.686  11.197  1.00 20.00     0.002 C 
ENDROOT
BRANCH   4   5
HETATM    5  C1  UNL     1     -22.974  18.306  12.332  1.00 20.00     0.239 C 
HETATM    6  O6  UNL     1     -21.759  18.476  12.312  1.00 20.00    -0.306 OA
ENDBRANCH   4   5
TORSDOF 1
ENDMDL
MODEL 9
REMARK VINA RESULT:      -2.9     16.431     17.549
REMARK  1 active torsions:
REMARK  status: ('A' for Active; 'I' for Inactive)
REMARK    1  A    between atoms: C1_1  and  C5_5 
ROOT
HETATM    1  C2  UNL     1     -22.060  18.532  11.200  1.00 20.00     0.022 C 
HETATM    2  C3  UNL     1     -23.486  19.208   9.247  1.00 20.00     0.022 C 
HETATM    3  C4  UNL     1     -23.894  17.016  10.399  1.00 20.00     0.022 C 
HETATM    4  C5  UNL     1     -22.828  18.030   9.974  1.00 20.00     0.002 C 
ENDROOT
BRANCH   4   5
HETATM    5  C1  UNL     1     -21.839  17.316   9.061  1.00 20.00     0.239 C 
HETATM    6  O6  UNL     1     -22.039  17.066   7.876  1.00 20.00    -0.306 OA
ENDBRANCH   4   5
TORSDOF 1
ENDMDL
