MODEL 1
REMARK VINA RESULT:      -5.5      0.000      0.000
REMARK  3 active torsions:
REMARK  status: ('A' for Active; 'I' for Inactive)
REMARK    1  A    between atoms: C5_5  and  C7_7 
REMARK    2  A    between atoms: C6_6  and  C8_8 
REMARK    3  A    between atoms: C7_7  and  C8_8 
ROOT
HETATM    1  C1  UNL     1     -32.985   5.182   2.732  1.00 20.00     0.012 C 
HETATM    2  C3  UNL     1     -32.616   6.321   2.828  1.00 20.00    -0.117 C 
HETATM    3  C5  UNL     1     -32.163   7.714   2.940  1.00 20.00     0.093 C 
ENDROOT
BRANCH   3   4
HETATM    4  C7  UNL     1     -32.235   8.235   4.377  1.00 20.00     0.013 C 
BRANCH   4   5
HETATM    5  C8  UNL     1     -33.664   8.235   4.939  1.00 20.00     0.013 C 
BRANCH   5   6
HETATM    6  C6  UNL     1     -33.772   7.508   6.281  1.00 20.00     0.093 C 
HETATM    7  C4  UNL     1     -34.306   6.146   6.136  1.00 20.00    -0.117 C 
HETATM    8  C2  UNL     1     -34.743   5.033   6.022  1.00 20.00     0.012 C 
ENDBRANCH   5   6
ENDBRANCH   4   5
ENDBRANCH   3   4
TORSDOF 3
ENDMDL
MODEL 2
REMARK VINA RESULT:      -5.4      0.068      3.303
REMARK  3 active torsions:
REMARK  status: ('A' for Active; 'I' for Inactive)
REMARK    1  A    between atoms: C5_5  and  C7_7 
REMARK    2  A    between atoms: C6_6  and  C8_8 
REMARK    3  A    between atoms: C7_7  and  C8_8 
ROOT
HETATM    1  C1  UNL     1     -34.827   5.022   5.912  1.00 20.00     0.012 C 
HETATM    2  C3  UNL     1     -34.345   6.109   6.077  1.00 20.00    -0.117 C 
HETATM    3  C5  UNL     1     -33.756   7.439   6.285  1.00 20.00     0.093 C 
ENDROOT
BRANCH   3   4
HETATM    4  C7  UNL     1     -33.652   8.239   4.985  1.00 20.00     0.013 C 
BRANCH   4   5
HETATM    5  C8  UNL     1     -32.234   8.232   4.394  1.00 20.00     0.013 C 
BRANCH   5   6
HETATM    6  C6  UNL     1     -32.200   7.744   2.944  1.00 20.00     0.093 C 
HETATM    7  C4  UNL     1     -32.627   6.343   2.817  1.00 20.00    -0.117 C 
HETATM    8  C2  UNL     1     -32.974   5.198   2.711  1.00 20.00     0.012 C 
ENDBRANCH   5   6
ENDBRANCH   4   5
ENDBRANCH   3   4
TORSDOF 3
ENDMDL
MODEL 3
REMARK VINA RESULT:      -5.3      0.939      1.949
REMARK  3 active torsions:
REMARK  status: ('A' for Active; 'I' for Inactive)
REMARK    1  A    between atoms: C5_5  and  C7_7 
REMARK    2  A    between atoms: C6_6  and  C8_8 
REMARK    3  A    between atoms: C7_7  and  C8_8 
ROOT
HETATM    1  C1  UNL     1     -32.157   7.259   2.433  1.00 20.00     0.012 C 
HETATM    2  C3  UNL     1     -32.326   7.773   3.506  1.00 20.00    -0.117 C 
HETATM    3  C5  UNL     1     -32.528   8.403   4.818  1.00 20.00     0.093 C 
ENDROOT
BRANCH   3   4
HETATM    4  C7  UNL     1     -33.905   8.089   5.407  1.00 20.00     0.013 C 
BRANCH   4   5
HETATM    5  C8  UNL     1     -33.849   7.026   6.515  1.00 20.00     0.013 C 
BRANCH   5   6
HETATM    6  C6  UNL     1     -34.785   5.845   6.249  1.00 20.00     0.093 C 
HETATM    7  C4  UNL     1     -34.397   5.086   5.051  1.00 20.00    -0.117 C 
HETATM    8  C2  UNL     1     -34.084   4.464   4.072  1.00 20.00     0.012 C 
ENDBRANCH   5   6
ENDBRANCH   4   5
ENDBRANCH   3   4
TORSDOF 3
ENDMDL
MODEL 4
REMARK VINA RESULT:      -5.3      0.930      3.281
REMARK  3 active torsions:
REMARK  status: ('A' for Active; 'I' for Inactive)
REMARK    1  A    between atoms: C5_5  and  C7_7 
REMARK    2  A    between atoms: C6_6  and  C8_8 
REMARK    3  A    between atoms: C7_7  and  C8_8 
ROOT
HETATM    1  C1  UNL     1     -34.055   4.438   4.074  1.00 20.00     0.012 C 
HETATM    2  C3  UNL     1     -34.366   5.055   5.057  1.00 20.00    -0.117 C 
HETATM    3  C5  UNL     1     -34.750   5.807   6.259  1.00 20.00     0.093 C 
ENDROOT
BRANCH   3   4
HETATM    4  C7  UNL     1     -33.848   7.020   6.500  1.00 20.00     0.013 C 
BRANCH   4   5
HETATM    5  C8  UNL     1     -33.925   8.052   5.365  1.00 20.00     0.013 C 
BRANCH   5   6
HETATM    6  C6  UNL     1     -32.551   8.401   4.789  1.00 20.00     0.093 C 
HETATM    7  C4  UNL     1     -32.312   7.757   3.490  1.00 20.00    -0.117 C 
HETATM    8  C2  UNL     1     -32.112   7.231   2.428  1.00 20.00     0.012 C 
ENDBRANCH   5   6
ENDBRANCH   4   5
ENDBRANCH   3   4
TORSDOF 3
ENDMDL
MODEL 5
REMARK VINA RESULT:      -5.3      0.830      2.938
REMARK  3 active torsions:
REMARK  status: ('A' for Active; 'I' for Inactive)
REMARK    1  A    between atoms: C5_5  and  C7_7 
REMARK    2  A    between atoms: C6_6  and  C8_8 
REMARK    3  A    between atoms: C7_7  and  C8_8 
ROOT
HETATM    1  C1  UNL     1     -32.843   5.329   2.465  1.00 20.00     0.012 C 
HETATM    2  C3  UNL     1     -33.496   4.972   3.407  1.00 20.00    -0.117 C 
HETATM    3  C5  UNL     1     -34.294   4.529   4.559  1.00 20.00     0.093 C 
ENDROOT
BRANCH   3   4
HETATM    4  C7  UNL     1     -35.026   5.688   5.239  1.00 20.00     0.013 C 
BRANCH   4   5
HETATM    5  C8  UNL     1     -34.198   6.341   6.356  1.00 20.00     0.013 C 
BRANCH   5   6
HETATM    6  C6  UNL     1     -34.008   7.845   6.150  1.00 20.00     0.093 C 
HETATM    7  C4  UNL     1     -32.994   8.144   5.129  1.00 20.00    -0.117 C 
HETATM    8  C2  UNL     1     -32.164   8.391   4.297  1.00 20.00     0.012 C 
ENDBRANCH   5   6
ENDBRANCH   4   5
ENDBRANCH   3   4
TORSDOF 3
ENDMDL
MODEL 6
REMARK VINA RESULT:      -5.2      0.833      3.328
REMARK  3 active torsions:
REMARK  status: ('A' for Active; 'I' for Inactive)
REMARK    1  A    between atoms: C5_5  and  C7_7 
REMARK    2  A    between atoms: C6_6  and  C8_8 
REMARK    3  A    between atoms: C7_7  and  C8_8 
ROOT
HETATM    1  C1  UNL     1     -32.150   8.494   4.097  1.00 20.00     0.012 C 
HETATM    2  C3  UNL     1     -32.963   8.271   4.952  1.00 20.00    -0.117 C 
HETATM    3  C5  UNL     1     -33.958   8.004   5.999  1.00 20.00     0.093 C 
ENDROOT
BRANCH   3   4
HETATM    4  C7  UNL     1     -34.074   6.513   6.324  1.00 20.00     0.013 C 
BRANCH   4   5
HETATM    5  C8  UNL     1     -35.017   5.768   5.368  1.00 20.00     0.013 C 
BRANCH   5   6
HETATM    6  C6  UNL     1     -34.352   4.565   4.698  1.00 20.00     0.093 C 
HETATM    7  C4  UNL     1     -33.561   4.950   3.520  1.00 20.00    -0.117 C 
HETATM    8  C2  UNL     1     -32.916   5.262   2.555  1.00 20.00     0.012 C 
ENDBRANCH   5   6
ENDBRANCH   4   5
ENDBRANCH   3   4
TORSDOF 3
ENDMDL
MODEL 7
REMARK VINA RESULT:      -4.9      0.847      2.662
REMARK  3 active torsions:
REMARK  status: ('A' for Active; 'I' for Inactive)
REMARK    1  A    between atoms: C5_5  and  C7_7 
REMARK    2  A    between atoms: C6_6  and  C8_8 
REMARK    3  A    between atoms: C7_7  and  C8_8 
ROOT
HETATM    1  C1  UNL     1     -32.232   7.655   3.330  1.00 20.00     0.012 C 
HETATM    2  C3  UNL     1     -32.626   6.553   3.061  1.00 20.00    -0.117 C 
HETATM    3  C5  UNL     1     -33.107   5.206   2.726  1.00 20.00     0.093 C 
ENDROOT
BRANCH   3   4
HETATM    4  C7  UNL     1     -33.672   4.471   3.944  1.00 20.00     0.013 C 
BRANCH   4   5
HETATM    5  C8  UNL     1     -34.877   5.193   4.568  1.00 20.00     0.013 C 
BRANCH   5   6
HETATM    6  C6  UNL     1     -34.711   5.430   6.070  1.00 20.00     0.093 C 
HETATM    7  C4  UNL     1     -34.186   6.770   6.368  1.00 20.00    -0.117 C 
HETATM    8  C2  UNL     1     -33.755   7.864   6.615  1.00 20.00     0.012 C 
ENDBRANCH   5   6
ENDBRANCH   4   5
ENDBRANCH   3   4
TORSDOF 3
ENDMDL
MODEL 8
REMARK VINA RESULT:      -4.9      0.844      4.215
REMARK  3 active torsions:
REMARK  status: ('A' for Active; 'I' for Inactive)
REMARK    1  A    between atoms: C5_5  and  C7_7 
REMARK    2  A    between atoms: C6_6  and  C8_8 
REMARK    3  A    between atoms: C7_7  and  C8_8 
ROOT
HETATM    1  C1  UNL     1     -33.694   7.904   6.504  1.00 20.00     0.012 C 
HETATM    2  C3  UNL     1     -34.150   6.807   6.329  1.00 20.00    -0.117 C 
HETATM    3  C5  UNL     1     -34.706   5.463   6.120  1.00 20.00     0.093 C 
ENDROOT
BRANCH   3   4
HETATM    4  C7  UNL     1     -34.903   5.139   4.637  1.00 20.00     0.013 C 
BRANCH   4   5
HETATM    5  C8  UNL     1     -33.671   4.472   4.007  1.00 20.00     0.013 C 
BRANCH   5   6
HETATM    6  C6  UNL     1     -33.193   5.187   2.742  1.00 20.00     0.093 C 
HETATM    7  C4  UNL     1     -32.623   6.511   3.033  1.00 20.00    -0.117 C 
HETATM    8  C2  UNL     1     -32.158   7.593   3.266  1.00 20.00     0.012 C 
ENDBRANCH   5   6
ENDBRANCH   4   5
ENDBRANCH   3   4
TORSDOF 3
ENDMDL
MODEL 9
REMARK VINA RESULT:      -4.7      0.895      2.582
REMARK  3 active torsions:
REMARK  status: ('A' for Active; 'I' for Inactive)
REMARK    1  A    between atoms: C5_5  and  C7_7 
REMARK    2  A    between atoms: C6_6  and  C8_8 
REMARK    3  A    between atoms: C7_7  and  C8_8 
ROOT
HETATM    1  C1  UNL     1     -32.473   8.719   4.850  1.00 20.00     0.012 C 
HETATM    2  C3  UNL     1     -32.378   8.039   3.865  1.00 20.00    -0.117 C 
HETATM    3  C5  UNL     1     -32.261   7.210   2.657  1.00 20.00     0.093 C 
ENDROOT
BRANCH   3   4
HETATM    4  C7  UNL     1     -32.640   5.750   2.914  1.00 20.00     0.013 C 
BRANCH   4   5
HETATM    5  C8  UNL     1     -34.118   5.578   3.295  1.00 20.00     0.013 C 
BRANCH   5   6
HETATM    6  C6  UNL     1     -34.307   4.801   4.599  1.00 20.00     0.093 C 
HETATM    7  C4  UNL     1     -34.477   5.690   5.758  1.00 20.00    -0.117 C 
HETATM    8  C2  UNL     1     -34.614   6.413   6.707  1.00 20.00     0.012 C 
ENDBRANCH   5   6
ENDBRANCH   4   5
ENDBRANCH   3   4
TORSDOF 3
ENDMDL
