MODEL 1
REMARK VINA RESULT:      -3.4      0.000      0.000
REMARK  1 active torsions:
REMARK  status: ('A' for Active; 'I' for Inactive)
REMARK    1  A    between atoms: C7_7  and  C8_8 
ROOT
HETATM    1  C1  UNL     1     -22.408  17.012   8.953  1.00 20.00     0.015 C 
HETATM    2  C2  UNL     1     -23.432  19.263   8.696  1.00 20.00     0.015 C 
HETATM    3  C3  UNL     1     -21.356  18.987  10.036  1.00 20.00     0.015 C 
HETATM    4  C7  UNL     1     -22.718  18.330   9.704  1.00 20.00    -0.045 C 
ENDROOT
BRANCH   4   5
HETATM    5  C8  UNL     1     -23.597  18.080  11.014  1.00 20.00    -0.045 C 
HETATM    6  C4  UNL     1     -23.989  16.591  11.172  1.00 20.00     0.015 C 
HETATM    7  C5  UNL     1     -24.915  18.891  10.992  1.00 20.00     0.015 C 
HETATM    8  C6  UNL     1     -22.843  18.483  12.304  1.00 20.00     0.015 C 
ENDBRANCH   4   5
TORSDOF 1
ENDMDL
MODEL 2
REMARK VINA RESULT:      -3.3     23.448     24.541
REMARK  1 active torsions:
REMARK  status: ('A' for Active; 'I' for Inactive)
REMARK    1  A    between atoms: C7_7  and  C8_8 
ROOT
HETATM    1  C1  UNL     1     -42.622   8.172  -0.494  1.00 20.00     0.015 C 
HETATM    2  C2  UNL     1     -43.396   7.302   1.703  1.00 20.00     0.015 C 
HETATM    3  C3  UNL     1     -40.992   7.825   1.350  1.00 20.00     0.015 C 
HETATM    4  C7  UNL     1     -42.245   7.223   0.671  1.00 20.00    -0.045 C 
ENDROOT
BRANCH   4   5
HETATM    5  C8  UNL     1     -41.995   5.729   0.167  1.00 20.00    -0.045 C 
HETATM    6  C4  UNL     1     -43.066   5.275  -0.853  1.00 20.00     0.015 C 
HETATM    7  C5  UNL     1     -42.024   4.711   1.332  1.00 20.00     0.015 C 
HETATM    8  C6  UNL     1     -40.621   5.575  -0.530  1.00 20.00     0.015 C 
ENDBRANCH   4   5
TORSDOF 1
ENDMDL
MODEL 3
REMARK VINA RESULT:      -3.3     23.435     24.513
REMARK  1 active torsions:
REMARK  status: ('A' for Active; 'I' for Inactive)
REMARK    1  A    between atoms: C7_7  and  C8_8 
ROOT
HETATM    1  C1  UNL     1     -40.595   5.542  -0.517  1.00 20.00     0.015 C 
HETATM    2  C2  UNL     1     -42.030   4.716   1.338  1.00 20.00     0.015 C 
HETATM    3  C3  UNL     1     -43.041   5.268  -0.865  1.00 20.00     0.015 C 
HETATM    4  C7  UNL     1     -41.975   5.721   0.162  1.00 20.00    -0.045 C 
ENDROOT
BRANCH   4   5
HETATM    5  C8  UNL     1     -42.211   7.223   0.647  1.00 20.00    -0.045 C 
HETATM    6  C4  UNL     1     -43.353   7.323   1.688  1.00 20.00     0.015 C 
HETATM    7  C5  UNL     1     -42.590   8.160  -0.525  1.00 20.00     0.015 C 
HETATM    8  C6  UNL     1     -40.948   7.823   1.311  1.00 20.00     0.015 C 
ENDBRANCH   4   5
TORSDOF 1
ENDMDL
MODEL 4
REMARK VINA RESULT:      -3.3     23.460     24.568
REMARK  1 active torsions:
REMARK  status: ('A' for Active; 'I' for Inactive)
REMARK    1  A    between atoms: C7_7  and  C8_8 
ROOT
HETATM    1  C1  UNL     1     -43.364   7.272   1.719  1.00 20.00     0.015 C 
HETATM    2  C2  UNL     1     -40.968   7.801   1.313  1.00 20.00     0.015 C 
HETATM    3  C3  UNL     1     -42.640   8.145  -0.494  1.00 20.00     0.015 C 
HETATM    4  C7  UNL     1     -42.236   7.197   0.660  1.00 20.00    -0.045 C 
ENDROOT
BRANCH   4   5
HETATM    5  C8  UNL     1     -41.992   5.703   0.151  1.00 20.00    -0.045 C 
HETATM    6  C4  UNL     1     -40.613   5.542  -0.533  1.00 20.00     0.015 C 
HETATM    7  C5  UNL     1     -43.059   5.260  -0.879  1.00 20.00     0.015 C 
HETATM    8  C6  UNL     1     -42.038   4.680   1.312  1.00 20.00     0.015 C 
ENDBRANCH   4   5
TORSDOF 1
ENDMDL
MODEL 5
REMARK VINA RESULT:      -3.3     15.667     17.066
REMARK  1 active torsions:
REMARK  status: ('A' for Active; 'I' for Inactive)
REMARK    1  A    between atoms: C7_7  and  C8_8 
ROOT
HETATM    1  C1  UNL     1     -34.570   8.474   4.557  1.00 20.00     0.015 C 
HETATM    2  C2  UNL     1     -33.172   7.420   6.323  1.00 20.00     0.015 C 
HETATM    3  C3  UNL     1     -32.392   7.433   3.963  1.00 20.00     0.015 C 
HETATM    4  C7  UNL     1     -33.644   7.269   4.856  1.00 20.00    -0.045 C 
ENDROOT
BRANCH   4   5
HETATM    5  C8  UNL     1     -34.380   5.874   4.606  1.00 20.00    -0.045 C 
HETATM    6  C4  UNL     1     -35.840   6.066   4.131  1.00 20.00     0.015 C 
HETATM    7  C5  UNL     1     -34.435   5.008   5.888  1.00 20.00     0.015 C 
HETATM    8  C6  UNL     1     -33.666   5.028   3.524  1.00 20.00     0.015 C 
ENDBRANCH   4   5
TORSDOF 1
ENDMDL
MODEL 6
REMARK VINA RESULT:      -3.3     15.636     17.037
REMARK  1 active torsions:
REMARK  status: ('A' for Active; 'I' for Inactive)
REMARK    1  A    between atoms: C7_7  and  C8_8 
ROOT
HETATM    1  C1  UNL     1     -35.832   6.102   4.121  1.00 20.00     0.015 C 
HETATM    2  C2  UNL     1     -33.632   5.149   3.461  1.00 20.00     0.015 C 
HETATM    3  C3  UNL     1     -34.414   4.960   5.813  1.00 20.00     0.015 C 
HETATM    4  C7  UNL     1     -34.370   5.908   4.591  1.00 20.00    -0.045 C 
ENDROOT
BRANCH   4   5
HETATM    5  C8  UNL     1     -33.664   7.298   4.937  1.00 20.00    -0.045 C 
HETATM    6  C4  UNL     1     -33.218   7.369   6.417  1.00 20.00     0.015 C 
HETATM    7  C5  UNL     1     -34.605   8.503   4.695  1.00 20.00     0.015 C 
HETATM    8  C6  UNL     1     -32.399   7.536   4.077  1.00 20.00     0.015 C 
ENDBRANCH   4   5
TORSDOF 1
ENDMDL
MODEL 7
REMARK VINA RESULT:      -3.3     15.669     17.068
REMARK  1 active torsions:
REMARK  status: ('A' for Active; 'I' for Inactive)
REMARK    1  A    between atoms: C7_7  and  C8_8 
ROOT
HETATM    1  C1  UNL     1     -34.570   8.474   4.564  1.00 20.00     0.015 C 
HETATM    2  C2  UNL     1     -33.175   7.411   6.326  1.00 20.00     0.015 C 
HETATM    3  C3  UNL     1     -32.391   7.438   3.968  1.00 20.00     0.015 C 
HETATM    4  C7  UNL     1     -33.645   7.268   4.858  1.00 20.00    -0.045 C 
ENDROOT
BRANCH   4   5
HETATM    5  C8  UNL     1     -34.379   5.874   4.599  1.00 20.00    -0.045 C 
HETATM    6  C4  UNL     1     -34.428   4.999   5.874  1.00 20.00     0.015 C 
HETATM    7  C5  UNL     1     -33.668   5.037   3.508  1.00 20.00     0.015 C 
HETATM    8  C6  UNL     1     -35.843   6.068   4.133  1.00 20.00     0.015 C 
ENDBRANCH   4   5
TORSDOF 1
ENDMDL
MODEL 8
REMARK VINA RESULT:      -3.3     15.652     17.082
REMARK  1 active torsions:
REMARK  status: ('A' for Active; 'I' for Inactive)
REMARK    1  A    between atoms: C7_7  and  C8_8 
ROOT
HETATM    1  C1  UNL     1     -33.647   5.137   3.446  1.00 20.00     0.015 C 
HETATM    2  C2  UNL     1     -34.407   4.950   5.806  1.00 20.00     0.015 C 
HETATM    3  C3  UNL     1     -35.842   6.087   4.124  1.00 20.00     0.015 C 
HETATM    4  C7  UNL     1     -34.375   5.897   4.581  1.00 20.00    -0.045 C 
ENDROOT
BRANCH   4   5
HETATM    5  C8  UNL     1     -33.668   7.288   4.919  1.00 20.00    -0.045 C 
HETATM    6  C4  UNL     1     -34.615   8.490   4.687  1.00 20.00     0.015 C 
HETATM    7  C5  UNL     1     -32.414   7.529   4.045  1.00 20.00     0.015 C 
HETATM    8  C6  UNL     1     -33.207   7.360   6.396  1.00 20.00     0.015 C 
ENDBRANCH   4   5
TORSDOF 1
ENDMDL
MODEL 9
REMARK VINA RESULT:      -3.3     15.650     17.090
REMARK  1 active torsions:
REMARK  status: ('A' for Active; 'I' for Inactive)
REMARK    1  A    between atoms: C7_7  and  C8_8 
ROOT
HETATM    1  C1  UNL     1     -33.639   5.143   3.442  1.00 20.00     0.015 C 
HETATM    2  C2  UNL     1     -34.408   4.953   5.798  1.00 20.00     0.015 C 
HETATM    3  C3  UNL     1     -35.837   6.091   4.113  1.00 20.00     0.015 C 
HETATM    4  C7  UNL     1     -34.372   5.901   4.575  1.00 20.00    -0.045 C 
ENDROOT
BRANCH   4   5
HETATM    5  C8  UNL     1     -33.667   7.292   4.918  1.00 20.00    -0.045 C 
HETATM    6  C4  UNL     1     -32.414   7.537   4.044  1.00 20.00     0.015 C 
HETATM    7  C5  UNL     1     -33.206   7.362   6.393  1.00 20.00     0.015 C 
HETATM    8  C6  UNL     1     -34.615   8.495   4.687  1.00 20.00     0.015 C 
ENDBRANCH   4   5
TORSDOF 1
ENDMDL
