MODEL 1
REMARK VINA RESULT:      -4.0      0.000      0.000
REMARK  1 active torsions:
REMARK  status: ('A' for Active; 'I' for Inactive)
REMARK    1  A    between atoms: C1_1  and  N7_7 
ROOT
HETATM    1  C2  UNL     1     -34.695   6.093   6.542  1.00 20.00     0.003 C 
HETATM    2  C3  UNL     1     -34.443   4.941   5.568  1.00 20.00     0.020 C 
HETATM    3  C4  UNL     1     -33.686   7.221   6.331  1.00 20.00     0.020 C 
HETATM    4  C5  UNL     1     -34.416   5.437   4.124  1.00 20.00     0.123 C 
HETATM    5  C6  UNL     1     -33.669   7.682   4.877  1.00 20.00     0.123 C 
HETATM    6  N7  UNL     1     -33.488   6.552   3.974  1.00 20.00    -0.381 N 
ENDROOT
BRANCH   6   7
HETATM    7  C1  UNL     1     -32.550   6.567   2.995  1.00 20.00     0.168 C 
HETATM    8  S8  UNL     1     -32.189   7.921   2.098  1.00 20.00    -0.074 SA
ENDBRANCH   6   7
TORSDOF 1
ENDMDL
MODEL 2
REMARK VINA RESULT:      -3.8      0.913      1.925
REMARK  1 active torsions:
REMARK  status: ('A' for Active; 'I' for Inactive)
REMARK    1  A    between atoms: C1_1  and  N7_7 
ROOT
HETATM    1  C2  UNL     1     -34.772   5.442   6.077  1.00 20.00     0.003 C 
HETATM    2  C3  UNL     1     -34.396   6.847   6.549  1.00 20.00     0.020 C 
HETATM    3  C4  UNL     1     -34.853   5.379   4.552  1.00 20.00     0.020 C 
HETATM    4  C5  UNL     1     -33.114   7.330   5.876  1.00 20.00     0.123 C 
HETATM    5  C6  UNL     1     -33.566   5.884   3.908  1.00 20.00     0.123 C 
HETATM    6  N7  UNL     1     -33.206   7.198   4.426  1.00 20.00    -0.381 N 
ENDROOT
BRANCH   6   7
HETATM    7  C1  UNL     1     -32.900   8.228   3.599  1.00 20.00     0.168 C 
HETATM    8  S8  UNL     1     -32.258   8.018   2.078  1.00 20.00    -0.074 SA
ENDBRANCH   6   7
TORSDOF 1
ENDMDL
MODEL 3
REMARK VINA RESULT:      -3.7      1.239      1.355
REMARK  1 active torsions:
REMARK  status: ('A' for Active; 'I' for Inactive)
REMARK    1  A    between atoms: C1_1  and  N7_7 
ROOT
HETATM    1  C2  UNL     1     -34.892   5.000   5.982  1.00 20.00     0.003 C 
HETATM    2  C3  UNL     1     -34.116   4.602   4.726  1.00 20.00     0.020 C 
HETATM    3  C4  UNL     1     -34.308   6.266   6.609  1.00 20.00     0.020 C 
HETATM    4  C5  UNL     1     -34.039   5.761   3.736  1.00 20.00     0.123 C 
HETATM    5  C6  UNL     1     -34.227   7.400   5.592  1.00 20.00     0.123 C 
HETATM    6  N7  UNL     1     -33.536   6.967   4.383  1.00 20.00    -0.381 N 
ENDROOT
BRANCH   6   7
HETATM    7  C1  UNL     1     -32.521   7.689   3.848  1.00 20.00     0.168 C 
HETATM    8  S8  UNL     1     -31.996   9.135   4.483  1.00 20.00    -0.074 SA
ENDBRANCH   6   7
TORSDOF 1
ENDMDL
MODEL 4
REMARK VINA RESULT:      -3.5      2.278      3.863
REMARK  1 active torsions:
REMARK  status: ('A' for Active; 'I' for Inactive)
REMARK    1  A    between atoms: C1_1  and  N7_7 
ROOT
HETATM    1  C2  UNL     1     -32.169   7.189   2.454  1.00 20.00     0.003 C 
HETATM    2  C3  UNL     1     -31.928   8.106   3.654  1.00 20.00     0.020 C 
HETATM    3  C4  UNL     1     -32.762   5.851   2.898  1.00 20.00     0.020 C 
HETATM    4  C5  UNL     1     -33.199   8.277   4.482  1.00 20.00     0.123 C 
HETATM    5  C6  UNL     1     -34.019   6.054   3.738  1.00 20.00     0.123 C 
HETATM    6  N7  UNL     1     -33.768   6.982   4.835  1.00 20.00    -0.381 N 
ENDROOT
BRANCH   6   7
HETATM    7  C1  UNL     1     -34.114   6.683   6.111  1.00 20.00     0.168 C 
HETATM    8  S8  UNL     1     -34.638   5.176   6.585  1.00 20.00    -0.074 SA
ENDBRANCH   6   7
TORSDOF 1
ENDMDL
MODEL 5
REMARK VINA RESULT:      -3.4      1.261      1.261
REMARK  1 active torsions:
REMARK  status: ('A' for Active; 'I' for Inactive)
REMARK    1  A    between atoms: C1_1  and  N7_7 
ROOT
HETATM    1  C2  UNL     1     -34.538   6.715   6.736  1.00 20.00     0.003 C 
HETATM    2  C3  UNL     1     -34.624   5.392   5.975  1.00 20.00     0.020 C 
HETATM    3  C4  UNL     1     -33.389   7.576   6.211  1.00 20.00     0.020 C 
HETATM    4  C5  UNL     1     -34.711   5.626   4.470  1.00 20.00     0.123 C 
HETATM    5  C6  UNL     1     -33.494   7.778   4.703  1.00 20.00     0.123 C 
HETATM    6  N7  UNL     1     -33.636   6.500   4.015  1.00 20.00    -0.381 N 
ENDROOT
BRANCH   6   7
HETATM    7  C1  UNL     1     -32.853   6.172   2.959  1.00 20.00     0.168 C 
HETATM    8  S8  UNL     1     -32.874   4.672   2.238  1.00 20.00    -0.074 SA
ENDBRANCH   6   7
TORSDOF 1
ENDMDL
MODEL 6
REMARK VINA RESULT:      -3.3      1.246      2.368
REMARK  1 active torsions:
REMARK  status: ('A' for Active; 'I' for Inactive)
REMARK    1  A    between atoms: C1_1  and  N7_7 
ROOT
HETATM    1  C2  UNL     1     -34.095   6.650   5.422  1.00 20.00     0.003 C 
HETATM    2  C3  UNL     1     -33.601   8.075   5.169  1.00 20.00     0.020 C 
HETATM    3  C4  UNL     1     -34.254   5.884   4.109  1.00 20.00     0.020 C 
HETATM    4  C5  UNL     1     -32.323   8.076   4.335  1.00 20.00     0.123 C 
HETATM    5  C6  UNL     1     -32.968   5.917   3.290  1.00 20.00     0.123 C 
HETATM    6  N7  UNL     1     -32.493   7.286   3.121  1.00 20.00    -0.381 N 
ENDROOT
BRANCH   6   7
HETATM    7  C1  UNL     1     -32.157   7.776   1.903  1.00 20.00     0.168 C 
HETATM    8  S8  UNL     1     -32.762   9.202   1.294  1.00 20.00    -0.074 SA
ENDBRANCH   6   7
TORSDOF 1
ENDMDL
MODEL 7
REMARK VINA RESULT:      -3.2     16.025     17.018
REMARK  1 active torsions:
REMARK  status: ('A' for Active; 'I' for Inactive)
REMARK    1  A    between atoms: C1_1  and  N7_7 
ROOT
HETATM    1  C2  UNL     1     -21.695  18.966   8.549  1.00 20.00     0.003 C 
HETATM    2  C3  UNL     1     -21.429  18.134   9.804  1.00 20.00     0.020 C 
HETATM    3  C4  UNL     1     -23.163  18.875   8.132  1.00 20.00     0.020 C 
HETATM    4  C5  UNL     1     -22.380  18.519  10.933  1.00 20.00     0.123 C 
HETATM    5  C6  UNL     1     -24.089  19.249   9.285  1.00 20.00     0.123 C 
HETATM    6  N7  UNL     1     -23.766  18.481  10.483  1.00 20.00    -0.381 N 
ENDROOT
BRANCH   6   7
HETATM    7  C1  UNL     1     -24.722  17.822  11.182  1.00 20.00     0.168 C 
HETATM    8  S8  UNL     1     -24.482  16.325  11.870  1.00 20.00    -0.074 SA
ENDBRANCH   6   7
TORSDOF 1
ENDMDL
MODEL 8
REMARK VINA RESULT:      -3.1     12.666     13.206
REMARK  1 active torsions:
REMARK  status: ('A' for Active; 'I' for Inactive)
REMARK    1  A    between atoms: C1_1  and  N7_7 
ROOT
HETATM    1  C2  UNL     1     -32.918  18.346  -0.883  1.00 20.00     0.003 C 
HETATM    2  C3  UNL     1     -31.421  18.274  -0.579  1.00 20.00     0.020 C 
HETATM    3  C4  UNL     1     -33.746  18.163   0.389  1.00 20.00     0.020 C 
HETATM    4  C5  UNL     1     -31.032  19.262   0.516  1.00 20.00     0.123 C 
HETATM    5  C6  UNL     1     -33.323  19.152   1.471  1.00 20.00     0.123 C 
HETATM    6  N7  UNL     1     -31.882  19.100   1.690  1.00 20.00    -0.381 N 
ENDROOT
BRANCH   6   7
HETATM    7  C1  UNL     1     -31.357  18.977   2.934  1.00 20.00     0.168 C 
HETATM    8  S8  UNL     1     -29.722  18.883   3.231  1.00 20.00    -0.074 SA
ENDBRANCH   6   7
TORSDOF 1
ENDMDL
MODEL 9
REMARK VINA RESULT:      -3.0     12.224     13.292
REMARK  1 active torsions:
REMARK  status: ('A' for Active; 'I' for Inactive)
REMARK    1  A    between atoms: C1_1  and  N7_7 
ROOT
HETATM    1  C2  UNL     1     -35.260  14.696  -5.390  1.00 20.00     0.003 C 
HETATM    2  C3  UNL     1     -34.373  14.363  -4.189  1.00 20.00     0.020 C 
HETATM    3  C4  UNL     1     -35.720  16.154  -5.343  1.00 20.00     0.020 C 
HETATM    4  C5  UNL     1     -33.205  15.339  -4.079  1.00 20.00     0.123 C 
HETATM    5  C6  UNL     1     -34.533  17.104  -5.215  1.00 20.00     0.123 C 
HETATM    6  N7  UNL     1     -33.676  16.719  -4.099  1.00 20.00    -0.381 N 
ENDROOT
BRANCH   6   7
HETATM    7  C1  UNL     1     -33.279  17.619  -3.166  1.00 20.00     0.168 C 
HETATM    8  S8  UNL     1     -33.541  17.418  -1.535  1.00 20.00    -0.074 SA
ENDBRANCH   6   7
TORSDOF 1
ENDMDL
