MODEL 1
REMARK VINA RESULT:      -4.9      0.000      0.000
REMARK  1 active torsions:
REMARK  status: ('A' for Active; 'I' for Inactive)
REMARK    1  A    between atoms: C4_4  and  C9_9 
ROOT
HETATM    1  C1  UNL     1     -34.398   4.605   5.783  1.00 20.00    -0.025 C 
HETATM    2  C2  UNL     1     -33.828   4.649   4.570  1.00 20.00    -0.025 C 
HETATM    3  C5  UNL     1     -35.426   6.314   4.619  1.00 20.00     0.017 C 
HETATM    4  C6  UNL     1     -33.837   6.972   6.256  1.00 20.00     0.017 C 
HETATM    5  C7  UNL     1     -34.996   5.970   6.046  1.00 20.00     0.009 C 
HETATM    6  C8  UNL     1     -34.034   6.046   4.031  1.00 20.00     0.016 C 
HETATM    7  C9  UNL     1     -33.142   6.988   4.869  1.00 20.00     0.015 C 
ENDROOT
BRANCH   7   8
HETATM    8  C4  UNL     1     -33.054   8.366   4.291  1.00 20.00    -0.031 C 
HETATM    9  C3  UNL     1     -32.585   8.636   3.069  1.00 20.00     0.007 C 
ENDBRANCH   7   8
TORSDOF 1
ENDMDL
MODEL 2
REMARK VINA RESULT:      -4.5      1.308      2.238
REMARK  1 active torsions:
REMARK  status: ('A' for Active; 'I' for Inactive)
REMARK    1  A    between atoms: C4_4  and  C9_9 
ROOT
HETATM    1  C1  UNL     1     -34.465   6.304   6.523  1.00 20.00    -0.025 C 
HETATM    2  C2  UNL     1     -34.288   5.037   6.121  1.00 20.00    -0.025 C 
HETATM    3  C5  UNL     1     -35.483   6.106   4.459  1.00 20.00     0.017 C 
HETATM    4  C6  UNL     1     -33.385   7.219   4.488  1.00 20.00     0.017 C 
HETATM    5  C7  UNL     1     -34.709   7.137   5.283  1.00 20.00     0.009 C 
HETATM    6  C8  UNL     1     -34.401   5.028   4.613  1.00 20.00     0.016 C 
HETATM    7  C9  UNL     1     -33.148   5.746   4.064  1.00 20.00     0.015 C 
ENDROOT
BRANCH   7   8
HETATM    8  C4  UNL     1     -33.001   5.596   2.581  1.00 20.00    -0.031 C 
HETATM    9  C3  UNL     1     -32.873   4.421   1.957  1.00 20.00     0.007 C 
ENDBRANCH   7   8
TORSDOF 1
ENDMDL
MODEL 3
REMARK VINA RESULT:      -4.1     15.726     16.824
REMARK  1 active torsions:
REMARK  status: ('A' for Active; 'I' for Inactive)
REMARK    1  A    between atoms: C4_4  and  C9_9 
ROOT
HETATM    1  C1  UNL     1     -24.096  18.569  12.332  1.00 20.00    -0.025 C 
HETATM    2  C2  UNL     1     -22.791  18.469  12.039  1.00 20.00    -0.025 C 
HETATM    3  C5  UNL     1     -23.892  16.925  10.723  1.00 20.00     0.017 C 
HETATM    4  C6  UNL     1     -24.706  19.026   9.974  1.00 20.00     0.017 C 
HETATM    5  C7  UNL     1     -24.864  18.029  11.145  1.00 20.00     0.009 C 
HETATM    6  C8  UNL     1     -22.690  17.876  10.652  1.00 20.00     0.016 C 
HETATM    7  C9  UNL     1     -23.188  18.953   9.664  1.00 20.00     0.015 C 
ENDROOT
BRANCH   7   8
HETATM    8  C4  UNL     1     -22.914  18.598   8.236  1.00 20.00    -0.031 C 
HETATM    9  C3  UNL     1     -21.697  18.335   7.751  1.00 20.00     0.007 C 
ENDBRANCH   7   8
TORSDOF 1
ENDMDL
MODEL 4
REMARK VINA RESULT:      -3.7      8.315      9.931
REMARK  1 active torsions:
REMARK  status: ('A' for Active; 'I' for Inactive)
REMARK    1  A    between atoms: C4_4  and  C9_9 
ROOT
HETATM    1  C1  UNL     1     -40.888   7.991  -0.303  1.00 20.00    -0.025 C 
HETATM    2  C2  UNL     1     -40.925   7.977   1.038  1.00 20.00    -0.025 C 
HETATM    3  C5  UNL     1     -43.096   7.699   0.305  1.00 20.00     0.017 C 
HETATM    4  C6  UNL     1     -41.959   5.763  -0.467  1.00 20.00     0.017 C 
HETATM    5  C7  UNL     1     -42.122   7.265  -0.792  1.00 20.00     0.009 C 
HETATM    6  C8  UNL     1     -42.177   7.231   1.442  1.00 20.00     0.016 C 
HETATM    7  C9  UNL     1     -41.950   5.746   1.084  1.00 20.00     0.015 C 
ENDROOT
BRANCH   7   8
HETATM    8  C4  UNL     1     -43.006   4.848   1.651  1.00 20.00    -0.031 C 
HETATM    9  C3  UNL     1     -43.417   3.718   1.068  1.00 20.00     0.007 C 
ENDBRANCH   7   8
TORSDOF 1
ENDMDL
MODEL 5
REMARK VINA RESULT:      -3.7     15.631     17.218
REMARK  1 active torsions:
REMARK  status: ('A' for Active; 'I' for Inactive)
REMARK    1  A    between atoms: C4_4  and  C9_9 
ROOT
HETATM    1  C1  UNL     1     -21.982  19.263   8.723  1.00 20.00    -0.025 C 
HETATM    2  C2  UNL     1     -23.315  19.145   8.807  1.00 20.00    -0.025 C 
HETATM    3  C5  UNL     1     -22.426  17.078   9.323  1.00 20.00     0.017 C 
HETATM    4  C6  UNL     1     -21.655  18.502  11.058  1.00 20.00     0.017 C 
HETATM    5  C7  UNL     1     -21.381  18.166   9.575  1.00 20.00     0.009 C 
HETATM    6  C8  UNL     1     -23.603  17.978   9.725  1.00 20.00     0.016 C 
HETATM    7  C9  UNL     1     -23.201  18.417  11.150  1.00 20.00     0.015 C 
ENDROOT
BRANCH   7   8
HETATM    8  C4  UNL     1     -23.658  17.454  12.201  1.00 20.00    -0.031 C 
HETATM    9  C3  UNL     1     -24.764  16.710  12.104  1.00 20.00     0.007 C 
ENDBRANCH   7   8
TORSDOF 1
ENDMDL
MODEL 6
REMARK VINA RESULT:      -3.7      9.225     10.248
REMARK  1 active torsions:
REMARK  status: ('A' for Active; 'I' for Inactive)
REMARK    1  A    between atoms: C4_4  and  C9_9 
ROOT
HETATM    1  C1  UNL     1     -42.075  15.007   6.746  1.00 20.00    -0.025 C 
HETATM    2  C2  UNL     1     -41.054  14.540   7.479  1.00 20.00    -0.025 C 
HETATM    3  C5  UNL     1     -42.282  12.708   6.797  1.00 20.00     0.017 C 
HETATM    4  C6  UNL     1     -41.438  13.637   4.782  1.00 20.00     0.017 C 
HETATM    5  C7  UNL     1     -42.533  13.880   5.846  1.00 20.00     0.009 C 
HETATM    6  C8  UNL     1     -40.823  13.106   7.059  1.00 20.00     0.016 C 
HETATM    7  C9  UNL     1     -40.237  13.145   5.630  1.00 20.00     0.015 C 
ENDROOT
BRANCH   7   8
HETATM    8  C4  UNL     1     -39.729  11.811   5.178  1.00 20.00    -0.031 C 
HETATM    9  C3  UNL     1     -38.997  11.624   4.076  1.00 20.00     0.007 C 
ENDBRANCH   7   8
TORSDOF 1
ENDMDL
MODEL 7
REMARK VINA RESULT:      -3.6     12.361     13.621
REMARK  1 active torsions:
REMARK  status: ('A' for Active; 'I' for Inactive)
REMARK    1  A    between atoms: C4_4  and  C9_9 
ROOT
HETATM    1  C1  UNL     1     -32.525  19.263  -1.905  1.00 20.00    -0.025 C 
HETATM    2  C2  UNL     1     -32.340  18.165  -1.158  1.00 20.00    -0.025 C 
HETATM    3  C5  UNL     1     -34.543  18.141  -1.849  1.00 20.00     0.017 C 
HETATM    4  C6  UNL     1     -33.293  17.944  -3.857  1.00 20.00     0.017 C 
HETATM    5  C7  UNL     1     -33.712  18.997  -2.806  1.00 20.00     0.009 C 
HETATM    6  C8  UNL     1     -33.394  17.162  -1.571  1.00 20.00     0.016 C 
HETATM    7  C9  UNL     1     -33.027  16.683  -2.993  1.00 20.00     0.015 C 
ENDROOT
BRANCH   7   8
HETATM    8  C4  UNL     1     -33.841  15.507  -3.435  1.00 20.00    -0.031 C 
HETATM    9  C3  UNL     1     -33.596  14.801  -4.543  1.00 20.00     0.007 C 
ENDBRANCH   7   8
TORSDOF 1
ENDMDL
MODEL 8
REMARK VINA RESULT:      -3.6      1.207      3.617
REMARK  1 active torsions:
REMARK  status: ('A' for Active; 'I' for Inactive)
REMARK    1  A    between atoms: C4_4  and  C9_9 
ROOT
HETATM    1  C1  UNL     1     -31.941   8.390   3.665  1.00 20.00    -0.025 C 
HETATM    2  C2  UNL     1     -32.100   8.899   4.895  1.00 20.00    -0.025 C 
HETATM    3  C5  UNL     1     -34.212   8.445   4.081  1.00 20.00     0.017 C 
HETATM    4  C6  UNL     1     -33.170   6.317   4.241  1.00 20.00     0.017 C 
HETATM    5  C7  UNL     1     -33.181   7.582   3.351  1.00 20.00     0.009 C 
HETATM    6  C8  UNL     1     -33.439   8.418   5.407  1.00 20.00     0.016 C 
HETATM    7  C9  UNL     1     -33.302   6.903   5.671  1.00 20.00     0.015 C 
ENDROOT
BRANCH   7   8
HETATM    8  C4  UNL     1     -34.474   6.337   6.412  1.00 20.00    -0.031 C 
HETATM    9  C3  UNL     1     -34.935   5.094   6.245  1.00 20.00     0.007 C 
ENDBRANCH   7   8
TORSDOF 1
ENDMDL
MODEL 9
REMARK VINA RESULT:      -3.6      1.100      3.687
REMARK  1 active torsions:
REMARK  status: ('A' for Active; 'I' for Inactive)
REMARK    1  A    between atoms: C4_4  and  C9_9 
ROOT
HETATM    1  C1  UNL     1     -32.630   9.126   2.758  1.00 20.00    -0.025 C 
HETATM    2  C2  UNL     1     -32.657   7.904   2.205  1.00 20.00    -0.025 C 
HETATM    3  C5  UNL     1     -31.639   7.684   4.266  1.00 20.00     0.017 C 
HETATM    4  C6  UNL     1     -33.857   8.366   4.772  1.00 20.00     0.017 C 
HETATM    5  C7  UNL     1     -32.516   8.938   4.255  1.00 20.00     0.009 C 
HETATM    6  C8  UNL     1     -32.576   6.902   3.335  1.00 20.00     0.016 C 
HETATM    7  C9  UNL     1     -33.919   6.972   4.095  1.00 20.00     0.015 C 
ENDROOT
BRANCH   7   8
HETATM    8  C4  UNL     1     -34.078   5.862   5.088  1.00 20.00    -0.031 C 
HETATM    9  C3  UNL     1     -34.398   6.048   6.372  1.00 20.00     0.007 C 
ENDBRANCH   7   8
TORSDOF 1
ENDMDL
