MODEL 1
REMARK VINA RESULT:      -4.1      0.000      0.000
REMARK  3 active torsions:
REMARK  status: ('A' for Active; 'I' for Inactive)
REMARK    1  A    between atoms: C2_2  and  C6_6 
REMARK    2  A    between atoms: C2_2  and  C7_7 
REMARK    3  A    between atoms: C6_6  and  C8_8 
ROOT
HETATM    1  C6  UNL     1     -34.198   8.087   4.484  1.00 20.00     0.042 C 
ENDROOT
BRANCH   1   2
HETATM    2  C2  UNL     1     -34.389   6.796   5.256  1.00 20.00    -0.075 C 
HETATM    3  C1  UNL     1     -33.893   6.649   6.496  1.00 20.00     0.015 C 
BRANCH   2   4
HETATM    4  C7  UNL     1     -35.102   5.660   4.578  1.00 20.00     0.147 C 
HETATM    5 CL9  UNL     1     -34.032   4.245   4.438  1.00 20.00    -0.126 Cl
ENDBRANCH   2   4
ENDBRANCH   1   2
BRANCH   1   6
HETATM    6  C8  UNL     1     -32.819   8.319   3.798  1.00 20.00    -0.048 C 
HETATM    7  C3  UNL     1     -32.918   9.373   2.681  1.00 20.00     0.015 C 
HETATM    8  C4  UNL     1     -31.837   8.839   4.869  1.00 20.00     0.015 C 
HETATM    9  C5  UNL     1     -32.246   7.020   3.208  1.00 20.00     0.015 C 
ENDBRANCH   1   6
TORSDOF 3
ENDMDL
MODEL 2
REMARK VINA RESULT:      -3.8      2.001      3.835
REMARK  3 active torsions:
REMARK  status: ('A' for Active; 'I' for Inactive)
REMARK    1  A    between atoms: C2_2  and  C6_6 
REMARK    2  A    between atoms: C2_2  and  C7_7 
REMARK    3  A    between atoms: C6_6  and  C8_8 
ROOT
HETATM    1  C6  UNL     1     -33.283   6.852   5.326  1.00 20.00     0.042 C 
ENDROOT
BRANCH   1   2
HETATM    2  C2  UNL     1     -32.823   7.618   4.101  1.00 20.00    -0.075 C 
HETATM    3  C1  UNL     1     -32.844   8.961   4.074  1.00 20.00     0.015 C 
BRANCH   2   4
HETATM    4  C7  UNL     1     -32.390   6.836   2.892  1.00 20.00     0.147 C 
HETATM    5 CL9  UNL     1     -32.119   7.922   1.510  1.00 20.00    -0.126 Cl
ENDBRANCH   2   4
ENDBRANCH   1   2
BRANCH   1   6
HETATM    6  C8  UNL     1     -34.397   5.781   5.129  1.00 20.00    -0.048 C 
HETATM    7  C3  UNL     1     -33.853   4.530   4.417  1.00 20.00     0.015 C 
HETATM    8  C4  UNL     1     -34.904   5.362   6.524  1.00 20.00     0.015 C 
HETATM    9  C5  UNL     1     -35.588   6.332   4.328  1.00 20.00     0.015 C 
ENDBRANCH   1   6
TORSDOF 3
ENDMDL
MODEL 3
REMARK VINA RESULT:      -3.7      2.174      4.090
REMARK  3 active torsions:
REMARK  status: ('A' for Active; 'I' for Inactive)
REMARK    1  A    between atoms: C2_2  and  C6_6 
REMARK    2  A    between atoms: C2_2  and  C7_7 
REMARK    3  A    between atoms: C6_6  and  C8_8 
ROOT
HETATM    1  C6  UNL     1     -33.288   6.697   5.015  1.00 20.00     0.042 C 
ENDROOT
BRANCH   1   2
HETATM    2  C2  UNL     1     -32.810   7.142   3.646  1.00 20.00    -0.075 C 
HETATM    3  C1  UNL     1     -32.576   6.250   2.669  1.00 20.00     0.015 C 
BRANCH   2   4
HETATM    4  C7  UNL     1     -32.551   8.606   3.424  1.00 20.00     0.147 C 
HETATM    5 CL9  UNL     1     -32.121   9.404   4.955  1.00 20.00    -0.126 Cl
ENDBRANCH   2   4
ENDBRANCH   1   2
BRANCH   1   6
HETATM    6  C8  UNL     1     -34.443   5.655   5.071  1.00 20.00    -0.048 C 
HETATM    7  C3  UNL     1     -33.999   4.293   4.510  1.00 20.00     0.015 C 
HETATM    8  C4  UNL     1     -34.839   5.463   6.550  1.00 20.00     0.015 C 
HETATM    9  C5  UNL     1     -35.684   6.131   4.299  1.00 20.00     0.015 C 
ENDBRANCH   1   6
TORSDOF 3
ENDMDL
MODEL 4
REMARK VINA RESULT:      -3.7      2.095      3.822
REMARK  3 active torsions:
REMARK  status: ('A' for Active; 'I' for Inactive)
REMARK    1  A    between atoms: C2_2  and  C6_6 
REMARK    2  A    between atoms: C2_2  and  C7_7 
REMARK    3  A    between atoms: C6_6  and  C8_8 
ROOT
HETATM    1  C6  UNL     1     -34.202   7.619   4.346  1.00 20.00     0.042 C 
ENDROOT
BRANCH   1   2
HETATM    2  C2  UNL     1     -32.776   8.047   4.062  1.00 20.00    -0.075 C 
HETATM    3  C1  UNL     1     -32.070   8.753   4.961  1.00 20.00     0.015 C 
BRANCH   2   4
HETATM    4  C7  UNL     1     -32.185   7.708   2.722  1.00 20.00     0.147 C 
HETATM    5 CL9  UNL     1     -32.579   8.967   1.528  1.00 20.00    -0.126 Cl
ENDBRANCH   2   4
ENDBRANCH   1   2
BRANCH   1   6
HETATM    6  C8  UNL     1     -34.446   6.130   4.731  1.00 20.00    -0.048 C 
HETATM    7  C3  UNL     1     -34.238   5.898   6.238  1.00 20.00     0.015 C 
HETATM    8  C4  UNL     1     -35.909   5.783   4.385  1.00 20.00     0.015 C 
HETATM    9  C5  UNL     1     -33.526   5.177   3.950  1.00 20.00     0.015 C 
ENDBRANCH   1   6
TORSDOF 3
ENDMDL
MODEL 5
REMARK VINA RESULT:      -3.7      1.875      3.699
REMARK  3 active torsions:
REMARK  status: ('A' for Active; 'I' for Inactive)
REMARK    1  A    between atoms: C2_2  and  C6_6 
REMARK    2  A    between atoms: C2_2  and  C7_7 
REMARK    3  A    between atoms: C6_6  and  C8_8 
ROOT
HETATM    1  C6  UNL     1     -33.055   6.482   4.611  1.00 20.00     0.042 C 
ENDROOT
BRANCH   1   2
HETATM    2  C2  UNL     1     -33.187   7.992   4.591  1.00 20.00    -0.075 C 
HETATM    3  C1  UNL     1     -33.671   8.661   5.651  1.00 20.00     0.015 C 
BRANCH   2   4
HETATM    4  C7  UNL     1     -32.814   8.723   3.331  1.00 20.00     0.147 C 
HETATM    5 CL9  UNL     1     -32.185   7.588   2.113  1.00 20.00    -0.126 Cl
ENDBRANCH   2   4
ENDBRANCH   1   2
BRANCH   1   6
HETATM    6  C8  UNL     1     -34.329   5.651   4.942  1.00 20.00    -0.048 C 
HETATM    7  C3  UNL     1     -35.575   6.232   4.250  1.00 20.00     0.015 C 
HETATM    8  C4  UNL     1     -34.110   4.216   4.419  1.00 20.00     0.015 C 
HETATM    9  C5  UNL     1     -34.589   5.577   6.456  1.00 20.00     0.015 C 
ENDBRANCH   1   6
TORSDOF 3
ENDMDL
MODEL 6
REMARK VINA RESULT:      -3.6      2.248      4.063
REMARK  3 active torsions:
REMARK  status: ('A' for Active; 'I' for Inactive)
REMARK    1  A    between atoms: C2_2  and  C6_6 
REMARK    2  A    between atoms: C2_2  and  C7_7 
REMARK    3  A    between atoms: C6_6  and  C8_8 
ROOT
HETATM    1  C6  UNL     1     -33.227   6.824   5.074  1.00 20.00     0.042 C 
ENDROOT
BRANCH   1   2
HETATM    2  C2  UNL     1     -32.813   7.388   3.730  1.00 20.00    -0.075 C 
HETATM    3  C1  UNL     1     -32.440   6.581   2.723  1.00 20.00     0.015 C 
BRANCH   2   4
HETATM    4  C7  UNL     1     -32.776   8.882   3.565  1.00 20.00     0.147 C 
HETATM    5 CL9  UNL     1     -32.783   9.321   1.840  1.00 20.00    -0.126 Cl
ENDBRANCH   2   4
ENDBRANCH   1   2
BRANCH   1   6
HETATM    6  C8  UNL     1     -34.403   5.803   5.097  1.00 20.00    -0.048 C 
HETATM    7  C3  UNL     1     -35.608   6.317   4.290  1.00 20.00     0.015 C 
HETATM    8  C4  UNL     1     -33.908   4.495   4.446  1.00 20.00     0.015 C 
HETATM    9  C5  UNL     1     -34.861   5.486   6.529  1.00 20.00     0.015 C 
ENDBRANCH   1   6
TORSDOF 3
ENDMDL
MODEL 7
REMARK VINA RESULT:      -3.5      0.860      1.448
REMARK  3 active torsions:
REMARK  status: ('A' for Active; 'I' for Inactive)
REMARK    1  A    between atoms: C2_2  and  C6_6 
REMARK    2  A    between atoms: C2_2  and  C7_7 
REMARK    3  A    between atoms: C6_6  and  C8_8 
ROOT
HETATM    1  C6  UNL     1     -34.260   8.121   4.234  1.00 20.00     0.042 C 
ENDROOT
BRANCH   1   2
HETATM    2  C2  UNL     1     -34.525   6.809   4.946  1.00 20.00    -0.075 C 
HETATM    3  C1  UNL     1     -35.233   5.830   4.357  1.00 20.00     0.015 C 
BRANCH   2   4
HETATM    4  C7  UNL     1     -34.023   6.648   6.353  1.00 20.00     0.147 C 
HETATM    5 CL9  UNL     1     -34.067   4.938   6.841  1.00 20.00    -0.126 Cl
ENDBRANCH   2   4
ENDBRANCH   1   2
BRANCH   1   6
HETATM    6  C8  UNL     1     -32.832   8.354   3.660  1.00 20.00    -0.048 C 
HETATM    7  C3  UNL     1     -32.849   9.372   2.506  1.00 20.00     0.015 C 
HETATM    8  C4  UNL     1     -31.951   8.923   4.792  1.00 20.00     0.015 C 
HETATM    9  C5  UNL     1     -32.192   7.047   3.163  1.00 20.00     0.015 C 
ENDBRANCH   1   6
TORSDOF 3
ENDMDL
MODEL 8
REMARK VINA RESULT:      -3.4      0.852      2.048
REMARK  3 active torsions:
REMARK  status: ('A' for Active; 'I' for Inactive)
REMARK    1  A    between atoms: C2_2  and  C6_6 
REMARK    2  A    between atoms: C2_2  and  C7_7 
REMARK    3  A    between atoms: C6_6  and  C8_8 
ROOT
HETATM    1  C6  UNL     1     -34.255   8.131   4.240  1.00 20.00     0.042 C 
ENDROOT
BRANCH   1   2
HETATM    2  C2  UNL     1     -34.550   6.830   4.959  1.00 20.00    -0.075 C 
HETATM    3  C1  UNL     1     -35.275   5.862   4.374  1.00 20.00     0.015 C 
BRANCH   2   4
HETATM    4  C7  UNL     1     -34.056   6.668   6.370  1.00 20.00     0.147 C 
HETATM    5 CL9  UNL     1     -33.996   4.947   6.818  1.00 20.00    -0.126 Cl
ENDBRANCH   2   4
ENDBRANCH   1   2
BRANCH   1   6
HETATM    6  C8  UNL     1     -32.803   8.358   3.725  1.00 20.00    -0.048 C 
HETATM    7  C3  UNL     1     -32.193   7.057   3.175  1.00 20.00     0.015 C 
HETATM    8  C4  UNL     1     -32.861   9.388   2.578  1.00 20.00     0.015 C 
HETATM    9  C5  UNL     1     -31.884   8.913   4.825  1.00 20.00     0.015 C 
ENDBRANCH   1   6
TORSDOF 3
ENDMDL
MODEL 9
REMARK VINA RESULT:      -3.2     11.887     12.853
REMARK  3 active torsions:
REMARK  status: ('A' for Active; 'I' for Inactive)
REMARK    1  A    between atoms: C2_2  and  C6_6 
REMARK    2  A    between atoms: C2_2  and  C7_7 
REMARK    3  A    between atoms: C6_6  and  C8_8 
ROOT
HETATM    1  C6  UNL     1     -32.775  19.241  -1.621  1.00 20.00     0.042 C 
ENDROOT
BRANCH   1   2
HETATM    2  C2  UNL     1     -32.407  18.741  -0.238  1.00 20.00    -0.075 C 
HETATM    3  C1  UNL     1     -33.329  18.647   0.735  1.00 20.00     0.015 C 
BRANCH   2   4
HETATM    4  C7  UNL     1     -30.968  18.405   0.038  1.00 20.00     0.147 C 
HETATM    5 CL9  UNL     1     -30.711  18.137   1.778  1.00 20.00    -0.126 Cl
ENDBRANCH   2   4
ENDBRANCH   1   2
BRANCH   1   6
HETATM    6  C8  UNL     1     -33.638  18.306  -2.519  1.00 20.00    -0.048 C 
HETATM    7  C3  UNL     1     -35.139  18.601  -2.359  1.00 20.00     0.015 C 
HETATM    8  C4  UNL     1     -33.248  18.566  -3.989  1.00 20.00     0.015 C 
HETATM    9  C5  UNL     1     -33.386  16.821  -2.210  1.00 20.00     0.015 C 
ENDBRANCH   1   6
TORSDOF 3
ENDMDL
