MODEL 1
REMARK VINA RESULT:      -4.0      0.000      0.000
REMARK  1 active torsions:
REMARK  status: ('A' for Active; 'I' for Inactive)
REMARK    1  A    between atoms: C7_7  and  C8_8 
ROOT
HETATM    1  C1  UNL     1     -32.709   7.783   4.178  1.00 20.00     0.064 C 
HETATM    2  C2  UNL     1     -33.768   6.339   6.789  1.00 20.00     0.002 C 
HETATM    3  C3  UNL     1     -34.101   7.721   6.230  1.00 20.00     0.019 C 
HETATM    4  C4  UNL     1     -34.680   5.265   6.204  1.00 20.00     0.005 C 
HETATM    5  C5  UNL     1     -34.919   6.637   4.082  1.00 20.00     0.024 C 
HETATM    6  C6  UNL     1     -34.087   7.771   4.698  1.00 20.00     0.093 C 
HETATM    7  C7  UNL     1     -34.666   5.236   4.670  1.00 20.00    -0.003 C 
HETATM    8  N9  UNL     1     -31.623   7.794   3.767  1.00 20.00    -0.197 NA
ENDROOT
BRANCH   7   9
HETATM    9  C8  UNL     1     -33.389   4.588   4.129  1.00 20.00     0.089 C 
HETATM   10 BR10 UNL     1     -33.236   4.952   2.231  1.00 20.00    -0.096 Br
ENDBRANCH   7   9
TORSDOF 1
ENDMDL
MODEL 2
REMARK VINA RESULT:      -3.9     15.783     16.977
REMARK  1 active torsions:
REMARK  status: ('A' for Active; 'I' for Inactive)
REMARK    1  A    between atoms: C7_7  and  C8_8 
ROOT
HETATM    1  C1  UNL     1     -22.037  17.735   8.307  1.00 20.00     0.064 C 
HETATM    2  C2  UNL     1     -21.692  18.420  11.379  1.00 20.00     0.002 C 
HETATM    3  C3  UNL     1     -21.293  19.227  10.144  1.00 20.00     0.019 C 
HETATM    4  C4  UNL     1     -23.130  18.713  11.797  1.00 20.00     0.005 C 
HETATM    5  C5  UNL     1     -23.718  19.226   9.383  1.00 20.00     0.024 C 
HETATM    6  C6  UNL     1     -22.253  19.036   8.964  1.00 20.00     0.093 C 
HETATM    7  C7  UNL     1     -24.141  18.488  10.666  1.00 20.00    -0.003 C 
HETATM    8  N9  UNL     1     -21.867  16.711   7.788  1.00 20.00    -0.197 NA
ENDROOT
BRANCH   7   9
HETATM    9  C8  UNL     1     -24.406  16.999  10.432  1.00 20.00     0.089 C 
HETATM   10 BR10 UNL     1     -24.603  16.103  12.140  1.00 20.00    -0.096 Br
ENDBRANCH   7   9
TORSDOF 1
ENDMDL
MODEL 3
REMARK VINA RESULT:      -3.7     12.966     14.038
REMARK  1 active torsions:
REMARK  status: ('A' for Active; 'I' for Inactive)
REMARK    1  A    between atoms: C7_7  and  C8_8 
ROOT
HETATM    1  C1  UNL     1     -35.636  14.397  -5.184  1.00 20.00     0.064 C 
HETATM    2  C2  UNL     1     -33.582  15.941  -3.333  1.00 20.00     0.002 C 
HETATM    3  C3  UNL     1     -33.332  14.868  -4.391  1.00 20.00     0.019 C 
HETATM    4  C4  UNL     1     -33.597  17.338  -3.947  1.00 20.00     0.005 C 
HETATM    5  C5  UNL     1     -34.427  16.357  -6.136  1.00 20.00     0.024 C 
HETATM    6  C6  UNL     1     -34.318  14.936  -5.563  1.00 20.00     0.093 C 
HETATM    7  C7  UNL     1     -34.606  17.478  -5.094  1.00 20.00    -0.003 C 
HETATM    8  N9  UNL     1     -36.673  13.971  -4.886  1.00 20.00    -0.197 NA
ENDROOT
BRANCH   7   9
HETATM    9  C8  UNL     1     -36.042  17.581  -4.575  1.00 20.00     0.089 C 
HETATM   10 BR10 UNL     1     -36.111  18.862  -3.122  1.00 20.00    -0.096 Br
ENDBRANCH   7   9
TORSDOF 1
ENDMDL
MODEL 4
REMARK VINA RESULT:      -3.6     12.922     13.973
REMARK  1 active torsions:
REMARK  status: ('A' for Active; 'I' for Inactive)
REMARK    1  A    between atoms: C7_7  and  C8_8 
ROOT
HETATM    1  C1  UNL     1     -35.322  14.154  -4.933  1.00 20.00     0.064 C 
HETATM    2  C2  UNL     1     -33.575  16.227  -3.297  1.00 20.00     0.002 C 
HETATM    3  C3  UNL     1     -33.138  15.065  -4.188  1.00 20.00     0.019 C 
HETATM    4  C4  UNL     1     -33.771  17.507  -4.103  1.00 20.00     0.005 C 
HETATM    5  C5  UNL     1     -34.379  16.120  -6.140  1.00 20.00     0.024 C 
HETATM    6  C6  UNL     1     -34.084  14.824  -5.370  1.00 20.00     0.093 C 
HETATM    7  C7  UNL     1     -34.751  17.336  -5.271  1.00 20.00    -0.003 C 
HETATM    8  N9  UNL     1     -36.297  13.626  -4.590  1.00 20.00    -0.197 NA
ENDROOT
BRANCH   7   9
HETATM    9  C8  UNL     1     -36.203  17.297  -4.789  1.00 20.00     0.089 C 
HETATM   10 BR10 UNL     1     -37.381  17.051  -6.310  1.00 20.00    -0.096 Br
ENDBRANCH   7   9
TORSDOF 1
ENDMDL
MODEL 5
REMARK VINA RESULT:      -3.5     12.822     14.166
REMARK  1 active torsions:
REMARK  status: ('A' for Active; 'I' for Inactive)
REMARK    1  A    between atoms: C7_7  and  C8_8 
ROOT
HETATM    1  C1  UNL     1     -36.060  14.014  -4.955  1.00 20.00     0.064 C 
HETATM    2  C2  UNL     1     -34.384  15.541  -7.164  1.00 20.00     0.002 C 
HETATM    3  C3  UNL     1     -35.874  15.208  -7.121  1.00 20.00     0.019 C 
HETATM    4  C4  UNL     1     -34.088  16.868  -6.471  1.00 20.00     0.005 C 
HETATM    5  C5  UNL     1     -36.084  16.505  -4.946  1.00 20.00     0.024 C 
HETATM    6  C6  UNL     1     -36.454  15.220  -5.702  1.00 20.00     0.093 C 
HETATM    7  C7  UNL     1     -34.602  16.917  -5.026  1.00 20.00    -0.003 C 
HETATM    8  N9  UNL     1     -35.751  13.063  -4.365  1.00 20.00    -0.197 NA
ENDROOT
BRANCH   7   9
HETATM    9  C8  UNL     1     -33.711  16.109  -4.080  1.00 20.00     0.089 C 
HETATM   10 BR10 UNL     1     -33.450  17.101  -2.435  1.00 20.00    -0.096 Br
ENDBRANCH   7   9
TORSDOF 1
ENDMDL
MODEL 6
REMARK VINA RESULT:      -3.3     12.857     14.110
REMARK  1 active torsions:
REMARK  status: ('A' for Active; 'I' for Inactive)
REMARK    1  A    between atoms: C7_7  and  C8_8 
ROOT
HETATM    1  C1  UNL     1     -35.724  18.513  -3.649  1.00 20.00     0.064 C 
HETATM    2  C2  UNL     1     -34.468  15.722  -4.459  1.00 20.00     0.002 C 
HETATM    3  C3  UNL     1     -34.707  16.971  -5.305  1.00 20.00     0.019 C 
HETATM    4  C4  UNL     1     -33.114  15.773  -3.757  1.00 20.00     0.005 C 
HETATM    5  C5  UNL     1     -33.241  18.307  -3.715  1.00 20.00     0.024 C 
HETATM    6  C6  UNL     1     -34.554  18.274  -4.512  1.00 20.00     0.093 C 
HETATM    7  C7  UNL     1     -32.927  17.035  -2.905  1.00 20.00    -0.003 C 
HETATM    8  N9  UNL     1     -36.645  18.703  -2.969  1.00 20.00    -0.197 NA
ENDROOT
BRANCH   7   9
HETATM    9  C8  UNL     1     -33.715  16.956  -1.596  1.00 20.00     0.089 C 
HETATM   10 BR10 UNL     1     -33.215  18.439  -0.452  1.00 20.00    -0.096 Br
ENDBRANCH   7   9
TORSDOF 1
ENDMDL
MODEL 7
REMARK VINA RESULT:      -3.3     12.819     14.076
REMARK  1 active torsions:
REMARK  status: ('A' for Active; 'I' for Inactive)
REMARK    1  A    between atoms: C7_7  and  C8_8 
ROOT
HETATM    1  C1  UNL     1     -37.100  16.482  -5.430  1.00 20.00     0.064 C 
HETATM    2  C2  UNL     1     -35.038  14.289  -4.449  1.00 20.00     0.002 C 
HETATM    3  C3  UNL     1     -35.778  14.413  -5.779  1.00 20.00     0.019 C 
HETATM    4  C4  UNL     1     -33.724  15.065  -4.465  1.00 20.00     0.005 C 
HETATM    5  C5  UNL     1     -34.720  16.697  -6.136  1.00 20.00     0.024 C 
HETATM    6  C6  UNL     1     -36.011  15.866  -6.207  1.00 20.00     0.093 C 
HETATM    7  C7  UNL     1     -33.906  16.543  -4.838  1.00 20.00    -0.003 C 
HETATM    8  N9  UNL     1     -37.959  16.968  -4.819  1.00 20.00    -0.197 NA
ENDROOT
BRANCH   7   9
HETATM    9  C8  UNL     1     -34.485  17.352  -3.675  1.00 20.00     0.089 C 
HETATM   10 BR10 UNL     1     -33.426  17.042  -2.082  1.00 20.00    -0.096 Br
ENDBRANCH   7   9
TORSDOF 1
ENDMDL
MODEL 8
REMARK VINA RESULT:      -3.3     10.236     11.087
REMARK  1 active torsions:
REMARK  status: ('A' for Active; 'I' for Inactive)
REMARK    1  A    between atoms: C7_7  and  C8_8 
ROOT
HETATM    1  C1  UNL     1     -42.328  14.270   4.477  1.00 20.00     0.064 C 
HETATM    2  C2  UNL     1     -41.353  15.772   7.088  1.00 20.00     0.002 C 
HETATM    3  C3  UNL     1     -42.768  15.430   6.625  1.00 20.00     0.019 C 
HETATM    4  C4  UNL     1     -40.738  14.633   7.894  1.00 20.00     0.005 C 
HETATM    5  C5  UNL     1     -42.143  12.967   6.593  1.00 20.00     0.024 C 
HETATM    6  C6  UNL     1     -42.845  14.111   5.847  1.00 20.00     0.093 C 
HETATM    7  C7  UNL     1     -40.741  13.296   7.140  1.00 20.00    -0.003 C 
HETATM    8  N9  UNL     1     -41.921  14.394   3.397  1.00 20.00    -0.197 NA
ENDROOT
BRANCH   7   9
HETATM    9  C8  UNL     1     -39.658  13.252   6.061  1.00 20.00     0.089 C 
HETATM   10 BR10 UNL     1     -39.668  11.511   5.207  1.00 20.00    -0.096 Br
ENDBRANCH   7   9
TORSDOF 1
ENDMDL
MODEL 9
REMARK VINA RESULT:      -3.3     10.448     11.250
REMARK  1 active torsions:
REMARK  status: ('A' for Active; 'I' for Inactive)
REMARK    1  A    between atoms: C7_7  and  C8_8 
ROOT
HETATM    1  C1  UNL     1     -40.884  15.401   8.440  1.00 20.00     0.064 C 
HETATM    2  C2  UNL     1     -42.973  13.036   8.177  1.00 20.00     0.002 C 
HETATM    3  C3  UNL     1     -43.206  14.542   8.281  1.00 20.00     0.019 C 
HETATM    4  C4  UNL     1     -42.771  12.600   6.729  1.00 20.00     0.005 C 
HETATM    5  C5  UNL     1     -41.809  14.885   6.185  1.00 20.00     0.024 C 
HETATM    6  C6  UNL     1     -42.102  15.370   7.612  1.00 20.00     0.093 C 
HETATM    7  C7  UNL     1     -41.641  13.362   6.025  1.00 20.00    -0.003 C 
HETATM    8  N9  UNL     1     -39.924  15.427   9.091  1.00 20.00    -0.197 NA
ENDROOT
BRANCH   7   9
HETATM    9  C8  UNL     1     -40.262  12.869   6.471  1.00 20.00     0.089 C 
HETATM   10 BR10 UNL     1     -39.431  11.884   5.023  1.00 20.00    -0.096 Br
ENDBRANCH   7   9
TORSDOF 1
ENDMDL
