MODEL 1
REMARK VINA RESULT:      -4.0      0.000      0.000
REMARK  0 active torsions:
REMARK  status: ('A' for Active; 'I' for Inactive)
ROOT
HETATM    1  C1  UNL     1     -31.622  18.824  -0.810  1.00 20.00     0.064 C 
HETATM    2  C2  UNL     1     -34.985  18.775  -3.514  1.00 20.00     0.005 C 
HETATM    3  C3  UNL     1     -33.315  16.915  -3.475  1.00 20.00     0.005 C 
HETATM    4  C4  UNL     1     -35.238  18.564  -2.014  1.00 20.00     0.006 C 
HETATM    5  C5  UNL     1     -33.552  16.732  -1.971  1.00 20.00     0.006 C 
HETATM    6  C6  UNL     1     -32.567  19.263  -3.073  1.00 20.00     0.024 C 
HETATM    7  C7  UNL     1     -32.850  19.136  -1.561  1.00 20.00     0.097 C 
HETATM    8  C8  UNL     1     -33.543  18.382  -3.875  1.00 20.00    -0.013 C 
HETATM    9  C9  UNL     1     -33.950  18.074  -1.323  1.00 20.00     0.003 C 
HETATM   10  N10 UNL     1     -30.654  18.578  -0.218  1.00 20.00    -0.197 NA
ENDROOT
TORSDOF 0
ENDMDL
MODEL 2
REMARK VINA RESULT:      -3.8     14.749     16.032
REMARK  0 active torsions:
REMARK  status: ('A' for Active; 'I' for Inactive)
ROOT
HETATM    1  C1  UNL     1     -42.934   4.641  -1.490  1.00 20.00     0.064 C 
HETATM    2  C2  UNL     1     -41.694   7.726   1.260  1.00 20.00     0.005 C 
HETATM    3  C3  UNL     1     -43.188   5.857   1.984  1.00 20.00     0.005 C 
HETATM    4  C4  UNL     1     -40.657   6.698   0.785  1.00 20.00     0.006 C 
HETATM    5  C5  UNL     1     -42.160   4.838   1.478  1.00 20.00     0.006 C 
HETATM    6  C6  UNL     1     -43.398   6.791  -0.322  1.00 20.00     0.024 C 
HETATM    7  C7  UNL     1     -42.323   5.821  -0.855  1.00 20.00     0.097 C 
HETATM    8  C8  UNL     1     -43.114   7.146   1.150  1.00 20.00    -0.013 C 
HETATM    9  C9  UNL     1     -41.365   5.421   0.292  1.00 20.00     0.003 C 
HETATM   10  N10 UNL     1     -43.415   3.711  -1.991  1.00 20.00    -0.197 NA
ENDROOT
TORSDOF 0
ENDMDL
MODEL 3
REMARK VINA RESULT:      -3.5     14.088     15.346
REMARK  0 active torsions:
REMARK  status: ('A' for Active; 'I' for Inactive)
ROOT
HETATM    1  C1  UNL     1     -42.831   4.717  -1.265  1.00 20.00     0.064 C 
HETATM    2  C2  UNL     1     -41.018   7.533   1.457  1.00 20.00     0.005 C 
HETATM    3  C3  UNL     1     -41.849   8.243  -0.791  1.00 20.00     0.005 C 
HETATM    4  C4  UNL     1     -42.412   6.979   1.785  1.00 20.00     0.006 C 
HETATM    5  C5  UNL     1     -43.230   7.658  -0.466  1.00 20.00     0.006 C 
HETATM    6  C6  UNL     1     -40.825   5.983  -0.503  1.00 20.00     0.024 C 
HETATM    7  C7  UNL     1     -42.187   5.372  -0.113  1.00 20.00     0.097 C 
HETATM    8  C8  UNL     1     -40.753   7.456  -0.055  1.00 20.00    -0.013 C 
HETATM    9  C9  UNL     1     -43.094   6.466   0.502  1.00 20.00     0.003 C 
HETATM   10  N10 UNL     1     -43.338   4.200  -2.172  1.00 20.00    -0.197 NA
ENDROOT
TORSDOF 0
ENDMDL
MODEL 4
REMARK VINA RESULT:      -3.4      3.292      4.666
REMARK  0 active torsions:
REMARK  status: ('A' for Active; 'I' for Inactive)
ROOT
HETATM    1  C1  UNL     1     -33.636  16.240  -3.376  1.00 20.00     0.064 C 
HETATM    2  C2  UNL     1     -35.363  15.165  -7.182  1.00 20.00     0.005 C 
HETATM    3  C3  UNL     1     -36.786  15.922  -5.270  1.00 20.00     0.005 C 
HETATM    4  C4  UNL     1     -34.552  16.465  -7.077  1.00 20.00     0.006 C 
HETATM    5  C5  UNL     1     -35.951  17.203  -5.154  1.00 20.00     0.006 C 
HETATM    6  C6  UNL     1     -34.745  14.551  -4.832  1.00 20.00     0.024 C 
HETATM    7  C7  UNL     1     -33.862  15.814  -4.768  1.00 20.00     0.097 C 
HETATM    8  C8  UNL     1     -35.920  14.769  -5.804  1.00 20.00    -0.013 C 
HETATM    9  C9  UNL     1     -34.502  16.942  -5.613  1.00 20.00     0.003 C 
HETATM   10  N10 UNL     1     -33.457  16.576  -2.279  1.00 20.00    -0.197 NA
ENDROOT
TORSDOF 0
ENDMDL
MODEL 5
REMARK VINA RESULT:      -3.4     14.865     16.156
REMARK  0 active torsions:
REMARK  status: ('A' for Active; 'I' for Inactive)
ROOT
HETATM    1  C1  UNL     1     -42.999   4.524  -1.785  1.00 20.00     0.064 C 
HETATM    2  C2  UNL     1     -43.135   6.877   1.830  1.00 20.00     0.005 C 
HETATM    3  C3  UNL     1     -40.977   5.994   0.928  1.00 20.00     0.005 C 
HETATM    4  C4  UNL     1     -43.400   7.570   0.485  1.00 20.00     0.006 C 
HETATM    5  C5  UNL     1     -41.265   6.664  -0.421  1.00 20.00     0.006 C 
HETATM    6  C6  UNL     1     -43.063   4.640   0.702  1.00 20.00     0.024 C 
HETATM    7  C7  UNL     1     -43.417   5.336  -0.629  1.00 20.00     0.097 C 
HETATM    8  C8  UNL     1     -42.293   5.607   1.622  1.00 20.00    -0.013 C 
HETATM    9  C9  UNL     1     -42.785   6.748  -0.665  1.00 20.00     0.003 C 
HETATM   10  N10 UNL     1     -42.671   3.885  -2.697  1.00 20.00    -0.197 NA
ENDROOT
TORSDOF 0
ENDMDL
MODEL 6
REMARK VINA RESULT:      -3.3     23.995     25.320
REMARK  0 active torsions:
REMARK  status: ('A' for Active; 'I' for Inactive)
ROOT
HETATM    1  C1  UNL     1     -25.117  -1.750  11.588  1.00 20.00     0.064 C 
HETATM    2  C2  UNL     1     -29.078  -3.298  10.853  1.00 20.00     0.005 C 
HETATM    3  C3  UNL     1     -28.708  -1.293  12.301  1.00 20.00     0.005 C 
HETATM    4  C4  UNL     1     -28.334  -2.594   9.709  1.00 20.00     0.006 C 
HETATM    5  C5  UNL     1     -27.939  -0.611  11.162  1.00 20.00     0.006 C 
HETATM    6  C6  UNL     1     -27.043  -3.154  12.310  1.00 20.00     0.024 C 
HETATM    7  C7  UNL     1     -26.278  -2.528  11.125  1.00 20.00     0.097 C 
HETATM    8  C8  UNL     1     -28.544  -2.819  12.213  1.00 20.00    -0.013 C 
HETATM    9  C9  UNL     1     -27.243  -1.665  10.277  1.00 20.00     0.003 C 
HETATM   10  N10 UNL     1     -24.201  -1.136  11.952  1.00 20.00    -0.197 NA
ENDROOT
TORSDOF 0
ENDMDL
MODEL 7
REMARK VINA RESULT:      -3.2     12.264     13.147
REMARK  0 active torsions:
REMARK  status: ('A' for Active; 'I' for Inactive)
ROOT
HETATM    1  C1  UNL     1     -40.306  14.945   8.835  1.00 20.00     0.064 C 
HETATM    2  C2  UNL     1     -41.797  13.901   4.922  1.00 20.00     0.005 C 
HETATM    3  C3  UNL     1     -42.472  12.620   6.960  1.00 20.00     0.005 C 
HETATM    4  C4  UNL     1     -42.296  15.194   5.583  1.00 20.00     0.006 C 
HETATM    5  C5  UNL     1     -42.939  13.921   7.625  1.00 20.00     0.006 C 
HETATM    6  C6  UNL     1     -40.158  13.540   6.783  1.00 20.00     0.024 C 
HETATM    7  C7  UNL     1     -40.604  14.885   7.393  1.00 20.00     0.097 C 
HETATM    8  C8  UNL     1     -41.315  12.904   5.989  1.00 20.00    -0.013 C 
HETATM    9  C9  UNL     1     -42.108  15.114   7.111  1.00 20.00     0.003 C 
HETATM   10  N10 UNL     1     -40.071  14.993   9.970  1.00 20.00    -0.197 NA
ENDROOT
TORSDOF 0
ENDMDL
MODEL 8
REMARK VINA RESULT:      -3.2     11.974     13.162
REMARK  0 active torsions:
REMARK  status: ('A' for Active; 'I' for Inactive)
ROOT
HETATM    1  C1  UNL     1     -40.126  12.319   5.107  1.00 20.00     0.064 C 
HETATM    2  C2  UNL     1     -42.271  14.019   8.444  1.00 20.00     0.005 C 
HETATM    3  C3  UNL     1     -41.999  15.268   6.295  1.00 20.00     0.005 C 
HETATM    4  C4  UNL     1     -42.906  12.852   7.673  1.00 20.00     0.006 C 
HETATM    5  C5  UNL     1     -42.606  14.085   5.530  1.00 20.00     0.006 C 
HETATM    6  C6  UNL     1     -40.158  13.793   7.115  1.00 20.00     0.024 C 
HETATM    7  C7  UNL     1     -40.772  12.566   6.407  1.00 20.00     0.097 C 
HETATM    8  C8  UNL     1     -41.268  14.768   7.552  1.00 20.00    -0.013 C 
HETATM    9  C9  UNL     1     -42.300  12.760   6.258  1.00 20.00     0.003 C 
HETATM   10  N10 UNL     1     -39.617  12.123   4.082  1.00 20.00    -0.197 NA
ENDROOT
TORSDOF 0
ENDMDL
MODEL 9
REMARK VINA RESULT:      -3.2     12.415     13.462
REMARK  0 active torsions:
REMARK  status: ('A' for Active; 'I' for Inactive)
ROOT
HETATM    1  C1  UNL     1     -40.034  12.670   6.362  1.00 20.00     0.064 C 
HETATM    2  C2  UNL     1     -42.777  15.773   7.575  1.00 20.00     0.005 C 
HETATM    3  C3  UNL     1     -41.854  14.132   9.220  1.00 20.00     0.005 C 
HETATM    4  C4  UNL     1     -41.346  16.163   7.178  1.00 20.00     0.006 C 
HETATM    5  C5  UNL     1     -40.428  14.506   8.795  1.00 20.00     0.006 C 
HETATM    6  C6  UNL     1     -42.357  13.400   6.886  1.00 20.00     0.024 C 
HETATM    7  C7  UNL     1     -40.952  13.821   6.408  1.00 20.00     0.097 C 
HETATM    8  C8  UNL     1     -42.824  14.308   8.040  1.00 20.00    -0.013 C 
HETATM    9  C9  UNL     1     -40.407  14.949   7.318  1.00 20.00     0.003 C 
HETATM   10  N10 UNL     1     -39.310  11.763   6.325  1.00 20.00    -0.197 NA
ENDROOT
TORSDOF 0
ENDMDL
