MODEL 1
REMARK VINA RESULT:      -3.6      0.000      0.000
REMARK  1 active torsions:
REMARK  status: ('A' for Active; 'I' for Inactive)
REMARK    1  A    between atoms: C8_8  and  O10_10 
ROOT
HETATM    1  C1  UNL     1     -35.845  16.764  -7.636  1.00 20.00     0.005 C 
HETATM    2  C2  UNL     1     -36.781  16.746  -5.313  1.00 20.00     0.005 C 
HETATM    3  C3  UNL     1     -35.935  15.233  -7.661  1.00 20.00     0.008 C 
HETATM    4  C4  UNL     1     -36.843  15.213  -5.356  1.00 20.00     0.008 C 
HETATM    5  C5  UNL     1     -34.302  16.698  -5.662  1.00 20.00     0.042 C 
HETATM    6  C6  UNL     1     -35.632  17.264  -6.197  1.00 20.00    -0.012 C 
HETATM    7  C7  UNL     1     -35.704  14.668  -6.242  1.00 20.00     0.019 C 
HETATM    8  C8  UNL     1     -34.328  15.150  -5.702  1.00 20.00     0.058 C 
HETATM    9  C9  UNL     1     -33.984  14.557  -4.334  1.00 20.00     0.046 C 
ENDROOT
BRANCH   8  10
HETATM   10  O10 UNL     1     -33.303  14.718  -6.606  1.00 20.00    -0.390 OA
HETATM   11  H26 UNL     1     -33.756  14.453  -7.418  1.00 20.00     0.210 HD
ENDBRANCH   8  10
TORSDOF 1
ENDMDL
MODEL 2
REMARK VINA RESULT:      -3.5      1.033      2.692
REMARK  1 active torsions:
REMARK  status: ('A' for Active; 'I' for Inactive)
REMARK    1  A    between atoms: C8_8  and  O10_10 
ROOT
HETATM    1  C1  UNL     1     -35.540  14.120  -4.849  1.00 20.00     0.005 C 
HETATM    2  C2  UNL     1     -36.734  16.271  -5.323  1.00 20.00     0.005 C 
HETATM    3  C3  UNL     1     -34.264  14.919  -4.553  1.00 20.00     0.008 C 
HETATM    4  C4  UNL     1     -35.438  17.045  -5.041  1.00 20.00     0.008 C 
HETATM    5  C5  UNL     1     -35.628  15.017  -7.188  1.00 20.00     0.042 C 
HETATM    6  C6  UNL     1     -36.415  14.868  -5.870  1.00 20.00    -0.012 C 
HETATM    7  C7  UNL     1     -34.219  16.187  -5.435  1.00 20.00     0.019 C 
HETATM    8  C8  UNL     1     -34.308  15.787  -6.935  1.00 20.00     0.058 C 
HETATM    9  C9  UNL     1     -34.178  16.984  -7.879  1.00 20.00     0.046 C 
ENDROOT
BRANCH   8  10
HETATM   10  O10 UNL     1     -33.221  14.904  -7.240  1.00 20.00    -0.390 OA
HETATM   11  H26 UNL     1     -32.431  15.310  -6.856  1.00 20.00     0.210 HD
ENDBRANCH   8  10
TORSDOF 1
ENDMDL
MODEL 3
REMARK VINA RESULT:      -3.5     12.099     13.514
REMARK  1 active torsions:
REMARK  status: ('A' for Active; 'I' for Inactive)
REMARK    1  A    between atoms: C8_8  and  O10_10 
ROOT
HETATM    1  C1  UNL     1     -42.602   5.075   1.829  1.00 20.00     0.005 C 
HETATM    2  C2  UNL     1     -42.827   5.329  -0.653  1.00 20.00     0.005 C 
HETATM    3  C3  UNL     1     -43.213   6.471   2.006  1.00 20.00     0.008 C 
HETATM    4  C4  UNL     1     -43.417   6.732  -0.449  1.00 20.00     0.008 C 
HETATM    5  C5  UNL     1     -40.704   6.012   0.487  1.00 20.00     0.042 C 
HETATM    6  C6  UNL     1     -41.853   4.984   0.488  1.00 20.00    -0.012 C 
HETATM    7  C7  UNL     1     -42.816   7.374   0.817  1.00 20.00     0.019 C 
HETATM    8  C8  UNL     1     -41.267   7.438   0.701  1.00 20.00     0.058 C 
HETATM    9  C9  UNL     1     -40.791   8.390  -0.400  1.00 20.00     0.046 C 
ENDROOT
BRANCH   8  10
HETATM   10  O10 UNL     1     -40.734   7.940   1.934  1.00 20.00    -0.390 OA
HETATM   11  H26 UNL     1     -39.809   8.161   1.755  1.00 20.00     0.210 HD
ENDBRANCH   8  10
TORSDOF 1
ENDMDL
MODEL 4
REMARK VINA RESULT:      -3.5      1.398      2.153
REMARK  1 active torsions:
REMARK  status: ('A' for Active; 'I' for Inactive)
REMARK    1  A    between atoms: C8_8  and  O10_10 
ROOT
HETATM    1  C1  UNL     1     -35.939  15.226  -7.220  1.00 20.00     0.005 C 
HETATM    2  C2  UNL     1     -34.460  17.223  -6.907  1.00 20.00     0.005 C 
HETATM    3  C3  UNL     1     -36.588  15.520  -5.861  1.00 20.00     0.008 C 
HETATM    4  C4  UNL     1     -35.111  17.483  -5.541  1.00 20.00     0.008 C 
HETATM    5  C5  UNL     1     -33.686  14.963  -6.153  1.00 20.00     0.042 C 
HETATM    6  C6  UNL     1     -34.482  15.720  -7.236  1.00 20.00    -0.012 C 
HETATM    7  C7  UNL     1     -35.548  16.148  -4.906  1.00 20.00     0.019 C 
HETATM    8  C8  UNL     1     -34.326  15.198  -4.763  1.00 20.00     0.058 C 
HETATM    9  C9  UNL     1     -33.290  15.709  -3.759  1.00 20.00     0.046 C 
ENDROOT
BRANCH   8  10
HETATM   10  O10 UNL     1     -34.783  13.932  -4.271  1.00 20.00    -0.390 OA
HETATM   11  H26 UNL     1     -34.412  13.265  -4.865  1.00 20.00     0.210 HD
ENDBRANCH   8  10
TORSDOF 1
ENDMDL
MODEL 5
REMARK VINA RESULT:      -3.3     12.013     13.290
REMARK  1 active torsions:
REMARK  status: ('A' for Active; 'I' for Inactive)
REMARK    1  A    between atoms: C8_8  and  O10_10 
ROOT
HETATM    1  C1  UNL     1     -41.571   8.099  -0.841  1.00 20.00     0.005 C 
HETATM    2  C2  UNL     1     -40.984   7.239   1.438  1.00 20.00     0.005 C 
HETATM    3  C3  UNL     1     -43.057   7.979  -0.480  1.00 20.00     0.008 C 
HETATM    4  C4  UNL     1     -42.479   7.108   1.766  1.00 20.00     0.008 C 
HETATM    5  C5  UNL     1     -41.224   5.644  -0.478  1.00 20.00     0.042 C 
HETATM    6  C6  UNL     1     -40.747   7.052  -0.072  1.00 20.00    -0.012 C 
HETATM    7  C7  UNL     1     -43.271   6.789   0.483  1.00 20.00     0.019 C 
HETATM    8  C8  UNL     1     -42.733   5.484  -0.168  1.00 20.00     0.058 C 
HETATM    9  C9  UNL     1     -42.991   4.242   0.688  1.00 20.00     0.046 C 
ENDROOT
BRANCH   8  10
HETATM   10  O10 UNL     1     -43.416   5.274  -1.411  1.00 20.00    -0.390 OA
HETATM   11  H26 UNL     1     -43.587   4.323  -1.464  1.00 20.00     0.210 HD
ENDBRANCH   8  10
TORSDOF 1
ENDMDL
MODEL 6
REMARK VINA RESULT:      -3.3      1.852      3.109
REMARK  1 active torsions:
REMARK  status: ('A' for Active; 'I' for Inactive)
REMARK    1  A    between atoms: C8_8  and  O10_10 
ROOT
HETATM    1  C1  UNL     1     -35.740  14.464  -5.221  1.00 20.00     0.005 C 
HETATM    2  C2  UNL     1     -33.917  15.267  -6.740  1.00 20.00     0.005 C 
HETATM    3  C3  UNL     1     -36.599  15.658  -5.657  1.00 20.00     0.008 C 
HETATM    4  C4  UNL     1     -34.789  16.464  -7.143  1.00 20.00     0.008 C 
HETATM    5  C5  UNL     1     -33.958  15.992  -4.343  1.00 20.00     0.042 C 
HETATM    6  C6  UNL     1     -34.246  14.821  -5.304  1.00 20.00    -0.012 C 
HETATM    7  C7  UNL     1     -35.695  16.873  -5.965  1.00 20.00     0.019 C 
HETATM    8  C8  UNL     1     -34.831  17.214  -4.718  1.00 20.00     0.058 C 
HETATM    9  C9  UNL     1     -33.973  18.466  -4.914  1.00 20.00     0.046 C 
ENDROOT
BRANCH   8  10
HETATM   10  O10 UNL     1     -35.704  17.484  -3.614  1.00 20.00    -0.390 OA
HETATM   11  H26 UNL     1     -35.177  17.344  -2.815  1.00 20.00     0.210 HD
ENDBRANCH   8  10
TORSDOF 1
ENDMDL
MODEL 7
REMARK VINA RESULT:      -3.3      1.502      2.331
REMARK  1 active torsions:
REMARK  status: ('A' for Active; 'I' for Inactive)
REMARK    1  A    between atoms: C8_8  and  O10_10 
ROOT
HETATM    1  C1  UNL     1     -35.504  15.262  -7.138  1.00 20.00     0.005 C 
HETATM    2  C2  UNL     1     -35.989  14.297  -4.877  1.00 20.00     0.005 C 
HETATM    3  C3  UNL     1     -34.005  15.195  -6.821  1.00 20.00     0.008 C 
HETATM    4  C4  UNL     1     -34.484  14.260  -4.577  1.00 20.00     0.008 C 
HETATM    5  C5  UNL     1     -35.908  16.781  -5.186  1.00 20.00     0.042 C 
HETATM    6  C6  UNL     1     -36.317  15.448  -5.845  1.00 20.00    -0.012 C 
HETATM    7  C7  UNL     1     -33.775  15.417  -5.309  1.00 20.00     0.019 C 
HETATM    8  C8  UNL     1     -34.390  16.779  -4.879  1.00 20.00     0.058 C 
HETATM    9  C9  UNL     1     -34.123  17.115  -3.410  1.00 20.00     0.046 C 
ENDROOT
BRANCH   8  10
HETATM   10  O10 UNL     1     -33.785  17.822  -5.655  1.00 20.00    -0.390 OA
HETATM   11  H26 UNL     1     -33.040  18.146  -5.130  1.00 20.00     0.210 HD
ENDBRANCH   8  10
TORSDOF 1
ENDMDL
MODEL 8
REMARK VINA RESULT:      -3.3     13.456     14.663
REMARK  1 active torsions:
REMARK  status: ('A' for Active; 'I' for Inactive)
REMARK    1  A    between atoms: C8_8  and  O10_10 
ROOT
HETATM    1  C1  UNL     1     -42.440  13.975   8.495  1.00 20.00     0.005 C 
HETATM    2  C2  UNL     1     -43.324  14.251   6.167  1.00 20.00     0.005 C 
HETATM    3  C3  UNL     1     -41.203  14.791   8.099  1.00 20.00     0.008 C 
HETATM    4  C4  UNL     1     -42.065  15.047   5.791  1.00 20.00     0.008 C 
HETATM    5  C5  UNL     1     -41.934  12.250   6.749  1.00 20.00     0.042 C 
HETATM    6  C6  UNL     1     -43.004  13.229   7.273  1.00 20.00    -0.012 C 
HETATM    7  C7  UNL     1     -40.862  14.543   6.613  1.00 20.00     0.019 C 
HETATM    8  C8  UNL     1     -40.647  13.022   6.369  1.00 20.00     0.058 C 
HETATM    9  C9  UNL     1     -40.215  12.704   4.936  1.00 20.00     0.046 C 
ENDROOT
BRANCH   8  10
HETATM   10  O10 UNL     1     -39.593  12.564   7.226  1.00 20.00    -0.390 OA
HETATM   11  H26 UNL     1     -39.243  11.762   6.814  1.00 20.00     0.210 HD
ENDBRANCH   8  10
TORSDOF 1
ENDMDL
MODEL 9
REMARK VINA RESULT:      -3.2     24.640     26.209
REMARK  1 active torsions:
REMARK  status: ('A' for Active; 'I' for Inactive)
REMARK    1  A    between atoms: C8_8  and  O10_10 
ROOT
HETATM    1  C1  UNL     1     -28.737  -2.627  10.862  1.00 20.00     0.005 C 
HETATM    2  C2  UNL     1     -27.663  -0.467  10.187  1.00 20.00     0.005 C 
HETATM    3  C3  UNL     1     -28.308  -2.363  12.311  1.00 20.00     0.008 C 
HETATM    4  C4  UNL     1     -27.227  -0.237  11.641  1.00 20.00     0.008 C 
HETATM    5  C5  UNL     1     -26.353  -2.600  10.089  1.00 20.00     0.042 C 
HETATM    6  C6  UNL     1     -27.747  -1.974   9.882  1.00 20.00    -0.012 C 
HETATM    7  C7  UNL     1     -26.969  -1.591  12.332  1.00 20.00     0.019 C 
HETATM    8  C8  UNL     1     -25.889  -2.393  11.552  1.00 20.00     0.058 C 
HETATM    9  C9  UNL     1     -24.508  -1.736  11.604  1.00 20.00     0.046 C 
ENDROOT
BRANCH   8  10
HETATM   10  O10 UNL     1     -25.751  -3.686  12.155  1.00 20.00    -0.390 OA
HETATM   11  H26 UNL     1     -24.841  -3.964  11.984  1.00 20.00     0.210 HD
ENDBRANCH   8  10
TORSDOF 1
ENDMDL
