MODEL 1
REMARK VINA RESULT:      -4.6      0.000      0.000
REMARK  3 active torsions:
REMARK  status: ('A' for Active; 'I' for Inactive)
REMARK    1  A    between atoms: C2_2  and  C8_8 
REMARK    2  A    between atoms: C4_4  and  C7_7 
REMARK    3  A    between atoms: C7_7  and  C8_8 
ROOT
HETATM    1  C7  UNL     1     -32.597   8.033   4.605  1.00 20.00     0.034 C 
ENDROOT
BRANCH   1   2
HETATM    2  C4  UNL     1     -32.294   7.946   3.134  1.00 20.00    -0.030 C 
HETATM    3  C3  UNL     1     -32.669   8.871   2.239  1.00 20.00    -0.035 C 
HETATM    4  C5  UNL     1     -32.366   8.786   0.779  1.00 20.00     0.035 C 
ENDBRANCH   1   2
BRANCH   1   5
HETATM    5  C8  UNL     1     -33.927   7.350   4.979  1.00 20.00     0.007 C 
HETATM    6  C6  UNL     1     -33.995   7.134   6.494  1.00 20.00     0.014 C 
BRANCH   5   7
HETATM    7  C2  UNL     1     -34.084   6.023   4.278  1.00 20.00    -0.032 C 
HETATM    8  C1  UNL     1     -34.666   4.951   4.827  1.00 20.00     0.007 C 
ENDBRANCH   5   7
ENDBRANCH   1   5
TORSDOF 3
ENDMDL
MODEL 2
REMARK VINA RESULT:      -4.5      1.348      2.627
REMARK  3 active torsions:
REMARK  status: ('A' for Active; 'I' for Inactive)
REMARK    1  A    between atoms: C2_2  and  C8_8 
REMARK    2  A    between atoms: C4_4  and  C7_7 
REMARK    3  A    between atoms: C7_7  and  C8_8 
ROOT
HETATM    1  C7  UNL     1     -33.660   4.621   4.119  1.00 20.00     0.034 C 
ENDROOT
BRANCH   1   2
HETATM    2  C4  UNL     1     -33.357   5.629   3.044  1.00 20.00    -0.030 C 
HETATM    3  C3  UNL     1     -32.498   6.646   3.195  1.00 20.00    -0.035 C 
HETATM    4  C5  UNL     1     -32.196   7.645   2.127  1.00 20.00     0.035 C 
ENDBRANCH   1   2
BRANCH   1   5
HETATM    5  C8  UNL     1     -34.840   5.044   5.016  1.00 20.00     0.007 C 
HETATM    6  C6  UNL     1     -35.724   6.051   4.275  1.00 20.00     0.014 C 
BRANCH   5   7
HETATM    7  C2  UNL     1     -34.360   5.658   6.308  1.00 20.00    -0.032 C 
HETATM    8  C1  UNL     1     -34.124   6.964   6.474  1.00 20.00     0.007 C 
ENDBRANCH   5   7
ENDBRANCH   1   5
TORSDOF 3
ENDMDL
MODEL 3
REMARK VINA RESULT:      -4.5      1.112      1.654
REMARK  3 active torsions:
REMARK  status: ('A' for Active; 'I' for Inactive)
REMARK    1  A    between atoms: C2_2  and  C8_8 
REMARK    2  A    between atoms: C4_4  and  C7_7 
REMARK    3  A    between atoms: C7_7  and  C8_8 
ROOT
HETATM    1  C7  UNL     1     -33.648   7.314   5.849  1.00 20.00     0.034 C 
ENDROOT
BRANCH   1   2
HETATM    2  C4  UNL     1     -33.584   8.155   4.603  1.00 20.00    -0.030 C 
HETATM    3  C3  UNL     1     -32.544   8.160   3.759  1.00 20.00    -0.035 C 
HETATM    4  C5  UNL     1     -32.481   8.994   2.521  1.00 20.00     0.035 C 
ENDBRANCH   1   2
BRANCH   1   5
HETATM    5  C8  UNL     1     -34.703   6.194   5.756  1.00 20.00     0.007 C 
HETATM    6  C6  UNL     1     -34.384   5.092   6.771  1.00 20.00     0.014 C 
BRANCH   5   7
HETATM    7  C2  UNL     1     -34.755   5.596   4.371  1.00 20.00    -0.032 C 
HETATM    8  C1  UNL     1     -33.981   4.585   3.963  1.00 20.00     0.007 C 
ENDBRANCH   5   7
ENDBRANCH   1   5
TORSDOF 3
ENDMDL
MODEL 4
REMARK VINA RESULT:      -4.1      1.297      3.838
REMARK  3 active torsions:
REMARK  status: ('A' for Active; 'I' for Inactive)
REMARK    1  A    between atoms: C2_2  and  C8_8 
REMARK    2  A    between atoms: C4_4  and  C7_7 
REMARK    3  A    between atoms: C7_7  and  C8_8 
ROOT
HETATM    1  C7  UNL     1     -32.467   8.277   4.021  1.00 20.00     0.034 C 
ENDROOT
BRANCH   1   2
HETATM    2  C4  UNL     1     -33.630   7.755   4.819  1.00 20.00    -0.030 C 
HETATM    3  C3  UNL     1     -33.501   7.016   5.930  1.00 20.00    -0.035 C 
HETATM    4  C5  UNL     1     -34.656   6.499   6.723  1.00 20.00     0.035 C 
ENDBRANCH   1   2
BRANCH   1   5
HETATM    5  C8  UNL     1     -32.117   7.376   2.821  1.00 20.00     0.007 C 
HETATM    6  C6  UNL     1     -32.102   8.205   1.533  1.00 20.00     0.014 C 
BRANCH   5   7
HETATM    7  C2  UNL     1     -33.103   6.243   2.673  1.00 20.00    -0.032 C 
HETATM    8  C1  UNL     1     -32.759   4.950   2.658  1.00 20.00     0.007 C 
ENDBRANCH   5   7
ENDBRANCH   1   5
TORSDOF 3
ENDMDL
MODEL 5
REMARK VINA RESULT:      -4.1      0.999      4.298
REMARK  3 active torsions:
REMARK  status: ('A' for Active; 'I' for Inactive)
REMARK    1  A    between atoms: C2_2  and  C8_8 
REMARK    2  A    between atoms: C4_4  and  C7_7 
REMARK    3  A    between atoms: C7_7  and  C8_8 
ROOT
HETATM    1  C7  UNL     1     -32.550   8.570   4.606  1.00 20.00     0.034 C 
ENDROOT
BRANCH   1   2
HETATM    2  C4  UNL     1     -33.224   7.664   5.601  1.00 20.00    -0.030 C 
HETATM    3  C3  UNL     1     -34.102   6.709   5.265  1.00 20.00    -0.035 C 
HETATM    4  C5  UNL     1     -34.770   5.810   6.252  1.00 20.00     0.035 C 
ENDBRANCH   1   2
BRANCH   1   5
HETATM    5  C8  UNL     1     -32.914   8.228   3.148  1.00 20.00     0.007 C 
HETATM    6  C6  UNL     1     -32.011   7.102   2.634  1.00 20.00     0.014 C 
BRANCH   5   7
HETATM    7  C2  UNL     1     -32.775   9.430   2.247  1.00 20.00    -0.032 C 
HETATM    8  C1  UNL     1     -32.727   9.363   0.912  1.00 20.00     0.007 C 
ENDBRANCH   5   7
ENDBRANCH   1   5
TORSDOF 3
ENDMDL
MODEL 6
REMARK VINA RESULT:      -3.9      1.260      3.987
REMARK  3 active torsions:
REMARK  status: ('A' for Active; 'I' for Inactive)
REMARK    1  A    between atoms: C2_2  and  C8_8 
REMARK    2  A    between atoms: C4_4  and  C7_7 
REMARK    3  A    between atoms: C7_7  and  C8_8 
ROOT
HETATM    1  C7  UNL     1     -33.563   8.583   4.966  1.00 20.00     0.034 C 
ENDROOT
BRANCH   1   2
HETATM    2  C4  UNL     1     -33.582   7.305   5.760  1.00 20.00    -0.030 C 
HETATM    3  C3  UNL     1     -34.534   6.369   5.643  1.00 20.00    -0.035 C 
HETATM    4  C5  UNL     1     -34.552   5.099   6.430  1.00 20.00     0.035 C 
ENDBRANCH   1   2
BRANCH   1   5
HETATM    5  C8  UNL     1     -32.419   8.624   3.934  1.00 20.00     0.007 C 
HETATM    6  C6  UNL     1     -32.858   9.415   2.699  1.00 20.00     0.014 C 
BRANCH   5   7
HETATM    7  C2  UNL     1     -32.001   7.236   3.515  1.00 20.00    -0.032 C 
HETATM    8  C1  UNL     1     -32.511   6.587   2.462  1.00 20.00     0.007 C 
ENDBRANCH   5   7
ENDBRANCH   1   5
TORSDOF 3
ENDMDL
MODEL 7
REMARK VINA RESULT:      -3.9      0.982      1.575
REMARK  3 active torsions:
REMARK  status: ('A' for Active; 'I' for Inactive)
REMARK    1  A    between atoms: C2_2  and  C8_8 
REMARK    2  A    between atoms: C4_4  and  C7_7 
REMARK    3  A    between atoms: C7_7  and  C8_8 
ROOT
HETATM    1  C7  UNL     1     -32.808   8.546   4.192  1.00 20.00     0.034 C 
ENDROOT
BRANCH   1   2
HETATM    2  C4  UNL     1     -32.508   8.502   2.718  1.00 20.00    -0.030 C 
HETATM    3  C3  UNL     1     -32.948   9.413   1.840  1.00 20.00    -0.035 C 
HETATM    4  C5  UNL     1     -32.648   9.370   0.377  1.00 20.00     0.035 C 
ENDBRANCH   1   2
BRANCH   1   5
HETATM    5  C8  UNL     1     -32.988   7.143   4.804  1.00 20.00     0.007 C 
HETATM    6  C6  UNL     1     -33.493   6.168   3.737  1.00 20.00     0.014 C 
BRANCH   5   7
HETATM    7  C2  UNL     1     -33.959   7.164   5.960  1.00 20.00    -0.032 C 
HETATM    8  C1  UNL     1     -34.595   6.082   6.423  1.00 20.00     0.007 C 
ENDBRANCH   5   7
ENDBRANCH   1   5
TORSDOF 3
ENDMDL
MODEL 8
REMARK VINA RESULT:      -3.9      1.114      4.418
REMARK  3 active torsions:
REMARK  status: ('A' for Active; 'I' for Inactive)
REMARK    1  A    between atoms: C2_2  and  C8_8 
REMARK    2  A    between atoms: C4_4  and  C7_7 
REMARK    3  A    between atoms: C7_7  and  C8_8 
ROOT
HETATM    1  C7  UNL     1     -33.003   6.336   2.960  1.00 20.00     0.034 C 
ENDROOT
BRANCH   1   2
HETATM    2  C4  UNL     1     -33.704   6.373   4.291  1.00 20.00    -0.030 C 
HETATM    3  C3  UNL     1     -34.283   5.306   4.859  1.00 20.00    -0.035 C 
HETATM    4  C5  UNL     1     -34.977   5.343   6.181  1.00 20.00     0.035 C 
ENDBRANCH   1   2
BRANCH   1   5
HETATM    5  C8  UNL     1     -32.092   7.559   2.734  1.00 20.00     0.007 C 
HETATM    6  C6  UNL     1     -32.456   8.672   3.722  1.00 20.00     0.014 C 
BRANCH   5   7
HETATM    7  C2  UNL     1     -32.212   8.085   1.324  1.00 20.00    -0.032 C 
HETATM    8  C1  UNL     1     -32.706   9.289   1.014  1.00 20.00     0.007 C 
ENDBRANCH   5   7
ENDBRANCH   1   5
TORSDOF 3
ENDMDL
MODEL 9
REMARK VINA RESULT:      -3.8      1.734      3.179
REMARK  3 active torsions:
REMARK  status: ('A' for Active; 'I' for Inactive)
REMARK    1  A    between atoms: C2_2  and  C8_8 
REMARK    2  A    between atoms: C4_4  and  C7_7 
REMARK    3  A    between atoms: C7_7  and  C8_8 
ROOT
HETATM    1  C7  UNL     1     -34.813   6.145   4.690  1.00 20.00     0.034 C 
ENDROOT
BRANCH   1   2
HETATM    2  C4  UNL     1     -34.173   5.100   3.818  1.00 20.00    -0.030 C 
HETATM    3  C3  UNL     1     -33.241   5.369   2.893  1.00 20.00    -0.035 C 
HETATM    4  C5  UNL     1     -32.605   4.331   2.028  1.00 20.00     0.035 C 
ENDBRANCH   1   2
BRANCH   1   5
HETATM    5  C8  UNL     1     -33.794   6.879   5.584  1.00 20.00     0.007 C 
HETATM    6  C6  UNL     1     -34.331   6.981   7.014  1.00 20.00     0.014 C 
BRANCH   5   7
HETATM    7  C2  UNL     1     -33.497   8.264   5.062  1.00 20.00    -0.032 C 
HETATM    8  C1  UNL     1     -32.359   8.603   4.444  1.00 20.00     0.007 C 
ENDBRANCH   5   7
ENDBRANCH   1   5
TORSDOF 3
ENDMDL
