MODEL 1
REMARK VINA RESULT:      -3.7      0.000      0.000
REMARK  2 active torsions:
REMARK  status: ('A' for Active; 'I' for Inactive)
REMARK    1  A    between atoms: C1_1  and  C3_3 
REMARK    2  A    between atoms: C1_1  and  O5_5 
ROOT
HETATM    1  C1  UNL     1     -33.476   6.959   4.155  1.00 20.00     0.291 C 
HETATM    2  O4  UNL     1     -32.687   6.623   3.281  1.00 20.00    -0.262 OA
ENDROOT
BRANCH   1   3
HETATM    3  C3  UNL     1     -34.500   6.061   4.797  1.00 20.00     0.277 C 
HETATM    4 CL6  UNL     1     -34.141   4.370   4.410  1.00 20.00    -0.097 Cl
HETATM    5 CL7  UNL     1     -34.445   6.333   6.544  1.00 20.00    -0.097 Cl
ENDBRANCH   1   3
BRANCH   1   6
HETATM    6  O5  UNL     1     -33.548   8.201   4.723  1.00 20.00    -0.324 OA
HETATM    7  C2  UNL     1     -32.306   8.905   4.830  1.00 20.00     0.213 C 
ENDBRANCH   1   6
TORSDOF 2
ENDMDL
MODEL 2
REMARK VINA RESULT:      -3.6      0.906      1.523
REMARK  2 active torsions:
REMARK  status: ('A' for Active; 'I' for Inactive)
REMARK    1  A    between atoms: C1_1  and  C3_3 
REMARK    2  A    between atoms: C1_1  and  O5_5 
ROOT
HETATM    1  C1  UNL     1     -33.745   7.039   4.673  1.00 20.00     0.291 C 
HETATM    2  O4  UNL     1     -33.740   8.089   5.301  1.00 20.00    -0.262 OA
ENDROOT
BRANCH   1   3
HETATM    3  C3  UNL     1     -34.668   5.876   4.926  1.00 20.00     0.277 C 
HETATM    4 CL6  UNL     1     -34.044   4.429   4.118  1.00 20.00    -0.097 Cl
HETATM    5 CL7  UNL     1     -34.767   5.629   6.675  1.00 20.00    -0.097 Cl
ENDBRANCH   1   3
BRANCH   1   6
HETATM    6  O5  UNL     1     -32.935   6.745   3.611  1.00 20.00    -0.324 OA
HETATM    7  C2  UNL     1     -32.103   7.817   3.154  1.00 20.00     0.213 C 
ENDBRANCH   1   6
TORSDOF 2
ENDMDL
MODEL 3
REMARK VINA RESULT:      -3.6      2.476      3.569
REMARK  2 active torsions:
REMARK  status: ('A' for Active; 'I' for Inactive)
REMARK    1  A    between atoms: C1_1  and  C3_3 
REMARK    2  A    between atoms: C1_1  and  O5_5 
ROOT
HETATM    1  C1  UNL     1     -33.821   7.055   5.263  1.00 20.00     0.291 C 
HETATM    2  O4  UNL     1     -33.509   6.993   6.445  1.00 20.00    -0.262 OA
ENDROOT
BRANCH   1   3
HETATM    3  C3  UNL     1     -33.237   8.012   4.257  1.00 20.00     0.277 C 
HETATM    4 CL6  UNL     1     -32.164   9.160   5.075  1.00 20.00    -0.097 Cl
HETATM    5 CL7  UNL     1     -32.348   7.065   3.056  1.00 20.00    -0.097 Cl
ENDBRANCH   1   3
BRANCH   1   6
HETATM    6  O5  UNL     1     -34.734   6.251   4.640  1.00 20.00    -0.324 OA
HETATM    7  C2  UNL     1     -34.587   4.847   4.881  1.00 20.00     0.213 C 
ENDBRANCH   1   6
TORSDOF 2
ENDMDL
MODEL 4
REMARK VINA RESULT:      -3.5      2.433      3.042
REMARK  2 active torsions:
REMARK  status: ('A' for Active; 'I' for Inactive)
REMARK    1  A    between atoms: C1_1  and  C3_3 
REMARK    2  A    between atoms: C1_1  and  O5_5 
ROOT
HETATM    1  C1  UNL     1     -32.775   7.760   4.209  1.00 20.00     0.291 C 
HETATM    2  O4  UNL     1     -32.444   8.856   4.642  1.00 20.00    -0.262 OA
ENDROOT
BRANCH   1   3
HETATM    3  C3  UNL     1     -32.142   7.061   3.035  1.00 20.00     0.277 C 
HETATM    4 CL6  UNL     1     -32.977   5.528   2.729  1.00 20.00    -0.097 Cl
HETATM    5 CL7  UNL     1     -32.260   8.133   1.632  1.00 20.00    -0.097 Cl
ENDBRANCH   1   3
BRANCH   1   6
HETATM    6  O5  UNL     1     -33.757   6.964   4.729  1.00 20.00    -0.324 OA
HETATM    7  C2  UNL     1     -33.914   7.027   6.151  1.00 20.00     0.213 C 
ENDBRANCH   1   6
TORSDOF 2
ENDMDL
MODEL 5
REMARK VINA RESULT:      -3.4      1.884      2.947
REMARK  2 active torsions:
REMARK  status: ('A' for Active; 'I' for Inactive)
REMARK    1  A    between atoms: C1_1  and  C3_3 
REMARK    2  A    between atoms: C1_1  and  O5_5 
ROOT
HETATM    1  C1  UNL     1     -33.493   6.657   3.968  1.00 20.00     0.291 C 
HETATM    2  O4  UNL     1     -32.576   6.582   3.161  1.00 20.00    -0.262 OA
ENDROOT
BRANCH   1   3
HETATM    3  C3  UNL     1     -33.736   7.808   4.907  1.00 20.00     0.277 C 
HETATM    4 CL6  UNL     1     -34.067   7.194   6.536  1.00 20.00    -0.097 Cl
HETATM    5 CL7  UNL     1     -32.292   8.831   4.901  1.00 20.00    -0.097 Cl
ENDBRANCH   1   3
BRANCH   1   6
HETATM    6  O5  UNL     1     -34.476   5.722   4.141  1.00 20.00    -0.324 OA
HETATM    7  C2  UNL     1     -34.023   4.386   4.385  1.00 20.00     0.213 C 
ENDBRANCH   1   6
TORSDOF 2
ENDMDL
MODEL 6
REMARK VINA RESULT:      -3.4      0.871      1.612
REMARK  2 active torsions:
REMARK  status: ('A' for Active; 'I' for Inactive)
REMARK    1  A    between atoms: C1_1  and  C3_3 
REMARK    2  A    between atoms: C1_1  and  O5_5 
ROOT
HETATM    1  C1  UNL     1     -33.353   6.954   4.164  1.00 20.00     0.291 C 
HETATM    2  O4  UNL     1     -32.678   6.578   3.215  1.00 20.00    -0.262 OA
ENDROOT
BRANCH   1   3
HETATM    3  C3  UNL     1     -34.173   6.061   5.057  1.00 20.00     0.277 C 
HETATM    4 CL6  UNL     1     -34.324   6.795   6.663  1.00 20.00    -0.097 Cl
HETATM    5 CL7  UNL     1     -35.762   5.852   4.308  1.00 20.00    -0.097 Cl
ENDBRANCH   1   3
BRANCH   1   6
HETATM    6  O5  UNL     1     -33.459   8.245   4.600  1.00 20.00    -0.324 OA
HETATM    7  C2  UNL     1     -32.223   8.954   4.739  1.00 20.00     0.213 C 
ENDBRANCH   1   6
TORSDOF 2
ENDMDL
MODEL 7
REMARK VINA RESULT:      -3.3      2.610      3.257
REMARK  2 active torsions:
REMARK  status: ('A' for Active; 'I' for Inactive)
REMARK    1  A    between atoms: C1_1  and  C3_3 
REMARK    2  A    between atoms: C1_1  and  O5_5 
ROOT
HETATM    1  C1  UNL     1     -33.022   6.144   3.341  1.00 20.00     0.291 C 
HETATM    2  O4  UNL     1     -32.939   5.154   2.627  1.00 20.00    -0.262 OA
ENDROOT
BRANCH   1   3
HETATM    3  C3  UNL     1     -32.135   7.358   3.256  1.00 20.00     0.277 C 
HETATM    4 CL6  UNL     1     -32.234   8.059   1.632  1.00 20.00    -0.097 Cl
HETATM    5 CL7  UNL     1     -32.677   8.517   4.477  1.00 20.00    -0.097 Cl
ENDBRANCH   1   3
BRANCH   1   6
HETATM    6  O5  UNL     1     -33.952   6.336   4.325  1.00 20.00    -0.324 OA
HETATM    7  C2  UNL     1     -34.652   5.162   4.752  1.00 20.00     0.213 C 
ENDBRANCH   1   6
TORSDOF 2
ENDMDL
MODEL 8
REMARK VINA RESULT:      -3.3      1.590      1.754
REMARK  2 active torsions:
REMARK  status: ('A' for Active; 'I' for Inactive)
REMARK    1  A    between atoms: C1_1  and  C3_3 
REMARK    2  A    between atoms: C1_1  and  O5_5 
ROOT
HETATM    1  C1  UNL     1     -33.422   6.169   3.799  1.00 20.00     0.291 C 
HETATM    2  O4  UNL     1     -33.405   5.136   3.141  1.00 20.00    -0.262 OA
ENDROOT
BRANCH   1   3
HETATM    3  C3  UNL     1     -34.397   6.483   4.902  1.00 20.00     0.277 C 
HETATM    4 CL6  UNL     1     -34.541   5.090   5.988  1.00 20.00    -0.097 Cl
HETATM    5 CL7  UNL     1     -33.798   7.901   5.773  1.00 20.00    -0.097 Cl
ENDBRANCH   1   3
BRANCH   1   6
HETATM    6  O5  UNL     1     -32.543   7.208   3.667  1.00 20.00    -0.324 OA
HETATM    7  C2  UNL     1     -32.202   7.562   2.323  1.00 20.00     0.213 C 
ENDBRANCH   1   6
TORSDOF 2
ENDMDL
MODEL 9
REMARK VINA RESULT:      -3.3      2.532      3.083
REMARK  2 active torsions:
REMARK  status: ('A' for Active; 'I' for Inactive)
REMARK    1  A    between atoms: C1_1  and  C3_3 
REMARK    2  A    between atoms: C1_1  and  O5_5 
ROOT
HETATM    1  C1  UNL     1     -34.219   5.564   4.383  1.00 20.00     0.291 C 
HETATM    2  O4  UNL     1     -34.396   4.398   4.711  1.00 20.00    -0.262 OA
ENDROOT
BRANCH   1   3
HETATM    3  C3  UNL     1     -33.535   6.021   3.122  1.00 20.00     0.277 C 
HETATM    4 CL6  UNL     1     -32.389   7.318   3.498  1.00 20.00    -0.097 Cl
HETATM    5 CL7  UNL     1     -32.702   4.628   2.418  1.00 20.00    -0.097 Cl
ENDBRANCH   1   3
BRANCH   1   6
HETATM    6  O5  UNL     1     -34.636   6.658   5.089  1.00 20.00    -0.324 OA
HETATM    7  C2  UNL     1     -34.211   6.710   6.456  1.00 20.00     0.213 C 
ENDBRANCH   1   6
TORSDOF 2
ENDMDL
