MODEL 1
REMARK VINA RESULT:      -3.3      0.000      0.000
REMARK  2 active torsions:
REMARK  status: ('A' for Active; 'I' for Inactive)
REMARK    1  A    between atoms: C3_3  and  C4_4 
REMARK    2  A    between atoms: C4_4  and  S6_6 
ROOT
HETATM    1  C1  UNL     1     -34.437   5.358   5.414  1.00 20.00     0.133 C 
HETATM    2  N5  UNL     1     -34.657   4.395   4.806  1.00 20.00    -0.184 NA
HETATM    3  S6  UNL     1     -34.116   6.755   6.309  1.00 20.00    -0.046 SA
ENDROOT
BRANCH   3   4
HETATM    4  C4  UNL     1     -34.181   7.960   4.953  1.00 20.00     0.135 C 
BRANCH   4   5
HETATM    5  C3  UNL     1     -32.809   8.239   4.415  1.00 20.00    -0.011 C 
HETATM    6  C2  UNL     1     -32.014   9.201   4.906  1.00 20.00     0.027 C 
HETATM    7 BR7  UNL     1     -32.291   7.217   2.932  1.00 20.00    -0.056 Br
ENDBRANCH   4   5
ENDBRANCH   3   4
TORSDOF 2
ENDMDL
MODEL 2
REMARK VINA RESULT:      -3.1     12.891     13.243
REMARK  2 active torsions:
REMARK  status: ('A' for Active; 'I' for Inactive)
REMARK    1  A    between atoms: C3_3  and  C4_4 
REMARK    2  A    between atoms: C4_4  and  S6_6 
ROOT
HETATM    1  C1  UNL     1     -31.748  18.721  -0.647  1.00 20.00     0.133 C 
HETATM    2  N5  UNL     1     -30.633  18.671  -0.333  1.00 20.00    -0.184 NA
HETATM    3  S6  UNL     1     -33.373  18.805  -1.103  1.00 20.00    -0.046 SA
ENDROOT
BRANCH   3   4
HETATM    4  C4  UNL     1     -33.593  17.081  -1.624  1.00 20.00     0.135 C 
BRANCH   4   5
HETATM    5  C3  UNL     1     -33.459  16.947  -3.112  1.00 20.00    -0.011 C 
HETATM    6  C2  UNL     1     -33.216  15.778  -3.722  1.00 20.00     0.027 C 
HETATM    7 BR7  UNL     1     -33.560  18.545  -4.087  1.00 20.00    -0.056 Br
ENDBRANCH   4   5
ENDBRANCH   3   4
TORSDOF 2
ENDMDL
MODEL 3
REMARK VINA RESULT:      -3.0      2.670      3.257
REMARK  2 active torsions:
REMARK  status: ('A' for Active; 'I' for Inactive)
REMARK    1  A    between atoms: C3_3  and  C4_4 
REMARK    2  A    between atoms: C4_4  and  S6_6 
ROOT
HETATM    1  C1  UNL     1     -32.246   7.604   3.364  1.00 20.00     0.133 C 
HETATM    2  N5  UNL     1     -32.180   6.914   2.434  1.00 20.00    -0.184 NA
HETATM    3  S6  UNL     1     -32.331   8.614   4.716  1.00 20.00    -0.046 SA
ENDROOT
BRANCH   3   4
HETATM    4  C4  UNL     1     -34.029   8.228   5.229  1.00 20.00     0.135 C 
BRANCH   4   5
HETATM    5  C3  UNL     1     -34.142   6.804   5.687  1.00 20.00    -0.011 C 
HETATM    6  C2  UNL     1     -33.508   6.332   6.769  1.00 20.00     0.027 C 
HETATM    7 BR7  UNL     1     -35.163   5.674   4.593  1.00 20.00    -0.056 Br
ENDBRANCH   4   5
ENDBRANCH   3   4
TORSDOF 2
ENDMDL
MODEL 4
REMARK VINA RESULT:      -2.9     13.211     13.654
REMARK  2 active torsions:
REMARK  status: ('A' for Active; 'I' for Inactive)
REMARK    1  A    between atoms: C3_3  and  C4_4 
REMARK    2  A    between atoms: C4_4  and  S6_6 
ROOT
HETATM    1  C1  UNL     1     -35.474  15.292  -6.930  1.00 20.00     0.133 C 
HETATM    2  N5  UNL     1     -36.103  14.368  -7.239  1.00 20.00    -0.184 NA
HETATM    3  S6  UNL     1     -34.555  16.640  -6.491  1.00 20.00    -0.046 SA
ENDROOT
BRANCH   3   4
HETATM    4  C4  UNL     1     -34.921  16.644  -4.713  1.00 20.00     0.135 C 
BRANCH   4   5
HETATM    5  C3  UNL     1     -33.776  16.078  -3.927  1.00 20.00    -0.011 C 
HETATM    6  C2  UNL     1     -33.123  14.963  -4.286  1.00 20.00     0.027 C 
HETATM    7 BR7  UNL     1     -33.356  16.976  -2.336  1.00 20.00    -0.056 Br
ENDBRANCH   4   5
ENDBRANCH   3   4
TORSDOF 2
ENDMDL
MODEL 5
REMARK VINA RESULT:      -2.9     12.423     12.558
REMARK  2 active torsions:
REMARK  status: ('A' for Active; 'I' for Inactive)
REMARK    1  A    between atoms: C3_3  and  C4_4 
REMARK    2  A    between atoms: C4_4  and  S6_6 
ROOT
HETATM    1  C1  UNL     1     -35.195  14.010  -4.779  1.00 20.00     0.133 C 
HETATM    2  N5  UNL     1     -35.885  13.174  -4.367  1.00 20.00    -0.184 NA
HETATM    3  S6  UNL     1     -34.194  15.228  -5.389  1.00 20.00    -0.046 SA
ENDROOT
BRANCH   3   4
HETATM    4  C4  UNL     1     -33.173  15.496  -3.913  1.00 20.00     0.135 C 
BRANCH   4   5
HETATM    5  C3  UNL     1     -33.535  16.785  -3.236  1.00 20.00    -0.011 C 
HETATM    6  C2  UNL     1     -33.464  16.957  -1.908  1.00 20.00     0.027 C 
HETATM    7 BR7  UNL     1     -34.194  18.138  -4.353  1.00 20.00    -0.056 Br
ENDBRANCH   4   5
ENDBRANCH   3   4
TORSDOF 2
ENDMDL
MODEL 6
REMARK VINA RESULT:      -2.9      3.180      3.974
REMARK  2 active torsions:
REMARK  status: ('A' for Active; 'I' for Inactive)
REMARK    1  A    between atoms: C3_3  and  C4_4 
REMARK    2  A    between atoms: C4_4  and  S6_6 
ROOT
HETATM    1  C1  UNL     1     -32.516   6.822   3.269  1.00 20.00     0.133 C 
HETATM    2  N5  UNL     1     -32.145   7.852   3.651  1.00 20.00    -0.184 NA
HETATM    3  S6  UNL     1     -33.054   5.324   2.702  1.00 20.00    -0.046 SA
ENDROOT
BRANCH   3   4
HETATM    4  C4  UNL     1     -33.764   4.694   4.249  1.00 20.00     0.135 C 
BRANCH   4   5
HETATM    5  C3  UNL     1     -34.747   5.668   4.826  1.00 20.00    -0.011 C 
HETATM    6  C2  UNL     1     -35.879   6.021   4.199  1.00 20.00     0.027 C 
HETATM    7 BR7  UNL     1     -34.259   6.452   6.457  1.00 20.00    -0.056 Br
ENDBRANCH   4   5
ENDBRANCH   3   4
TORSDOF 2
ENDMDL
MODEL 7
REMARK VINA RESULT:      -2.9     13.031     13.454
REMARK  2 active torsions:
REMARK  status: ('A' for Active; 'I' for Inactive)
REMARK    1  A    between atoms: C3_3  and  C4_4 
REMARK    2  A    between atoms: C4_4  and  S6_6 
ROOT
HETATM    1  C1  UNL     1     -34.084  15.107  -6.599  1.00 20.00     0.133 C 
HETATM    2  N5  UNL     1     -33.607  15.169  -7.654  1.00 20.00    -0.184 NA
HETATM    3  S6  UNL     1     -34.788  15.013  -5.065  1.00 20.00    -0.046 SA
ENDROOT
BRANCH   3   4
HETATM    4  C4  UNL     1     -33.328  15.439  -4.075  1.00 20.00     0.135 C 
BRANCH   4   5
HETATM    5  C3  UNL     1     -33.531  16.736  -3.349  1.00 20.00    -0.011 C 
HETATM    6  C2  UNL     1     -33.437  16.849  -2.016  1.00 20.00     0.027 C 
HETATM    7 BR7  UNL     1     -34.023  18.199  -4.412  1.00 20.00    -0.056 Br
ENDBRANCH   4   5
ENDBRANCH   3   4
TORSDOF 2
ENDMDL
MODEL 8
REMARK VINA RESULT:      -2.9      1.955      2.251
REMARK  2 active torsions:
REMARK  status: ('A' for Active; 'I' for Inactive)
REMARK    1  A    between atoms: C3_3  and  C4_4 
REMARK    2  A    between atoms: C4_4  and  S6_6 
ROOT
HETATM    1  C1  UNL     1     -34.011   6.901   5.889  1.00 20.00     0.133 C 
HETATM    2  N5  UNL     1     -34.235   5.936   6.492  1.00 20.00    -0.184 NA
HETATM    3  S6  UNL     1     -33.694   8.312   5.015  1.00 20.00    -0.046 SA
ENDROOT
BRANCH   3   4
HETATM    4  C4  UNL     1     -32.124   7.807   4.256  1.00 20.00     0.135 C 
BRANCH   4   5
HETATM    5  C3  UNL     1     -32.344   7.265   2.875  1.00 20.00    -0.011 C 
HETATM    6  C2  UNL     1     -32.211   8.009   1.768  1.00 20.00     0.027 C 
HETATM    7 BR7  UNL     1     -32.914   5.481   2.780  1.00 20.00    -0.056 Br
ENDBRANCH   4   5
ENDBRANCH   3   4
TORSDOF 2
ENDMDL
MODEL 9
REMARK VINA RESULT:      -2.8      2.252      3.450
REMARK  2 active torsions:
REMARK  status: ('A' for Active; 'I' for Inactive)
REMARK    1  A    between atoms: C3_3  and  C4_4 
REMARK    2  A    between atoms: C4_4  and  S6_6 
ROOT
HETATM    1  C1  UNL     1     -32.968   8.096   5.268  1.00 20.00     0.133 C 
HETATM    2  N5  UNL     1     -32.250   8.802   4.694  1.00 20.00    -0.184 NA
HETATM    3  S6  UNL     1     -34.011   7.071   6.116  1.00 20.00    -0.046 SA
ENDROOT
BRANCH   3   4
HETATM    4  C4  UNL     1     -34.828   6.291   4.696  1.00 20.00     0.135 C 
BRANCH   4   5
HETATM    5  C3  UNL     1     -33.992   5.177   4.139  1.00 20.00    -0.011 C 
HETATM    6  C2  UNL     1     -33.889   3.976   4.728  1.00 20.00     0.027 C 
HETATM    7 BR7  UNL     1     -33.007   5.587   2.598  1.00 20.00    -0.056 Br
ENDBRANCH   4   5
ENDBRANCH   3   4
TORSDOF 2
ENDMDL
