MODEL 1
REMARK VINA RESULT:      -4.0      0.000      0.000
REMARK  2 active torsions:
REMARK  status: ('A' for Active; 'I' for Inactive)
REMARK    1  A    between atoms: C4_4  and  C5_5 
REMARK    2  A    between atoms: C4_4  and  C6_6 
ROOT
HETATM    1  C1  UNL     1     -33.586   5.543   3.637  1.00 20.00     0.068 C 
HETATM    2  C2  UNL     1     -35.899   6.081   4.250  1.00 20.00     0.031 C 
HETATM    3  C3  UNL     1     -34.321   5.159   5.956  1.00 20.00     0.031 C 
HETATM    4  C6  UNL     1     -34.434   6.077   4.729  1.00 20.00     0.043 C 
HETATM    5  N7  UNL     1     -32.922   5.126   2.783  1.00 20.00    -0.196 NA
ENDROOT
BRANCH   4   6
HETATM    6  C4  UNL     1     -34.022   7.534   5.065  1.00 20.00     0.039 C 
BRANCH   6   7
HETATM    7  C5  UNL     1     -32.595   7.911   4.665  1.00 20.00     0.116 C 
HETATM    8 CL8  UNL     1     -32.612   8.877   3.166  1.00 20.00    -0.130 Cl
ENDBRANCH   6   7
ENDBRANCH   4   6
TORSDOF 2
ENDMDL
MODEL 2
REMARK VINA RESULT:      -3.6      9.101      9.813
REMARK  2 active torsions:
REMARK  status: ('A' for Active; 'I' for Inactive)
REMARK    1  A    between atoms: C4_4  and  C5_5 
REMARK    2  A    between atoms: C4_4  and  C6_6 
ROOT
HETATM    1  C1  UNL     1     -41.536  13.685   4.898  1.00 20.00     0.068 C 
HETATM    2  C2  UNL     1     -40.485  14.087   7.078  1.00 20.00     0.031 C 
HETATM    3  C3  UNL     1     -42.507  12.628   6.899  1.00 20.00     0.031 C 
HETATM    4  C6  UNL     1     -41.207  13.050   6.196  1.00 20.00     0.043 C 
HETATM    5  N7  UNL     1     -41.793  14.183   3.883  1.00 20.00    -0.196 NA
ENDROOT
BRANCH   4   6
HETATM    6  C4  UNL     1     -40.258  11.843   5.977  1.00 20.00     0.039 C 
BRANCH   6   7
HETATM    7  C5  UNL     1     -38.906  12.188   5.352  1.00 20.00     0.116 C 
HETATM    8 CL8  UNL     1     -38.865  11.661   3.649  1.00 20.00    -0.130 Cl
ENDBRANCH   6   7
ENDBRANCH   4   6
TORSDOF 2
ENDMDL
MODEL 3
REMARK VINA RESULT:      -3.6     12.331     13.175
REMARK  2 active torsions:
REMARK  status: ('A' for Active; 'I' for Inactive)
REMARK    1  A    between atoms: C4_4  and  C5_5 
REMARK    2  A    between atoms: C4_4  and  C6_6 
ROOT
HETATM    1  C1  UNL     1     -31.734  18.403  -0.856  1.00 20.00     0.068 C 
HETATM    2  C2  UNL     1     -34.125  18.541  -0.328  1.00 20.00     0.031 C 
HETATM    3  C3  UNL     1     -33.282  19.263  -2.568  1.00 20.00     0.031 C 
HETATM    4  C6  UNL     1     -33.091  18.246  -1.431  1.00 20.00     0.043 C 
HETATM    5  N7  UNL     1     -30.672  18.525  -0.405  1.00 20.00    -0.196 NA
ENDROOT
BRANCH   4   6
HETATM    6  C4  UNL     1     -33.299  16.791  -1.925  1.00 20.00     0.039 C 
BRANCH   6   7
HETATM    7  C5  UNL     1     -33.291  16.617  -3.444  1.00 20.00     0.116 C 
HETATM    8 CL8  UNL     1     -33.762  14.952  -3.875  1.00 20.00    -0.130 Cl
ENDBRANCH   6   7
ENDBRANCH   4   6
TORSDOF 2
ENDMDL
MODEL 4
REMARK VINA RESULT:      -3.5     12.433     13.087
REMARK  2 active torsions:
REMARK  status: ('A' for Active; 'I' for Inactive)
REMARK    1  A    between atoms: C4_4  and  C5_5 
REMARK    2  A    between atoms: C4_4  and  C6_6 
ROOT
HETATM    1  C1  UNL     1     -34.148  15.187  -6.558  1.00 20.00     0.068 C 
HETATM    2  C2  UNL     1     -35.498  16.676  -5.152  1.00 20.00     0.031 C 
HETATM    3  C3  UNL     1     -35.926  14.213  -5.160  1.00 20.00     0.031 C 
HETATM    4  C6  UNL     1     -34.833  15.290  -5.248  1.00 20.00     0.043 C 
HETATM    5  N7  UNL     1     -33.612  15.108  -7.584  1.00 20.00    -0.196 NA
ENDROOT
BRANCH   4   6
HETATM    6  C4  UNL     1     -33.805  15.155  -4.094  1.00 20.00     0.039 C 
BRANCH   6   7
HETATM    7  C5  UNL     1     -33.201  16.474  -3.610  1.00 20.00     0.116 C 
HETATM    8 CL8  UNL     1     -33.548  16.710  -1.877  1.00 20.00    -0.130 Cl
ENDBRANCH   6   7
ENDBRANCH   4   6
TORSDOF 2
ENDMDL
MODEL 5
REMARK VINA RESULT:      -3.5      1.770      2.695
REMARK  2 active torsions:
REMARK  status: ('A' for Active; 'I' for Inactive)
REMARK    1  A    between atoms: C4_4  and  C5_5 
REMARK    2  A    between atoms: C4_4  and  C6_6 
ROOT
HETATM    1  C1  UNL     1     -33.801   7.310   5.113  1.00 20.00     0.068 C 
HETATM    2  C2  UNL     1     -34.603   5.366   6.376  1.00 20.00     0.031 C 
HETATM    3  C3  UNL     1     -35.749   6.064   4.266  1.00 20.00     0.031 C 
HETATM    4  C6  UNL     1     -34.386   5.956   4.969  1.00 20.00     0.043 C 
HETATM    5  N7  UNL     1     -33.342   8.369   5.226  1.00 20.00    -0.196 NA
ENDROOT
BRANCH   4   6
HETATM    6  C4  UNL     1     -33.414   5.031   4.191  1.00 20.00     0.039 C 
BRANCH   6   7
HETATM    7  C5  UNL     1     -33.274   5.346   2.702  1.00 20.00     0.116 C 
HETATM    8 CL8  UNL     1     -32.175   6.730   2.468  1.00 20.00    -0.130 Cl
ENDBRANCH   6   7
ENDBRANCH   4   6
TORSDOF 2
ENDMDL
MODEL 6
REMARK VINA RESULT:      -3.4      9.162      9.864
REMARK  2 active torsions:
REMARK  status: ('A' for Active; 'I' for Inactive)
REMARK    1  A    between atoms: C4_4  and  C5_5 
REMARK    2  A    between atoms: C4_4  and  C6_6 
ROOT
HETATM    1  C1  UNL     1     -42.406  12.448   6.898  1.00 20.00     0.068 C 
HETATM    2  C2  UNL     1     -41.460  13.723   5.029  1.00 20.00     0.031 C 
HETATM    3  C3  UNL     1     -40.498  13.944   7.326  1.00 20.00     0.031 C 
HETATM    4  C6  UNL     1     -41.138  12.964   6.331  1.00 20.00     0.043 C 
HETATM    5  N7  UNL     1     -43.399  12.043   7.342  1.00 20.00    -0.196 NA
ENDROOT
BRANCH   4   6
HETATM    6  C4  UNL     1     -40.184  11.789   5.993  1.00 20.00     0.039 C 
BRANCH   6   7
HETATM    7  C5  UNL     1     -38.869  12.195   5.327  1.00 20.00     0.116 C 
HETATM    8 CL8  UNL     1     -38.845  11.649   3.630  1.00 20.00    -0.130 Cl
ENDBRANCH   6   7
ENDBRANCH   4   6
TORSDOF 2
ENDMDL
MODEL 7
REMARK VINA RESULT:      -3.4      9.303     10.036
REMARK  2 active torsions:
REMARK  status: ('A' for Active; 'I' for Inactive)
REMARK    1  A    between atoms: C4_4  and  C5_5 
REMARK    2  A    between atoms: C4_4  and  C6_6 
ROOT
HETATM    1  C1  UNL     1     -40.689  14.198   7.097  1.00 20.00     0.068 C 
HETATM    2  C2  UNL     1     -42.608  12.685   6.885  1.00 20.00     0.031 C 
HETATM    3  C3  UNL     1     -41.647  13.799   4.864  1.00 20.00     0.031 C 
HETATM    4  C6  UNL     1     -41.304  13.171   6.224  1.00 20.00     0.043 C 
HETATM    5  N7  UNL     1     -40.208  15.002   7.781  1.00 20.00    -0.196 NA
ENDROOT
BRANCH   4   6
HETATM    6  C4  UNL     1     -40.350  11.958   6.068  1.00 20.00     0.039 C 
BRANCH   6   7
HETATM    7  C5  UNL     1     -38.975  12.287   5.485  1.00 20.00     0.116 C 
HETATM    8 CL8  UNL     1     -38.842  11.650   3.826  1.00 20.00    -0.130 Cl
ENDBRANCH   6   7
ENDBRANCH   4   6
TORSDOF 2
ENDMDL
MODEL 8
REMARK VINA RESULT:      -3.4     11.970     12.733
REMARK  2 active torsions:
REMARK  status: ('A' for Active; 'I' for Inactive)
REMARK    1  A    between atoms: C4_4  and  C5_5 
REMARK    2  A    between atoms: C4_4  and  C6_6 
ROOT
HETATM    1  C1  UNL     1     -35.435  14.161  -4.747  1.00 20.00     0.068 C 
HETATM    2  C2  UNL     1     -33.941  15.124  -6.436  1.00 20.00     0.031 C 
HETATM    3  C3  UNL     1     -35.495  16.592  -5.139  1.00 20.00     0.031 C 
HETATM    4  C6  UNL     1     -34.600  15.344  -5.061  1.00 20.00     0.043 C 
HETATM    5  N7  UNL     1     -36.089  13.235  -4.501  1.00 20.00    -0.196 NA
ENDROOT
BRANCH   4   6
HETATM    6  C4  UNL     1     -33.482  15.509  -3.999  1.00 20.00     0.039 C 
BRANCH   6   7
HETATM    7  C5  UNL     1     -33.309  16.928  -3.456  1.00 20.00     0.116 C 
HETATM    8 CL8  UNL     1     -33.557  16.945  -1.691  1.00 20.00    -0.130 Cl
ENDBRANCH   6   7
ENDBRANCH   4   6
TORSDOF 2
ENDMDL
MODEL 9
REMARK VINA RESULT:      -3.3      2.275      3.180
REMARK  2 active torsions:
REMARK  status: ('A' for Active; 'I' for Inactive)
REMARK    1  A    between atoms: C4_4  and  C5_5 
REMARK    2  A    between atoms: C4_4  and  C6_6 
ROOT
HETATM    1  C1  UNL     1     -32.803   6.930   3.626  1.00 20.00     0.068 C 
HETATM    2  C2  UNL     1     -32.165   8.949   4.865  1.00 20.00     0.031 C 
HETATM    3  C3  UNL     1     -34.574   8.439   4.432  1.00 20.00     0.031 C 
HETATM    4  C6  UNL     1     -33.204   7.817   4.743  1.00 20.00     0.043 C 
HETATM    5  N7  UNL     1     -32.488   6.236   2.751  1.00 20.00    -0.196 NA
ENDROOT
BRANCH   4   6
HETATM    6  C4  UNL     1     -33.226   7.024   6.076  1.00 20.00     0.039 C 
BRANCH   6   7
HETATM    7  C5  UNL     1     -34.540   6.303   6.377  1.00 20.00     0.116 C 
HETATM    8 CL8  UNL     1     -34.680   4.835   5.375  1.00 20.00    -0.130 Cl
ENDBRANCH   6   7
ENDBRANCH   4   6
TORSDOF 2
ENDMDL
