MODEL 1
REMARK VINA RESULT:      -3.8      0.000      0.000
REMARK  0 active torsions:
REMARK  status: ('A' for Active; 'I' for Inactive)
ROOT
HETATM    1  C1  UNL     1     -33.372   6.210   3.717  1.00 20.00    -0.077 C 
HETATM    2  C2  UNL     1     -32.472   6.006   2.748  1.00 20.00     0.015 C 
HETATM    3  C3  UNL     1     -33.943   4.760   5.633  1.00 20.00     0.009 C 
HETATM    4  C4  UNL     1     -34.296   5.999   6.477  1.00 20.00     0.006 C 
HETATM    5  C5  UNL     1     -35.574   6.070   4.498  1.00 20.00     0.014 C 
HETATM    6  C6  UNL     1     -34.367   5.179   4.214  1.00 20.00     0.015 C 
HETATM    7  C7  UNL     1     -34.783   7.014   5.419  1.00 20.00    -0.002 C 
HETATM    8  C8  UNL     1     -33.622   7.501   4.489  1.00 20.00    -0.021 C 
HETATM    9  C9  UNL     1     -34.099   8.639   3.566  1.00 20.00     0.020 C 
HETATM   10  C10 UNL     1     -32.385   7.984   5.258  1.00 20.00     0.020 C 
ENDROOT
TORSDOF 0
ENDMDL
MODEL 2
REMARK VINA RESULT:      -3.7      8.331      9.739
REMARK  0 active torsions:
REMARK  status: ('A' for Active; 'I' for Inactive)
ROOT
HETATM    1  C1  UNL     1     -42.316   5.763   1.055  1.00 20.00    -0.077 C 
HETATM    2  C2  UNL     1     -42.336   4.711   1.882  1.00 20.00     0.015 C 
HETATM    3  C3  UNL     1     -41.206   7.948   1.351  1.00 20.00     0.009 C 
HETATM    4  C4  UNL     1     -41.011   8.066  -0.172  1.00 20.00     0.006 C 
HETATM    5  C5  UNL     1     -43.305   7.726   0.250  1.00 20.00     0.014 C 
HETATM    6  C6  UNL     1     -42.547   7.203   1.469  1.00 20.00     0.015 C 
HETATM    7  C7  UNL     1     -42.216   7.281  -0.739  1.00 20.00    -0.002 C 
HETATM    8  C8  UNL     1     -42.107   5.745  -0.456  1.00 20.00    -0.021 C 
HETATM    9  C9  UNL     1     -43.224   4.973  -1.183  1.00 20.00     0.020 C 
HETATM   10  C10 UNL     1     -40.754   5.144  -0.862  1.00 20.00     0.020 C 
ENDROOT
TORSDOF 0
ENDMDL
MODEL 3
REMARK VINA RESULT:      -3.6     12.049     13.693
REMARK  0 active torsions:
REMARK  status: ('A' for Active; 'I' for Inactive)
ROOT
HETATM    1  C1  UNL     1     -34.002  16.200  -4.206  1.00 20.00    -0.077 C 
HETATM    2  C2  UNL     1     -33.385  16.657  -3.110  1.00 20.00     0.015 C 
HETATM    3  C3  UNL     1     -35.191  14.061  -4.537  1.00 20.00     0.009 C 
HETATM    4  C4  UNL     1     -36.135  14.732  -5.553  1.00 20.00     0.006 C 
HETATM    5  C5  UNL     1     -33.917  15.089  -6.265  1.00 20.00     0.014 C 
HETATM    6  C6  UNL     1     -33.860  14.798  -4.767  1.00 20.00     0.015 C 
HETATM    7  C7  UNL     1     -35.252  15.843  -6.167  1.00 20.00    -0.002 C 
HETATM    8  C8  UNL     1     -34.928  16.976  -5.137  1.00 20.00    -0.021 C 
HETATM    9  C9  UNL     1     -34.201  18.149  -5.823  1.00 20.00     0.020 C 
HETATM   10  C10 UNL     1     -36.170  17.524  -4.420  1.00 20.00     0.020 C 
ENDROOT
TORSDOF 0
ENDMDL
MODEL 4
REMARK VINA RESULT:      -3.5      0.838      3.024
REMARK  0 active torsions:
REMARK  status: ('A' for Active; 'I' for Inactive)
ROOT
HETATM    1  C1  UNL     1     -33.291   6.196   3.755  1.00 20.00    -0.077 C 
HETATM    2  C2  UNL     1     -33.045   5.229   2.864  1.00 20.00     0.015 C 
HETATM    3  C3  UNL     1     -33.283   8.643   3.430  1.00 20.00     0.009 C 
HETATM    4  C4  UNL     1     -34.361   8.801   4.518  1.00 20.00     0.006 C 
HETATM    5  C5  UNL     1     -32.543   7.627   5.451  1.00 20.00     0.014 C 
HETATM    6  C6  UNL     1     -32.456   7.449   3.937  1.00 20.00     0.015 C 
HETATM    7  C7  UNL     1     -34.080   7.610   5.462  1.00 20.00    -0.002 C 
HETATM    8  C8  UNL     1     -34.410   6.234   4.791  1.00 20.00    -0.021 C 
HETATM    9  C9  UNL     1     -34.290   5.084   5.810  1.00 20.00     0.020 C 
HETATM   10  C10 UNL     1     -35.808   6.183   4.159  1.00 20.00     0.020 C 
ENDROOT
TORSDOF 0
ENDMDL
MODEL 5
REMARK VINA RESULT:      -3.4      8.291      9.589
REMARK  0 active torsions:
REMARK  status: ('A' for Active; 'I' for Inactive)
ROOT
HETATM    1  C1  UNL     1     -41.056   6.001  -0.137  1.00 20.00    -0.077 C 
HETATM    2  C2  UNL     1     -40.249   5.160  -0.793  1.00 20.00     0.015 C 
HETATM    3  C3  UNL     1     -41.800   8.263  -0.791  1.00 20.00     0.009 C 
HETATM    4  C4  UNL     1     -43.128   8.053  -0.041  1.00 20.00     0.006 C 
HETATM    5  C5  UNL     1     -41.362   7.673   1.473  1.00 20.00     0.014 C 
HETATM    6  C6  UNL     1     -40.792   7.480   0.069  1.00 20.00     0.015 C 
HETATM    7  C7  UNL     1     -42.734   7.089   1.101  1.00 20.00    -0.002 C 
HETATM    8  C8  UNL     1     -42.364   5.664   0.570  1.00 20.00    -0.021 C 
HETATM    9  C9  UNL     1     -42.151   4.681   1.737  1.00 20.00     0.020 C 
HETATM   10  C10 UNL     1     -43.417   5.074  -0.378  1.00 20.00     0.020 C 
ENDROOT
TORSDOF 0
ENDMDL
MODEL 6
REMARK VINA RESULT:      -3.4     10.032     11.408
REMARK  0 active torsions:
REMARK  status: ('A' for Active; 'I' for Inactive)
ROOT
HETATM    1  C1  UNL     1     -40.721  13.460   6.960  1.00 20.00    -0.077 C 
HETATM    2  C2  UNL     1     -39.883  12.667   6.283  1.00 20.00     0.015 C 
HETATM    3  C3  UNL     1     -40.411  15.807   7.660  1.00 20.00     0.009 C 
HETATM    4  C4  UNL     1     -41.928  16.051   7.546  1.00 20.00     0.006 C 
HETATM    5  C5  UNL     1     -41.585  14.226   8.997  1.00 20.00     0.014 C 
HETATM    6  C6  UNL     1     -40.334  14.344   8.130  1.00 20.00     0.015 C 
HETATM    7  C7  UNL     1     -42.529  14.664   7.865  1.00 20.00    -0.002 C 
HETATM    8  C8  UNL     1     -42.223  13.615   6.743  1.00 20.00    -0.021 C 
HETATM    9  C9  UNL     1     -42.981  12.299   7.001  1.00 20.00     0.020 C 
HETATM   10  C10 UNL     1     -42.572  14.111   5.333  1.00 20.00     0.020 C 
ENDROOT
TORSDOF 0
ENDMDL
MODEL 7
REMARK VINA RESULT:      -3.3      9.996     11.316
REMARK  0 active torsions:
REMARK  status: ('A' for Active; 'I' for Inactive)
ROOT
HETATM    1  C1  UNL     1     -42.404  13.199   7.289  1.00 20.00    -0.077 C 
HETATM    2  C2  UNL     1     -43.099  12.062   7.168  1.00 20.00     0.015 C 
HETATM    3  C3  UNL     1     -41.458  14.229   9.323  1.00 20.00     0.009 C 
HETATM    4  C4  UNL     1     -40.312  14.838   8.494  1.00 20.00     0.006 C 
HETATM    5  C5  UNL     1     -42.354  15.526   7.540  1.00 20.00     0.014 C 
HETATM    6  C6  UNL     1     -42.644  14.261   8.344  1.00 20.00     0.015 C 
HETATM    7  C7  UNL     1     -40.959  15.047   7.106  1.00 20.00    -0.002 C 
HETATM    8  C8  UNL     1     -41.273  13.691   6.390  1.00 20.00    -0.021 C 
HETATM    9  C9  UNL     1     -41.750  13.931   4.945  1.00 20.00     0.020 C 
HETATM   10  C10 UNL     1     -40.079  12.728   6.357  1.00 20.00     0.020 C 
ENDROOT
TORSDOF 0
ENDMDL
MODEL 8
REMARK VINA RESULT:      -3.3      1.030      3.155
REMARK  0 active torsions:
REMARK  status: ('A' for Active; 'I' for Inactive)
ROOT
HETATM    1  C1  UNL     1     -33.836   6.488   5.741  1.00 20.00    -0.077 C 
HETATM    2  C2  UNL     1     -33.801   5.550   6.695  1.00 20.00     0.015 C 
HETATM    3  C3  UNL     1     -32.140   8.193   5.182  1.00 20.00     0.009 C 
HETATM    4  C4  UNL     1     -32.576   8.156   3.705  1.00 20.00     0.006 C 
HETATM    5  C5  UNL     1     -34.476   8.621   5.021  1.00 20.00     0.014 C 
HETATM    6  C6  UNL     1     -33.458   7.943   5.936  1.00 20.00     0.015 C 
HETATM    7  C7  UNL     1     -34.075   7.786   3.794  1.00 20.00    -0.002 C 
HETATM    8  C8  UNL     1     -34.292   6.320   4.296  1.00 20.00    -0.021 C 
HETATM    9  C9  UNL     1     -35.778   5.923   4.204  1.00 20.00     0.020 C 
HETATM   10  C10 UNL     1     -33.463   5.282   3.527  1.00 20.00     0.020 C 
ENDROOT
TORSDOF 0
ENDMDL
MODEL 9
REMARK VINA RESULT:      -3.2     10.137     11.580
REMARK  0 active torsions:
REMARK  status: ('A' for Active; 'I' for Inactive)
ROOT
HETATM    1  C1  UNL     1     -41.958  14.449   5.885  1.00 20.00    -0.077 C 
HETATM    2  C2  UNL     1     -42.422  14.433   4.630  1.00 20.00     0.015 C 
HETATM    3  C3  UNL     1     -42.757  15.762   7.816  1.00 20.00     0.009 C 
HETATM    4  C4  UNL     1     -42.317  14.640   8.774  1.00 20.00     0.006 C 
HETATM    5  C5  UNL     1     -40.453  15.272   7.478  1.00 20.00     0.014 C 
HETATM    6  C6  UNL     1     -41.698  15.699   6.703  1.00 20.00     0.015 C 
HETATM    7  C7  UNL     1     -41.118  14.003   8.036  1.00 20.00    -0.002 C 
HETATM    8  C8  UNL     1     -41.556  13.249   6.736  1.00 20.00    -0.021 C 
HETATM    9  C9  UNL     1     -40.372  12.479   6.122  1.00 20.00     0.020 C 
HETATM   10  C10 UNL     1     -42.713  12.266   6.961  1.00 20.00     0.020 C 
ENDROOT
TORSDOF 0
ENDMDL
