MODEL 1
REMARK VINA RESULT:      -3.8      0.000      0.000
REMARK  2 active torsions:
REMARK  status: ('A' for Active; 'I' for Inactive)
REMARK    1  A    between atoms: C3_3  and  C5_5 
REMARK    2  A    between atoms: C5_5  and  N6_6 
ROOT
HETATM    1  C1  UNL     1     -33.353   7.705   5.533  1.00 20.00     0.157 C 
HETATM    2  N6  UNL     1     -34.076   7.291   6.361  1.00 20.00    -0.271 NA
HETATM    3  S7  UNL     1     -32.377   8.294   4.421  1.00 20.00    -0.055 SA
ENDROOT
BRANCH   2   4
HETATM    4  C5  UNL     1     -34.273   5.840   6.338  1.00 20.00     0.183 C 
BRANCH   4   5
HETATM    5  C3  UNL     1     -34.699   5.398   4.966  1.00 20.00    -0.073 C 
HETATM    6  C2  UNL     1     -35.773   5.926   4.359  1.00 20.00     0.015 C 
HETATM    7  C4  UNL     1     -33.884   4.315   4.318  1.00 20.00     0.044 C 
ENDBRANCH   4   5
ENDBRANCH   2   4
TORSDOF 2
ENDMDL
MODEL 2
REMARK VINA RESULT:      -3.7      1.413      1.997
REMARK  2 active torsions:
REMARK  status: ('A' for Active; 'I' for Inactive)
REMARK    1  A    between atoms: C3_3  and  C5_5 
REMARK    2  A    between atoms: C5_5  and  N6_6 
ROOT
HETATM    1  C1  UNL     1     -32.544   7.767   4.076  1.00 20.00     0.157 C 
HETATM    2  N6  UNL     1     -32.733   7.872   5.231  1.00 20.00    -0.271 NA
HETATM    3  S7  UNL     1     -32.259   7.631   2.515  1.00 20.00    -0.055 SA
ENDROOT
BRANCH   2   4
HETATM    4  C5  UNL     1     -34.129   7.712   5.644  1.00 20.00     0.183 C 
BRANCH   4   5
HETATM    5  C3  UNL     1     -34.514   6.259   5.613  1.00 20.00    -0.073 C 
HETATM    6  C2  UNL     1     -34.080   5.396   6.544  1.00 20.00     0.015 C 
HETATM    7  C4  UNL     1     -35.385   5.812   4.474  1.00 20.00     0.044 C 
ENDBRANCH   4   5
ENDBRANCH   2   4
TORSDOF 2
ENDMDL
MODEL 3
REMARK VINA RESULT:      -3.5     12.939     13.376
REMARK  2 active torsions:
REMARK  status: ('A' for Active; 'I' for Inactive)
REMARK    1  A    between atoms: C3_3  and  C5_5 
REMARK    2  A    between atoms: C5_5  and  N6_6 
ROOT
HETATM    1  C1  UNL     1     -30.783  18.676   0.709  1.00 20.00     0.157 C 
HETATM    2  N6  UNL     1     -30.863  18.606  -0.461  1.00 20.00    -0.271 NA
HETATM    3  S7  UNL     1     -30.646  18.759   2.293  1.00 20.00    -0.055 SA
ENDROOT
BRANCH   2   4
HETATM    4  C5  UNL     1     -32.124  19.097  -1.023  1.00 20.00     0.183 C 
BRANCH   4   5
HETATM    5  C3  UNL     1     -33.170  18.020  -0.962  1.00 20.00    -0.073 C 
HETATM    6  C2  UNL     1     -34.022  17.923   0.070  1.00 20.00     0.015 C 
HETATM    7  C4  UNL     1     -33.199  17.037  -2.098  1.00 20.00     0.044 C 
ENDBRANCH   4   5
ENDBRANCH   2   4
TORSDOF 2
ENDMDL
MODEL 4
REMARK VINA RESULT:      -3.4      2.712      3.287
REMARK  2 active torsions:
REMARK  status: ('A' for Active; 'I' for Inactive)
REMARK    1  A    between atoms: C3_3  and  C5_5 
REMARK    2  A    between atoms: C5_5  and  N6_6 
ROOT
HETATM    1  C1  UNL     1     -33.913   7.242   5.428  1.00 20.00     0.157 C 
HETATM    2  N6  UNL     1     -33.533   8.145   4.779  1.00 20.00    -0.271 NA
HETATM    3  S7  UNL     1     -34.453   6.033   6.313  1.00 20.00    -0.055 SA
ENDROOT
BRANCH   2   4
HETATM    4  C5  UNL     1     -32.209   7.960   4.181  1.00 20.00     0.183 C 
BRANCH   4   5
HETATM    5  C3  UNL     1     -32.341   7.360   2.809  1.00 20.00    -0.073 C 
HETATM    6  C2  UNL     1     -32.192   8.100   1.700  1.00 20.00     0.015 C 
HETATM    7  C4  UNL     1     -32.679   5.898   2.737  1.00 20.00     0.044 C 
ENDBRANCH   4   5
ENDBRANCH   2   4
TORSDOF 2
ENDMDL
MODEL 5
REMARK VINA RESULT:      -3.4      1.878      2.694
REMARK  2 active torsions:
REMARK  status: ('A' for Active; 'I' for Inactive)
REMARK    1  A    between atoms: C3_3  and  C5_5 
REMARK    2  A    between atoms: C5_5  and  N6_6 
ROOT
HETATM    1  C1  UNL     1     -33.021   6.203   3.130  1.00 20.00     0.157 C 
HETATM    2  N6  UNL     1     -33.717   5.353   3.548  1.00 20.00    -0.271 NA
HETATM    3  S7  UNL     1     -32.059   7.333   2.553  1.00 20.00    -0.055 SA
ENDROOT
BRANCH   2   4
HETATM    4  C5  UNL     1     -34.867   5.824   4.323  1.00 20.00     0.183 C 
BRANCH   4   5
HETATM    5  C3  UNL     1     -34.464   6.065   5.750  1.00 20.00    -0.073 C 
HETATM    6  C2  UNL     1     -34.497   5.086   6.666  1.00 20.00     0.015 C 
HETATM    7  C4  UNL     1     -34.050   7.464   6.111  1.00 20.00     0.044 C 
ENDBRANCH   4   5
ENDBRANCH   2   4
TORSDOF 2
ENDMDL
MODEL 6
REMARK VINA RESULT:      -3.3     13.093     13.938
REMARK  2 active torsions:
REMARK  status: ('A' for Active; 'I' for Inactive)
REMARK    1  A    between atoms: C3_3  and  C5_5 
REMARK    2  A    between atoms: C5_5  and  N6_6 
ROOT
HETATM    1  C1  UNL     1     -30.880  18.633   0.533  1.00 20.00     0.157 C 
HETATM    2  N6  UNL     1     -31.003  18.669  -0.635  1.00 20.00    -0.271 NA
HETATM    3  S7  UNL     1     -30.688  18.572   2.112  1.00 20.00    -0.055 SA
ENDROOT
BRANCH   2   4
HETATM    4  C5  UNL     1     -32.260  19.255  -1.105  1.00 20.00     0.183 C 
BRANCH   4   5
HETATM    5  C3  UNL     1     -32.885  18.369  -2.147  1.00 20.00    -0.073 C 
HETATM    6  C2  UNL     1     -33.324  17.137  -1.851  1.00 20.00     0.015 C 
HETATM    7  C4  UNL     1     -32.968  18.918  -3.542  1.00 20.00     0.044 C 
ENDBRANCH   4   5
ENDBRANCH   2   4
TORSDOF 2
ENDMDL
MODEL 7
REMARK VINA RESULT:      -3.2      9.006      9.634
REMARK  2 active torsions:
REMARK  status: ('A' for Active; 'I' for Inactive)
REMARK    1  A    between atoms: C3_3  and  C5_5 
REMARK    2  A    between atoms: C5_5  and  N6_6 
ROOT
HETATM    1  C1  UNL     1     -42.221  13.172   7.173  1.00 20.00     0.157 C 
HETATM    2  N6  UNL     1     -41.526  12.364   6.679  1.00 20.00    -0.271 NA
HETATM    3  S7  UNL     1     -43.170  14.248   7.864  1.00 20.00    -0.055 SA
ENDROOT
BRANCH   2   4
HETATM    4  C5  UNL     1     -40.870  12.789   5.442  1.00 20.00     0.183 C 
BRANCH   4   5
HETATM    5  C3  UNL     1     -39.509  12.159   5.335  1.00 20.00    -0.073 C 
HETATM    6  C2  UNL     1     -38.702  12.043   6.400  1.00 20.00     0.015 C 
HETATM    7  C4  UNL     1     -39.083  11.691   3.973  1.00 20.00     0.044 C 
ENDBRANCH   4   5
ENDBRANCH   2   4
TORSDOF 2
ENDMDL
MODEL 8
REMARK VINA RESULT:      -3.2     12.968     13.407
REMARK  2 active torsions:
REMARK  status: ('A' for Active; 'I' for Inactive)
REMARK    1  A    between atoms: C3_3  and  C5_5 
REMARK    2  A    between atoms: C5_5  and  N6_6 
ROOT
HETATM    1  C1  UNL     1     -33.320  16.254  -3.300  1.00 20.00     0.157 C 
HETATM    2  N6  UNL     1     -33.041  17.197  -2.657  1.00 20.00    -0.271 NA
HETATM    3  S7  UNL     1     -33.679  14.985  -4.193  1.00 20.00    -0.055 SA
ENDROOT
BRANCH   2   4
HETATM    4  C5  UNL     1     -33.696  17.266  -1.349  1.00 20.00     0.183 C 
BRANCH   4   5
HETATM    5  C3  UNL     1     -32.933  18.186  -0.437  1.00 20.00    -0.073 C 
HETATM    6  C2  UNL     1     -31.664  18.538  -0.693  1.00 20.00     0.015 C 
HETATM    7  C4  UNL     1     -33.649  18.671   0.791  1.00 20.00     0.044 C 
ENDBRANCH   4   5
ENDBRANCH   2   4
TORSDOF 2
ENDMDL
MODEL 9
REMARK VINA RESULT:      -3.2      2.082      3.121
REMARK  2 active torsions:
REMARK  status: ('A' for Active; 'I' for Inactive)
REMARK    1  A    between atoms: C3_3  and  C5_5 
REMARK    2  A    between atoms: C5_5  and  N6_6 
ROOT
HETATM    1  C1  UNL     1     -33.807   4.839   3.647  1.00 20.00     0.157 C 
HETATM    2  N6  UNL     1     -34.515   4.713   4.576  1.00 20.00    -0.271 NA
HETATM    3  S7  UNL     1     -32.841   4.982   2.389  1.00 20.00    -0.055 SA
ENDROOT
BRANCH   2   4
HETATM    4  C5  UNL     1     -35.173   5.943   5.021  1.00 20.00     0.183 C 
BRANCH   4   5
HETATM    5  C3  UNL     1     -34.156   6.904   5.569  1.00 20.00    -0.073 C 
HETATM    6  C2  UNL     1     -33.630   6.750   6.793  1.00 20.00     0.015 C 
HETATM    7  C4  UNL     1     -33.778   8.064   4.692  1.00 20.00     0.044 C 
ENDBRANCH   4   5
ENDBRANCH   2   4
TORSDOF 2
ENDMDL
