MODEL 1
REMARK VINA RESULT:      -3.4      0.000      0.000
REMARK  0 active torsions:
REMARK  status: ('A' for Active; 'I' for Inactive)
ROOT
HETATM    1  C1  UNL     1     -33.196   7.505   4.454  1.00 20.00     0.111 C 
HETATM    2  C2  UNL     1     -34.178   6.884   6.566  1.00 20.00     0.049 C 
HETATM    3  C3  UNL     1     -34.103   6.745   5.238  1.00 20.00     0.104 C 
HETATM    4  N4  UNL     1     -32.455   8.124   3.811  1.00 20.00    -0.190 NA
HETATM    5 CL5  UNL     1     -35.121   5.625   4.409  1.00 20.00    -0.073 Cl
ENDROOT
TORSDOF 0
ENDMDL
MODEL 2
REMARK VINA RESULT:      -3.3      1.426      1.687
REMARK  0 active torsions:
REMARK  status: ('A' for Active; 'I' for Inactive)
ROOT
HETATM    1  C1  UNL     1     -33.175   7.447   4.336  1.00 20.00     0.111 C 
HETATM    2  C2  UNL     1     -34.768   5.641   4.425  1.00 20.00     0.049 C 
HETATM    3  C3  UNL     1     -34.100   6.626   5.034  1.00 20.00     0.104 C 
HETATM    4  N4  UNL     1     -32.419   8.120   3.769  1.00 20.00    -0.190 NA
HETATM    5 CL5  UNL     1     -34.332   6.945   6.713  1.00 20.00    -0.073 Cl
ENDROOT
TORSDOF 0
ENDMDL
MODEL 3
REMARK VINA RESULT:      -3.3      2.566      2.702
REMARK  0 active torsions:
REMARK  status: ('A' for Active; 'I' for Inactive)
ROOT
HETATM    1  C1  UNL     1     -34.213   5.824   4.678  1.00 20.00     0.111 C 
HETATM    2  C2  UNL     1     -33.661   8.069   5.362  1.00 20.00     0.049 C 
HETATM    3  C3  UNL     1     -33.500   7.042   4.521  1.00 20.00     0.104 C 
HETATM    4  N4  UNL     1     -34.794   4.829   4.803  1.00 20.00    -0.190 NA
HETATM    5 CL5  UNL     1     -32.401   7.151   3.195  1.00 20.00    -0.073 Cl
ENDROOT
TORSDOF 0
ENDMDL
MODEL 4
REMARK VINA RESULT:      -3.2      2.238      2.721
REMARK  0 active torsions:
REMARK  status: ('A' for Active; 'I' for Inactive)
ROOT
HETATM    1  C1  UNL     1     -33.720   7.095   5.587  1.00 20.00     0.111 C 
HETATM    2  C2  UNL     1     -32.357   8.884   4.720  1.00 20.00     0.049 C 
HETATM    3  C3  UNL     1     -32.895   7.668   4.583  1.00 20.00     0.104 C 
HETATM    4  N4  UNL     1     -34.395   6.625   6.405  1.00 20.00    -0.190 NA
HETATM    5 CL5  UNL     1     -32.604   6.728   3.166  1.00 20.00    -0.073 Cl
ENDROOT
TORSDOF 0
ENDMDL
MODEL 5
REMARK VINA RESULT:      -3.1      2.155      2.175
REMARK  0 active torsions:
REMARK  status: ('A' for Active; 'I' for Inactive)
ROOT
HETATM    1  C1  UNL     1     -33.612   5.800   3.883  1.00 20.00     0.111 C 
HETATM    2  C2  UNL     1     -34.728   5.681   6.016  1.00 20.00     0.049 C 
HETATM    3  C3  UNL     1     -34.066   6.387   5.094  1.00 20.00     0.104 C 
HETATM    4  N4  UNL     1     -33.241   5.323   2.893  1.00 20.00    -0.190 NA
HETATM    5 CL5  UNL     1     -33.727   8.061   5.338  1.00 20.00    -0.073 Cl
ENDROOT
TORSDOF 0
ENDMDL
MODEL 6
REMARK VINA RESULT:      -3.1      1.811      1.950
REMARK  0 active torsions:
REMARK  status: ('A' for Active; 'I' for Inactive)
ROOT
HETATM    1  C1  UNL     1     -33.510   5.975   3.862  1.00 20.00     0.111 C 
HETATM    2  C2  UNL     1     -33.637   8.006   5.153  1.00 20.00     0.049 C 
HETATM    3  C3  UNL     1     -33.888   6.699   5.023  1.00 20.00     0.104 C 
HETATM    4  N4  UNL     1     -33.202   5.380   2.915  1.00 20.00    -0.190 NA
HETATM    5 CL5  UNL     1     -34.695   5.827   6.273  1.00 20.00    -0.073 Cl
ENDROOT
TORSDOF 0
ENDMDL
MODEL 7
REMARK VINA RESULT:      -3.1      2.613      3.028
REMARK  0 active torsions:
REMARK  status: ('A' for Active; 'I' for Inactive)
ROOT
HETATM    1  C1  UNL     1     -34.189   5.846   4.568  1.00 20.00     0.111 C 
HETATM    2  C2  UNL     1     -32.531   7.081   3.329  1.00 20.00     0.049 C 
HETATM    3  C3  UNL     1     -33.411   7.010   4.333  1.00 20.00     0.104 C 
HETATM    4  N4  UNL     1     -34.826   4.896   4.762  1.00 20.00    -0.190 NA
HETATM    5 CL5  UNL     1     -33.646   8.347   5.398  1.00 20.00    -0.073 Cl
ENDROOT
TORSDOF 0
ENDMDL
MODEL 8
REMARK VINA RESULT:      -3.0      2.687      3.196
REMARK  0 active torsions:
REMARK  status: ('A' for Active; 'I' for Inactive)
ROOT
HETATM    1  C1  UNL     1     -33.727   7.053   5.502  1.00 20.00     0.111 C 
HETATM    2  C2  UNL     1     -32.604   7.063   3.369  1.00 20.00     0.049 C 
HETATM    3  C3  UNL     1     -32.882   7.657   4.534  1.00 20.00     0.104 C 
HETATM    4  N4  UNL     1     -34.416   6.562   6.295  1.00 20.00    -0.190 NA
HETATM    5 CL5  UNL     1     -32.220   9.204   4.915  1.00 20.00    -0.073 Cl
ENDROOT
TORSDOF 0
ENDMDL
MODEL 9
REMARK VINA RESULT:      -2.8     12.427     12.503
REMARK  0 active torsions:
REMARK  status: ('A' for Active; 'I' for Inactive)
ROOT
HETATM    1  C1  UNL     1     -31.780  18.396  -0.473  1.00 20.00     0.111 C 
HETATM    2  C2  UNL     1     -34.078  18.450   0.254  1.00 20.00     0.049 C 
HETATM    3  C3  UNL     1     -33.138  17.995  -0.582  1.00 20.00     0.104 C 
HETATM    4  N4  UNL     1     -30.670  18.721  -0.387  1.00 20.00    -0.190 NA
HETATM    5 CL5  UNL     1     -33.540  16.893  -1.847  1.00 20.00    -0.073 Cl
ENDROOT
TORSDOF 0
ENDMDL
