MODEL 1
REMARK VINA RESULT:      -4.6      0.000      0.000
REMARK  3 active torsions:
REMARK  status: ('A' for Active; 'I' for Inactive)
REMARK    1  A    between atoms: C3_3  and  C8_8 
REMARK    2  A    between atoms: C6_6  and  C7_7 
REMARK    3  A    between atoms: C7_7  and  C8_8 
ROOT
HETATM    1  C5  UNL     1     -34.425   5.304   6.607  1.00 20.00     0.010 C 
HETATM    2  C8  UNL     1     -34.583   6.422   5.574  1.00 20.00    -0.014 C 
ENDROOT
BRANCH   2   3
HETATM    3  C3  UNL     1     -33.351   7.329   5.603  1.00 20.00    -0.011 A 
HETATM    4  C1  UNL     1     -32.997   8.165   4.404  1.00 20.00     0.005 A 
HETATM    5  C2  UNL     1     -33.512   8.823   5.654  1.00 20.00     0.005 A 
ENDBRANCH   2   3
BRANCH   2   6
HETATM    6  C7  UNL     1     -34.799   5.879   4.150  1.00 20.00     0.004 C 
BRANCH   6   7
HETATM    7  C6  UNL     1     -33.871   4.715   3.793  1.00 20.00    -0.004 C 
HETATM    8  C4  UNL     1     -32.958   5.070   2.630  1.00 20.00     0.005 C 
ENDBRANCH   6   7
ENDBRANCH   2   6
TORSDOF 3
ENDMDL
MODEL 2
REMARK VINA RESULT:      -4.6      1.177      2.833
REMARK  3 active torsions:
REMARK  status: ('A' for Active; 'I' for Inactive)
REMARK    1  A    between atoms: C3_3  and  C8_8 
REMARK    2  A    between atoms: C6_6  and  C7_7 
REMARK    3  A    between atoms: C7_7  and  C8_8 
ROOT
HETATM    1  C5  UNL     1     -32.987   5.218   2.663  1.00 20.00     0.010 C 
HETATM    2  C8  UNL     1     -33.341   5.966   3.950  1.00 20.00    -0.014 C 
ENDROOT
BRANCH   2   3
HETATM    3  C3  UNL     1     -33.260   7.476   3.708  1.00 20.00    -0.011 A 
HETATM    4  C1  UNL     1     -32.187   8.293   4.373  1.00 20.00     0.005 A 
HETATM    5  C2  UNL     1     -32.138   8.052   2.889  1.00 20.00     0.005 A 
ENDBRANCH   2   3
BRANCH   2   6
HETATM    6  C7  UNL     1     -34.739   5.597   4.479  1.00 20.00     0.004 C 
BRANCH   6   7
HETATM    7  C6  UNL     1     -34.780   5.384   5.995  1.00 20.00    -0.004 C 
HETATM    8  C4  UNL     1     -34.392   6.649   6.743  1.00 20.00     0.005 C 
ENDBRANCH   6   7
ENDBRANCH   2   6
TORSDOF 3
ENDMDL
MODEL 3
REMARK VINA RESULT:      -4.5      1.256      1.790
REMARK  3 active torsions:
REMARK  status: ('A' for Active; 'I' for Inactive)
REMARK    1  A    between atoms: C3_3  and  C8_8 
REMARK    2  A    between atoms: C6_6  and  C7_7 
REMARK    3  A    between atoms: C7_7  and  C8_8 
ROOT
HETATM    1  C5  UNL     1     -33.657   7.156   6.585  1.00 20.00     0.010 C 
HETATM    2  C8  UNL     1     -33.914   7.648   5.160  1.00 20.00    -0.014 C 
ENDROOT
BRANCH   2   3
HETATM    3  C3  UNL     1     -32.583   7.994   4.485  1.00 20.00    -0.011 A 
HETATM    4  C1  UNL     1     -32.212   7.359   3.174  1.00 20.00     0.005 A 
HETATM    5  C2  UNL     1     -32.564   8.820   3.230  1.00 20.00     0.005 A 
ENDBRANCH   2   3
BRANCH   2   6
HETATM    6  C7  UNL     1     -34.678   6.617   4.310  1.00 20.00     0.004 C 
BRANCH   6   7
HETATM    7  C6  UNL     1     -34.808   5.248   4.984  1.00 20.00    -0.004 C 
HETATM    8  C4  UNL     1     -33.928   4.210   4.305  1.00 20.00     0.005 C 
ENDBRANCH   6   7
ENDBRANCH   2   6
TORSDOF 3
ENDMDL
MODEL 4
REMARK VINA RESULT:      -4.5      1.208      2.621
REMARK  3 active torsions:
REMARK  status: ('A' for Active; 'I' for Inactive)
REMARK    1  A    between atoms: C3_3  and  C8_8 
REMARK    2  A    between atoms: C6_6  and  C7_7 
REMARK    3  A    between atoms: C7_7  and  C8_8 
ROOT
HETATM    1  C5  UNL     1     -32.946   5.363   2.608  1.00 20.00     0.010 C 
HETATM    2  C8  UNL     1     -33.019   6.245   3.856  1.00 20.00    -0.014 C 
ENDROOT
BRANCH   2   3
HETATM    3  C3  UNL     1     -32.229   7.536   3.622  1.00 20.00    -0.011 A 
HETATM    4  C1  UNL     1     -32.948   8.817   3.304  1.00 20.00     0.005 A 
HETATM    5  C2  UNL     1     -32.274   8.644   4.636  1.00 20.00     0.005 A 
ENDBRANCH   2   3
BRANCH   2   6
HETATM    6  C7  UNL     1     -34.467   6.584   4.254  1.00 20.00     0.004 C 
BRANCH   6   7
HETATM    7  C6  UNL     1     -35.111   5.535   5.164  1.00 20.00    -0.004 C 
HETATM    8  C4  UNL     1     -34.391   5.444   6.501  1.00 20.00     0.005 C 
ENDBRANCH   6   7
ENDBRANCH   2   6
TORSDOF 3
ENDMDL
MODEL 5
REMARK VINA RESULT:      -4.5      1.313      3.273
REMARK  3 active torsions:
REMARK  status: ('A' for Active; 'I' for Inactive)
REMARK    1  A    between atoms: C3_3  and  C8_8 
REMARK    2  A    between atoms: C6_6  and  C7_7 
REMARK    3  A    between atoms: C7_7  and  C8_8 
ROOT
HETATM    1  C5  UNL     1     -32.473   8.990   5.377  1.00 20.00     0.010 C 
HETATM    2  C8  UNL     1     -33.195   8.235   4.260  1.00 20.00    -0.014 C 
ENDROOT
BRANCH   2   3
HETATM    3  C3  UNL     1     -32.183   7.422   3.448  1.00 20.00    -0.011 A 
HETATM    4  C1  UNL     1     -32.625   6.201   2.691  1.00 20.00     0.005 A 
HETATM    5  C2  UNL     1     -32.225   7.444   1.946  1.00 20.00     0.005 A 
ENDBRANCH   2   3
BRANCH   2   6
HETATM    6  C7  UNL     1     -34.300   7.307   4.796  1.00 20.00     0.004 C 
BRANCH   6   7
HETATM    7  C6  UNL     1     -34.030   6.792   6.213  1.00 20.00    -0.004 C 
HETATM    8  C4  UNL     1     -34.531   5.367   6.389  1.00 20.00     0.005 C 
ENDBRANCH   6   7
ENDBRANCH   2   6
TORSDOF 3
ENDMDL
MODEL 6
REMARK VINA RESULT:      -4.5      0.867      3.146
REMARK  3 active torsions:
REMARK  status: ('A' for Active; 'I' for Inactive)
REMARK    1  A    between atoms: C3_3  and  C8_8 
REMARK    2  A    between atoms: C6_6  and  C7_7 
REMARK    3  A    between atoms: C7_7  and  C8_8 
ROOT
HETATM    1  C5  UNL     1     -34.648   6.133   6.628  1.00 20.00     0.010 C 
HETATM    2  C8  UNL     1     -33.782   6.547   5.437  1.00 20.00    -0.014 C 
ENDROOT
BRANCH   2   3
HETATM    3  C3  UNL     1     -34.250   5.812   4.178  1.00 20.00    -0.011 A 
HETATM    4  C1  UNL     1     -33.249   5.335   3.163  1.00 20.00     0.005 A 
HETATM    5  C2  UNL     1     -33.985   4.341   4.018  1.00 20.00     0.005 A 
ENDBRANCH   2   3
BRANCH   2   6
HETATM    6  C7  UNL     1     -33.805   8.067   5.194  1.00 20.00     0.004 C 
BRANCH   6   7
HETATM    7  C6  UNL     1     -32.453   8.635   4.754  1.00 20.00    -0.004 C 
HETATM    8  C4  UNL     1     -32.396   8.829   3.247  1.00 20.00     0.005 C 
ENDBRANCH   6   7
ENDBRANCH   2   6
TORSDOF 3
ENDMDL
MODEL 7
REMARK VINA RESULT:      -4.4      1.025      2.577
REMARK  3 active torsions:
REMARK  status: ('A' for Active; 'I' for Inactive)
REMARK    1  A    between atoms: C3_3  and  C8_8 
REMARK    2  A    between atoms: C6_6  and  C7_7 
REMARK    3  A    between atoms: C7_7  and  C8_8 
ROOT
HETATM    1  C5  UNL     1     -32.506   6.292   2.595  1.00 20.00     0.010 C 
HETATM    2  C8  UNL     1     -33.173   6.554   3.947  1.00 20.00    -0.014 C 
ENDROOT
BRANCH   2   3
HETATM    3  C3  UNL     1     -33.336   8.061   4.159  1.00 20.00    -0.011 A 
HETATM    4  C1  UNL     1     -33.469   8.621   5.547  1.00 20.00     0.005 A 
HETATM    5  C2  UNL     1     -32.216   8.867   4.754  1.00 20.00     0.005 A 
ENDBRANCH   2   3
BRANCH   2   6
HETATM    6  C7  UNL     1     -34.540   5.857   4.072  1.00 20.00     0.004 C 
BRANCH   6   7
HETATM    7  C6  UNL     1     -34.590   4.804   5.183  1.00 20.00    -0.004 C 
HETATM    8  C4  UNL     1     -34.615   5.451   6.559  1.00 20.00     0.005 C 
ENDBRANCH   6   7
ENDBRANCH   2   6
TORSDOF 3
ENDMDL
MODEL 8
REMARK VINA RESULT:      -4.4      1.134      3.124
REMARK  3 active torsions:
REMARK  status: ('A' for Active; 'I' for Inactive)
REMARK    1  A    between atoms: C3_3  and  C8_8 
REMARK    2  A    between atoms: C6_6  and  C7_7 
REMARK    3  A    between atoms: C7_7  and  C8_8 
ROOT
HETATM    1  C5  UNL     1     -33.318   5.309   3.293  1.00 20.00     0.010 C 
HETATM    2  C8  UNL     1     -34.056   6.464   3.972  1.00 20.00    -0.014 C 
ENDROOT
BRANCH   2   3
HETATM    3  C3  UNL     1     -34.930   5.923   5.107  1.00 20.00    -0.011 A 
HETATM    4  C1  UNL     1     -34.386   4.889   6.053  1.00 20.00     0.005 A 
HETATM    5  C2  UNL     1     -34.632   6.292   6.533  1.00 20.00     0.005 A 
ENDBRANCH   2   3
BRANCH   2   6
HETATM    6  C7  UNL     1     -33.094   7.535   4.519  1.00 20.00     0.004 C 
BRANCH   6   7
HETATM    7  C6  UNL     1     -32.020   7.960   3.514  1.00 20.00    -0.004 C 
HETATM    8  C4  UNL     1     -32.592   8.876   2.443  1.00 20.00     0.005 C 
ENDBRANCH   6   7
ENDBRANCH   2   6
TORSDOF 3
ENDMDL
MODEL 9
REMARK VINA RESULT:      -4.3      1.565      3.217
REMARK  3 active torsions:
REMARK  status: ('A' for Active; 'I' for Inactive)
REMARK    1  A    between atoms: C3_3  and  C8_8 
REMARK    2  A    between atoms: C6_6  and  C7_7 
REMARK    3  A    between atoms: C7_7  and  C8_8 
ROOT
HETATM    1  C5  UNL     1     -33.280   8.616   5.306  1.00 20.00     0.010 C 
HETATM    2  C8  UNL     1     -33.114   7.178   4.812  1.00 20.00    -0.014 C 
ENDROOT
BRANCH   2   3
HETATM    3  C3  UNL     1     -34.449   6.436   4.924  1.00 20.00    -0.011 A 
HETATM    4  C1  UNL     1     -34.506   4.947   4.728  1.00 20.00     0.005 A 
HETATM    5  C2  UNL     1     -34.716   5.534   6.096  1.00 20.00     0.005 A 
ENDBRANCH   2   3
BRANCH   2   6
HETATM    6  C7  UNL     1     -32.600   7.111   3.362  1.00 20.00     0.004 C 
BRANCH   6   7
HETATM    7  C6  UNL     1     -32.445   8.486   2.705  1.00 20.00    -0.004 C 
HETATM    8  C4  UNL     1     -32.194   8.361   1.211  1.00 20.00     0.005 C 
ENDBRANCH   6   7
ENDBRANCH   2   6
TORSDOF 3
ENDMDL
