MODEL 1
REMARK VINA RESULT:      -3.9      0.000      0.000
REMARK  4 active torsions:
REMARK  status: ('A' for Active; 'I' for Inactive)
REMARK    1  A    between atoms: C2_2  and  C5_5 
REMARK    2  A    between atoms: C4_4  and  C6_6 
REMARK    3  A    between atoms: C5_5  and  O8_8 
REMARK    4  A    between atoms: C6_6  and  O8_8 
ROOT
HETATM    1  O8  UNL     1     -33.321   6.950   6.261  1.00 20.00    -0.383 OA
ENDROOT
BRANCH   1   2
HETATM    2  C5  UNL     1     -34.477   6.130   6.372  1.00 20.00     0.218 C 
BRANCH   2   3
HETATM    3  C2  UNL     1     -34.735   5.448   5.067  1.00 20.00     0.026 C 
HETATM    4  C1  UNL     1     -34.001   4.436   4.590  1.00 20.00     0.034 C 
HETATM    5 CL9  UNL     1     -36.053   6.074   4.134  1.00 20.00    -0.088 Cl
ENDBRANCH   2   3
ENDBRANCH   1   2
BRANCH   1   6
HETATM    6  C6  UNL     1     -33.542   8.047   5.385  1.00 20.00     0.202 C 
BRANCH   6   7
HETATM    7  C4  UNL     1     -32.338   8.206   4.480  1.00 20.00     0.169 A 
HETATM    8  C3  UNL     1     -32.231   7.448   3.187  1.00 20.00     0.202 A 
HETATM    9  O7  UNL     1     -32.616   8.832   3.224  1.00 20.00    -0.379 OA
ENDBRANCH   6   7
ENDBRANCH   1   6
TORSDOF 4
ENDMDL
MODEL 2
REMARK VINA RESULT:      -3.8      2.073      3.739
REMARK  4 active torsions:
REMARK  status: ('A' for Active; 'I' for Inactive)
REMARK    1  A    between atoms: C2_2  and  C5_5 
REMARK    2  A    between atoms: C4_4  and  C6_6 
REMARK    3  A    between atoms: C5_5  and  O8_8 
REMARK    4  A    between atoms: C6_6  and  O8_8 
ROOT
HETATM    1  O8  UNL     1     -33.650   8.321   5.234  1.00 20.00    -0.383 OA
ENDROOT
BRANCH   1   2
HETATM    2  C5  UNL     1     -32.383   8.540   4.628  1.00 20.00     0.218 C 
BRANCH   2   3
HETATM    3  C2  UNL     1     -32.446   8.158   3.184  1.00 20.00     0.026 C 
HETATM    4  C1  UNL     1     -32.198   6.927   2.722  1.00 20.00     0.034 C 
HETATM    5 CL9  UNL     1     -32.826   9.435   2.078  1.00 20.00    -0.088 Cl
ENDBRANCH   2   3
ENDBRANCH   1   2
BRANCH   1   6
HETATM    6  C6  UNL     1     -33.649   7.147   6.034  1.00 20.00     0.202 C 
BRANCH   6   7
HETATM    7  C4  UNL     1     -34.751   6.224   5.558  1.00 20.00     0.169 A 
HETATM    8  C3  UNL     1     -34.436   4.957   4.813  1.00 20.00     0.202 A 
HETATM    9  O7  UNL     1     -34.782   4.949   6.207  1.00 20.00    -0.379 OA
ENDBRANCH   6   7
ENDBRANCH   1   6
TORSDOF 4
ENDMDL
MODEL 3
REMARK VINA RESULT:      -3.7      1.138      1.378
REMARK  4 active torsions:
REMARK  status: ('A' for Active; 'I' for Inactive)
REMARK    1  A    between atoms: C2_2  and  C5_5 
REMARK    2  A    between atoms: C4_4  and  C6_6 
REMARK    3  A    between atoms: C5_5  and  O8_8 
REMARK    4  A    between atoms: C6_6  and  O8_8 
ROOT
HETATM    1  O8  UNL     1     -32.876   7.782   5.584  1.00 20.00    -0.383 OA
ENDROOT
BRANCH   1   2
HETATM    2  C5  UNL     1     -34.192   7.547   6.065  1.00 20.00     0.218 C 
BRANCH   2   3
HETATM    3  C2  UNL     1     -34.594   6.140   5.759  1.00 20.00     0.026 C 
HETATM    4  C1  UNL     1     -34.180   5.073   6.452  1.00 20.00     0.034 C 
HETATM    5 CL9  UNL     1     -35.626   5.930   4.384  1.00 20.00    -0.088 Cl
ENDBRANCH   2   3
ENDBRANCH   1   2
BRANCH   1   6
HETATM    6  C6  UNL     1     -32.890   8.327   4.272  1.00 20.00     0.202 C 
BRANCH   6   7
HETATM    7  C4  UNL     1     -31.987   7.497   3.383  1.00 20.00     0.169 A 
HETATM    8  C3  UNL     1     -32.525   6.334   2.597  1.00 20.00     0.202 A 
HETATM    9  O7  UNL     1     -32.265   7.607   1.984  1.00 20.00    -0.379 OA
ENDBRANCH   6   7
ENDBRANCH   1   6
TORSDOF 4
ENDMDL
MODEL 4
REMARK VINA RESULT:      -3.4      2.281      4.096
REMARK  4 active torsions:
REMARK  status: ('A' for Active; 'I' for Inactive)
REMARK    1  A    between atoms: C2_2  and  C5_5 
REMARK    2  A    between atoms: C4_4  and  C6_6 
REMARK    3  A    between atoms: C5_5  and  O8_8 
REMARK    4  A    between atoms: C6_6  and  O8_8 
ROOT
HETATM    1  O8  UNL     1     -33.879   5.606   3.146  1.00 20.00    -0.383 OA
ENDROOT
BRANCH   1   2
HETATM    2  C5  UNL     1     -32.521   5.897   2.841  1.00 20.00     0.218 C 
BRANCH   2   3
HETATM    3  C2  UNL     1     -32.298   7.374   2.908  1.00 20.00     0.026 C 
HETATM    4  C1  UNL     1     -32.252   8.075   4.047  1.00 20.00     0.034 C 
HETATM    5 CL9  UNL     1     -32.137   8.185   1.386  1.00 20.00    -0.088 Cl
ENDBRANCH   2   3
ENDBRANCH   1   2
BRANCH   1   6
HETATM    6  C6  UNL     1     -33.985   4.619   4.163  1.00 20.00     0.202 C 
BRANCH   6   7
HETATM    7  C4  UNL     1     -34.916   5.124   5.245  1.00 20.00     0.169 A 
HETATM    8  C3  UNL     1     -34.381   5.670   6.539  1.00 20.00     0.202 A 
HETATM    9  O7  UNL     1     -34.840   6.532   5.486  1.00 20.00    -0.379 OA
ENDBRANCH   6   7
ENDBRANCH   1   6
TORSDOF 4
ENDMDL
MODEL 5
REMARK VINA RESULT:      -3.3     12.434     13.036
REMARK  4 active torsions:
REMARK  status: ('A' for Active; 'I' for Inactive)
REMARK    1  A    between atoms: C2_2  and  C5_5 
REMARK    2  A    between atoms: C4_4  and  C6_6 
REMARK    3  A    between atoms: C5_5  and  O8_8 
REMARK    4  A    between atoms: C6_6  and  O8_8 
ROOT
HETATM    1  O8  UNL     1     -32.982  18.042  -2.164  1.00 20.00    -0.383 OA
ENDROOT
BRANCH   1   2
HETATM    2  C5  UNL     1     -33.319  16.670  -2.311  1.00 20.00     0.218 C 
BRANCH   2   3
HETATM    3  C2  UNL     1     -33.653  16.386  -3.741  1.00 20.00     0.026 C 
HETATM    4  C1  UNL     1     -34.220  17.272  -4.569  1.00 20.00     0.034 C 
HETATM    5 CL9  UNL     1     -33.303  14.784  -4.296  1.00 20.00    -0.088 Cl
ENDBRANCH   2   3
ENDBRANCH   1   2
BRANCH   1   6
HETATM    6  C6  UNL     1     -33.068  18.458  -0.807  1.00 20.00     0.202 C 
BRANCH   6   7
HETATM    7  C4  UNL     1     -31.833  19.263  -0.459  1.00 20.00     0.169 A 
HETATM    8  C3  UNL     1     -31.021  18.951   0.767  1.00 20.00     0.202 A 
HETATM    9  O7  UNL     1     -30.604  18.535  -0.543  1.00 20.00    -0.379 OA
ENDBRANCH   6   7
ENDBRANCH   1   6
TORSDOF 4
ENDMDL
MODEL 6
REMARK VINA RESULT:      -3.2     12.393     13.559
REMARK  4 active torsions:
REMARK  status: ('A' for Active; 'I' for Inactive)
REMARK    1  A    between atoms: C2_2  and  C5_5 
REMARK    2  A    between atoms: C4_4  and  C6_6 
REMARK    3  A    between atoms: C5_5  and  O8_8 
REMARK    4  A    between atoms: C6_6  and  O8_8 
ROOT
HETATM    1  O8  UNL     1     -34.134  14.848  -4.138  1.00 20.00    -0.383 OA
ENDROOT
BRANCH   1   2
HETATM    2  C5  UNL     1     -33.009  15.641  -3.781  1.00 20.00     0.218 C 
BRANCH   2   3
HETATM    3  C2  UNL     1     -33.475  16.956  -3.243  1.00 20.00     0.026 C 
HETATM    4  C1  UNL     1     -33.748  18.024  -4.003  1.00 20.00     0.034 C 
HETATM    5 CL9  UNL     1     -33.610  17.064  -1.520  1.00 20.00    -0.088 Cl
ENDBRANCH   2   3
ENDBRANCH   1   2
BRANCH   1   6
HETATM    6  C6  UNL     1     -34.255  14.720  -5.549  1.00 20.00     0.202 C 
BRANCH   6   7
HETATM    7  C4  UNL     1     -35.718  14.813  -5.928  1.00 20.00     0.169 A 
HETATM    8  C3  UNL     1     -36.179  15.721  -7.034  1.00 20.00     0.202 A 
HETATM    9  O7  UNL     1     -36.029  14.306  -7.230  1.00 20.00    -0.379 OA
ENDBRANCH   6   7
ENDBRANCH   1   6
TORSDOF 4
ENDMDL
MODEL 7
REMARK VINA RESULT:      -3.2     12.357     12.774
REMARK  4 active torsions:
REMARK  status: ('A' for Active; 'I' for Inactive)
REMARK    1  A    between atoms: C2_2  and  C5_5 
REMARK    2  A    between atoms: C4_4  and  C6_6 
REMARK    3  A    between atoms: C5_5  and  O8_8 
REMARK    4  A    between atoms: C6_6  and  O8_8 
ROOT
HETATM    1  O8  UNL     1     -33.417  16.728  -2.232  1.00 20.00    -0.383 OA
ENDROOT
BRANCH   1   2
HETATM    2  C5  UNL     1     -32.932  18.054  -2.067  1.00 20.00     0.218 C 
BRANCH   2   3
HETATM    3  C2  UNL     1     -32.537  18.269  -0.641  1.00 20.00     0.026 C 
HETATM    4  C1  UNL     1     -31.293  18.556  -0.242  1.00 20.00     0.034 C 
HETATM    5 CL9  UNL     1     -33.799  18.081   0.530  1.00 20.00    -0.088 Cl
ENDBRANCH   2   3
ENDBRANCH   1   2
BRANCH   1   6
HETATM    6  C6  UNL     1     -32.988  16.165  -3.465  1.00 20.00     0.202 C 
BRANCH   6   7
HETATM    7  C4  UNL     1     -34.147  15.427  -4.101  1.00 20.00     0.169 A 
HETATM    8  C3  UNL     1     -34.025  14.818  -5.469  1.00 20.00     0.202 A 
HETATM    9  O7  UNL     1     -33.935  14.023  -4.276  1.00 20.00    -0.379 OA
ENDBRANCH   6   7
ENDBRANCH   1   6
TORSDOF 4
ENDMDL
MODEL 8
REMARK VINA RESULT:      -3.2      2.244      4.070
REMARK  4 active torsions:
REMARK  status: ('A' for Active; 'I' for Inactive)
REMARK    1  A    between atoms: C2_2  and  C5_5 
REMARK    2  A    between atoms: C4_4  and  C6_6 
REMARK    3  A    between atoms: C5_5  and  O8_8 
REMARK    4  A    between atoms: C6_6  and  O8_8 
ROOT
HETATM    1  O8  UNL     1     -33.842   5.579   3.180  1.00 20.00    -0.383 OA
ENDROOT
BRANCH   1   2
HETATM    2  C5  UNL     1     -32.491   5.884   2.865  1.00 20.00     0.218 C 
BRANCH   2   3
HETATM    3  C2  UNL     1     -32.306   7.368   2.837  1.00 20.00     0.026 C 
HETATM    4  C1  UNL     1     -32.193   8.089   1.716  1.00 20.00     0.034 C 
HETATM    5 CL9  UNL     1     -32.194   8.146   4.380  1.00 20.00    -0.088 Cl
ENDBRANCH   2   3
ENDBRANCH   1   2
BRANCH   1   6
HETATM    6  C6  UNL     1     -33.930   4.613   4.219  1.00 20.00     0.202 C 
BRANCH   6   7
HETATM    7  C4  UNL     1     -34.858   5.131   5.298  1.00 20.00     0.169 A 
HETATM    8  C3  UNL     1     -34.335   5.937   6.453  1.00 20.00     0.202 A 
HETATM    9  O7  UNL     1     -34.992   6.555   5.335  1.00 20.00    -0.379 OA
ENDBRANCH   6   7
ENDBRANCH   1   6
TORSDOF 4
ENDMDL
MODEL 9
REMARK VINA RESULT:      -3.2      9.023      9.928
REMARK  4 active torsions:
REMARK  status: ('A' for Active; 'I' for Inactive)
REMARK    1  A    between atoms: C2_2  and  C5_5 
REMARK    2  A    between atoms: C4_4  and  C6_6 
REMARK    3  A    between atoms: C5_5  and  O8_8 
REMARK    4  A    between atoms: C6_6  and  O8_8 
ROOT
HETATM    1  O8  UNL     1     -41.351  12.270   6.699  1.00 20.00    -0.383 OA
ENDROOT
BRANCH   1   2
HETATM    2  C5  UNL     1     -40.834  12.742   5.463  1.00 20.00     0.218 C 
BRANCH   2   3
HETATM    3  C2  UNL     1     -39.460  12.190   5.251  1.00 20.00     0.026 C 
HETATM    4  C1  UNL     1     -38.549  12.050   6.222  1.00 20.00     0.034 C 
HETATM    5 CL9  UNL     1     -39.061  11.759   3.622  1.00 20.00    -0.088 Cl
ENDBRANCH   2   3
ENDBRANCH   1   2
BRANCH   1   6
HETATM    6  C6  UNL     1     -42.178  13.243   7.324  1.00 20.00     0.202 C 
BRANCH   6   7
HETATM    7  C4  UNL     1     -41.301  14.276   7.998  1.00 20.00     0.169 A 
HETATM    8  C3  UNL     1     -41.281  14.423   9.494  1.00 20.00     0.202 A 
HETATM    9  O7  UNL     1     -40.238  13.732   8.787  1.00 20.00    -0.379 OA
ENDBRANCH   6   7
ENDBRANCH   1   6
TORSDOF 4
ENDMDL
