MODEL 1
REMARK VINA RESULT:      -2.4      0.000      0.000
REMARK  3 active torsions:
REMARK  status: ('A' for Active; 'I' for Inactive)
REMARK    1  A    between atoms: C1_1  and  S7_7 
REMARK    2  A    between atoms: C1_1  and  S8_8 
REMARK    3  A    between atoms: C5_5  and  S8_8 
ROOT
HETATM    1  S8  UNL     1     -35.192  18.573  -2.844  1.00 20.00    -0.103 SA
ENDROOT
BRANCH   1   2
HETATM    2  C1  UNL     1     -34.859  18.105  -4.501  1.00 20.00     0.102 C 
HETATM    3  S6  UNL     1     -35.464  16.706  -5.191  1.00 20.00    -0.065 SA
BRANCH   2   4
HETATM    4  S7  UNL     1     -33.895  19.263  -5.407  1.00 20.00    -0.124 SA
HETATM    5  H18 UNL     1     -32.720  18.631  -5.277  1.00 20.00     0.108 HD
ENDBRANCH   2   4
ENDBRANCH   1   2
BRANCH   1   6
HETATM    6  C5  UNL     1     -33.645  17.962  -2.068  1.00 20.00     0.003 C 
HETATM    7  C2  UNL     1     -33.895  17.757  -0.571  1.00 20.00     0.026 C 
HETATM    8  C3  UNL     1     -33.266  16.635  -2.730  1.00 20.00     0.026 C 
HETATM    9  C4  UNL     1     -32.542  19.001  -2.288  1.00 20.00     0.026 C 
ENDBRANCH   1   6
TORSDOF 3
ENDMDL
MODEL 2
REMARK VINA RESULT:      -2.4      0.055      1.547
REMARK  3 active torsions:
REMARK  status: ('A' for Active; 'I' for Inactive)
REMARK    1  A    between atoms: C1_1  and  S7_7 
REMARK    2  A    between atoms: C1_1  and  S8_8 
REMARK    3  A    between atoms: C5_5  and  S8_8 
ROOT
HETATM    1  S8  UNL     1     -35.162  18.614  -2.897  1.00 20.00    -0.103 SA
ENDROOT
BRANCH   1   2
HETATM    2  C1  UNL     1     -34.824  18.122  -4.547  1.00 20.00     0.102 C 
HETATM    3  S6  UNL     1     -35.433  16.718  -5.221  1.00 20.00    -0.065 SA
BRANCH   2   4
HETATM    4  S7  UNL     1     -33.849  19.263  -5.463  1.00 20.00    -0.124 SA
HETATM    5  H18 UNL     1     -33.375  18.386  -6.359  1.00 20.00     0.108 HD
ENDBRANCH   2   4
ENDBRANCH   1   2
BRANCH   1   6
HETATM    6  C5  UNL     1     -33.633  17.982  -2.102  1.00 20.00     0.003 C 
HETATM    7  C2  UNL     1     -32.509  18.998  -2.322  1.00 20.00     0.026 C 
HETATM    8  C3  UNL     1     -33.905  17.806  -0.606  1.00 20.00     0.026 C 
HETATM    9  C4  UNL     1     -33.268  16.637  -2.738  1.00 20.00     0.026 C 
ENDBRANCH   1   6
TORSDOF 3
ENDMDL
MODEL 3
REMARK VINA RESULT:      -2.4      0.066      1.530
REMARK  3 active torsions:
REMARK  status: ('A' for Active; 'I' for Inactive)
REMARK    1  A    between atoms: C1_1  and  S7_7 
REMARK    2  A    between atoms: C1_1  and  S8_8 
REMARK    3  A    between atoms: C5_5  and  S8_8 
ROOT
HETATM    1  S8  UNL     1     -35.167  18.581  -2.911  1.00 20.00    -0.103 SA
ENDROOT
BRANCH   1   2
HETATM    2  C1  UNL     1     -34.804  18.105  -4.560  1.00 20.00     0.102 C 
HETATM    3  S6  UNL     1     -35.391  16.699  -5.251  1.00 20.00    -0.065 SA
BRANCH   2   4
HETATM    4  S7  UNL     1     -33.831  19.262  -5.457  1.00 20.00    -0.124 SA
HETATM    5  H18 UNL     1     -33.437  18.425  -6.426  1.00 20.00     0.108 HD
ENDBRANCH   2   4
ENDBRANCH   1   2
BRANCH   1   6
HETATM    6  C5  UNL     1     -33.640  17.962  -2.103  1.00 20.00     0.003 C 
HETATM    7  C2  UNL     1     -33.268  16.613  -2.725  1.00 20.00     0.026 C 
HETATM    8  C3  UNL     1     -32.523  18.982  -2.336  1.00 20.00     0.026 C 
HETATM    9  C4  UNL     1     -33.909  17.801  -0.604  1.00 20.00     0.026 C 
ENDBRANCH   1   6
TORSDOF 3
ENDMDL
MODEL 4
REMARK VINA RESULT:      -2.4      3.253      4.126
REMARK  3 active torsions:
REMARK  status: ('A' for Active; 'I' for Inactive)
REMARK    1  A    between atoms: C1_1  and  S7_7 
REMARK    2  A    between atoms: C1_1  and  S8_8 
REMARK    3  A    between atoms: C5_5  and  S8_8 
ROOT
HETATM    1  S8  UNL     1     -35.081  16.980  -5.001  1.00 20.00    -0.103 SA
ENDROOT
BRANCH   1   2
HETATM    2  C1  UNL     1     -35.573  17.437  -6.621  1.00 20.00     0.102 C 
HETATM    3  S6  UNL     1     -37.050  17.008  -7.279  1.00 20.00    -0.065 SA
BRANCH   2   4
HETATM    4  S7  UNL     1     -34.418  18.449  -7.477  1.00 20.00    -0.124 SA
HETATM    5  H18 UNL     1     -35.314  19.230  -8.095  1.00 20.00     0.108 HD
ENDBRANCH   2   4
ENDBRANCH   1   2
BRANCH   1   6
HETATM    6  C5  UNL     1     -34.642  15.228  -5.330  1.00 20.00     0.003 C 
HETATM    7  C2  UNL     1     -33.984  15.138  -6.710  1.00 20.00     0.026 C 
HETATM    8  C3  UNL     1     -33.667  14.763  -4.245  1.00 20.00     0.026 C 
HETATM    9  C4  UNL     1     -35.921  14.386  -5.293  1.00 20.00     0.026 C 
ENDBRANCH   1   6
TORSDOF 3
ENDMDL
MODEL 5
REMARK VINA RESULT:      -2.4     12.713     14.024
REMARK  3 active torsions:
REMARK  status: ('A' for Active; 'I' for Inactive)
REMARK    1  A    between atoms: C1_1  and  S7_7 
REMARK    2  A    between atoms: C1_1  and  S8_8 
REMARK    3  A    between atoms: C5_5  and  S8_8 
ROOT
HETATM    1  S8  UNL     1     -40.623  14.211   7.570  1.00 20.00    -0.103 SA
ENDROOT
BRANCH   1   2
HETATM    2  C1  UNL     1     -42.110  14.605   8.412  1.00 20.00     0.102 C 
HETATM    3  S6  UNL     1     -42.569  13.867   9.842  1.00 20.00    -0.065 SA
BRANCH   2   4
HETATM    4  S7  UNL     1     -43.049  15.893   7.672  1.00 20.00    -0.124 SA
HETATM    5  H18 UNL     1     -42.081  16.357   6.869  1.00 20.00     0.108 HD
ENDBRANCH   2   4
ENDBRANCH   1   2
BRANCH   1   6
HETATM    6  C5  UNL     1     -41.313  13.070   6.309  1.00 20.00     0.003 C 
HETATM    7  C2  UNL     1     -41.709  13.885   5.074  1.00 20.00     0.026 C 
HETATM    8  C3  UNL     1     -40.237  12.044   5.946  1.00 20.00     0.026 C 
HETATM    9  C4  UNL     1     -42.539  12.368   6.901  1.00 20.00     0.026 C 
ENDBRANCH   1   6
TORSDOF 3
ENDMDL
MODEL 6
REMARK VINA RESULT:      -2.4      3.260      3.909
REMARK  3 active torsions:
REMARK  status: ('A' for Active; 'I' for Inactive)
REMARK    1  A    between atoms: C1_1  and  S7_7 
REMARK    2  A    between atoms: C1_1  and  S8_8 
REMARK    3  A    between atoms: C5_5  and  S8_8 
ROOT
HETATM    1  S8  UNL     1     -35.096  16.978  -5.011  1.00 20.00    -0.103 SA
ENDROOT
BRANCH   1   2
HETATM    2  C1  UNL     1     -35.579  17.434  -6.634  1.00 20.00     0.102 C 
HETATM    3  S6  UNL     1     -37.053  17.006  -7.299  1.00 20.00    -0.065 SA
BRANCH   2   4
HETATM    4  S7  UNL     1     -34.418  18.445  -7.485  1.00 20.00    -0.124 SA
HETATM    5  H18 UNL     1     -33.516  18.521  -6.496  1.00 20.00     0.108 HD
ENDBRANCH   2   4
ENDBRANCH   1   2
BRANCH   1   6
HETATM    6  C5  UNL     1     -34.648  15.229  -5.338  1.00 20.00     0.003 C 
HETATM    7  C2  UNL     1     -33.667  14.763  -4.258  1.00 20.00     0.026 C 
HETATM    8  C3  UNL     1     -35.926  14.387  -5.293  1.00 20.00     0.026 C 
HETATM    9  C4  UNL     1     -34.000  15.138  -6.722  1.00 20.00     0.026 C 
ENDBRANCH   1   6
TORSDOF 3
ENDMDL
MODEL 7
REMARK VINA RESULT:      -2.4     12.705     13.989
REMARK  3 active torsions:
REMARK  status: ('A' for Active; 'I' for Inactive)
REMARK    1  A    between atoms: C1_1  and  S7_7 
REMARK    2  A    between atoms: C1_1  and  S8_8 
REMARK    3  A    between atoms: C5_5  and  S8_8 
ROOT
HETATM    1  S8  UNL     1     -40.622  14.225   7.557  1.00 20.00    -0.103 SA
ENDROOT
BRANCH   1   2
HETATM    2  C1  UNL     1     -42.109  14.610   8.404  1.00 20.00     0.102 C 
HETATM    3  S6  UNL     1     -42.558  13.873   9.836  1.00 20.00    -0.065 SA
BRANCH   2   4
HETATM    4  S7  UNL     1     -43.059  15.892   7.664  1.00 20.00    -0.124 SA
HETATM    5  H18 UNL     1     -44.133  15.146   7.371  1.00 20.00     0.108 HD
ENDBRANCH   2   4
ENDBRANCH   1   2
BRANCH   1   6
HETATM    6  C5  UNL     1     -41.309  13.071   6.305  1.00 20.00     0.003 C 
HETATM    7  C2  UNL     1     -42.535  12.374   6.901  1.00 20.00     0.026 C 
HETATM    8  C3  UNL     1     -41.707  13.882   5.070  1.00 20.00     0.026 C 
HETATM    9  C4  UNL     1     -40.233  12.043   5.943  1.00 20.00     0.026 C 
ENDBRANCH   1   6
TORSDOF 3
ENDMDL
MODEL 8
REMARK VINA RESULT:      -2.4      3.261      3.933
REMARK  3 active torsions:
REMARK  status: ('A' for Active; 'I' for Inactive)
REMARK    1  A    between atoms: C1_1  and  S7_7 
REMARK    2  A    between atoms: C1_1  and  S8_8 
REMARK    3  A    between atoms: C5_5  and  S8_8 
ROOT
HETATM    1  S8  UNL     1     -35.077  16.982  -5.014  1.00 20.00    -0.103 SA
ENDROOT
BRANCH   1   2
HETATM    2  C1  UNL     1     -35.581  17.426  -6.635  1.00 20.00     0.102 C 
HETATM    3  S6  UNL     1     -37.066  16.999  -7.275  1.00 20.00    -0.065 SA
BRANCH   2   4
HETATM    4  S7  UNL     1     -34.428  18.422  -7.511  1.00 20.00    -0.124 SA
HETATM    5  H18 UNL     1     -33.978  19.115  -6.455  1.00 20.00     0.108 HD
ENDBRANCH   2   4
ENDBRANCH   1   2
BRANCH   1   6
HETATM    6  C5  UNL     1     -34.638  15.229  -5.333  1.00 20.00     0.003 C 
HETATM    7  C2  UNL     1     -35.917  14.388  -5.293  1.00 20.00     0.026 C 
HETATM    8  C3  UNL     1     -33.986  15.138  -6.714  1.00 20.00     0.026 C 
HETATM    9  C4  UNL     1     -33.660  14.763  -4.251  1.00 20.00     0.026 C 
ENDBRANCH   1   6
TORSDOF 3
ENDMDL
MODEL 9
REMARK VINA RESULT:      -2.4      3.270      4.451
REMARK  3 active torsions:
REMARK  status: ('A' for Active; 'I' for Inactive)
REMARK    1  A    between atoms: C1_1  and  S7_7 
REMARK    2  A    between atoms: C1_1  and  S8_8 
REMARK    3  A    between atoms: C5_5  and  S8_8 
ROOT
HETATM    1  S8  UNL     1     -35.285  16.957  -5.027  1.00 20.00    -0.103 SA
ENDROOT
BRANCH   1   2
HETATM    2  C1  UNL     1     -36.746  16.919  -5.996  1.00 20.00     0.102 C 
HETATM    3  S6  UNL     1     -36.730  16.944  -7.669  1.00 20.00    -0.065 SA
BRANCH   2   4
HETATM    4  S7  UNL     1     -38.234  16.777  -5.070  1.00 20.00    -0.124 SA
HETATM    5  H18 UNL     1     -38.886  15.985  -5.932  1.00 20.00     0.108 HD
ENDBRANCH   2   4
ENDBRANCH   1   2
BRANCH   1   6
HETATM    6  C5  UNL     1     -34.726  15.231  -5.302  1.00 20.00     0.003 C 
HETATM    7  C2  UNL     1     -33.974  15.166  -6.635  1.00 20.00     0.026 C 
HETATM    8  C3  UNL     1     -33.800  14.834  -4.150  1.00 20.00     0.026 C 
HETATM    9  C4  UNL     1     -35.954  14.317  -5.337  1.00 20.00     0.026 C 
ENDBRANCH   1   6
TORSDOF 3
ENDMDL
