MODEL 1
REMARK VINA RESULT:      -4.9      0.000      0.000
REMARK  2 active torsions:
REMARK  status: ('A' for Active; 'I' for Inactive)
REMARK    1  A    between atoms: C1_1  and  C6_6 
REMARK    2  A    between atoms: C1_1  and  C7_7 
ROOT
HETATM    1  C1  UNL     1     -33.775   7.178   5.534  1.00 20.00     0.135 C 
HETATM    2  O8  UNL     1     -33.226   7.235   6.635  1.00 20.00    -0.297 OA
ENDROOT
BRANCH   1   3
HETATM    3  C6  UNL     1     -34.804   6.176   5.239  1.00 20.00     0.056 A 
HETATM    4  C2  UNL     1     -34.403   4.869   4.607  1.00 20.00     0.013 A 
HETATM    5  C3  UNL     1     -34.844   4.903   6.040  1.00 20.00     0.013 A 
ENDBRANCH   1   3
BRANCH   1   6
HETATM    6  C7  UNL     1     -33.423   8.134   4.427  1.00 20.00     0.056 A 
HETATM    7  C4  UNL     1     -32.152   8.897   4.536  1.00 20.00     0.013 A 
HETATM    8  C5  UNL     1     -32.283   7.786   3.539  1.00 20.00     0.013 A 
ENDBRANCH   1   6
TORSDOF 2
ENDMDL
MODEL 2
REMARK VINA RESULT:      -4.8      1.509      3.747
REMARK  2 active torsions:
REMARK  status: ('A' for Active; 'I' for Inactive)
REMARK    1  A    between atoms: C1_1  and  C6_6 
REMARK    2  A    between atoms: C1_1  and  C7_7 
ROOT
HETATM    1  C1  UNL     1     -33.821   6.550   4.161  1.00 20.00     0.135 C 
HETATM    2  O8  UNL     1     -33.238   5.840   3.342  1.00 20.00    -0.297 OA
ENDROOT
BRANCH   1   3
HETATM    3  C6  UNL     1     -33.564   7.991   4.251  1.00 20.00     0.056 A 
HETATM    4  C2  UNL     1     -32.281   8.475   4.875  1.00 20.00     0.013 A 
HETATM    5  C3  UNL     1     -32.488   8.602   3.395  1.00 20.00     0.013 A 
ENDBRANCH   1   3
BRANCH   1   6
HETATM    6  C7  UNL     1     -34.833   5.982   5.119  1.00 20.00     0.056 A 
HETATM    7  C4  UNL     1     -34.403   4.884   6.024  1.00 20.00     0.013 A 
HETATM    8  C5  UNL     1     -34.656   6.257   6.568  1.00 20.00     0.013 A 
ENDBRANCH   1   6
TORSDOF 2
ENDMDL
MODEL 3
REMARK VINA RESULT:      -4.8      1.516      1.617
REMARK  2 active torsions:
REMARK  status: ('A' for Active; 'I' for Inactive)
REMARK    1  A    between atoms: C1_1  and  C6_6 
REMARK    2  A    between atoms: C1_1  and  C7_7 
ROOT
HETATM    1  C1  UNL     1     -33.831   6.522   4.191  1.00 20.00     0.135 C 
HETATM    2  O8  UNL     1     -33.264   5.853   3.328  1.00 20.00    -0.297 OA
ENDROOT
BRANCH   1   3
HETATM    3  C6  UNL     1     -34.800   5.923   5.114  1.00 20.00     0.056 A 
HETATM    4  C2  UNL     1     -34.328   4.917   6.130  1.00 20.00     0.013 A 
HETATM    5  C3  UNL     1     -34.750   6.287   6.573  1.00 20.00     0.013 A 
ENDBRANCH   1   3
BRANCH   1   6
HETATM    6  C7  UNL     1     -33.564   7.994   4.350  1.00 20.00     0.056 A 
HETATM    7  C4  UNL     1     -32.240   8.414   4.879  1.00 20.00     0.013 A 
HETATM    8  C5  UNL     1     -32.580   8.630   3.436  1.00 20.00     0.013 A 
ENDBRANCH   1   6
TORSDOF 2
ENDMDL
MODEL 4
REMARK VINA RESULT:      -4.7      0.045      3.479
REMARK  2 active torsions:
REMARK  status: ('A' for Active; 'I' for Inactive)
REMARK    1  A    between atoms: C1_1  and  C6_6 
REMARK    2  A    between atoms: C1_1  and  C7_7 
ROOT
HETATM    1  C1  UNL     1     -33.785   7.182   5.543  1.00 20.00     0.135 C 
HETATM    2  O8  UNL     1     -33.251   7.262   6.649  1.00 20.00    -0.297 OA
ENDROOT
BRANCH   1   3
HETATM    3  C6  UNL     1     -33.446   8.107   4.456  1.00 20.00     0.056 A 
HETATM    4  C2  UNL     1     -32.153   8.876   4.519  1.00 20.00     0.013 A 
HETATM    5  C3  UNL     1     -32.315   7.765   3.524  1.00 20.00     0.013 A 
ENDBRANCH   1   3
BRANCH   1   6
HETATM    6  C7  UNL     1     -34.818   6.131   5.240  1.00 20.00     0.056 A 
HETATM    7  C4  UNL     1     -34.369   4.877   4.579  1.00 20.00     0.013 A 
HETATM    8  C5  UNL     1     -34.780   4.867   6.021  1.00 20.00     0.013 A 
ENDBRANCH   1   6
TORSDOF 2
ENDMDL
MODEL 5
REMARK VINA RESULT:      -4.6      1.665      1.955
REMARK  2 active torsions:
REMARK  status: ('A' for Active; 'I' for Inactive)
REMARK    1  A    between atoms: C1_1  and  C6_6 
REMARK    2  A    between atoms: C1_1  and  C7_7 
ROOT
HETATM    1  C1  UNL     1     -33.375   6.409   3.914  1.00 20.00     0.135 C 
HETATM    2  O8  UNL     1     -33.372   5.448   3.144  1.00 20.00    -0.297 OA
ENDROOT
BRANCH   1   3
HETATM    3  C6  UNL     1     -34.414   6.571   4.936  1.00 20.00     0.056 A 
HETATM    4  C2  UNL     1     -34.827   5.383   5.764  1.00 20.00     0.013 A 
HETATM    5  C3  UNL     1     -34.035   6.492   6.390  1.00 20.00     0.013 A 
ENDBRANCH   1   3
BRANCH   1   6
HETATM    6  C7  UNL     1     -32.314   7.474   3.852  1.00 20.00     0.056 A 
HETATM    7  C4  UNL     1     -32.637   8.746   3.153  1.00 20.00     0.013 A 
HETATM    8  C5  UNL     1     -32.519   8.712   4.647  1.00 20.00     0.013 A 
ENDBRANCH   1   6
TORSDOF 2
ENDMDL
MODEL 6
REMARK VINA RESULT:      -4.4      1.022      3.476
REMARK  2 active torsions:
REMARK  status: ('A' for Active; 'I' for Inactive)
REMARK    1  A    between atoms: C1_1  and  C6_6 
REMARK    2  A    between atoms: C1_1  and  C7_7 
ROOT
HETATM    1  C1  UNL     1     -33.460   7.602   5.088  1.00 20.00     0.135 C 
HETATM    2  O8  UNL     1     -34.079   8.436   5.748  1.00 20.00    -0.297 OA
ENDROOT
BRANCH   1   3
HETATM    3  C6  UNL     1     -32.324   7.981   4.241  1.00 20.00     0.056 A 
HETATM    4  C2  UNL     1     -32.214   7.407   2.853  1.00 20.00     0.013 A 
HETATM    5  C3  UNL     1     -32.559   8.855   3.039  1.00 20.00     0.013 A 
ENDBRANCH   1   3
BRANCH   1   6
HETATM    6  C7  UNL     1     -33.831   6.144   5.110  1.00 20.00     0.056 A 
HETATM    7  C4  UNL     1     -34.744   5.670   6.183  1.00 20.00     0.013 A 
HETATM    8  C5  UNL     1     -35.228   5.773   4.768  1.00 20.00     0.013 A 
ENDBRANCH   1   6
TORSDOF 2
ENDMDL
MODEL 7
REMARK VINA RESULT:      -4.3      2.018      3.373
REMARK  2 active torsions:
REMARK  status: ('A' for Active; 'I' for Inactive)
REMARK    1  A    between atoms: C1_1  and  C6_6 
REMARK    2  A    between atoms: C1_1  and  C7_7 
ROOT
HETATM    1  C1  UNL     1     -34.240   5.204   4.291  1.00 20.00     0.135 C 
HETATM    2  O8  UNL     1     -34.112   4.002   4.526  1.00 20.00    -0.297 OA
ENDROOT
BRANCH   1   3
HETATM    3  C6  UNL     1     -33.807   5.788   3.018  1.00 20.00     0.056 A 
HETATM    4  C2  UNL     1     -32.438   6.406   2.916  1.00 20.00     0.013 A 
HETATM    5  C3  UNL     1     -32.726   5.107   2.223  1.00 20.00     0.013 A 
ENDBRANCH   1   3
BRANCH   1   6
HETATM    6  C7  UNL     1     -34.849   6.144   5.296  1.00 20.00     0.056 A 
HETATM    7  C4  UNL     1     -34.541   5.929   6.734  1.00 20.00     0.013 A 
HETATM    8  C5  UNL     1     -33.948   7.093   6.000  1.00 20.00     0.013 A 
ENDBRANCH   1   6
TORSDOF 2
ENDMDL
MODEL 8
REMARK VINA RESULT:      -4.2      1.920      2.780
REMARK  2 active torsions:
REMARK  status: ('A' for Active; 'I' for Inactive)
REMARK    1  A    between atoms: C1_1  and  C6_6 
REMARK    2  A    between atoms: C1_1  and  C7_7 
ROOT
HETATM    1  C1  UNL     1     -34.298   5.424   4.421  1.00 20.00     0.135 C 
HETATM    2  O8  UNL     1     -34.337   4.247   4.777  1.00 20.00    -0.297 OA
ENDROOT
BRANCH   1   3
HETATM    3  C6  UNL     1     -34.704   6.512   5.318  1.00 20.00     0.056 A 
HETATM    4  C2  UNL     1     -33.934   6.747   6.589  1.00 20.00     0.013 A 
HETATM    5  C3  UNL     1     -33.822   7.722   5.455  1.00 20.00     0.013 A 
ENDBRANCH   1   3
BRANCH   1   6
HETATM    6  C7  UNL     1     -33.832   5.819   3.046  1.00 20.00     0.056 A 
HETATM    7  C4  UNL     1     -32.439   6.315   2.894  1.00 20.00     0.013 A 
HETATM    8  C5  UNL     1     -32.819   4.961   2.378  1.00 20.00     0.013 A 
ENDBRANCH   1   6
TORSDOF 2
ENDMDL
MODEL 9
REMARK VINA RESULT:      -3.8      9.010      9.682
REMARK  2 active torsions:
REMARK  status: ('A' for Active; 'I' for Inactive)
REMARK    1  A    between atoms: C1_1  and  C6_6 
REMARK    2  A    between atoms: C1_1  and  C7_7 
ROOT
HETATM    1  C1  UNL     1     -41.036  12.440   6.154  1.00 20.00     0.135 C 
HETATM    2  O8  UNL     1     -41.936  12.041   6.892  1.00 20.00    -0.297 OA
ENDROOT
BRANCH   1   3
HETATM    3  C6  UNL     1     -41.030  13.805   5.618  1.00 20.00     0.056 A 
HETATM    4  C2  UNL     1     -42.061  14.201   4.594  1.00 20.00     0.013 A 
HETATM    5  C3  UNL     1     -42.143  14.747   5.988  1.00 20.00     0.013 A 
ENDBRANCH   1   3
BRANCH   1   6
HETATM    6  C7  UNL     1     -39.887  11.552   5.758  1.00 20.00     0.056 A 
HETATM    7  C4  UNL     1     -39.305  11.722   4.401  1.00 20.00     0.013 A 
HETATM    8  C5  UNL     1     -38.544  12.170   5.612  1.00 20.00     0.013 A 
ENDBRANCH   1   6
TORSDOF 2
ENDMDL
