MODEL 1
REMARK VINA RESULT:      -4.7      0.000      0.000
REMARK  3 active torsions:
REMARK  status: ('A' for Active; 'I' for Inactive)
REMARK    1  A    between atoms: C2_2  and  C8_8 
REMARK    2  A    between atoms: C4_4  and  C7_7 
REMARK    3  A    between atoms: C7_7  and  C8_8 
ROOT
HETATM    1  C7  UNL     1     -34.309   5.997   6.335  1.00 20.00     0.034 C 
ENDROOT
BRANCH   1   2
HETATM    2  C4  UNL     1     -33.945   7.398   5.924  1.00 20.00    -0.030 C 
HETATM    3  C3  UNL     1     -32.828   7.713   5.253  1.00 20.00    -0.035 C 
HETATM    4  C5  UNL     1     -32.468   9.102   4.844  1.00 20.00     0.035 C 
ENDBRANCH   1   2
BRANCH   1   5
HETATM    5  C8  UNL     1     -34.935   5.183   5.184  1.00 20.00     0.007 C 
HETATM    6  C6  UNL     1     -35.755   6.103   4.276  1.00 20.00     0.014 C 
BRANCH   5   7
HETATM    7  C2  UNL     1     -33.876   4.485   4.362  1.00 20.00    -0.032 C 
HETATM    8  C1  UNL     1     -33.463   4.908   3.162  1.00 20.00     0.007 C 
ENDBRANCH   5   7
ENDBRANCH   1   5
TORSDOF 3
ENDMDL
MODEL 2
REMARK VINA RESULT:      -4.5      2.120      3.968
REMARK  3 active torsions:
REMARK  status: ('A' for Active; 'I' for Inactive)
REMARK    1  A    between atoms: C2_2  and  C8_8 
REMARK    2  A    between atoms: C4_4  and  C7_7 
REMARK    3  A    between atoms: C7_7  and  C8_8 
ROOT
HETATM    1  C7  UNL     1     -32.928   8.433   4.495  1.00 20.00     0.034 C 
ENDROOT
BRANCH   1   2
HETATM    2  C4  UNL     1     -33.672   7.176   4.857  1.00 20.00    -0.030 C 
HETATM    3  C3  UNL     1     -33.972   6.823   6.114  1.00 20.00    -0.035 C 
HETATM    4  C5  UNL     1     -34.711   5.577   6.473  1.00 20.00     0.035 C 
ENDBRANCH   1   2
BRANCH   1   5
HETATM    5  C8  UNL     1     -32.225   8.334   3.127  1.00 20.00     0.007 C 
HETATM    6  C6  UNL     1     -32.282   6.895   2.609  1.00 20.00     0.014 C 
BRANCH   5   7
HETATM    7  C2  UNL     1     -32.859   9.256   2.111  1.00 20.00    -0.032 C 
HETATM    8  C1  UNL     1     -32.619   9.196   0.796  1.00 20.00     0.007 C 
ENDBRANCH   5   7
ENDBRANCH   1   5
TORSDOF 3
ENDMDL
MODEL 3
REMARK VINA RESULT:      -4.4      2.043      3.098
REMARK  3 active torsions:
REMARK  status: ('A' for Active; 'I' for Inactive)
REMARK    1  A    between atoms: C2_2  and  C8_8 
REMARK    2  A    between atoms: C4_4  and  C7_7 
REMARK    3  A    between atoms: C7_7  and  C8_8 
ROOT
HETATM    1  C7  UNL     1     -32.745   7.858   4.516  1.00 20.00     0.034 C 
ENDROOT
BRANCH   1   2
HETATM    2  C4  UNL     1     -32.295   7.859   3.080  1.00 20.00    -0.030 C 
HETATM    3  C3  UNL     1     -32.690   8.765   2.175  1.00 20.00    -0.035 C 
HETATM    4  C5  UNL     1     -32.243   8.767   0.752  1.00 20.00     0.035 C 
ENDBRANCH   1   2
BRANCH   1   5
HETATM    5  C8  UNL     1     -34.019   7.019   4.740  1.00 20.00     0.007 C 
HETATM    6  C6  UNL     1     -33.977   5.759   3.871  1.00 20.00     0.014 C 
BRANCH   5   7
HETATM    7  C2  UNL     1     -34.172   6.621   6.190  1.00 20.00    -0.032 C 
HETATM    8  C1  UNL     1     -34.559   5.406   6.593  1.00 20.00     0.007 C 
ENDBRANCH   5   7
ENDBRANCH   1   5
TORSDOF 3
ENDMDL
MODEL 4
REMARK VINA RESULT:      -4.2      1.978      2.957
REMARK  3 active torsions:
REMARK  status: ('A' for Active; 'I' for Inactive)
REMARK    1  A    between atoms: C2_2  and  C8_8 
REMARK    2  A    between atoms: C4_4  and  C7_7 
REMARK    3  A    between atoms: C7_7  and  C8_8 
ROOT
HETATM    1  C7  UNL     1     -32.849   8.304   4.655  1.00 20.00     0.034 C 
ENDROOT
BRANCH   1   2
HETATM    2  C4  UNL     1     -32.429   8.089   3.226  1.00 20.00    -0.030 C 
HETATM    3  C3  UNL     1     -32.712   8.938   2.229  1.00 20.00    -0.035 C 
HETATM    4  C5  UNL     1     -32.293   8.725   0.812  1.00 20.00     0.035 C 
ENDBRANCH   1   2
BRANCH   1   5
HETATM    5  C8  UNL     1     -33.308   7.002   5.342  1.00 20.00     0.007 C 
HETATM    6  C6  UNL     1     -34.161   7.329   6.571  1.00 20.00     0.014 C 
BRANCH   5   7
HETATM    7  C2  UNL     1     -34.104   6.130   4.399  1.00 20.00    -0.032 C 
HETATM    8  C1  UNL     1     -34.816   5.066   4.788  1.00 20.00     0.007 C 
ENDBRANCH   5   7
ENDBRANCH   1   5
TORSDOF 3
ENDMDL
MODEL 5
REMARK VINA RESULT:      -4.2      0.863      3.381
REMARK  3 active torsions:
REMARK  status: ('A' for Active; 'I' for Inactive)
REMARK    1  A    between atoms: C2_2  and  C8_8 
REMARK    2  A    between atoms: C4_4  and  C7_7 
REMARK    3  A    between atoms: C7_7  and  C8_8 
ROOT
HETATM    1  C7  UNL     1     -35.161   6.097   4.733  1.00 20.00     0.034 C 
ENDROOT
BRANCH   1   2
HETATM    2  C4  UNL     1     -34.326   5.127   3.941  1.00 20.00    -0.030 C 
HETATM    3  C3  UNL     1     -33.434   5.496   3.012  1.00 20.00    -0.035 C 
HETATM    4  C5  UNL     1     -32.605   4.534   2.227  1.00 20.00     0.035 C 
ENDBRANCH   1   2
BRANCH   1   5
HETATM    5  C8  UNL     1     -34.594   6.355   6.144  1.00 20.00     0.007 C 
HETATM    6  C6  UNL     1     -34.027   5.058   6.727  1.00 20.00     0.014 C 
BRANCH   5   7
HETATM    7  C2  UNL     1     -33.510   7.407   6.120  1.00 20.00    -0.032 C 
HETATM    8  C1  UNL     1     -33.466   8.413   5.239  1.00 20.00     0.007 C 
ENDBRANCH   5   7
ENDBRANCH   1   5
TORSDOF 3
ENDMDL
MODEL 6
REMARK VINA RESULT:      -4.2      1.505      3.284
REMARK  3 active torsions:
REMARK  status: ('A' for Active; 'I' for Inactive)
REMARK    1  A    between atoms: C2_2  and  C8_8 
REMARK    2  A    between atoms: C4_4  and  C7_7 
REMARK    3  A    between atoms: C7_7  and  C8_8 
ROOT
HETATM    1  C7  UNL     1     -32.935   8.476   4.949  1.00 20.00     0.034 C 
ENDROOT
BRANCH   1   2
HETATM    2  C4  UNL     1     -33.277   7.307   5.833  1.00 20.00    -0.030 C 
HETATM    3  C3  UNL     1     -34.396   6.580   5.709  1.00 20.00    -0.035 C 
HETATM    4  C5  UNL     1     -34.734   5.420   6.585  1.00 20.00     0.035 C 
ENDBRANCH   1   2
BRANCH   1   5
HETATM    5  C8  UNL     1     -33.092   8.153   3.449  1.00 20.00     0.007 C 
HETATM    6  C6  UNL     1     -32.696   9.368   2.606  1.00 20.00     0.014 C 
BRANCH   5   7
HETATM    7  C2  UNL     1     -32.243   6.969   3.048  1.00 20.00    -0.032 C 
HETATM    8  C1  UNL     1     -32.743   5.805   2.617  1.00 20.00     0.007 C 
ENDBRANCH   5   7
ENDBRANCH   1   5
TORSDOF 3
ENDMDL
MODEL 7
REMARK VINA RESULT:      -4.0      1.793      4.053
REMARK  3 active torsions:
REMARK  status: ('A' for Active; 'I' for Inactive)
REMARK    1  A    between atoms: C2_2  and  C8_8 
REMARK    2  A    between atoms: C4_4  and  C7_7 
REMARK    3  A    between atoms: C7_7  and  C8_8 
ROOT
HETATM    1  C7  UNL     1     -32.989   6.045   2.693  1.00 20.00     0.034 C 
ENDROOT
BRANCH   1   2
HETATM    2  C4  UNL     1     -33.392   5.495   4.035  1.00 20.00    -0.030 C 
HETATM    3  C3  UNL     1     -34.565   5.757   4.627  1.00 20.00    -0.035 C 
HETATM    4  C5  UNL     1     -34.965   5.211   5.957  1.00 20.00     0.035 C 
ENDBRANCH   1   2
BRANCH   1   5
HETATM    5  C8  UNL     1     -32.194   7.361   2.805  1.00 20.00     0.007 C 
HETATM    6  C6  UNL     1     -32.088   8.029   1.431  1.00 20.00     0.014 C 
BRANCH   5   7
HETATM    7  C2  UNL     1     -32.844   8.318   3.777  1.00 20.00    -0.032 C 
HETATM    8  C1  UNL     1     -32.221   8.838   4.841  1.00 20.00     0.007 C 
ENDBRANCH   5   7
ENDBRANCH   1   5
TORSDOF 3
ENDMDL
MODEL 8
REMARK VINA RESULT:      -3.8     12.237     13.473
REMARK  3 active torsions:
REMARK  status: ('A' for Active; 'I' for Inactive)
REMARK    1  A    between atoms: C2_2  and  C8_8 
REMARK    2  A    between atoms: C4_4  and  C7_7 
REMARK    3  A    between atoms: C7_7  and  C8_8 
ROOT
HETATM    1  C7  UNL     1     -32.859  18.232  -2.374  1.00 20.00     0.034 C 
ENDROOT
BRANCH   1   2
HETATM    2  C4  UNL     1     -33.314  16.806  -2.528  1.00 20.00    -0.030 C 
HETATM    3  C3  UNL     1     -33.351  16.157  -3.700  1.00 20.00    -0.035 C 
HETATM    4  C5  UNL     1     -33.800  14.742  -3.853  1.00 20.00     0.035 C 
ENDBRANCH   1   2
BRANCH   1   5
HETATM    5  C8  UNL     1     -32.721  18.655  -0.898  1.00 20.00     0.007 C 
HETATM    6  C6  UNL     1     -33.719  17.880  -0.033  1.00 20.00     0.014 C 
BRANCH   5   7
HETATM    7  C2  UNL     1     -31.321  18.414  -0.383  1.00 20.00    -0.032 C 
HETATM    8  C1  UNL     1     -30.980  18.480   0.909  1.00 20.00     0.007 C 
ENDBRANCH   5   7
ENDBRANCH   1   5
TORSDOF 3
ENDMDL
MODEL 9
REMARK VINA RESULT:      -3.8     12.653     13.144
REMARK  3 active torsions:
REMARK  status: ('A' for Active; 'I' for Inactive)
REMARK    1  A    between atoms: C2_2  and  C8_8 
REMARK    2  A    between atoms: C4_4  and  C7_7 
REMARK    3  A    between atoms: C7_7  and  C8_8 
ROOT
HETATM    1  C7  UNL     1     -31.778  18.564  -0.800  1.00 20.00     0.034 C 
ENDROOT
BRANCH   1   2
HETATM    2  C4  UNL     1     -31.139  19.048   0.473  1.00 20.00    -0.030 C 
HETATM    3  C3  UNL     1     -30.664  18.235   1.427  1.00 20.00    -0.035 C 
HETATM    4  C5  UNL     1     -30.030  18.715   2.689  1.00 20.00     0.035 C 
ENDBRANCH   1   2
BRANCH   1   5
HETATM    5  C8  UNL     1     -33.168  17.939  -0.567  1.00 20.00     0.007 C 
HETATM    6  C6  UNL     1     -34.084  18.944   0.137  1.00 20.00     0.014 C 
BRANCH   5   7
HETATM    7  C2  UNL     1     -33.806  17.510  -1.868  1.00 20.00    -0.032 C 
HETATM    8  C1  UNL     1     -33.338  16.519  -2.637  1.00 20.00     0.007 C 
ENDBRANCH   5   7
ENDBRANCH   1   5
TORSDOF 3
ENDMDL
