MODEL 1
REMARK VINA RESULT:      -3.0      0.000      0.000
REMARK  1 active torsions:
REMARK  status: ('A' for Active; 'I' for Inactive)
REMARK    1  A    between atoms: C1_1  and  C3_3 
ROOT
HETATM    1  C2  UNL     1     -33.930   5.400   3.851  1.00 20.00     0.208 A 
HETATM    2  C3  UNL     1     -34.888   5.579   5.001  1.00 20.00     0.206 A 
HETATM    3  O5  UNL     1     -34.413   4.283   4.605  1.00 20.00    -0.374 OA
ENDROOT
BRANCH   2   4
HETATM    4  C1  UNL     1     -34.397   6.003   6.310  1.00 20.00     0.265 C 
HETATM    5  O4  UNL     1     -34.339   7.175   6.663  1.00 20.00    -0.304 OA
ENDBRANCH   2   4
TORSDOF 1
ENDMDL
MODEL 2
REMARK VINA RESULT:      -2.8      2.436      2.573
REMARK  1 active torsions:
REMARK  status: ('A' for Active; 'I' for Inactive)
REMARK    1  A    between atoms: C1_1  and  C3_3 
ROOT
HETATM    1  C2  UNL     1     -32.358   8.416   4.636  1.00 20.00     0.208 A 
HETATM    2  C3  UNL     1     -33.695   7.853   5.042  1.00 20.00     0.206 A 
HETATM    3  O5  UNL     1     -32.918   7.272   3.983  1.00 20.00    -0.374 OA
ENDROOT
BRANCH   2   4
HETATM    4  C1  UNL     1     -33.808   6.994   6.218  1.00 20.00     0.265 C 
HETATM    5  O4  UNL     1     -34.615   6.076   6.311  1.00 20.00    -0.304 OA
ENDBRANCH   2   4
TORSDOF 1
ENDMDL
MODEL 3
REMARK VINA RESULT:      -2.8      1.584      2.524
REMARK  1 active torsions:
REMARK  status: ('A' for Active; 'I' for Inactive)
REMARK    1  A    between atoms: C1_1  and  C3_3 
ROOT
HETATM    1  C2  UNL     1     -33.471   7.542   5.519  1.00 20.00     0.208 A 
HETATM    2  C3  UNL     1     -34.505   6.619   4.928  1.00 20.00     0.206 A 
HETATM    3  O5  UNL     1     -33.311   6.977   4.214  1.00 20.00    -0.374 OA
ENDROOT
BRANCH   2   4
HETATM    4  C1  UNL     1     -34.548   5.212   5.319  1.00 20.00     0.265 C 
HETATM    5  O4  UNL     1     -34.288   4.289   4.555  1.00 20.00    -0.304 OA
ENDBRANCH   2   4
TORSDOF 1
ENDMDL
MODEL 4
REMARK VINA RESULT:      -2.6      1.884      2.067
REMARK  1 active torsions:
REMARK  status: ('A' for Active; 'I' for Inactive)
REMARK    1  A    between atoms: C1_1  and  C3_3 
ROOT
HETATM    1  C2  UNL     1     -34.663   5.384   5.800  1.00 20.00     0.208 A 
HETATM    2  C3  UNL     1     -34.011   6.220   4.729  1.00 20.00     0.206 A 
HETATM    3  O5  UNL     1     -35.420   5.944   4.722  1.00 20.00    -0.374 OA
ENDROOT
BRANCH   2   4
HETATM    4  C1  UNL     1     -33.696   7.625   4.980  1.00 20.00     0.265 C 
HETATM    5  O4  UNL     1     -32.564   8.088   4.901  1.00 20.00    -0.304 OA
ENDBRANCH   2   4
TORSDOF 1
ENDMDL
MODEL 5
REMARK VINA RESULT:      -2.6      2.234      2.759
REMARK  1 active torsions:
REMARK  status: ('A' for Active; 'I' for Inactive)
REMARK    1  A    between atoms: C1_1  and  C3_3 
ROOT
HETATM    1  C2  UNL     1     -34.425   6.139   5.298  1.00 20.00     0.208 A 
HETATM    2  C3  UNL     1     -33.977   7.577   5.337  1.00 20.00     0.206 A 
HETATM    3  O5  UNL     1     -33.806   6.699   6.461  1.00 20.00    -0.374 OA
ENDROOT
BRANCH   2   4
HETATM    4  C1  UNL     1     -32.716   7.974   4.713  1.00 20.00     0.265 C 
HETATM    5  O4  UNL     1     -32.187   9.064   4.893  1.00 20.00    -0.304 OA
ENDBRANCH   2   4
TORSDOF 1
ENDMDL
MODEL 6
REMARK VINA RESULT:      -2.6      7.938      8.496
REMARK  1 active torsions:
REMARK  status: ('A' for Active; 'I' for Inactive)
REMARK    1  A    between atoms: C1_1  and  C3_3 
ROOT
HETATM    1  C2  UNL     1     -39.007  11.661   4.125  1.00 20.00     0.208 A 
HETATM    2  C3  UNL     1     -39.594  11.601   5.511  1.00 20.00     0.206 A 
HETATM    3  O5  UNL     1     -38.333  12.237   5.249  1.00 20.00    -0.374 OA
ENDROOT
BRANCH   2   4
HETATM    4  C1  UNL     1     -40.644  12.536   5.909  1.00 20.00     0.265 C 
HETATM    5  O4  UNL     1     -41.344  12.383   6.904  1.00 20.00    -0.304 OA
ENDBRANCH   2   4
TORSDOF 1
ENDMDL
MODEL 7
REMARK VINA RESULT:      -2.6     13.724     14.112
REMARK  1 active torsions:
REMARK  status: ('A' for Active; 'I' for Inactive)
REMARK    1  A    between atoms: C1_1  and  C3_3 
ROOT
HETATM    1  C2  UNL     1     -35.127  15.387  -6.849  1.00 20.00     0.208 A 
HETATM    2  C3  UNL     1     -35.961  14.833  -5.723  1.00 20.00     0.206 A 
HETATM    3  O5  UNL     1     -35.961  14.238  -7.030  1.00 20.00    -0.374 OA
ENDROOT
BRANCH   2   4
HETATM    4  C1  UNL     1     -35.351  13.988  -4.699  1.00 20.00     0.265 C 
HETATM    5  O4  UNL     1     -35.856  12.950  -4.289  1.00 20.00    -0.304 OA
ENDBRANCH   2   4
TORSDOF 1
ENDMDL
MODEL 8
REMARK VINA RESULT:      -2.5     13.582     14.094
REMARK  1 active torsions:
REMARK  status: ('A' for Active; 'I' for Inactive)
REMARK    1  A    between atoms: C1_1  and  C3_3 
ROOT
HETATM    1  C2  UNL     1     -33.749  15.502  -4.116  1.00 20.00     0.208 A 
HETATM    2  C3  UNL     1     -34.157  14.828  -5.401  1.00 20.00     0.206 A 
HETATM    3  O5  UNL     1     -33.830  14.077  -4.222  1.00 20.00    -0.374 OA
ENDROOT
BRANCH   2   4
HETATM    4  C1  UNL     1     -35.567  14.740  -5.773  1.00 20.00     0.265 C 
HETATM    5  O4  UNL     1     -35.958  14.280  -6.839  1.00 20.00    -0.304 OA
ENDBRANCH   2   4
TORSDOF 1
ENDMDL
MODEL 9
REMARK VINA RESULT:      -2.5     13.661     14.259
REMARK  1 active torsions:
REMARK  status: ('A' for Active; 'I' for Inactive)
REMARK    1  A    between atoms: C1_1  and  C3_3 
ROOT
HETATM    1  C2  UNL     1     -29.925  18.836   2.911  1.00 20.00     0.208 A 
HETATM    2  C3  UNL     1     -30.728  18.224   1.792  1.00 20.00     0.206 A 
HETATM    3  O5  UNL     1     -31.351  18.730   2.983  1.00 20.00    -0.374 OA
ENDROOT
BRANCH   2   4
HETATM    4  C1  UNL     1     -31.041  19.003   0.597  1.00 20.00     0.265 C 
HETATM    5  O4  UNL     1     -30.663  18.697  -0.528  1.00 20.00    -0.304 OA
ENDBRANCH   2   4
TORSDOF 1
ENDMDL
