MODEL 1
REMARK VINA RESULT:      -3.8      0.000      0.000
REMARK  3 active torsions:
REMARK  status: ('A' for Active; 'I' for Inactive)
REMARK    1  A    between atoms: C1_1  and  C7_7 
REMARK    2  A    between atoms: C1_1  and  C9_9 
REMARK    3  A    between atoms: C7_7  and  C8_8 
ROOT
HETATM    1  C1  UNL     1     -33.747   7.027   5.234  1.00 20.00     0.134 C 
HETATM    2  O10 UNL     1     -33.017   7.191   6.215  1.00 20.00    -0.297 OA
ENDROOT
BRANCH   1   3
HETATM    3  C7  UNL     1     -33.883   8.113   4.170  1.00 20.00     0.083 C 
BRANCH   3   4
HETATM    4  C8  UNL     1     -32.572   8.401   3.420  1.00 20.00    -0.016 C 
HETATM    5  C2  UNL     1     -32.811   9.452   2.334  1.00 20.00     0.010 C 
HETATM    6  C3  UNL     1     -31.998   7.128   2.791  1.00 20.00     0.010 C 
ENDBRANCH   3   4
ENDBRANCH   1   3
BRANCH   1   7
HETATM    7  C9  UNL     1     -34.559   5.728   5.050  1.00 20.00     0.009 C 
HETATM    8  C4  UNL     1     -35.864   6.039   4.298  1.00 20.00     0.022 C 
HETATM    9  C5  UNL     1     -33.761   4.702   4.234  1.00 20.00     0.022 C 
HETATM   10  C6  UNL     1     -34.907   5.158   6.432  1.00 20.00     0.022 C 
ENDBRANCH   1   7
TORSDOF 3
ENDMDL
MODEL 2
REMARK VINA RESULT:      -3.8      9.420     10.390
REMARK  3 active torsions:
REMARK  status: ('A' for Active; 'I' for Inactive)
REMARK    1  A    between atoms: C1_1  and  C7_7 
REMARK    2  A    between atoms: C1_1  and  C9_9 
REMARK    3  A    between atoms: C7_7  and  C8_8 
ROOT
HETATM    1  C1  UNL     1     -41.632  13.160   6.483  1.00 20.00     0.134 C 
HETATM    2  O10 UNL     1     -42.154  12.169   7.001  1.00 20.00    -0.297 OA
ENDROOT
BRANCH   1   3
HETATM    3  C7  UNL     1     -40.776  13.025   5.226  1.00 20.00     0.083 C 
BRANCH   3   4
HETATM    4  C8  UNL     1     -39.795  11.843   5.277  1.00 20.00    -0.016 C 
HETATM    5  C2  UNL     1     -38.796  12.040   6.420  1.00 20.00     0.010 C 
HETATM    6  C3  UNL     1     -39.042  11.686   3.953  1.00 20.00     0.010 C 
ENDBRANCH   3   4
ENDBRANCH   1   3
BRANCH   1   7
HETATM    7  C9  UNL     1     -41.812  14.568   7.089  1.00 20.00     0.009 C 
HETATM    8  C4  UNL     1     -42.899  14.524   8.177  1.00 20.00     0.022 C 
HETATM    9  C5  UNL     1     -40.504  15.054   7.728  1.00 20.00     0.022 C 
HETATM   10  C6  UNL     1     -42.257  15.532   5.982  1.00 20.00     0.022 C 
ENDBRANCH   1   7
TORSDOF 3
ENDMDL
MODEL 3
REMARK VINA RESULT:      -3.8      0.021      1.374
REMARK  3 active torsions:
REMARK  status: ('A' for Active; 'I' for Inactive)
REMARK    1  A    between atoms: C1_1  and  C7_7 
REMARK    2  A    between atoms: C1_1  and  C9_9 
REMARK    3  A    between atoms: C7_7  and  C8_8 
ROOT
HETATM    1  C1  UNL     1     -33.742   7.029   5.236  1.00 20.00     0.134 C 
HETATM    2  O10 UNL     1     -32.997   7.192   6.205  1.00 20.00    -0.297 OA
ENDROOT
BRANCH   1   3
HETATM    3  C7  UNL     1     -33.881   8.109   4.166  1.00 20.00     0.083 C 
BRANCH   3   4
HETATM    4  C8  UNL     1     -32.572   8.398   3.414  1.00 20.00    -0.016 C 
HETATM    5  C2  UNL     1     -32.810   9.456   2.335  1.00 20.00     0.010 C 
HETATM    6  C3  UNL     1     -32.004   7.127   2.775  1.00 20.00     0.010 C 
ENDBRANCH   3   4
ENDBRANCH   1   3
BRANCH   1   7
HETATM    7  C9  UNL     1     -34.568   5.736   5.071  1.00 20.00     0.009 C 
HETATM    8  C4  UNL     1     -33.753   4.704   4.272  1.00 20.00     0.022 C 
HETATM    9  C5  UNL     1     -34.909   5.133   6.440  1.00 20.00     0.022 C 
HETATM   10  C6  UNL     1     -35.852   6.061   4.295  1.00 20.00     0.022 C 
ENDBRANCH   1   7
TORSDOF 3
ENDMDL
MODEL 4
REMARK VINA RESULT:      -3.8      0.052      1.376
REMARK  3 active torsions:
REMARK  status: ('A' for Active; 'I' for Inactive)
REMARK    1  A    between atoms: C1_1  and  C7_7 
REMARK    2  A    between atoms: C1_1  and  C9_9 
REMARK    3  A    between atoms: C7_7  and  C8_8 
ROOT
HETATM    1  C1  UNL     1     -33.741   7.051   5.188  1.00 20.00     0.134 C 
HETATM    2  O10 UNL     1     -32.993   7.203   6.157  1.00 20.00    -0.297 OA
ENDROOT
BRANCH   1   3
HETATM    3  C7  UNL     1     -33.883   8.144   4.131  1.00 20.00     0.083 C 
BRANCH   3   4
HETATM    4  C8  UNL     1     -32.577   8.442   3.379  1.00 20.00    -0.016 C 
HETATM    5  C2  UNL     1     -32.830   9.475   2.278  1.00 20.00     0.010 C 
HETATM    6  C3  UNL     1     -31.983   7.170   2.768  1.00 20.00     0.010 C 
ENDBRANCH   3   4
ENDBRANCH   1   3
BRANCH   1   7
HETATM    7  C9  UNL     1     -34.567   5.760   5.010  1.00 20.00     0.009 C 
HETATM    8  C4  UNL     1     -34.892   5.164   6.391  1.00 20.00     0.022 C 
HETATM    9  C5  UNL     1     -35.887   6.057   4.286  1.00 20.00     0.022 C 
HETATM   10  C6  UNL     1     -33.737   4.743   4.214  1.00 20.00     0.022 C 
ENDBRANCH   1   7
TORSDOF 3
ENDMDL
MODEL 5
REMARK VINA RESULT:      -3.5     12.379     13.299
REMARK  3 active torsions:
REMARK  status: ('A' for Active; 'I' for Inactive)
REMARK    1  A    between atoms: C1_1  and  C7_7 
REMARK    2  A    between atoms: C1_1  and  C9_9 
REMARK    3  A    between atoms: C7_7  and  C8_8 
ROOT
HETATM    1  C1  UNL     1     -34.484  18.267  -1.853  1.00 20.00     0.134 C 
HETATM    2  O10 UNL     1     -35.479  18.989  -1.752  1.00 20.00    -0.297 OA
ENDROOT
BRANCH   1   3
HETATM    3  C7  UNL     1     -33.713  17.820  -0.613  1.00 20.00     0.083 C 
BRANCH   3   4
HETATM    4  C8  UNL     1     -32.735  18.882  -0.085  1.00 20.00    -0.016 C 
HETATM    5  C2  UNL     1     -31.295  18.464  -0.387  1.00 20.00     0.010 C 
HETATM    6  C3  UNL     1     -32.907  19.097   1.422  1.00 20.00     0.010 C 
ENDBRANCH   3   4
ENDBRANCH   1   3
BRANCH   1   7
HETATM    7  C9  UNL     1     -33.972  17.798  -3.231  1.00 20.00     0.009 C 
HETATM    8  C4  UNL     1     -35.159  17.665  -4.202  1.00 20.00     0.022 C 
HETATM    9  C5  UNL     1     -32.978  18.811  -3.814  1.00 20.00     0.022 C 
HETATM   10  C6  UNL     1     -33.306  16.424  -3.073  1.00 20.00     0.022 C 
ENDBRANCH   1   7
TORSDOF 3
ENDMDL
MODEL 6
REMARK VINA RESULT:      -3.5     11.923     12.800
REMARK  3 active torsions:
REMARK  status: ('A' for Active; 'I' for Inactive)
REMARK    1  A    between atoms: C1_1  and  C7_7 
REMARK    2  A    between atoms: C1_1  and  C9_9 
REMARK    3  A    between atoms: C7_7  and  C8_8 
ROOT
HETATM    1  C1  UNL     1     -33.510  15.464  -4.058  1.00 20.00     0.134 C 
HETATM    2  O10 UNL     1     -32.396  14.952  -4.195  1.00 20.00    -0.297 OA
ENDROOT
BRANCH   1   3
HETATM    3  C7  UNL     1     -33.851  16.270  -2.807  1.00 20.00     0.083 C 
BRANCH   3   4
HETATM    4  C8  UNL     1     -32.855  17.405  -2.520  1.00 20.00    -0.016 C 
HETATM    5  C2  UNL     1     -32.994  17.869  -1.068  1.00 20.00     0.010 C 
HETATM    6  C3  UNL     1     -33.073  18.590  -3.465  1.00 20.00     0.010 C 
ENDBRANCH   3   4
ENDBRANCH   1   3
BRANCH   1   7
HETATM    7  C9  UNL     1     -34.603  15.303  -5.135  1.00 20.00     0.009 C 
HETATM    8  C4  UNL     1     -35.501  16.552  -5.147  1.00 20.00     0.022 C 
HETATM    9  C5  UNL     1     -33.973  15.144  -6.526  1.00 20.00     0.022 C 
HETATM   10  C6  UNL     1     -35.461  14.078  -4.794  1.00 20.00     0.022 C 
ENDBRANCH   1   7
TORSDOF 3
ENDMDL
MODEL 7
REMARK VINA RESULT:      -3.4      1.603      2.382
REMARK  3 active torsions:
REMARK  status: ('A' for Active; 'I' for Inactive)
REMARK    1  A    between atoms: C1_1  and  C7_7 
REMARK    2  A    between atoms: C1_1  and  C9_9 
REMARK    3  A    between atoms: C7_7  and  C8_8 
ROOT
HETATM    1  C1  UNL     1     -33.256   6.008   3.664  1.00 20.00     0.134 C 
HETATM    2  O10 UNL     1     -33.225   5.028   2.914  1.00 20.00    -0.297 OA
ENDROOT
BRANCH   1   3
HETATM    3  C7  UNL     1     -32.303   7.182   3.457  1.00 20.00     0.083 C 
BRANCH   3   4
HETATM    4  C8  UNL     1     -32.815   8.215   2.440  1.00 20.00    -0.016 C 
HETATM    5  C2  UNL     1     -31.972   8.157   1.164  1.00 20.00     0.010 C 
HETATM    6  C3  UNL     1     -32.781   9.632   3.020  1.00 20.00     0.010 C 
ENDBRANCH   3   4
ENDBRANCH   1   3
BRANCH   1   7
HETATM    7  C9  UNL     1     -34.249   6.081   4.843  1.00 20.00     0.009 C 
HETATM    8  C4  UNL     1     -34.184   4.774   5.652  1.00 20.00     0.022 C 
HETATM    9  C5  UNL     1     -33.898   7.248   5.775  1.00 20.00     0.022 C 
HETATM   10  C6  UNL     1     -35.670   6.250   4.287  1.00 20.00     0.022 C 
ENDBRANCH   1   7
TORSDOF 3
ENDMDL
MODEL 8
REMARK VINA RESULT:      -3.4     12.077     13.306
REMARK  3 active torsions:
REMARK  status: ('A' for Active; 'I' for Inactive)
REMARK    1  A    between atoms: C1_1  and  C7_7 
REMARK    2  A    between atoms: C1_1  and  C9_9 
REMARK    3  A    between atoms: C7_7  and  C8_8 
ROOT
HETATM    1  C1  UNL     1     -34.792  16.628  -4.808  1.00 20.00     0.134 C 
HETATM    2  O10 UNL     1     -35.892  17.183  -4.865  1.00 20.00    -0.297 OA
ENDROOT
BRANCH   1   3
HETATM    3  C7  UNL     1     -33.573  17.363  -4.256  1.00 20.00     0.083 C 
BRANCH   3   4
HETATM    4  C8  UNL     1     -33.821  18.018  -2.888  1.00 20.00    -0.016 C 
HETATM    5  C2  UNL     1     -32.943  19.262  -2.736  1.00 20.00     0.010 C 
HETATM    6  C3  UNL     1     -33.537  17.042  -1.743  1.00 20.00     0.010 C 
ENDBRANCH   3   4
ENDBRANCH   1   3
BRANCH   1   7
HETATM    7  C9  UNL     1     -34.602  15.178  -5.299  1.00 20.00     0.009 C 
HETATM    8  C4  UNL     1     -33.612  14.448  -4.374  1.00 20.00     0.022 C 
HETATM    9  C5  UNL     1     -35.935  14.419  -5.279  1.00 20.00     0.022 C 
HETATM   10  C6  UNL     1     -34.023  15.205  -6.720  1.00 20.00     0.022 C 
ENDBRANCH   1   7
TORSDOF 3
ENDMDL
MODEL 9
REMARK VINA RESULT:      -3.4     10.348     11.289
REMARK  3 active torsions:
REMARK  status: ('A' for Active; 'I' for Inactive)
REMARK    1  A    between atoms: C1_1  and  C7_7 
REMARK    2  A    between atoms: C1_1  and  C9_9 
REMARK    3  A    between atoms: C7_7  and  C8_8 
ROOT
HETATM    1  C1  UNL     1     -40.543  13.968   7.491  1.00 20.00     0.134 C 
HETATM    2  O10 UNL     1     -40.116  13.463   8.532  1.00 20.00    -0.297 OA
ENDROOT
BRANCH   1   3
HETATM    3  C7  UNL     1     -40.429  15.470   7.247  1.00 20.00     0.083 C 
BRANCH   3   4
HETATM    4  C8  UNL     1     -41.109  16.320   8.332  1.00 20.00    -0.016 C 
HETATM    5  C2  UNL     1     -42.610  16.025   8.366  1.00 20.00     0.010 C 
HETATM    6  C3  UNL     1     -40.880  17.815   8.094  1.00 20.00     0.010 C 
ENDBRANCH   3   4
ENDBRANCH   1   3
BRANCH   1   7
HETATM    7  C9  UNL     1     -41.215  13.106   6.401  1.00 20.00     0.009 C 
HETATM    8  C4  UNL     1     -42.460  12.417   6.986  1.00 20.00     0.022 C 
HETATM    9  C5  UNL     1     -41.653  13.977   5.216  1.00 20.00     0.022 C 
HETATM   10  C6  UNL     1     -40.225  12.030   5.936  1.00 20.00     0.022 C 
ENDBRANCH   1   7
TORSDOF 3
ENDMDL
