MODEL 1
REMARK VINA RESULT:      -5.3      0.000      0.000
REMARK  0 active torsions:
REMARK  status: ('A' for Active; 'I' for Inactive)
ROOT
HETATM    1  C1  UNL     1     -32.259   8.360   3.645  1.00 20.00     0.002 A 
HETATM    2  C2  UNL     1     -32.908   8.257   4.875  1.00 20.00     0.016 A 
HETATM    3  C3  UNL     1     -32.285   7.293   2.732  1.00 20.00     0.019 A 
HETATM    4  C4  UNL     1     -33.567   7.072   5.147  1.00 20.00     0.017 A 
HETATM    5  C5  UNL     1     -33.605   6.006   4.259  1.00 20.00    -0.026 A 
HETATM    6  C6  UNL     1     -32.960   6.106   3.036  1.00 20.00     0.018 A 
HETATM    7  C7  UNL     1     -34.314   6.700   6.338  1.00 20.00     0.160 A 
HETATM    8  C8  UNL     1     -34.379   4.840   4.785  1.00 20.00     0.048 A 
HETATM    9  C9  UNL     1     -34.857   5.300   6.173  1.00 20.00     0.088 A 
HETATM   10  O10 UNL     1     -34.467   7.422   7.305  1.00 20.00    -0.292 OA
HETATM   11 BR11 UNL     1     -32.970   4.695   1.779  1.00 20.00    -0.051 Br
ENDROOT
TORSDOF 0
ENDMDL
MODEL 2
REMARK VINA RESULT:      -5.0      1.498      2.017
REMARK  0 active torsions:
REMARK  status: ('A' for Active; 'I' for Inactive)
ROOT
HETATM    1  C1  UNL     1     -33.065   8.887   5.532  1.00 20.00     0.002 A 
HETATM    2  C2  UNL     1     -33.679   7.737   6.028  1.00 20.00     0.016 A 
HETATM    3  C3  UNL     1     -32.558   8.918   4.222  1.00 20.00     0.019 A 
HETATM    4  C4  UNL     1     -33.761   6.647   5.181  1.00 20.00     0.017 A 
HETATM    5  C5  UNL     1     -33.267   6.656   3.884  1.00 20.00    -0.026 A 
HETATM    6  C6  UNL     1     -32.656   7.798   3.389  1.00 20.00     0.018 A 
HETATM    7  C7  UNL     1     -34.341   5.338   5.438  1.00 20.00     0.160 A 
HETATM    8  C8  UNL     1     -33.477   5.358   3.173  1.00 20.00     0.048 A 
HETATM    9  C9  UNL     1     -34.196   4.475   4.207  1.00 20.00     0.088 A 
HETATM   10  O10 UNL     1     -34.858   5.012   6.489  1.00 20.00    -0.292 OA
HETATM   11 BR11 UNL     1     -31.961   7.883   1.634  1.00 20.00    -0.051 Br
ENDROOT
TORSDOF 0
ENDMDL
MODEL 3
REMARK VINA RESULT:      -4.9      0.962      2.957
REMARK  0 active torsions:
REMARK  status: ('A' for Active; 'I' for Inactive)
ROOT
HETATM    1  C1  UNL     1     -34.764   5.314   5.897  1.00 20.00     0.002 A 
HETATM    2  C2  UNL     1     -34.397   6.636   6.144  1.00 20.00     0.016 A 
HETATM    3  C3  UNL     1     -34.358   4.668   4.716  1.00 20.00     0.019 A 
HETATM    4  C4  UNL     1     -33.627   7.270   5.187  1.00 20.00     0.017 A 
HETATM    5  C5  UNL     1     -33.216   6.652   4.014  1.00 20.00    -0.026 A 
HETATM    6  C6  UNL     1     -33.580   5.338   3.766  1.00 20.00     0.018 A 
HETATM    7  C7  UNL     1     -33.112   8.631   5.188  1.00 20.00     0.160 A 
HETATM    8  C8  UNL     1     -32.395   7.547   3.142  1.00 20.00     0.048 A 
HETATM    9  C9  UNL     1     -32.322   8.870   3.924  1.00 20.00     0.088 A 
HETATM   10  O10 UNL     1     -33.301   9.434   6.083  1.00 20.00    -0.292 OA
HETATM   11 BR11 UNL     1     -33.056   4.433   2.192  1.00 20.00    -0.051 Br
ENDROOT
TORSDOF 0
ENDMDL
MODEL 4
REMARK VINA RESULT:      -4.8      2.300      2.900
REMARK  0 active torsions:
REMARK  status: ('A' for Active; 'I' for Inactive)
ROOT
HETATM    1  C1  UNL     1     -32.364   6.698   2.308  1.00 20.00     0.002 A 
HETATM    2  C2  UNL     1     -33.185   5.762   2.939  1.00 20.00     0.016 A 
HETATM    3  C3  UNL     1     -32.014   7.894   2.957  1.00 20.00     0.019 A 
HETATM    4  C4  UNL     1     -33.629   6.065   4.212  1.00 20.00     0.017 A 
HETATM    5  C5  UNL     1     -33.294   7.240   4.872  1.00 20.00    -0.026 A 
HETATM    6  C6  UNL     1     -32.480   8.171   4.247  1.00 20.00     0.018 A 
HETATM    7  C7  UNL     1     -34.485   5.280   5.088  1.00 20.00     0.160 A 
HETATM    8  C8  UNL     1     -33.899   7.333   6.236  1.00 20.00     0.048 A 
HETATM    9  C9  UNL     1     -34.694   6.024   6.385  1.00 20.00     0.088 A 
HETATM   10  O10 UNL     1     -34.949   4.194   4.798  1.00 20.00    -0.292 OA
HETATM   11 BR11 UNL     1     -31.984   9.791   5.084  1.00 20.00    -0.051 Br
ENDROOT
TORSDOF 0
ENDMDL
MODEL 5
REMARK VINA RESULT:      -4.7      2.761      4.309
REMARK  0 active torsions:
REMARK  status: ('A' for Active; 'I' for Inactive)
ROOT
HETATM    1  C1  UNL     1     -34.786   5.128   5.874  1.00 20.00     0.002 A 
HETATM    2  C2  UNL     1     -34.262   4.755   4.636  1.00 20.00     0.016 A 
HETATM    3  C3  UNL     1     -34.573   6.422   6.380  1.00 20.00     0.019 A 
HETATM    4  C4  UNL     1     -33.536   5.705   3.943  1.00 20.00     0.017 A 
HETATM    5  C5  UNL     1     -33.314   6.989   4.424  1.00 20.00    -0.026 A 
HETATM    6  C6  UNL     1     -33.833   7.361   5.654  1.00 20.00     0.018 A 
HETATM    7  C7  UNL     1     -32.885   5.586   2.648  1.00 20.00     0.160 A 
HETATM    8  C8  UNL     1     -32.501   7.826   3.490  1.00 20.00     0.048 A 
HETATM    9  C9  UNL     1     -32.213   6.893   2.301  1.00 20.00     0.088 A 
HETATM   10  O10 UNL     1     -32.896   4.578   1.966  1.00 20.00    -0.292 OA
HETATM   11 BR11 UNL     1     -33.571   9.090   6.370  1.00 20.00    -0.051 Br
ENDROOT
TORSDOF 0
ENDMDL
MODEL 6
REMARK VINA RESULT:      -4.6      2.668      4.095
REMARK  0 active torsions:
REMARK  status: ('A' for Active; 'I' for Inactive)
ROOT
HETATM    1  C1  UNL     1     -33.547   4.329   3.152  1.00 20.00     0.002 A 
HETATM    2  C2  UNL     1     -32.927   5.377   2.470  1.00 20.00     0.016 A 
HETATM    3  C3  UNL     1     -34.115   4.538   4.419  1.00 20.00     0.019 A 
HETATM    4  C4  UNL     1     -32.901   6.610   3.094  1.00 20.00     0.017 A 
HETATM    5  C5  UNL     1     -33.456   6.838   4.346  1.00 20.00    -0.026 A 
HETATM    6  C6  UNL     1     -34.072   5.798   5.024  1.00 20.00     0.018 A 
HETATM    7  C7  UNL     1     -32.326   7.858   2.617  1.00 20.00     0.160 A 
HETATM    8  C8  UNL     1     -33.297   8.253   4.803  1.00 20.00     0.048 A 
HETATM    9  C9  UNL     1     -32.544   8.938   3.649  1.00 20.00     0.088 A 
HETATM   10  O10 UNL     1     -31.762   7.988   1.547  1.00 20.00    -0.292 OA
HETATM   11 BR11 UNL     1     -34.848   6.036   6.731  1.00 20.00    -0.051 Br
ENDROOT
TORSDOF 0
ENDMDL
MODEL 7
REMARK VINA RESULT:      -4.6      2.649      3.578
REMARK  0 active torsions:
REMARK  status: ('A' for Active; 'I' for Inactive)
ROOT
HETATM    1  C1  UNL     1     -32.998   8.895   5.503  1.00 20.00     0.002 A 
HETATM    2  C2  UNL     1     -32.542   8.713   4.197  1.00 20.00     0.016 A 
HETATM    3  C3  UNL     1     -33.657   7.856   6.182  1.00 20.00     0.019 A 
HETATM    4  C4  UNL     1     -32.769   7.480   3.614  1.00 20.00     0.017 A 
HETATM    5  C5  UNL     1     -33.418   6.441   4.266  1.00 20.00    -0.026 A 
HETATM    6  C6  UNL     1     -33.872   6.620   5.563  1.00 20.00     0.018 A 
HETATM    7  C7  UNL     1     -32.407   7.025   2.280  1.00 20.00     0.160 A 
HETATM    8  C8  UNL     1     -33.540   5.212   3.423  1.00 20.00     0.048 A 
HETATM    9  C9  UNL     1     -32.864   5.598   2.096  1.00 20.00     0.088 A 
HETATM   10  O10 UNL     1     -31.824   7.707   1.458  1.00 20.00    -0.292 OA
HETATM   11 BR11 UNL     1     -34.763   5.250   6.511  1.00 20.00    -0.051 Br
ENDROOT
TORSDOF 0
ENDMDL
MODEL 8
REMARK VINA RESULT:      -4.5      1.512      2.627
REMARK  0 active torsions:
REMARK  status: ('A' for Active; 'I' for Inactive)
ROOT
HETATM    1  C1  UNL     1     -33.555   4.352   3.048  1.00 20.00     0.002 A 
HETATM    2  C2  UNL     1     -34.101   4.501   4.322  1.00 20.00     0.016 A 
HETATM    3  C3  UNL     1     -32.920   5.432   2.411  1.00 20.00     0.019 A 
HETATM    4  C4  UNL     1     -33.989   5.743   4.918  1.00 20.00     0.017 A 
HETATM    5  C5  UNL     1     -33.367   6.824   4.307  1.00 20.00    -0.026 A 
HETATM    6  C6  UNL     1     -32.823   6.677   3.041  1.00 20.00     0.018 A 
HETATM    7  C7  UNL     1     -34.465   6.172   6.224  1.00 20.00     0.160 A 
HETATM    8  C8  UNL     1     -33.376   8.055   5.155  1.00 20.00     0.048 A 
HETATM    9  C9  UNL     1     -34.108   7.624   6.437  1.00 20.00     0.088 A 
HETATM   10  O10 UNL     1     -35.057   5.453   7.008  1.00 20.00    -0.292 OA
HETATM   11 BR11 UNL     1     -31.962   8.103   2.149  1.00 20.00    -0.051 Br
ENDROOT
TORSDOF 0
ENDMDL
MODEL 9
REMARK VINA RESULT:      -4.2     12.881     14.236
REMARK  0 active torsions:
REMARK  status: ('A' for Active; 'I' for Inactive)
ROOT
HETATM    1  C1  UNL     1     -33.137  15.226  -3.891  1.00 20.00     0.002 A 
HETATM    2  C2  UNL     1     -33.947  14.719  -4.907  1.00 20.00     0.016 A 
HETATM    3  C3  UNL     1     -33.334  16.528  -3.402  1.00 20.00     0.019 A 
HETATM    4  C4  UNL     1     -34.936  15.549  -5.402  1.00 20.00     0.017 A 
HETATM    5  C5  UNL     1     -35.148  16.838  -4.934  1.00 20.00    -0.026 A 
HETATM    6  C6  UNL     1     -34.345  17.344  -3.924  1.00 20.00     0.018 A 
HETATM    7  C7  UNL     1     -35.908  15.280  -6.450  1.00 20.00     0.160 A 
HETATM    8  C8  UNL     1     -36.276  17.531  -5.630  1.00 20.00     0.048 A 
HETATM    9  C9  UNL     1     -36.787  16.492  -6.643  1.00 20.00     0.088 A 
HETATM   10  O10 UNL     1     -35.982  14.231  -7.063  1.00 20.00    -0.292 OA
HETATM   11 BR11 UNL     1     -34.575  19.089  -3.238  1.00 20.00    -0.051 Br
ENDROOT
TORSDOF 0
ENDMDL
