MODEL 1
REMARK VINA RESULT:      -3.5      0.000      0.000
REMARK  1 active torsions:
REMARK  status: ('A' for Active; 'I' for Inactive)
REMARK    1  A    between atoms: C3_3  and  C4_4 
ROOT
HETATM    1  C1  UNL     1     -34.651   5.517   6.351  1.00 20.00     0.033 C 
HETATM    2  C2  UNL     1     -33.685   7.191   4.742  1.00 20.00     0.033 C 
HETATM    3  C4  UNL     1     -34.458   5.873   4.872  1.00 20.00     0.042 C 
HETATM    4 CL6  UNL     1     -36.097   6.132   4.156  1.00 20.00    -0.119 Cl
ENDROOT
BRANCH   3   5
HETATM    5  C3  UNL     1     -33.795   4.732   4.082  1.00 20.00     0.139 C 
HETATM    6 CL5  UNL     1     -32.921   5.282   2.629  1.00 20.00    -0.129 Cl
ENDBRANCH   3   5
TORSDOF 1
ENDMDL
MODEL 2
REMARK VINA RESULT:      -3.5      1.559      2.310
REMARK  1 active torsions:
REMARK  status: ('A' for Active; 'I' for Inactive)
REMARK    1  A    between atoms: C3_3  and  C4_4 
ROOT
HETATM    1  C1  UNL     1     -33.966   4.427   4.442  1.00 20.00     0.033 C 
HETATM    2  C2  UNL     1     -34.509   5.940   6.376  1.00 20.00     0.033 C 
HETATM    3  C4  UNL     1     -34.390   5.842   4.851  1.00 20.00     0.042 C 
HETATM    4 CL6  UNL     1     -36.032   6.140   4.156  1.00 20.00    -0.119 Cl
ENDROOT
BRANCH   3   5
HETATM    5  C3  UNL     1     -33.453   6.918   4.273  1.00 20.00     0.139 C 
HETATM    6 CL5  UNL     1     -33.377   8.402   5.258  1.00 20.00    -0.129 Cl
ENDBRANCH   3   5
TORSDOF 1
ENDMDL
MODEL 3
REMARK VINA RESULT:      -3.4      1.368      1.866
REMARK  1 active torsions:
REMARK  status: ('A' for Active; 'I' for Inactive)
REMARK    1  A    between atoms: C3_3  and  C4_4 
ROOT
HETATM    1  C1  UNL     1     -35.846   6.107   4.261  1.00 20.00     0.033 C 
HETATM    2  C2  UNL     1     -34.552   5.507   6.332  1.00 20.00     0.033 C 
HETATM    3  C4  UNL     1     -34.459   5.784   4.827  1.00 20.00     0.042 C 
HETATM    4 CL6  UNL     1     -33.426   7.251   4.607  1.00 20.00    -0.119 Cl
ENDROOT
BRANCH   3   5
HETATM    5  C3  UNL     1     -33.776   4.633   4.067  1.00 20.00     0.139 C 
HETATM    6 CL5  UNL     1     -32.888   5.164   2.615  1.00 20.00    -0.129 Cl
ENDBRANCH   3   5
TORSDOF 1
ENDMDL
MODEL 4
REMARK VINA RESULT:      -3.4      1.449      2.260
REMARK  1 active torsions:
REMARK  status: ('A' for Active; 'I' for Inactive)
REMARK    1  A    between atoms: C3_3  and  C4_4 
ROOT
HETATM    1  C1  UNL     1     -34.349   5.055   5.999  1.00 20.00     0.033 C 
HETATM    2  C2  UNL     1     -35.787   6.147   4.248  1.00 20.00     0.033 C 
HETATM    3  C4  UNL     1     -34.357   5.978   4.775  1.00 20.00     0.042 C 
HETATM    4 CL6  UNL     1     -33.392   5.169   3.477  1.00 20.00    -0.119 Cl
ENDROOT
BRANCH   3   5
HETATM    5  C3  UNL     1     -33.682   7.330   5.063  1.00 20.00     0.139 C 
HETATM    6 CL5  UNL     1     -32.473   7.800   3.840  1.00 20.00    -0.129 Cl
ENDBRANCH   3   5
TORSDOF 1
ENDMDL
MODEL 5
REMARK VINA RESULT:      -3.4      1.751      2.384
REMARK  1 active torsions:
REMARK  status: ('A' for Active; 'I' for Inactive)
REMARK    1  A    between atoms: C3_3  and  C4_4 
ROOT
HETATM    1  C1  UNL     1     -35.774   6.126   4.267  1.00 20.00     0.033 C 
HETATM    2  C2  UNL     1     -33.595   4.977   3.759  1.00 20.00     0.033 C 
HETATM    3  C4  UNL     1     -34.306   5.972   4.683  1.00 20.00     0.042 C 
HETATM    4 CL6  UNL     1     -34.285   5.275   6.351  1.00 20.00    -0.119 Cl
ENDROOT
BRANCH   3   5
HETATM    5  C3  UNL     1     -33.577   7.325   4.750  1.00 20.00     0.139 C 
HETATM    6 CL5  UNL     1     -32.317   7.519   3.504  1.00 20.00    -0.129 Cl
ENDBRANCH   3   5
TORSDOF 1
ENDMDL
MODEL 6
REMARK VINA RESULT:      -3.3      1.371      1.873
REMARK  1 active torsions:
REMARK  status: ('A' for Active; 'I' for Inactive)
REMARK    1  A    between atoms: C3_3  and  C4_4 
ROOT
HETATM    1  C1  UNL     1     -33.601   7.191   4.749  1.00 20.00     0.033 C 
HETATM    2  C2  UNL     1     -35.832   6.132   4.274  1.00 20.00     0.033 C 
HETATM    3  C4  UNL     1     -34.407   5.888   4.786  1.00 20.00     0.042 C 
HETATM    4 CL6  UNL     1     -34.531   5.373   6.515  1.00 20.00    -0.119 Cl
ENDROOT
BRANCH   3   5
HETATM    5  C3  UNL     1     -33.705   4.750   4.025  1.00 20.00     0.139 C 
HETATM    6 CL5  UNL     1     -32.867   5.289   2.547  1.00 20.00    -0.129 Cl
ENDBRANCH   3   5
TORSDOF 1
ENDMDL
MODEL 7
REMARK VINA RESULT:      -3.0      1.608      2.834
REMARK  1 active torsions:
REMARK  status: ('A' for Active; 'I' for Inactive)
REMARK    1  A    between atoms: C3_3  and  C4_4 
ROOT
HETATM    1  C1  UNL     1     -33.535   5.410   3.180  1.00 20.00     0.033 C 
HETATM    2  C2  UNL     1     -34.231   4.755   5.506  1.00 20.00     0.033 C 
HETATM    3  C4  UNL     1     -34.251   5.871   4.455  1.00 20.00     0.042 C 
HETATM    4 CL6  UNL     1     -35.979   6.183   4.026  1.00 20.00    -0.119 Cl
ENDROOT
BRANCH   3   5
HETATM    5  C3  UNL     1     -33.675   7.190   4.999  1.00 20.00     0.139 C 
HETATM    6 CL5  UNL     1     -34.092   7.502   6.704  1.00 20.00    -0.129 Cl
ENDBRANCH   3   5
TORSDOF 1
ENDMDL
MODEL 8
REMARK VINA RESULT:      -2.8     16.803     17.306
REMARK  1 active torsions:
REMARK  status: ('A' for Active; 'I' for Inactive)
REMARK    1  A    between atoms: C3_3  and  C4_4 
ROOT
HETATM    1  C1  UNL     1     -22.812  18.308  12.332  1.00 20.00     0.033 C 
HETATM    2  C2  UNL     1     -25.303  18.641  12.253  1.00 20.00     0.033 C 
HETATM    3  C4  UNL     1     -24.115  17.888  11.643  1.00 20.00     0.042 C 
HETATM    4 CL6  UNL     1     -24.361  16.127  11.972  1.00 20.00    -0.119 Cl
ENDROOT
BRANCH   3   5
HETATM    5  C3  UNL     1     -24.045  18.056  10.115  1.00 20.00     0.139 C 
HETATM    6 CL5  UNL     1     -22.633  17.259   9.374  1.00 20.00    -0.129 Cl
ENDBRANCH   3   5
TORSDOF 1
ENDMDL
MODEL 9
REMARK VINA RESULT:      -2.8      1.859      2.921
REMARK  1 active torsions:
REMARK  status: ('A' for Active; 'I' for Inactive)
REMARK    1  A    between atoms: C3_3  and  C4_4 
ROOT
HETATM    1  C1  UNL     1     -33.969   4.309   4.317  1.00 20.00     0.033 C 
HETATM    2  C2  UNL     1     -35.813   6.012   4.161  1.00 20.00     0.033 C 
HETATM    3  C4  UNL     1     -34.428   5.709   4.743  1.00 20.00     0.042 C 
HETATM    4 CL6  UNL     1     -33.267   6.901   4.036  1.00 20.00    -0.119 Cl
ENDROOT
BRANCH   3   5
HETATM    5  C3  UNL     1     -34.388   5.892   6.271  1.00 20.00     0.139 C 
HETATM    6 CL5  UNL     1     -34.053   7.567   6.781  1.00 20.00    -0.129 Cl
ENDBRANCH   3   5
TORSDOF 1
ENDMDL
