MODEL 1
REMARK VINA RESULT:      -4.1      0.000      0.000
REMARK  2 active torsions:
REMARK  status: ('A' for Active; 'I' for Inactive)
REMARK    1  A    between atoms: C1_1  and  C6_6 
REMARK    2  A    between atoms: C5_5  and  C10_10 
ROOT
HETATM    1  C2  UNL     1     -33.090  15.245  -4.099  1.00 20.00     0.006 C 
HETATM    2  C3  UNL     1     -33.882  14.809  -5.333  1.00 20.00     0.016 C 
HETATM    3  C4  UNL     1     -34.340  17.151  -4.779  1.00 20.00     0.021 C 
HETATM    4  C5  UNL     1     -33.885  16.411  -3.523  1.00 20.00    -0.010 C 
HETATM    5  C6  UNL     1     -34.741  16.023  -5.745  1.00 20.00     0.010 C 
HETATM    6  C7  UNL     1     -34.526  16.420  -7.202  1.00 20.00     0.023 C 
ENDROOT
BRANCH   4   7
HETATM    7  C10 UNL     1     -33.071  17.280  -2.579  1.00 20.00    -0.019 C 
HETATM    8  C8  UNL     1     -32.914  18.694  -3.140  1.00 20.00     0.010 C 
HETATM    9  C9  UNL     1     -33.715  17.329  -1.192  1.00 20.00     0.010 C 
ENDBRANCH   4   7
BRANCH   5  10
HETATM   10  C1  UNL     1     -36.204  15.698  -5.580  1.00 20.00     0.240 C 
HETATM   11  O11 UNL     1     -36.630  14.560  -5.407  1.00 20.00    -0.306 OA
ENDBRANCH   5  10
TORSDOF 2
ENDMDL
MODEL 2
REMARK VINA RESULT:      -4.1     11.484     13.394
REMARK  2 active torsions:
REMARK  status: ('A' for Active; 'I' for Inactive)
REMARK    1  A    between atoms: C1_1  and  C6_6 
REMARK    2  A    between atoms: C5_5  and  C10_10 
ROOT
HETATM    1  C2  UNL     1     -41.144  13.393   4.786  1.00 20.00     0.006 C 
HETATM    2  C3  UNL     1     -41.994  14.396   5.567  1.00 20.00     0.016 C 
HETATM    3  C4  UNL     1     -40.265  13.411   6.996  1.00 20.00     0.021 C 
HETATM    4  C5  UNL     1     -40.581  12.455   5.847  1.00 20.00    -0.010 C 
HETATM    5  C6  UNL     1     -41.468  14.369   7.017  1.00 20.00     0.010 C 
HETATM    6  C7  UNL     1     -41.079  15.756   7.521  1.00 20.00     0.023 C 
ENDROOT
BRANCH   4   7
HETATM    7  C10 UNL     1     -39.370  11.672   5.370  1.00 20.00    -0.019 C 
HETATM    8  C8  UNL     1     -39.237  11.749   3.848  1.00 20.00     0.010 C 
HETATM    9  C9  UNL     1     -38.092  12.183   6.040  1.00 20.00     0.010 C 
ENDBRANCH   4   7
BRANCH   5  10
HETATM   10  C1  UNL     1     -42.534  13.838   7.943  1.00 20.00     0.240 C 
HETATM   11  O11 UNL     1     -42.298  13.101   8.895  1.00 20.00    -0.306 OA
ENDBRANCH   5  10
TORSDOF 2
ENDMDL
MODEL 3
REMARK VINA RESULT:      -3.9      2.510      4.876
REMARK  2 active torsions:
REMARK  status: ('A' for Active; 'I' for Inactive)
REMARK    1  A    between atoms: C1_1  and  C6_6 
REMARK    2  A    between atoms: C5_5  and  C10_10 
ROOT
HETATM    1  C2  UNL     1     -33.322  18.526  -3.985  1.00 20.00     0.006 C 
HETATM    2  C3  UNL     1     -33.007  19.263  -2.682  1.00 20.00     0.016 C 
HETATM    3  C4  UNL     1     -33.224  16.853  -2.298  1.00 20.00     0.021 C 
HETATM    4  C5  UNL     1     -34.015  17.242  -3.545  1.00 20.00    -0.010 C 
HETATM    5  C6  UNL     1     -33.000  18.191  -1.572  1.00 20.00     0.010 C 
HETATM    6  C7  UNL     1     -31.703  18.191  -0.769  1.00 20.00     0.023 C 
ENDROOT
BRANCH   4   7
HETATM    7  C10 UNL     1     -34.012  16.165  -4.616  1.00 20.00    -0.019 C 
HETATM    8  C8  UNL     1     -33.668  14.800  -4.015  1.00 20.00     0.010 C 
HETATM    9  C9  UNL     1     -35.364  16.103  -5.331  1.00 20.00     0.010 C 
ENDBRANCH   4   7
BRANCH   5  10
HETATM   10  C1  UNL     1     -34.127  18.446  -0.603  1.00 20.00     0.240 C 
HETATM   11  O11 UNL     1     -34.038  18.251   0.605  1.00 20.00    -0.306 OA
ENDBRANCH   5  10
TORSDOF 2
ENDMDL
MODEL 4
REMARK VINA RESULT:      -3.9     12.179     13.243
REMARK  2 active torsions:
REMARK  status: ('A' for Active; 'I' for Inactive)
REMARK    1  A    between atoms: C1_1  and  C6_6 
REMARK    2  A    between atoms: C5_5  and  C10_10 
ROOT
HETATM    1  C2  UNL     1     -32.770   6.107   2.913  1.00 20.00     0.006 C 
HETATM    2  C3  UNL     1     -33.830   5.085   3.329  1.00 20.00     0.016 C 
HETATM    3  C4  UNL     1     -34.073   7.166   4.598  1.00 20.00     0.021 C 
HETATM    4  C5  UNL     1     -32.629   7.028   4.119  1.00 20.00    -0.010 C 
HETATM    5  C6  UNL     1     -34.642   5.744   4.463  1.00 20.00     0.010 C 
HETATM    6  C7  UNL     1     -36.140   5.757   4.175  1.00 20.00     0.023 C 
ENDROOT
BRANCH   4   7
HETATM    7  C10 UNL     1     -31.981   8.360   3.780  1.00 20.00    -0.019 C 
HETATM    8  C8  UNL     1     -32.583   8.949   2.503  1.00 20.00     0.010 C 
HETATM    9  C9  UNL     1     -32.128   9.348   4.940  1.00 20.00     0.010 C 
ENDBRANCH   4   7
BRANCH   5  10
HETATM   10  C1  UNL     1     -34.439   4.984   5.750  1.00 20.00     0.240 C 
HETATM   11  O11 UNL     1     -34.089   5.512   6.800  1.00 20.00    -0.306 OA
ENDBRANCH   5  10
TORSDOF 2
ENDMDL
MODEL 5
REMARK VINA RESULT:      -3.8      1.388      2.140
REMARK  2 active torsions:
REMARK  status: ('A' for Active; 'I' for Inactive)
REMARK    1  A    between atoms: C1_1  and  C6_6 
REMARK    2  A    between atoms: C5_5  and  C10_10 
ROOT
HETATM    1  C2  UNL     1     -35.187  17.828  -4.053  1.00 20.00     0.006 C 
HETATM    2  C3  UNL     1     -35.887  17.032  -5.156  1.00 20.00     0.016 C 
HETATM    3  C4  UNL     1     -33.883  15.863  -4.367  1.00 20.00     0.021 C 
HETATM    4  C5  UNL     1     -33.737  17.360  -4.100  1.00 20.00    -0.010 C 
HETATM    5  C6  UNL     1     -35.014  15.784  -5.407  1.00 20.00     0.010 C 
HETATM    6  C7  UNL     1     -35.806  14.486  -5.287  1.00 20.00     0.023 C 
ENDROOT
BRANCH   4   7
HETATM    7  C10 UNL     1     -32.968  17.668  -2.826  1.00 20.00    -0.019 C 
HETATM    8  C8  UNL     1     -32.768  19.176  -2.662  1.00 20.00     0.010 C 
HETATM    9  C9  UNL     1     -33.687  17.093  -1.604  1.00 20.00     0.010 C 
ENDBRANCH   4   7
BRANCH   5  10
HETATM   10  C1  UNL     1     -34.438  15.831  -6.800  1.00 20.00     0.240 C 
HETATM   11  O11 UNL     1     -33.702  14.962  -7.257  1.00 20.00    -0.306 OA
ENDBRANCH   5  10
TORSDOF 2
ENDMDL
MODEL 6
REMARK VINA RESULT:      -3.7      2.526      4.574
REMARK  2 active torsions:
REMARK  status: ('A' for Active; 'I' for Inactive)
REMARK    1  A    between atoms: C1_1  and  C6_6 
REMARK    2  A    between atoms: C5_5  and  C10_10 
ROOT
HETATM    1  C2  UNL     1     -33.665  15.916  -3.035  1.00 20.00     0.006 C 
HETATM    2  C3  UNL     1     -33.382  16.923  -1.918  1.00 20.00     0.016 C 
HETATM    3  C4  UNL     1     -34.623  17.972  -3.751  1.00 20.00     0.021 C 
HETATM    4  C5  UNL     1     -33.849  16.769  -4.285  1.00 20.00    -0.010 C 
HETATM    5  C6  UNL     1     -33.949  18.273  -2.402  1.00 20.00     0.010 C 
HETATM    6  C7  UNL     1     -34.926  18.887  -1.403  1.00 20.00     0.023 C 
ENDROOT
BRANCH   4   7
HETATM    7  C10 UNL     1     -34.573  16.039  -5.403  1.00 20.00    -0.019 C 
HETATM    8  C8  UNL     1     -34.910  14.605  -4.990  1.00 20.00     0.010 C 
HETATM    9  C9  UNL     1     -35.847  16.787  -5.806  1.00 20.00     0.010 C 
ENDBRANCH   4   7
BRANCH   5  10
HETATM   10  C1  UNL     1     -32.827  19.263  -2.596  1.00 20.00     0.240 C 
HETATM   11  O11 UNL     1     -31.795  19.255  -1.932  1.00 20.00    -0.306 OA
ENDBRANCH   5  10
TORSDOF 2
ENDMDL
MODEL 7
REMARK VINA RESULT:      -3.7     11.544     12.884
REMARK  2 active torsions:
REMARK  status: ('A' for Active; 'I' for Inactive)
REMARK    1  A    between atoms: C1_1  and  C6_6 
REMARK    2  A    between atoms: C5_5  and  C10_10 
ROOT
HETATM    1  C2  UNL     1     -32.694   6.088   3.430  1.00 20.00     0.006 C 
HETATM    2  C3  UNL     1     -31.970   7.395   3.099  1.00 20.00     0.016 C 
HETATM    3  C4  UNL     1     -33.749   7.768   4.742  1.00 20.00     0.021 C 
HETATM    4  C5  UNL     1     -34.071   6.522   3.919  1.00 20.00    -0.010 C 
HETATM    5  C6  UNL     1     -32.688   8.499   3.901  1.00 20.00     0.010 C 
HETATM    6  C7  UNL     1     -31.728   9.303   4.773  1.00 20.00     0.023 C 
ENDROOT
BRANCH   4   7
HETATM    7  C10 UNL     1     -34.787   5.446   4.718  1.00 20.00    -0.019 C 
HETATM    8  C8  UNL     1     -34.112   4.087   4.527  1.00 20.00     0.010 C 
HETATM    9  C9  UNL     1     -34.833   5.811   6.204  1.00 20.00     0.010 C 
ENDBRANCH   4   7
BRANCH   5  10
HETATM   10  C1  UNL     1     -33.356   9.469   2.959  1.00 20.00     0.240 C 
HETATM   11  O11 UNL     1     -32.971   9.673   1.812  1.00 20.00    -0.306 OA
ENDBRANCH   5  10
TORSDOF 2
ENDMDL
MODEL 8
REMARK VINA RESULT:      -3.6     12.144     13.376
REMARK  2 active torsions:
REMARK  status: ('A' for Active; 'I' for Inactive)
REMARK    1  A    between atoms: C1_1  and  C6_6 
REMARK    2  A    between atoms: C5_5  and  C10_10 
ROOT
HETATM    1  C2  UNL     1     -33.546   7.525   6.031  1.00 20.00     0.006 C 
HETATM    2  C3  UNL     1     -34.271   6.207   6.308  1.00 20.00     0.016 C 
HETATM    3  C4  UNL     1     -33.675   6.400   3.940  1.00 20.00     0.021 C 
HETATM    4  C5  UNL     1     -33.787   7.795   4.551  1.00 20.00    -0.010 C 
HETATM    5  C6  UNL     1     -34.412   5.498   4.944  1.00 20.00     0.010 C 
HETATM    6  C7  UNL     1     -33.842   4.083   4.962  1.00 20.00     0.023 C 
ENDROOT
BRANCH   4   7
HETATM    7  C10 UNL     1     -32.803   8.789   3.957  1.00 20.00    -0.019 C 
HETATM    8  C8  UNL     1     -31.842   9.309   5.028  1.00 20.00     0.010 C 
HETATM    9  C9  UNL     1     -32.021   8.158   2.804  1.00 20.00     0.010 C 
ENDBRANCH   4   7
BRANCH   5  10
HETATM   10  C1  UNL     1     -35.869   5.390   4.568  1.00 20.00     0.240 C 
HETATM   11  O11 UNL     1     -36.443   6.198   3.846  1.00 20.00    -0.306 OA
ENDBRANCH   5  10
TORSDOF 2
ENDMDL
MODEL 9
REMARK VINA RESULT:      -3.4     13.092     13.904
REMARK  2 active torsions:
REMARK  status: ('A' for Active; 'I' for Inactive)
REMARK    1  A    between atoms: C1_1  and  C6_6 
REMARK    2  A    between atoms: C5_5  and  C10_10 
ROOT
HETATM    1  C2  UNL     1     -41.882  15.560   6.334  1.00 20.00     0.006 C 
HETATM    2  C3  UNL     1     -42.259  14.221   5.697  1.00 20.00     0.016 C 
HETATM    3  C4  UNL     1     -41.188  13.885   7.874  1.00 20.00     0.021 C 
HETATM    4  C5  UNL     1     -40.744  15.225   7.291  1.00 20.00    -0.010 C 
HETATM    5  C6  UNL     1     -41.758  13.128   6.663  1.00 20.00     0.010 C 
HETATM    6  C7  UNL     1     -42.864  12.158   7.069  1.00 20.00     0.023 C 
ENDROOT
BRANCH   4   7
HETATM    7  C10 UNL     1     -40.519  16.293   8.348  1.00 20.00    -0.019 C 
HETATM    8  C8  UNL     1     -40.855  17.681   7.799  1.00 20.00     0.010 C 
HETATM    9  C9  UNL     1     -41.349  16.003   9.600  1.00 20.00     0.010 C 
ENDBRANCH   4   7
BRANCH   5  10
HETATM   10  C1  UNL     1     -40.670  12.317   6.004  1.00 20.00     0.240 C 
HETATM   11  O11 UNL     1     -39.680  11.903   6.599  1.00 20.00    -0.306 OA
ENDBRANCH   5  10
TORSDOF 2
ENDMDL
