MODEL 1
REMARK VINA RESULT:      -4.0      0.000      0.000
REMARK  4 active torsions:
REMARK  status: ('A' for Active; 'I' for Inactive)
REMARK    1  A    between atoms: C1_1  and  C9_9 
REMARK    2  A    between atoms: C2_2  and  C7_7 
REMARK    3  A    between atoms: C2_2  and  C9_9 
REMARK    4  A    between atoms: C7_7  and  C8_8 
ROOT
HETATM    1  C5  UNL     1     -33.565  15.300  -6.999  1.00 20.00     0.031 C 
HETATM    2  C6  UNL     1     -34.623  17.208  -5.777  1.00 20.00     0.031 C 
HETATM    3  C9  UNL     1     -34.547  15.676  -5.880  1.00 20.00     0.073 C 
ENDROOT
BRANCH   3   4
HETATM    4  C1  UNL     1     -35.970  15.167  -6.166  1.00 20.00     0.138 C 
HETATM    5  C3  UNL     1     -37.131  15.827  -5.462  1.00 20.00     0.092 C 
HETATM    6  O10 UNL     1     -36.171  14.213  -6.924  1.00 20.00    -0.297 OA
ENDBRANCH   3   4
BRANCH   3   7
HETATM    7  C2  UNL     1     -34.011  15.100  -4.547  1.00 20.00     0.142 C 
HETATM    8  O11 UNL     1     -34.352  13.989  -4.139  1.00 20.00    -0.297 OA
BRANCH   7   9
HETATM    9  C7  UNL     1     -33.052  15.973  -3.743  1.00 20.00     0.079 C 
BRANCH   9  10
HETATM   10  C8  UNL     1     -33.622  16.422  -2.399  1.00 20.00     0.003 C 
HETATM   11  C4  UNL     1     -32.875  17.615  -1.818  1.00 20.00     0.005 C 
ENDBRANCH   9  10
ENDBRANCH   7   9
ENDBRANCH   3   7
TORSDOF 4
ENDMDL
MODEL 2
REMARK VINA RESULT:      -3.9      1.174      2.048
REMARK  4 active torsions:
REMARK  status: ('A' for Active; 'I' for Inactive)
REMARK    1  A    between atoms: C1_1  and  C9_9 
REMARK    2  A    between atoms: C2_2  and  C7_7 
REMARK    3  A    between atoms: C2_2  and  C9_9 
REMARK    4  A    between atoms: C7_7  and  C8_8 
ROOT
HETATM    1  C5  UNL     1     -35.783  16.908  -5.120  1.00 20.00     0.031 C 
HETATM    2  C6  UNL     1     -35.972  14.477  -5.673  1.00 20.00     0.031 C 
HETATM    3  C9  UNL     1     -34.996  15.656  -5.530  1.00 20.00     0.073 C 
ENDROOT
BRANCH   3   4
HETATM    4  C1  UNL     1     -34.293  15.834  -6.887  1.00 20.00     0.138 C 
HETATM    5  C3  UNL     1     -34.427  17.155  -7.605  1.00 20.00     0.092 C 
HETATM    6  O10 UNL     1     -33.661  14.911  -7.408  1.00 20.00    -0.297 OA
ENDBRANCH   3   4
BRANCH   3   7
HETATM    7  C2  UNL     1     -33.970  15.339  -4.414  1.00 20.00     0.142 C 
HETATM    8  O11 UNL     1     -33.723  14.181  -4.073  1.00 20.00    -0.297 OA
BRANCH   7   9
HETATM    9  C7  UNL     1     -33.286  16.523  -3.737  1.00 20.00     0.079 C 
BRANCH   9  10
HETATM   10  C8  UNL     1     -33.516  16.574  -2.228  1.00 20.00     0.003 C 
HETATM   11  C4  UNL     1     -32.804  17.748  -1.569  1.00 20.00     0.005 C 
ENDBRANCH   9  10
ENDBRANCH   7   9
ENDBRANCH   3   7
TORSDOF 4
ENDMDL
MODEL 3
REMARK VINA RESULT:      -3.9     12.216     13.582
REMARK  4 active torsions:
REMARK  status: ('A' for Active; 'I' for Inactive)
REMARK    1  A    between atoms: C1_1  and  C9_9 
REMARK    2  A    between atoms: C2_2  and  C7_7 
REMARK    3  A    between atoms: C2_2  and  C9_9 
REMARK    4  A    between atoms: C7_7  and  C8_8 
ROOT
HETATM    1  C5  UNL     1     -35.833   6.329   4.222  1.00 20.00     0.031 C 
HETATM    2  C6  UNL     1     -35.065   5.085   6.251  1.00 20.00     0.031 C 
HETATM    3  C9  UNL     1     -34.601   5.813   4.979  1.00 20.00     0.073 C 
ENDROOT
BRANCH   3   4
HETATM    4  C1  UNL     1     -33.792   4.804   4.146  1.00 20.00     0.138 C 
HETATM    5  C3  UNL     1     -33.091   5.289   2.900  1.00 20.00     0.092 C 
HETATM    6  O10 UNL     1     -33.739   3.611   4.457  1.00 20.00    -0.297 OA
ENDBRANCH   3   4
BRANCH   3   7
HETATM    7  C2  UNL     1     -33.728   7.028   5.375  1.00 20.00     0.142 C 
HETATM    8  O11 UNL     1     -33.017   7.014   6.382  1.00 20.00    -0.297 OA
BRANCH   7   9
HETATM    9  C7  UNL     1     -33.795   8.260   4.476  1.00 20.00     0.079 C 
BRANCH   9  10
HETATM   10  C8  UNL     1     -32.437   8.674   3.912  1.00 20.00     0.003 C 
HETATM   11  C4  UNL     1     -32.484   8.939   2.414  1.00 20.00     0.005 C 
ENDBRANCH   9  10
ENDBRANCH   7   9
ENDBRANCH   3   7
TORSDOF 4
ENDMDL
MODEL 4
REMARK VINA RESULT:      -3.9     12.385     13.926
REMARK  4 active torsions:
REMARK  status: ('A' for Active; 'I' for Inactive)
REMARK    1  A    between atoms: C1_1  and  C9_9 
REMARK    2  A    between atoms: C2_2  and  C7_7 
REMARK    3  A    between atoms: C2_2  and  C9_9 
REMARK    4  A    between atoms: C7_7  and  C8_8 
ROOT
HETATM    1  C5  UNL     1     -43.057  12.501   7.386  1.00 20.00     0.031 C 
HETATM    2  C6  UNL     1     -43.046  14.850   6.528  1.00 20.00     0.031 C 
HETATM    3  C9  UNL     1     -42.159  13.670   6.957  1.00 20.00     0.073 C 
ENDROOT
BRANCH   3   4
HETATM    4  C1  UNL     1     -41.267  14.165   8.109  1.00 20.00     0.138 C 
HETATM    5  C3  UNL     1     -40.370  15.355   7.870  1.00 20.00     0.092 C 
HETATM    6  O10 UNL     1     -41.247  13.588   9.199  1.00 20.00    -0.297 OA
ENDBRANCH   3   4
BRANCH   3   7
HETATM    7  C2  UNL     1     -41.302  13.210   5.753  1.00 20.00     0.142 C 
HETATM    8  O11 UNL     1     -41.359  13.781   4.663  1.00 20.00    -0.297 OA
BRANCH   7   9
HETATM    9  C7  UNL     1     -40.393  12.003   5.963  1.00 20.00     0.079 C 
BRANCH   9  10
HETATM   10  C8  UNL     1     -38.987  12.197   5.397  1.00 20.00     0.003 C 
HETATM   11  C4  UNL     1     -38.831  11.598   4.006  1.00 20.00     0.005 C 
ENDBRANCH   9  10
ENDBRANCH   7   9
ENDBRANCH   3   7
TORSDOF 4
ENDMDL
MODEL 5
REMARK VINA RESULT:      -3.8      1.293      1.976
REMARK  4 active torsions:
REMARK  status: ('A' for Active; 'I' for Inactive)
REMARK    1  A    between atoms: C1_1  and  C9_9 
REMARK    2  A    between atoms: C2_2  and  C7_7 
REMARK    3  A    between atoms: C2_2  and  C9_9 
REMARK    4  A    between atoms: C7_7  and  C8_8 
ROOT
HETATM    1  C5  UNL     1     -35.961  14.473  -5.853  1.00 20.00     0.031 C 
HETATM    2  C6  UNL     1     -33.842  15.345  -6.854  1.00 20.00     0.031 C 
HETATM    3  C9  UNL     1     -34.790  15.443  -5.648  1.00 20.00     0.073 C 
ENDROOT
BRANCH   3   4
HETATM    4  C1  UNL     1     -35.260  16.905  -5.556  1.00 20.00     0.138 C 
HETATM    5  C3  UNL     1     -34.573  17.943  -6.410  1.00 20.00     0.092 C 
HETATM    6  O10 UNL     1     -36.155  17.244  -4.776  1.00 20.00    -0.297 OA
ENDBRANCH   3   4
BRANCH   3   7
HETATM    7  C2  UNL     1     -34.030  15.026  -4.366  1.00 20.00     0.142 C 
HETATM    8  O11 UNL     1     -34.168  13.907  -3.867  1.00 20.00    -0.297 OA
BRANCH   7   9
HETATM    9  C7  UNL     1     -33.112  16.064  -3.727  1.00 20.00     0.079 C 
BRANCH   9  10
HETATM   10  C8  UNL     1     -33.572  16.512  -2.342  1.00 20.00     0.003 C 
HETATM   11  C4  UNL     1     -32.788  17.710  -1.825  1.00 20.00     0.005 C 
ENDBRANCH   9  10
ENDBRANCH   7   9
ENDBRANCH   3   7
TORSDOF 4
ENDMDL
MODEL 6
REMARK VINA RESULT:      -3.7     12.360     13.770
REMARK  4 active torsions:
REMARK  status: ('A' for Active; 'I' for Inactive)
REMARK    1  A    between atoms: C1_1  and  C9_9 
REMARK    2  A    between atoms: C2_2  and  C7_7 
REMARK    3  A    between atoms: C2_2  and  C9_9 
REMARK    4  A    between atoms: C7_7  and  C8_8 
ROOT
HETATM    1  C5  UNL     1     -41.606  14.103   5.348  1.00 20.00     0.031 C 
HETATM    2  C6  UNL     1     -42.327  12.204   6.806  1.00 20.00     0.031 C 
HETATM    3  C9  UNL     1     -41.188  13.194   6.511  1.00 20.00     0.073 C 
ENDROOT
BRANCH   3   4
HETATM    4  C1  UNL     1     -39.938  12.363   6.173  1.00 20.00     0.138 C 
HETATM    5  C3  UNL     1     -39.679  11.995   4.732  1.00 20.00     0.092 C 
HETATM    6  O10 UNL     1     -39.172  11.966   7.057  1.00 20.00    -0.297 OA
ENDBRANCH   3   4
BRANCH   3   7
HETATM    7  C2  UNL     1     -40.943  14.078   7.758  1.00 20.00     0.142 C 
HETATM    8  O11 UNL     1     -41.289  13.717   8.884  1.00 20.00    -0.297 OA
BRANCH   7   9
HETATM    9  C7  UNL     1     -40.270  15.429   7.536  1.00 20.00     0.079 C 
BRANCH   9  10
HETATM   10  C8  UNL     1     -41.073  16.605   8.087  1.00 20.00     0.003 C 
HETATM   11  C4  UNL     1     -40.670  17.932   7.458  1.00 20.00     0.005 C 
ENDBRANCH   9  10
ENDBRANCH   7   9
ENDBRANCH   3   7
TORSDOF 4
ENDMDL
MODEL 7
REMARK VINA RESULT:      -3.7     12.424     13.813
REMARK  4 active torsions:
REMARK  status: ('A' for Active; 'I' for Inactive)
REMARK    1  A    between atoms: C1_1  and  C9_9 
REMARK    2  A    between atoms: C2_2  and  C7_7 
REMARK    3  A    between atoms: C2_2  and  C9_9 
REMARK    4  A    between atoms: C7_7  and  C8_8 
ROOT
HETATM    1  C5  UNL     1     -43.302  14.957   6.001  1.00 20.00     0.031 C 
HETATM    2  C6  UNL     1     -41.291  15.324   7.442  1.00 20.00     0.031 C 
HETATM    3  C9  UNL     1     -42.101  14.271   6.666  1.00 20.00     0.073 C 
ENDROOT
BRANCH   3   4
HETATM    4  C1  UNL     1     -42.537  13.197   7.677  1.00 20.00     0.138 C 
HETATM    5  C3  UNL     1     -43.417  12.067   7.200  1.00 20.00     0.092 C 
HETATM    6  O10 UNL     1     -42.212  13.264   8.866  1.00 20.00    -0.297 OA
ENDBRANCH   3   4
BRANCH   3   7
HETATM    7  C2  UNL     1     -41.212  13.658   5.557  1.00 20.00     0.142 C 
HETATM    8  O11 UNL     1     -41.550  13.679   4.372  1.00 20.00    -0.297 OA
BRANCH   7   9
HETATM    9  C7  UNL     1     -39.903  13.006   5.991  1.00 20.00     0.079 C 
BRANCH   9  10
HETATM   10  C8  UNL     1     -39.672  11.633   5.364  1.00 20.00     0.003 C 
HETATM   11  C4  UNL     1     -38.914  11.714   4.045  1.00 20.00     0.005 C 
ENDBRANCH   9  10
ENDBRANCH   7   9
ENDBRANCH   3   7
TORSDOF 4
ENDMDL
MODEL 8
REMARK VINA RESULT:      -3.6     12.800     14.173
REMARK  4 active torsions:
REMARK  status: ('A' for Active; 'I' for Inactive)
REMARK    1  A    between atoms: C1_1  and  C9_9 
REMARK    2  A    between atoms: C2_2  and  C7_7 
REMARK    3  A    between atoms: C2_2  and  C9_9 
REMARK    4  A    between atoms: C7_7  and  C8_8 
ROOT
HETATM    1  C5  UNL     1     -41.658  13.967   5.068  1.00 20.00     0.031 C 
HETATM    2  C6  UNL     1     -42.315  12.354   6.863  1.00 20.00     0.031 C 
HETATM    3  C9  UNL     1     -41.193  13.277   6.357  1.00 20.00     0.073 C 
ENDROOT
BRANCH   3   4
HETATM    4  C1  UNL     1     -39.951  12.399   6.126  1.00 20.00     0.138 C 
HETATM    5  C3  UNL     1     -39.637  11.941   4.722  1.00 20.00     0.092 C 
HETATM    6  O10 UNL     1     -39.236  12.037   7.065  1.00 20.00    -0.297 OA
ENDBRANCH   3   4
BRANCH   3   7
HETATM    7  C2  UNL     1     -40.910  14.366   7.419  1.00 20.00     0.142 C 
HETATM    8  O11 UNL     1     -40.202  15.343   7.170  1.00 20.00    -0.297 OA
BRANCH   7   9
HETATM    9  C7  UNL     1     -41.529  14.174   8.801  1.00 20.00     0.079 C 
BRANCH   9  10
HETATM   10  C8  UNL     1     -40.546  14.415   9.945  1.00 20.00     0.003 C 
HETATM   11  C4  UNL     1     -41.157  14.122  11.309  1.00 20.00     0.005 C 
ENDBRANCH   9  10
ENDBRANCH   7   9
ENDBRANCH   3   7
TORSDOF 4
ENDMDL
MODEL 9
REMARK VINA RESULT:      -3.6     12.926     14.331
REMARK  4 active torsions:
REMARK  status: ('A' for Active; 'I' for Inactive)
REMARK    1  A    between atoms: C1_1  and  C9_9 
REMARK    2  A    between atoms: C2_2  and  C7_7 
REMARK    3  A    between atoms: C2_2  and  C9_9 
REMARK    4  A    between atoms: C7_7  and  C8_8 
ROOT
HETATM    1  C5  UNL     1     -43.074  12.067   7.234  1.00 20.00     0.031 C 
HETATM    2  C6  UNL     1     -43.065  14.155   5.858  1.00 20.00     0.031 C 
HETATM    3  C9  UNL     1     -42.431  13.451   7.069  1.00 20.00     0.073 C 
ENDROOT
BRANCH   3   4
HETATM    4  C1  UNL     1     -42.671  14.348   8.295  1.00 20.00     0.138 C 
HETATM    5  C3  UNL     1     -42.616  15.847   8.119  1.00 20.00     0.092 C 
HETATM    6  O10 UNL     1     -42.867  13.867   9.415  1.00 20.00    -0.297 OA
ENDBRANCH   3   4
BRANCH   3   7
HETATM    7  C2  UNL     1     -40.917  13.257   6.813  1.00 20.00     0.142 C 
HETATM    8  O11 UNL     1     -40.089  13.365   7.719  1.00 20.00    -0.297 OA
BRANCH   7   9
HETATM    9  C7  UNL     1     -40.484  12.944   5.384  1.00 20.00     0.079 C 
BRANCH   9  10
HETATM   10  C8  UNL     1     -39.601  11.703   5.275  1.00 20.00     0.003 C 
HETATM   11  C4  UNL     1     -38.881  11.615   3.937  1.00 20.00     0.005 C 
ENDBRANCH   9  10
ENDBRANCH   7   9
ENDBRANCH   3   7
TORSDOF 4
ENDMDL
