MODEL 1
REMARK VINA RESULT:      -4.3      0.000      0.000
REMARK  2 active torsions:
REMARK  status: ('A' for Active; 'I' for Inactive)
REMARK    1  A    between atoms: C1_1  and  C8_8 
REMARK    2  A    between atoms: C8_8  and  O10_10 
ROOT
HETATM    1  C1  UNL     1     -33.727  15.638  -3.800  1.00 20.00    -0.069 C 
HETATM    2  C2  UNL     1     -33.525  16.422  -2.913  1.00 20.00    -0.108 C 
HETATM    3  C9  UNL     1     -33.281  17.377  -1.833  1.00 20.00     0.112 C 
ENDROOT
BRANCH   1   4
HETATM    4  C8  UNL     1     -33.974  14.674  -4.889  1.00 20.00     0.121 C 
HETATM    5  C6  UNL     1     -35.413  14.137  -4.823  1.00 20.00     0.051 C 
HETATM    6  C4  UNL     1     -36.457  15.175  -5.234  1.00 20.00     0.004 C 
HETATM    7  C3  UNL     1     -36.148  15.773  -6.603  1.00 20.00     0.000 C 
HETATM    8  C5  UNL     1     -34.737  16.350  -6.663  1.00 20.00     0.004 C 
HETATM    9  C7  UNL     1     -33.687  15.315  -6.257  1.00 20.00     0.051 C 
BRANCH   4  10
HETATM   10  O10 UNL     1     -33.074  13.581  -4.705  1.00 20.00    -0.378 OA
HETATM   11  H24 UNL     1     -33.016  13.128  -5.560  1.00 20.00     0.211 HD
ENDBRANCH   4  10
ENDBRANCH   1   4
TORSDOF 2
ENDMDL
MODEL 2
REMARK VINA RESULT:      -4.1     12.325     13.522
REMARK  2 active torsions:
REMARK  status: ('A' for Active; 'I' for Inactive)
REMARK    1  A    between atoms: C1_1  and  C8_8 
REMARK    2  A    between atoms: C8_8  and  O10_10 
ROOT
HETATM    1  C1  UNL     1     -40.756  12.544   5.795  1.00 20.00    -0.069 C 
HETATM    2  C2  UNL     1     -39.908  12.155   5.040  1.00 20.00    -0.108 C 
HETATM    3  C9  UNL     1     -38.874  11.683   4.120  1.00 20.00     0.112 C 
ENDROOT
BRANCH   1   4
HETATM    4  C8  UNL     1     -41.798  13.021   6.723  1.00 20.00     0.121 C 
HETATM    5  C6  UNL     1     -41.176  13.851   7.858  1.00 20.00     0.051 C 
HETATM    6  C4  UNL     1     -40.681  15.221   7.394  1.00 20.00     0.004 C 
HETATM    7  C3  UNL     1     -41.774  15.999   6.669  1.00 20.00     0.000 C 
HETATM    8  C5  UNL     1     -42.366  15.200   5.512  1.00 20.00     0.004 C 
HETATM    9  C7  UNL     1     -42.867  13.830   5.971  1.00 20.00     0.051 C 
BRANCH   4  10
HETATM   10  O10 UNL     1     -42.422  11.870   7.294  1.00 20.00    -0.378 OA
HETATM   11  H24 UNL     1     -42.209  11.126   6.711  1.00 20.00     0.211 HD
ENDBRANCH   4  10
ENDBRANCH   1   4
TORSDOF 2
ENDMDL
MODEL 3
REMARK VINA RESULT:      -3.9      1.030      1.187
REMARK  2 active torsions:
REMARK  status: ('A' for Active; 'I' for Inactive)
REMARK    1  A    between atoms: C1_1  and  C8_8 
REMARK    2  A    between atoms: C8_8  and  O10_10 
ROOT
HETATM    1  C1  UNL     1     -33.966  16.016  -4.432  1.00 20.00    -0.069 C 
HETATM    2  C2  UNL     1     -33.673  16.429  -3.343  1.00 20.00    -0.108 C 
HETATM    3  C9  UNL     1     -33.316  16.933  -2.018  1.00 20.00     0.112 C 
ENDROOT
BRANCH   1   4
HETATM    4  C8  UNL     1     -34.325  15.508  -5.769  1.00 20.00     0.121 C 
HETATM    5  C6  UNL     1     -35.597  14.647  -5.698  1.00 20.00     0.051 C 
HETATM    6  C4  UNL     1     -36.862  15.468  -5.450  1.00 20.00     0.004 C 
HETATM    7  C3  UNL     1     -37.008  16.597  -6.466  1.00 20.00     0.000 C 
HETATM    8  C5  UNL     1     -35.768  17.484  -6.510  1.00 20.00     0.004 C 
HETATM    9  C7  UNL     1     -34.500  16.668  -6.762  1.00 20.00     0.051 C 
BRANCH   4  10
HETATM   10  O10 UNL     1     -33.247  14.687  -6.219  1.00 20.00    -0.378 OA
HETATM   11  H24 UNL     1     -33.263  14.722  -7.187  1.00 20.00     0.211 HD
ENDBRANCH   4  10
ENDBRANCH   1   4
TORSDOF 2
ENDMDL
MODEL 4
REMARK VINA RESULT:      -3.6      2.961      5.331
REMARK  2 active torsions:
REMARK  status: ('A' for Active; 'I' for Inactive)
REMARK    1  A    between atoms: C1_1  and  C8_8 
REMARK    2  A    between atoms: C8_8  and  O10_10 
ROOT
HETATM    1  C1  UNL     1     -33.646  17.139  -3.136  1.00 20.00    -0.069 C 
HETATM    2  C2  UNL     1     -33.478  16.044  -3.599  1.00 20.00    -0.108 C 
HETATM    3  C9  UNL     1     -33.273  14.711  -4.164  1.00 20.00     0.112 C 
ENDROOT
BRANCH   1   4
HETATM    4  C8  UNL     1     -33.851  18.484  -2.567  1.00 20.00     0.121 C 
HETATM    5  C6  UNL     1     -34.726  18.412  -1.305  1.00 20.00     0.051 C 
HETATM    6  C4  UNL     1     -33.999  17.799  -0.108  1.00 20.00     0.004 C 
HETATM    7  C3  UNL     1     -32.676  18.507   0.169  1.00 20.00     0.000 C 
HETATM    8  C5  UNL     1     -31.782  18.543  -1.067  1.00 20.00     0.004 C 
HETATM    9  C7  UNL     1     -32.504  19.159  -2.266  1.00 20.00     0.051 C 
BRANCH   4  10
HETATM   10  O10 UNL     1     -34.537  19.263  -3.549  1.00 20.00    -0.378 OA
HETATM   11  H24 UNL     1     -33.881  19.488  -4.226  1.00 20.00     0.211 HD
ENDBRANCH   4  10
ENDBRANCH   1   4
TORSDOF 2
ENDMDL
MODEL 5
REMARK VINA RESULT:      -3.4     12.554     13.747
REMARK  2 active torsions:
REMARK  status: ('A' for Active; 'I' for Inactive)
REMARK    1  A    between atoms: C1_1  and  C8_8 
REMARK    2  A    between atoms: C8_8  and  O10_10 
ROOT
HETATM    1  C1  UNL     1     -40.902  13.263   5.304  1.00 20.00    -0.069 C 
HETATM    2  C2  UNL     1     -40.042  12.513   4.927  1.00 20.00    -0.108 C 
HETATM    3  C9  UNL     1     -38.997  11.599   4.468  1.00 20.00     0.112 C 
ENDROOT
BRANCH   1   4
HETATM    4  C8  UNL     1     -41.956  14.184   5.767  1.00 20.00     0.121 C 
HETATM    5  C6  UNL     1     -43.187  13.400   6.252  1.00 20.00     0.051 C 
HETATM    6  C4  UNL     1     -42.953  12.682   7.581  1.00 20.00     0.004 C 
HETATM    7  C3  UNL     1     -42.441  13.638   8.654  1.00 20.00     0.000 C 
HETATM    8  C5  UNL     1     -41.193  14.387   8.198  1.00 20.00     0.004 C 
HETATM    9  C7  UNL     1     -41.423  15.110   6.871  1.00 20.00     0.051 C 
BRANCH   4  10
HETATM   10  O10 UNL     1     -42.342  14.987   4.651  1.00 20.00    -0.378 OA
HETATM   11  H24 UNL     1     -42.358  14.398   3.882  1.00 20.00     0.211 HD
ENDBRANCH   4  10
ENDBRANCH   1   4
TORSDOF 2
ENDMDL
MODEL 6
REMARK VINA RESULT:      -3.4      2.671      4.870
REMARK  2 active torsions:
REMARK  status: ('A' for Active; 'I' for Inactive)
REMARK    1  A    between atoms: C1_1  and  C8_8 
REMARK    2  A    between atoms: C8_8  and  O10_10 
ROOT
HETATM    1  C1  UNL     1     -33.502  17.040  -3.636  1.00 20.00    -0.069 C 
HETATM    2  C2  UNL     1     -33.674  15.878  -3.886  1.00 20.00    -0.108 C 
HETATM    3  C9  UNL     1     -33.882  14.463  -4.190  1.00 20.00     0.112 C 
ENDROOT
BRANCH   1   4
HETATM    4  C8  UNL     1     -33.291  18.467  -3.330  1.00 20.00     0.121 C 
HETATM    5  C6  UNL     1     -34.635  19.209  -3.247  1.00 20.00     0.051 C 
HETATM    6  C4  UNL     1     -35.438  18.853  -1.996  1.00 20.00     0.004 C 
HETATM    7  C3  UNL     1     -34.615  19.045  -0.726  1.00 20.00     0.000 C 
HETATM    8  C5  UNL     1     -33.299  18.276  -0.780  1.00 20.00     0.004 C 
HETATM    9  C7  UNL     1     -32.490  18.631  -2.028  1.00 20.00     0.051 C 
BRANCH   4  10
HETATM   10  O10 UNL     1     -32.531  19.027  -4.401  1.00 20.00    -0.378 OA
HETATM   11  H24 UNL     1     -31.693  18.539  -4.426  1.00 20.00     0.211 HD
ENDBRANCH   4  10
ENDBRANCH   1   4
TORSDOF 2
ENDMDL
MODEL 7
REMARK VINA RESULT:      -3.4     24.327     25.239
REMARK  2 active torsions:
REMARK  status: ('A' for Active; 'I' for Inactive)
REMARK    1  A    between atoms: C1_1  and  C8_8 
REMARK    2  A    between atoms: C8_8  and  O10_10 
ROOT
HETATM    1  C1  UNL     1     -25.128  -3.144   9.983  1.00 20.00    -0.069 C 
HETATM    2  C2  UNL     1     -24.207  -3.126   9.213  1.00 20.00    -0.108 C 
HETATM    3  C9  UNL     1     -23.086  -3.105   8.274  1.00 20.00     0.112 C 
ENDROOT
BRANCH   1   4
HETATM    4  C8  UNL     1     -26.258  -3.165  10.930  1.00 20.00     0.121 C 
HETATM    5  C6  UNL     1     -25.901  -2.408  12.220  1.00 20.00     0.051 C 
HETATM    6  C4  UNL     1     -25.833  -0.893  12.024  1.00 20.00     0.004 C 
HETATM    7  C3  UNL     1     -27.112  -0.350  11.394  1.00 20.00     0.000 C 
HETATM    8  C5  UNL     1     -27.450  -1.065  10.090  1.00 20.00     0.004 C 
HETATM    9  C7  UNL     1     -27.523  -2.580  10.280  1.00 20.00     0.051 C 
BRANCH   4  10
HETATM   10  O10 UNL     1     -26.512  -4.530  11.262  1.00 20.00    -0.378 OA
HETATM   11  H24 UNL     1     -26.399  -5.037  10.444  1.00 20.00     0.211 HD
ENDBRANCH   4  10
ENDBRANCH   1   4
TORSDOF 2
ENDMDL
MODEL 8
REMARK VINA RESULT:      -3.3     12.772     14.273
REMARK  2 active torsions:
REMARK  status: ('A' for Active; 'I' for Inactive)
REMARK    1  A    between atoms: C1_1  and  C8_8 
REMARK    2  A    between atoms: C8_8  and  O10_10 
ROOT
HETATM    1  C1  UNL     1     -41.014  13.264   6.394  1.00 20.00    -0.069 C 
HETATM    2  C2  UNL     1     -40.233  12.587   5.782  1.00 20.00    -0.108 C 
HETATM    3  C9  UNL     1     -39.282  11.763   5.039  1.00 20.00     0.112 C 
ENDROOT
BRANCH   1   4
HETATM    4  C8  UNL     1     -41.974  14.095   7.144  1.00 20.00     0.121 C 
HETATM    5  C6  UNL     1     -41.862  13.824   8.654  1.00 20.00     0.051 C 
HETATM    6  C4  UNL     1     -40.584  14.391   9.270  1.00 20.00     0.004 C 
HETATM    7  C3  UNL     1     -40.418  15.874   8.955  1.00 20.00     0.000 C 
HETATM    8  C5  UNL     1     -40.481  16.147   7.456  1.00 20.00     0.004 C 
HETATM    9  C7  UNL     1     -41.761  15.585   6.835  1.00 20.00     0.051 C 
BRANCH   4  10
HETATM   10  O10 UNL     1     -43.285  13.727   6.715  1.00 20.00    -0.378 OA
HETATM   11  H24 UNL     1     -43.419  12.811   6.999  1.00 20.00     0.211 HD
ENDBRANCH   4  10
ENDBRANCH   1   4
TORSDOF 2
ENDMDL
MODEL 9
REMARK VINA RESULT:      -3.2      2.661      4.636
REMARK  2 active torsions:
REMARK  status: ('A' for Active; 'I' for Inactive)
REMARK    1  A    between atoms: C1_1  and  C8_8 
REMARK    2  A    between atoms: C8_8  and  O10_10 
ROOT
HETATM    1  C1  UNL     1     -35.352  17.898  -4.069  1.00 20.00    -0.069 C 
HETATM    2  C2  UNL     1     -36.501  18.247  -4.040  1.00 20.00    -0.108 C 
HETATM    3  C9  UNL     1     -37.899  18.672  -4.004  1.00 20.00     0.112 C 
ENDROOT
BRANCH   1   4
HETATM    4  C8  UNL     1     -33.941  17.470  -4.104  1.00 20.00     0.121 C 
HETATM    5  C6  UNL     1     -33.003  18.679  -3.957  1.00 20.00     0.051 C 
HETATM    6  C4  UNL     1     -32.998  19.263  -2.544  1.00 20.00     0.004 C 
HETATM    7  C3  UNL     1     -32.702  18.196  -1.495  1.00 20.00     0.000 C 
HETATM    8  C5  UNL     1     -33.658  17.012  -1.605  1.00 20.00     0.004 C 
HETATM    9  C7  UNL     1     -33.664  16.421  -3.015  1.00 20.00     0.051 C 
BRANCH   4  10
HETATM   10  O10 UNL     1     -33.708  16.870  -5.379  1.00 20.00    -0.378 OA
HETATM   11  H24 UNL     1     -32.799  17.095  -5.625  1.00 20.00     0.211 HD
ENDBRANCH   4  10
ENDBRANCH   1   4
TORSDOF 2
ENDMDL
