MODEL 1
REMARK VINA RESULT:      -3.7      0.000      0.000
REMARK  0 active torsions:
REMARK  status: ('A' for Active; 'I' for Inactive)
ROOT
HETATM    1  C1  UNL     1     -33.244   7.500   5.093  1.00 20.00     0.282 C 
HETATM    2  C2  UNL     1     -34.013   6.993   6.295  1.00 20.00     0.278 C 
HETATM    3  C3  UNL     1     -33.917   5.456   3.971  1.00 20.00     0.205 C 
HETATM    4  C4  UNL     1     -35.022   5.350   4.992  1.00 20.00     0.195 C 
HETATM    5  O5  UNL     1     -32.608   8.550   5.136  1.00 20.00    -0.263 OA
HETATM    6  O6  UNL     1     -33.348   6.778   3.951  1.00 20.00    -0.318 OA
HETATM    7  O7  UNL     1     -34.447   5.653   6.254  1.00 20.00    -0.379 OA
ENDROOT
TORSDOF 0
ENDMDL
MODEL 2
REMARK VINA RESULT:      -3.7      1.112      1.985
REMARK  0 active torsions:
REMARK  status: ('A' for Active; 'I' for Inactive)
ROOT
HETATM    1  C1  UNL     1     -33.212   6.950   4.259  1.00 20.00     0.282 C 
HETATM    2  C2  UNL     1     -34.018   5.709   3.935  1.00 20.00     0.278 C 
HETATM    3  C3  UNL     1     -34.251   6.885   6.452  1.00 20.00     0.205 C 
HETATM    4  C4  UNL     1     -34.549   5.431   6.184  1.00 20.00     0.195 C 
HETATM    5  O5  UNL     1     -32.499   7.488   3.417  1.00 20.00    -0.263 OA
HETATM    6  O6  UNL     1     -33.261   7.394   5.539  1.00 20.00    -0.318 OA
HETATM    7  O7  UNL     1     -35.028   5.348   4.850  1.00 20.00    -0.379 OA
ENDROOT
TORSDOF 0
ENDMDL
MODEL 3
REMARK VINA RESULT:      -3.7      0.954      2.419
REMARK  0 active torsions:
REMARK  status: ('A' for Active; 'I' for Inactive)
ROOT
HETATM    1  C1  UNL     1     -33.498   5.776   3.665  1.00 20.00     0.282 C 
HETATM    2  C2  UNL     1     -34.441   5.074   4.620  1.00 20.00     0.278 C 
HETATM    3  C3  UNL     1     -33.646   7.694   5.144  1.00 20.00     0.205 C 
HETATM    4  C4  UNL     1     -34.111   6.738   6.213  1.00 20.00     0.195 C 
HETATM    5  O5  UNL     1     -33.119   5.237   2.629  1.00 20.00    -0.263 OA
HETATM    6  O6  UNL     1     -33.039   6.993   4.043  1.00 20.00    -0.318 OA
HETATM    7  O7  UNL     1     -35.057   5.871   5.607  1.00 20.00    -0.379 OA
ENDROOT
TORSDOF 0
ENDMDL
MODEL 4
REMARK VINA RESULT:      -3.6      1.381      2.615
REMARK  0 active torsions:
REMARK  status: ('A' for Active; 'I' for Inactive)
ROOT
HETATM    1  C1  UNL     1     -34.245   5.328   4.886  1.00 20.00     0.282 C 
HETATM    2  C2  UNL     1     -34.448   5.758   6.324  1.00 20.00     0.278 C 
HETATM    3  C3  UNL     1     -33.552   7.611   4.445  1.00 20.00     0.205 C 
HETATM    4  C4  UNL     1     -33.293   7.739   5.925  1.00 20.00     0.195 C 
HETATM    5  O5  UNL     1     -34.524   4.192   4.513  1.00 20.00    -0.263 OA
HETATM    6  O6  UNL     1     -33.678   6.233   4.052  1.00 20.00    -0.318 OA
HETATM    7  O7  UNL     1     -34.397   7.142   6.589  1.00 20.00    -0.379 OA
ENDROOT
TORSDOF 0
ENDMDL
MODEL 5
REMARK VINA RESULT:      -3.6      1.483      2.840
REMARK  0 active torsions:
REMARK  status: ('A' for Active; 'I' for Inactive)
ROOT
HETATM    1  C1  UNL     1     -34.131   5.593   4.372  1.00 20.00     0.282 C 
HETATM    2  C2  UNL     1     -34.155   6.901   5.136  1.00 20.00     0.278 C 
HETATM    3  C3  UNL     1     -32.658   6.700   2.793  1.00 20.00     0.205 C 
HETATM    4  C4  UNL     1     -32.362   7.698   3.884  1.00 20.00     0.195 C 
HETATM    5  O5  UNL     1     -34.805   4.631   4.730  1.00 20.00    -0.263 OA
HETATM    6  O6  UNL     1     -33.279   5.515   3.321  1.00 20.00    -0.318 OA
HETATM    7  O7  UNL     1     -33.604   8.026   4.490  1.00 20.00    -0.379 OA
ENDROOT
TORSDOF 0
ENDMDL
MODEL 6
REMARK VINA RESULT:      -3.5      1.368      3.244
REMARK  0 active torsions:
REMARK  status: ('A' for Active; 'I' for Inactive)
ROOT
HETATM    1  C1  UNL     1     -34.174   5.678   4.555  1.00 20.00     0.282 C 
HETATM    2  C2  UNL     1     -33.356   5.816   3.288  1.00 20.00     0.278 C 
HETATM    3  C3  UNL     1     -33.173   7.771   5.267  1.00 20.00     0.205 C 
HETATM    4  C4  UNL     1     -32.862   8.029   3.813  1.00 20.00     0.195 C 
HETATM    5  O5  UNL     1     -34.876   4.692   4.760  1.00 20.00    -0.263 OA
HETATM    6  O6  UNL     1     -34.149   6.725   5.416  1.00 20.00    -0.318 OA
HETATM    7  O7  UNL     1     -32.360   6.813   3.278  1.00 20.00    -0.379 OA
ENDROOT
TORSDOF 0
ENDMDL
MODEL 7
REMARK VINA RESULT:      -3.3      1.206      3.072
REMARK  0 active torsions:
REMARK  status: ('A' for Active; 'I' for Inactive)
ROOT
HETATM    1  C1  UNL     1     -34.105   6.638   5.229  1.00 20.00     0.282 C 
HETATM    2  C2  UNL     1     -33.656   6.123   3.877  1.00 20.00     0.278 C 
HETATM    3  C3  UNL     1     -32.548   8.469   4.897  1.00 20.00     0.205 C 
HETATM    4  C4  UNL     1     -32.603   8.149   3.425  1.00 20.00     0.195 C 
HETATM    5  O5  UNL     1     -34.907   6.013   5.918  1.00 20.00    -0.263 OA
HETATM    6  O6  UNL     1     -33.635   7.851   5.609  1.00 20.00    -0.318 OA
HETATM    7  O7  UNL     1     -32.522   6.736   3.307  1.00 20.00    -0.379 OA
ENDROOT
TORSDOF 0
ENDMDL
MODEL 8
REMARK VINA RESULT:      -3.2     15.734     16.766
REMARK  0 active torsions:
REMARK  status: ('A' for Active; 'I' for Inactive)
ROOT
HETATM    1  C1  UNL     1     -22.437  17.366   9.534  1.00 20.00     0.282 C 
HETATM    2  C2  UNL     1     -21.665  18.426  10.292  1.00 20.00     0.278 C 
HETATM    3  C3  UNL     1     -23.785  17.109  11.535  1.00 20.00     0.205 C 
HETATM    4  C4  UNL     1     -23.306  18.480  11.942  1.00 20.00     0.195 C 
HETATM    5  O5  UNL     1     -22.113  17.029   8.398  1.00 20.00    -0.263 OA
HETATM    6  O6  UNL     1     -23.539  16.861  10.139  1.00 20.00    -0.318 OA
HETATM    7  O7  UNL     1     -21.912  18.525  11.677  1.00 20.00    -0.379 OA
ENDROOT
TORSDOF 0
ENDMDL
MODEL 9
REMARK VINA RESULT:      -3.2      8.553      8.994
REMARK  0 active torsions:
REMARK  status: ('A' for Active; 'I' for Inactive)
ROOT
HETATM    1  C1  UNL     1     -39.615  12.127   4.652  1.00 20.00     0.282 C 
HETATM    2  C2  UNL     1     -39.205  11.991   6.103  1.00 20.00     0.278 C 
HETATM    3  C3  UNL     1     -41.379  13.601   5.430  1.00 20.00     0.205 C 
HETATM    4  C4  UNL     1     -40.565  13.788   6.686  1.00 20.00     0.195 C 
HETATM    5  O5  UNL     1     -39.048  11.495   3.765  1.00 20.00    -0.263 OA
HETATM    6  O6  UNL     1     -40.588  13.028   4.373  1.00 20.00    -0.318 OA
HETATM    7  O7  UNL     1     -40.097  12.503   7.068  1.00 20.00    -0.379 OA
ENDROOT
TORSDOF 0
ENDMDL
