MODEL 1
REMARK VINA RESULT:      -5.0      0.000      0.000
REMARK  1 active torsions:
REMARK  status: ('A' for Active; 'I' for Inactive)
REMARK    1  A    between atoms: C1_1  and  C4_4 
REMARK       I    between atoms: C1_1  and  N5_5 
ROOT
HETATM    1  C1  UNL     1     -33.718   6.647   5.197  1.00 20.00     0.326 C 
HETATM    2  C2  UNL     1     -32.848   6.080   2.882  1.00 20.00     0.152 C 
HETATM    3  C3  UNL     1     -32.607   8.350   3.806  1.00 20.00     0.152 C 
HETATM    4  N5  UNL     1     -33.086   6.987   4.001  1.00 20.00    -0.353 N 
HETATM    5  O6  UNL     1     -33.469   7.178   6.282  1.00 20.00    -0.263 OA
ENDROOT
BRANCH   1   6
HETATM    6  C4  UNL     1     -34.761   5.564   5.138  1.00 20.00     0.472 C 
HETATM    7  F7  UNL     1     -35.817   5.904   4.356  1.00 20.00    -0.162 F 
HETATM    8  F8  UNL     1     -34.265   4.391   4.668  1.00 20.00    -0.162 F 
HETATM    9  F9  UNL     1     -35.271   5.295   6.369  1.00 20.00    -0.162 F 
ENDBRANCH   1   6
TORSDOF 1
ENDMDL
MODEL 2
REMARK VINA RESULT:      -5.0      0.015      1.259
REMARK  1 active torsions:
REMARK  status: ('A' for Active; 'I' for Inactive)
REMARK    1  A    between atoms: C1_1  and  C4_4 
REMARK       I    between atoms: C1_1  and  N5_5 
ROOT
HETATM    1  C1  UNL     1     -33.720   6.650   5.199  1.00 20.00     0.326 C 
HETATM    2  C2  UNL     1     -32.860   6.062   2.886  1.00 20.00     0.152 C 
HETATM    3  C3  UNL     1     -32.605   8.338   3.793  1.00 20.00     0.152 C 
HETATM    4  N5  UNL     1     -33.091   6.979   3.999  1.00 20.00    -0.353 N 
HETATM    5  O6  UNL     1     -33.466   7.188   6.280  1.00 20.00    -0.263 OA
ENDROOT
BRANCH   1   6
HETATM    6  C4  UNL     1     -34.770   5.572   5.151  1.00 20.00     0.472 C 
HETATM    7  F7  UNL     1     -35.271   5.283   6.378  1.00 20.00    -0.162 F 
HETATM    8  F8  UNL     1     -35.815   5.902   4.351  1.00 20.00    -0.162 F 
HETATM    9  F9  UNL     1     -34.268   4.408   4.660  1.00 20.00    -0.162 F 
ENDBRANCH   1   6
TORSDOF 1
ENDMDL
MODEL 3
REMARK VINA RESULT:      -4.9      0.251      1.291
REMARK  1 active torsions:
REMARK  status: ('A' for Active; 'I' for Inactive)
REMARK    1  A    between atoms: C1_1  and  C4_4 
REMARK       I    between atoms: C1_1  and  N5_5 
ROOT
HETATM    1  C1  UNL     1     -33.704   6.627   5.036  1.00 20.00     0.326 C 
HETATM    2  C2  UNL     1     -32.883   5.731   2.809  1.00 20.00     0.152 C 
HETATM    3  C3  UNL     1     -32.524   8.085   3.439  1.00 20.00     0.152 C 
HETATM    4  N5  UNL     1     -33.067   6.783   3.806  1.00 20.00    -0.353 N 
HETATM    5  O6  UNL     1     -33.420   7.279   6.045  1.00 20.00    -0.263 OA
ENDROOT
BRANCH   1   6
HETATM    6  C4  UNL     1     -34.799   5.599   5.117  1.00 20.00     0.472 C 
HETATM    7  F7  UNL     1     -34.392   4.374   4.699  1.00 20.00    -0.162 F 
HETATM    8  F8  UNL     1     -35.287   5.460   6.376  1.00 20.00    -0.162 F 
HETATM    9  F9  UNL     1     -35.859   5.935   4.334  1.00 20.00    -0.162 F 
ENDBRANCH   1   6
TORSDOF 1
ENDMDL
MODEL 4
REMARK VINA RESULT:      -4.8      1.658      2.433
REMARK  1 active torsions:
REMARK  status: ('A' for Active; 'I' for Inactive)
REMARK    1  A    between atoms: C1_1  and  C4_4 
REMARK       I    between atoms: C1_1  and  N5_5 
ROOT
HETATM    1  C1  UNL     1     -34.061   6.448   4.790  1.00 20.00     0.326 C 
HETATM    2  C2  UNL     1     -32.615   8.529   4.909  1.00 20.00     0.152 C 
HETATM    3  C3  UNL     1     -32.451   6.979   3.002  1.00 20.00     0.152 C 
HETATM    4  N5  UNL     1     -33.085   7.300   4.276  1.00 20.00    -0.353 N 
HETATM    5  O6  UNL     1     -34.813   5.763   4.092  1.00 20.00    -0.263 OA
ENDROOT
BRANCH   1   6
HETATM    6  C4  UNL     1     -34.189   6.375   6.288  1.00 20.00     0.472 C 
HETATM    7  F7  UNL     1     -33.031   6.001   6.889  1.00 20.00    -0.162 F 
HETATM    8  F8  UNL     1     -34.570   7.558   6.833  1.00 20.00    -0.162 F 
HETATM    9  F9  UNL     1     -35.125   5.464   6.665  1.00 20.00    -0.162 F 
ENDBRANCH   1   6
TORSDOF 1
ENDMDL
MODEL 5
REMARK VINA RESULT:      -4.8      1.663      2.270
REMARK  1 active torsions:
REMARK  status: ('A' for Active; 'I' for Inactive)
REMARK    1  A    between atoms: C1_1  and  C4_4 
REMARK       I    between atoms: C1_1  and  N5_5 
ROOT
HETATM    1  C1  UNL     1     -34.062   6.453   4.784  1.00 20.00     0.326 C 
HETATM    2  C2  UNL     1     -32.627   8.541   4.905  1.00 20.00     0.152 C 
HETATM    3  C3  UNL     1     -32.439   6.982   3.008  1.00 20.00     0.152 C 
HETATM    4  N5  UNL     1     -33.086   7.307   4.274  1.00 20.00    -0.353 N 
HETATM    5  O6  UNL     1     -34.805   5.760   4.082  1.00 20.00    -0.263 OA
ENDROOT
BRANCH   1   6
HETATM    6  C4  UNL     1     -34.204   6.387   6.280  1.00 20.00     0.472 C 
HETATM    7  F7  UNL     1     -34.559   7.580   6.820  1.00 20.00    -0.162 F 
HETATM    8  F8  UNL     1     -35.125   5.471   6.673  1.00 20.00    -0.162 F 
HETATM    9  F9  UNL     1     -33.035   6.032   6.877  1.00 20.00    -0.162 F 
ENDBRANCH   1   6
TORSDOF 1
ENDMDL
MODEL 6
REMARK VINA RESULT:      -4.5      3.055      3.864
REMARK  1 active torsions:
REMARK  status: ('A' for Active; 'I' for Inactive)
REMARK    1  A    between atoms: C1_1  and  C4_4 
REMARK       I    between atoms: C1_1  and  N5_5 
ROOT
HETATM    1  C1  UNL     1     -33.131   6.435   3.538  1.00 20.00     0.326 C 
HETATM    2  C2  UNL     1     -33.688   7.294   5.859  1.00 20.00     0.152 C 
HETATM    3  C3  UNL     1     -35.163   5.689   4.713  1.00 20.00     0.152 C 
HETATM    4  N5  UNL     1     -33.944   6.487   4.669  1.00 20.00    -0.353 N 
HETATM    5  O6  UNL     1     -33.026   5.443   2.811  1.00 20.00    -0.263 OA
ENDROOT
BRANCH   1   6
HETATM    6  C4  UNL     1     -32.342   7.671   3.201  1.00 20.00     0.472 C 
HETATM    7  F7  UNL     1     -33.063   8.808   3.368  1.00 20.00    -0.162 F 
HETATM    8  F8  UNL     1     -31.216   7.787   3.951  1.00 20.00    -0.162 F 
HETATM    9  F9  UNL     1     -31.935   7.666   1.904  1.00 20.00    -0.162 F 
ENDBRANCH   1   6
TORSDOF 1
ENDMDL
MODEL 7
REMARK VINA RESULT:      -4.5      1.542      2.244
REMARK  1 active torsions:
REMARK  status: ('A' for Active; 'I' for Inactive)
REMARK    1  A    between atoms: C1_1  and  C4_4 
REMARK       I    between atoms: C1_1  and  N5_5 
ROOT
HETATM    1  C1  UNL     1     -33.494   6.176   3.915  1.00 20.00     0.326 C 
HETATM    2  C2  UNL     1     -34.049   8.235   5.288  1.00 20.00     0.152 C 
HETATM    3  C3  UNL     1     -31.907   8.052   4.086  1.00 20.00     0.152 C 
HETATM    4  N5  UNL     1     -33.186   7.437   4.422  1.00 20.00    -0.353 N 
HETATM    5  O6  UNL     1     -33.076   5.746   2.836  1.00 20.00    -0.263 OA
ENDROOT
BRANCH   1   6
HETATM    6  C4  UNL     1     -34.391   5.301   4.748  1.00 20.00     0.472 C 
HETATM    7  F7  UNL     1     -34.134   5.411   6.076  1.00 20.00    -0.162 F 
HETATM    8  F8  UNL     1     -35.706   5.581   4.562  1.00 20.00    -0.162 F 
HETATM    9  F9  UNL     1     -34.235   3.986   4.438  1.00 20.00    -0.162 F 
ENDBRANCH   1   6
TORSDOF 1
ENDMDL
MODEL 8
REMARK VINA RESULT:      -4.2      2.659      3.417
REMARK  1 active torsions:
REMARK  status: ('A' for Active; 'I' for Inactive)
REMARK    1  A    between atoms: C1_1  and  C4_4 
REMARK       I    between atoms: C1_1  and  N5_5 
ROOT
HETATM    1  C1  UNL     1     -33.501   7.630   4.860  1.00 20.00     0.326 C 
HETATM    2  C2  UNL     1     -34.254   5.356   4.024  1.00 20.00     0.152 C 
HETATM    3  C3  UNL     1     -34.491   5.977   6.395  1.00 20.00     0.152 C 
HETATM    4  N5  UNL     1     -34.057   6.367   5.059  1.00 20.00    -0.353 N 
HETATM    5  O6  UNL     1     -33.797   8.625   5.528  1.00 20.00    -0.263 OA
ENDROOT
BRANCH   1   6
HETATM    6  C4  UNL     1     -32.482   7.767   3.761  1.00 20.00     0.472 C 
HETATM    7  F7  UNL     1     -32.327   6.620   3.052  1.00 20.00    -0.162 F 
HETATM    8  F8  UNL     1     -32.798   8.751   2.882  1.00 20.00    -0.162 F 
HETATM    9  F9  UNL     1     -31.254   8.078   4.254  1.00 20.00    -0.162 F 
ENDBRANCH   1   6
TORSDOF 1
ENDMDL
MODEL 9
REMARK VINA RESULT:      -4.1      2.816      3.460
REMARK  1 active torsions:
REMARK  status: ('A' for Active; 'I' for Inactive)
REMARK    1  A    between atoms: C1_1  and  C4_4 
REMARK       I    between atoms: C1_1  and  N5_5 
ROOT
HETATM    1  C1  UNL     1     -33.557   7.381   4.647  1.00 20.00     0.326 C 
HETATM    2  C2  UNL     1     -33.202   5.718   2.764  1.00 20.00     0.152 C 
HETATM    3  C3  UNL     1     -34.198   5.016   4.905  1.00 20.00     0.152 C 
HETATM    4  N5  UNL     1     -33.639   6.099   4.105  1.00 20.00    -0.353 N 
HETATM    5  O6  UNL     1     -34.346   7.824   5.487  1.00 20.00    -0.263 OA
ENDROOT
BRANCH   1   6
HETATM    6  C4  UNL     1     -32.434   8.259   4.168  1.00 20.00     0.472 C 
HETATM    7  F7  UNL     1     -32.113   9.226   5.064  1.00 20.00    -0.162 F 
HETATM    8  F8  UNL     1     -31.303   7.557   3.902  1.00 20.00    -0.162 F 
HETATM    9  F9  UNL     1     -32.760   8.903   3.015  1.00 20.00    -0.162 F 
ENDBRANCH   1   6
TORSDOF 1
ENDMDL
