MODEL 1
REMARK VINA RESULT:      -4.2      0.000      0.000
REMARK  0 active torsions:
REMARK  status: ('A' for Active; 'I' for Inactive)
ROOT
HETATM    1  C1  UNL     1     -36.520  15.959  -5.647  1.00 20.00     0.047 C 
HETATM    2  C2  UNL     1     -36.024  17.074  -5.095  1.00 20.00    -0.013 C 
HETATM    3  C3  UNL     1     -33.574  16.140  -2.741  1.00 20.00    -0.030 C 
HETATM    4  C4  UNL     1     -33.814  17.453  -2.684  1.00 20.00    -0.030 C 
HETATM    5  C5  UNL     1     -35.633  15.028  -6.391  1.00 20.00     0.149 C 
HETATM    6  C6  UNL     1     -33.608  15.353  -4.011  1.00 20.00     0.033 C 
HETATM    7  C7  UNL     1     -34.145  18.279  -3.887  1.00 20.00     0.040 C 
HETATM    8  C8  UNL     1     -34.149  15.329  -6.469  1.00 20.00     0.088 C 
HETATM    9  C9  UNL     1     -33.674  16.210  -5.303  1.00 20.00     0.008 C 
HETATM   10  C10 UNL     1     -34.563  17.479  -5.152  1.00 20.00    -0.019 C 
HETATM   11  C11 UNL     1     -34.402  18.422  -6.365  1.00 20.00     0.020 C 
HETATM   12  O12 UNL     1     -36.121  14.054  -6.962  1.00 20.00    -0.293 OA
ENDROOT
TORSDOF 0
ENDMDL
MODEL 2
REMARK VINA RESULT:      -4.1      2.782      4.349
REMARK  0 active torsions:
REMARK  status: ('A' for Active; 'I' for Inactive)
ROOT
HETATM    1  C1  UNL     1     -32.751  19.263  -3.537  1.00 20.00     0.047 C 
HETATM    2  C2  UNL     1     -33.771  18.833  -4.291  1.00 20.00    -0.013 C 
HETATM    3  C3  UNL     1     -33.396  15.362  -4.771  1.00 20.00    -0.030 C 
HETATM    4  C4  UNL     1     -34.400  15.840  -5.512  1.00 20.00    -0.030 C 
HETATM    5  C5  UNL     1     -32.546  18.724  -2.169  1.00 20.00     0.149 C 
HETATM    6  C6  UNL     1     -33.056  15.885  -3.413  1.00 20.00     0.033 C 
HETATM    7  C7  UNL     1     -35.293  16.953  -5.062  1.00 20.00     0.040 C 
HETATM    8  C8  UNL     1     -33.474  17.639  -1.657  1.00 20.00     0.088 C 
HETATM    9  C9  UNL     1     -34.116  16.839  -2.802  1.00 20.00     0.008 C 
HETATM   10  C10 UNL     1     -34.772  17.780  -3.853  1.00 20.00    -0.019 C 
HETATM   11  C11 UNL     1     -35.984  18.529  -3.255  1.00 20.00     0.020 C 
HETATM   12  O12 UNL     1     -31.655  19.192  -1.461  1.00 20.00    -0.293 OA
ENDROOT
TORSDOF 0
ENDMDL
MODEL 3
REMARK VINA RESULT:      -3.8      1.286      1.625
REMARK  0 active torsions:
REMARK  status: ('A' for Active; 'I' for Inactive)
ROOT
HETATM    1  C1  UNL     1     -37.097  17.265  -5.106  1.00 20.00     0.047 C 
HETATM    2  C2  UNL     1     -35.989  17.694  -4.488  1.00 20.00    -0.013 C 
HETATM    3  C3  UNL     1     -33.871  14.923  -3.983  1.00 20.00    -0.030 C 
HETATM    4  C4  UNL     1     -33.390  16.009  -3.370  1.00 20.00    -0.030 C 
HETATM    5  C5  UNL     1     -37.013  16.621  -6.441  1.00 20.00     0.149 C 
HETATM    6  C6  UNL     1     -34.602  14.971  -5.285  1.00 20.00     0.033 C 
HETATM    7  C7  UNL     1     -33.532  17.392  -3.922  1.00 20.00     0.040 C 
HETATM    8  C8  UNL     1     -35.650  16.403  -7.070  1.00 20.00     0.088 C 
HETATM    9  C9  UNL     1     -34.531  16.337  -6.019  1.00 20.00     0.008 C 
HETATM   10  C10 UNL     1     -34.587  17.555  -5.052  1.00 20.00    -0.019 C 
HETATM   11  C11 UNL     1     -34.265  18.872  -5.793  1.00 20.00     0.020 C 
HETATM   12  O12 UNL     1     -38.047  16.311  -7.030  1.00 20.00    -0.293 OA
ENDROOT
TORSDOF 0
ENDMDL
MODEL 4
REMARK VINA RESULT:      -3.8      1.357      2.034
REMARK  0 active torsions:
REMARK  status: ('A' for Active; 'I' for Inactive)
ROOT
HETATM    1  C1  UNL     1     -36.453  14.921  -5.358  1.00 20.00     0.047 C 
HETATM    2  C2  UNL     1     -36.082  16.025  -6.018  1.00 20.00    -0.013 C 
HETATM    3  C3  UNL     1     -34.300  18.093  -3.791  1.00 20.00    -0.030 C 
HETATM    4  C4  UNL     1     -34.517  18.719  -4.951  1.00 20.00    -0.030 C 
HETATM    5  C5  UNL     1     -35.434  14.022  -4.760  1.00 20.00     0.149 C 
HETATM    6  C6  UNL     1     -34.042  16.625  -3.684  1.00 20.00     0.033 C 
HETATM    7  C7  UNL     1     -34.527  18.016  -6.272  1.00 20.00     0.040 C 
HETATM    8  C8  UNL     1     -33.969  14.401  -4.859  1.00 20.00     0.088 C 
HETATM    9  C9  UNL     1     -33.772  15.915  -5.037  1.00 20.00     0.008 C 
HETATM   10  C10 UNL     1     -34.642  16.467  -6.203  1.00 20.00    -0.019 C 
HETATM   11  C11 UNL     1     -34.170  15.912  -7.565  1.00 20.00     0.020 C 
HETATM   12  O12 UNL     1     -35.790  12.970  -4.230  1.00 20.00    -0.293 OA
ENDROOT
TORSDOF 0
ENDMDL
MODEL 5
REMARK VINA RESULT:      -3.8     12.820     14.081
REMARK  0 active torsions:
REMARK  status: ('A' for Active; 'I' for Inactive)
ROOT
HETATM    1  C1  UNL     1     -40.946  13.367   5.271  1.00 20.00     0.047 C 
HETATM    2  C2  UNL     1     -40.935  13.191   6.598  1.00 20.00    -0.013 C 
HETATM    3  C3  UNL     1     -40.541  16.343   8.124  1.00 20.00    -0.030 C 
HETATM    4  C4  UNL     1     -40.475  15.363   9.030  1.00 20.00    -0.030 C 
HETATM    5  C5  UNL     1     -41.985  14.216   4.632  1.00 20.00     0.149 C 
HETATM    6  C6  UNL     1     -41.429  16.293   6.923  1.00 20.00     0.033 C 
HETATM    7  C7  UNL     1     -41.284  14.108   8.940  1.00 20.00     0.040 C 
HETATM    8  C8  UNL     1     -42.999  14.924   5.509  1.00 20.00     0.088 C 
HETATM    9  C9  UNL     1     -42.475  15.147   6.937  1.00 20.00     0.008 C 
HETATM   10  C10 UNL     1     -41.928  13.827   7.553  1.00 20.00    -0.019 C 
HETATM   11  C11 UNL     1     -43.063  12.801   7.775  1.00 20.00     0.020 C 
HETATM   12  O12 UNL     1     -42.030  14.298   3.406  1.00 20.00    -0.293 OA
ENDROOT
TORSDOF 0
ENDMDL
MODEL 6
REMARK VINA RESULT:      -3.7      1.651      2.946
REMARK  0 active torsions:
REMARK  status: ('A' for Active; 'I' for Inactive)
ROOT
HETATM    1  C1  UNL     1     -34.424  16.671  -7.381  1.00 20.00     0.047 C 
HETATM    2  C2  UNL     1     -34.112  15.680  -6.536  1.00 20.00    -0.013 C 
HETATM    3  C3  UNL     1     -33.310  17.106  -3.416  1.00 20.00    -0.030 C 
HETATM    4  C4  UNL     1     -33.059  15.794  -3.418  1.00 20.00    -0.030 C 
HETATM    5  C5  UNL     1     -35.563  17.579  -7.090  1.00 20.00     0.149 C 
HETATM    6  C6  UNL     1     -34.451  17.726  -4.155  1.00 20.00     0.033 C 
HETATM    7  C7  UNL     1     -33.893  14.801  -4.165  1.00 20.00     0.040 C 
HETATM    8  C8  UNL     1     -36.332  17.403  -5.795  1.00 20.00     0.088 C 
HETATM    9  C9  UNL     1     -35.490  16.715  -4.709  1.00 20.00     0.008 C 
HETATM   10  C10 UNL     1     -34.845  15.402  -5.237  1.00 20.00    -0.019 C 
HETATM   11  C11 UNL     1     -35.920  14.335  -5.544  1.00 20.00     0.020 C 
HETATM   12  O12 UNL     1     -35.886  18.429  -7.918  1.00 20.00    -0.293 OA
ENDROOT
TORSDOF 0
ENDMDL
MODEL 7
REMARK VINA RESULT:      -3.7     13.184     14.281
REMARK  0 active torsions:
REMARK  status: ('A' for Active; 'I' for Inactive)
ROOT
HETATM    1  C1  UNL     1     -42.880  15.342   5.375  1.00 20.00     0.047 C 
HETATM    2  C2  UNL     1     -42.700  15.440   6.699  1.00 20.00    -0.013 C 
HETATM    3  C3  UNL     1     -43.410  12.305   8.141  1.00 20.00    -0.030 C 
HETATM    4  C4  UNL     1     -43.205  13.228   9.085  1.00 20.00    -0.030 C 
HETATM    5  C5  UNL     1     -42.078  14.381   4.575  1.00 20.00     0.149 C 
HETATM    6  C6  UNL     1     -42.679  12.286   6.838  1.00 20.00     0.033 C 
HETATM    7  C7  UNL     1     -42.221  14.346   8.939  1.00 20.00     0.040 C 
HETATM    8  C8  UNL     1     -41.093  13.473   5.286  1.00 20.00     0.088 C 
HETATM    9  C9  UNL     1     -41.468  13.252   6.760  1.00 20.00     0.008 C 
HETATM   10  C10 UNL     1     -41.714  14.603   7.492  1.00 20.00    -0.019 C 
HETATM   11  C11 UNL     1     -40.410  15.424   7.603  1.00 20.00     0.020 C 
HETATM   12  O12 UNL     1     -42.198  14.365   3.351  1.00 20.00    -0.293 OA
ENDROOT
TORSDOF 0
ENDMDL
MODEL 8
REMARK VINA RESULT:      -3.7     24.135     25.853
REMARK  0 active torsions:
REMARK  status: ('A' for Active; 'I' for Inactive)
ROOT
HETATM    1  C1  UNL     1     -29.363  -2.084  12.269  1.00 20.00     0.047 C 
HETATM    2  C2  UNL     1     -28.327  -1.237  12.232  1.00 20.00    -0.013 C 
HETATM    3  C3  UNL     1     -25.356  -3.132  12.207  1.00 20.00    -0.030 C 
HETATM    4  C4  UNL     1     -25.089  -1.829  12.332  1.00 20.00    -0.030 C 
HETATM    5  C5  UNL     1     -29.568  -3.071  11.179  1.00 20.00     0.149 C 
HETATM    6  C6  UNL     1     -26.490  -3.664  11.391  1.00 20.00     0.033 C 
HETATM    7  C7  UNL     1     -25.898  -0.759  11.669  1.00 20.00     0.040 C 
HETATM    8  C8  UNL     1     -28.556  -3.144  10.051  1.00 20.00     0.088 C 
HETATM    9  C9  UNL     1     -27.177  -2.616  10.475  1.00 20.00     0.008 C 
HETATM   10  C10 UNL     1     -27.285  -1.208  11.129  1.00 20.00    -0.019 C 
HETATM   11  C11 UNL     1     -27.742  -0.148  10.103  1.00 20.00     0.020 C 
HETATM   12  O12 UNL     1     -30.571  -3.783  11.187  1.00 20.00    -0.293 OA
ENDROOT
TORSDOF 0
ENDMDL
MODEL 9
REMARK VINA RESULT:      -3.6     13.204     14.494
REMARK  0 active torsions:
REMARK  status: ('A' for Active; 'I' for Inactive)
ROOT
HETATM    1  C1  UNL     1     -42.799  12.944   8.013  1.00 20.00     0.047 C 
HETATM    2  C2  UNL     1     -42.632  12.927   6.684  1.00 20.00    -0.013 C 
HETATM    3  C3  UNL     1     -42.669  16.256   5.529  1.00 20.00    -0.030 C 
HETATM    4  C4  UNL     1     -42.651  15.397   4.506  1.00 20.00    -0.030 C 
HETATM    5  C5  UNL     1     -41.823  13.645   8.885  1.00 20.00     0.149 C 
HETATM    6  C6  UNL     1     -41.961  16.010   6.821  1.00 20.00     0.033 C 
HETATM    7  C7  UNL     1     -41.919  14.092   4.544  1.00 20.00     0.040 C 
HETATM    8  C8  UNL     1     -40.666  14.390   8.247  1.00 20.00     0.088 C 
HETATM    9  C9  UNL     1     -40.975  14.811   6.802  1.00 20.00     0.008 C 
HETATM   10  C10 UNL     1     -41.488  13.610   5.957  1.00 20.00    -0.019 C 
HETATM   11  C11 UNL     1     -40.381  12.551   5.762  1.00 20.00     0.020 C 
HETATM   12  O12 UNL     1     -41.946  13.578  10.107  1.00 20.00    -0.293 OA
ENDROOT
TORSDOF 0
ENDMDL
