MODEL 1
REMARK VINA RESULT:      -4.1      0.000      0.000
REMARK  3 active torsions:
REMARK  status: ('A' for Active; 'I' for Inactive)
REMARK    1  A    between atoms: C6_6  and  C7_7 
REMARK    2  A    between atoms: C6_6  and  C8_8 
REMARK    3  A    between atoms: C7_7  and  C9_9 
ROOT
HETATM    1  C7  UNL     1     -34.098   8.057   4.501  1.00 20.00     0.008 C 
ENDROOT
BRANCH   1   2
HETATM    2  C6  UNL     1     -33.990   7.397   5.884  1.00 20.00     0.004 C 
BRANCH   2   3
HETATM    3  C8  UNL     1     -34.758   6.064   5.984  1.00 20.00    -0.023 C 
HETATM    4  C1  UNL     1     -33.882   4.917   6.492  1.00 20.00     0.009 C 
HETATM    5  C2  UNL     1     -35.342   5.699   4.617  1.00 20.00     0.009 C 
ENDBRANCH   2   3
ENDBRANCH   1   2
BRANCH   1   6
HETATM    6  C9  UNL     1     -32.750   8.352   3.789  1.00 20.00    -0.051 C 
HETATM    7  C3  UNL     1     -32.174   7.083   3.139  1.00 20.00     0.014 C 
HETATM    8  C4  UNL     1     -31.749   8.854   4.849  1.00 20.00     0.014 C 
HETATM    9  C5  UNL     1     -32.909   9.444   2.718  1.00 20.00     0.014 C 
ENDBRANCH   1   6
TORSDOF 3
ENDMDL
MODEL 2
REMARK VINA RESULT:      -4.0      0.036      1.433
REMARK  3 active torsions:
REMARK  status: ('A' for Active; 'I' for Inactive)
REMARK    1  A    between atoms: C6_6  and  C7_7 
REMARK    2  A    between atoms: C6_6  and  C8_8 
REMARK    3  A    between atoms: C7_7  and  C9_9 
ROOT
HETATM    1  C7  UNL     1     -34.094   8.025   4.482  1.00 20.00     0.008 C 
ENDROOT
BRANCH   1   2
HETATM    2  C6  UNL     1     -34.007   7.388   5.878  1.00 20.00     0.004 C 
BRANCH   2   3
HETATM    3  C8  UNL     1     -34.765   6.050   5.984  1.00 20.00    -0.023 C 
HETATM    4  C1  UNL     1     -33.881   4.914   6.504  1.00 20.00     0.009 C 
HETATM    5  C2  UNL     1     -35.339   5.670   4.616  1.00 20.00     0.009 C 
ENDBRANCH   2   3
ENDBRANCH   1   2
BRANCH   1   6
HETATM    6  C9  UNL     1     -32.734   8.379   3.819  1.00 20.00    -0.051 C 
HETATM    7  C3  UNL     1     -32.913   9.426   2.708  1.00 20.00     0.014 C 
HETATM    8  C4  UNL     1     -32.159   7.094   3.192  1.00 20.00     0.014 C 
HETATM    9  C5  UNL     1     -31.727   8.906   4.854  1.00 20.00     0.014 C 
ENDBRANCH   1   6
TORSDOF 3
ENDMDL
MODEL 3
REMARK VINA RESULT:      -4.0      0.913      4.173
REMARK  3 active torsions:
REMARK  status: ('A' for Active; 'I' for Inactive)
REMARK    1  A    between atoms: C6_6  and  C7_7 
REMARK    2  A    between atoms: C6_6  and  C8_8 
REMARK    3  A    between atoms: C7_7  and  C9_9 
ROOT
HETATM    1  C7  UNL     1     -33.399   6.858   5.324  1.00 20.00     0.008 C 
ENDROOT
BRANCH   1   2
HETATM    2  C6  UNL     1     -33.651   8.108   4.466  1.00 20.00     0.004 C 
BRANCH   2   3
HETATM    3  C8  UNL     1     -32.504   8.410   3.480  1.00 20.00    -0.023 C 
HETATM    4  C1  UNL     1     -32.890   9.455   2.432  1.00 20.00     0.009 C 
HETATM    5  C2  UNL     1     -32.066   7.119   2.784  1.00 20.00     0.009 C 
ENDBRANCH   2   3
ENDBRANCH   1   2
BRANCH   1   6
HETATM    6  C9  UNL     1     -34.447   5.721   5.181  1.00 20.00    -0.051 C 
HETATM    7  C3  UNL     1     -35.675   6.194   4.384  1.00 20.00     0.014 C 
HETATM    8  C4  UNL     1     -34.909   5.315   6.594  1.00 20.00     0.014 C 
HETATM    9  C5  UNL     1     -33.842   4.485   4.494  1.00 20.00     0.014 C 
ENDBRANCH   1   6
TORSDOF 3
ENDMDL
MODEL 4
REMARK VINA RESULT:      -3.9      0.918      4.195
REMARK  3 active torsions:
REMARK  status: ('A' for Active; 'I' for Inactive)
REMARK    1  A    between atoms: C6_6  and  C7_7 
REMARK    2  A    between atoms: C6_6  and  C8_8 
REMARK    3  A    between atoms: C7_7  and  C9_9 
ROOT
HETATM    1  C7  UNL     1     -33.379   6.851   5.311  1.00 20.00     0.008 C 
ENDROOT
BRANCH   1   2
HETATM    2  C6  UNL     1     -33.652   8.086   4.440  1.00 20.00     0.004 C 
BRANCH   2   3
HETATM    3  C8  UNL     1     -32.508   8.400   3.454  1.00 20.00    -0.023 C 
HETATM    4  C1  UNL     1     -32.904   9.442   2.407  1.00 20.00     0.009 C 
HETATM    5  C2  UNL     1     -32.058   7.114   2.757  1.00 20.00     0.009 C 
ENDBRANCH   2   3
ENDBRANCH   1   2
BRANCH   1   6
HETATM    6  C9  UNL     1     -34.432   5.713   5.213  1.00 20.00    -0.051 C 
HETATM    7  C3  UNL     1     -33.856   4.481   4.496  1.00 20.00     0.014 C 
HETATM    8  C4  UNL     1     -35.629   6.239   4.396  1.00 20.00     0.014 C 
HETATM    9  C5  UNL     1     -34.940   5.299   6.604  1.00 20.00     0.014 C 
ENDBRANCH   1   6
TORSDOF 3
ENDMDL
MODEL 5
REMARK VINA RESULT:      -3.9      0.918      4.155
REMARK  3 active torsions:
REMARK  status: ('A' for Active; 'I' for Inactive)
REMARK    1  A    between atoms: C6_6  and  C7_7 
REMARK    2  A    between atoms: C6_6  and  C8_8 
REMARK    3  A    between atoms: C7_7  and  C9_9 
ROOT
HETATM    1  C7  UNL     1     -33.375   6.834   5.305  1.00 20.00     0.008 C 
ENDROOT
BRANCH   1   2
HETATM    2  C6  UNL     1     -33.633   8.096   4.468  1.00 20.00     0.004 C 
BRANCH   2   3
HETATM    3  C8  UNL     1     -32.499   8.407   3.470  1.00 20.00    -0.023 C 
HETATM    4  C1  UNL     1     -32.903   9.451   2.428  1.00 20.00     0.009 C 
HETATM    5  C2  UNL     1     -32.061   7.119   2.767  1.00 20.00     0.009 C 
ENDBRANCH   2   3
ENDBRANCH   1   2
BRANCH   1   6
HETATM    6  C9  UNL     1     -34.461   5.728   5.206  1.00 20.00    -0.051 C 
HETATM    7  C3  UNL     1     -34.944   5.296   6.601  1.00 20.00     0.014 C 
HETATM    8  C4  UNL     1     -33.836   4.505   4.506  1.00 20.00     0.014 C 
HETATM    9  C5  UNL     1     -35.666   6.199   4.376  1.00 20.00     0.014 C 
ENDBRANCH   1   6
TORSDOF 3
ENDMDL
MODEL 6
REMARK VINA RESULT:      -3.6     14.832     16.269
REMARK  3 active torsions:
REMARK  status: ('A' for Active; 'I' for Inactive)
REMARK    1  A    between atoms: C6_6  and  C7_7 
REMARK    2  A    between atoms: C6_6  and  C8_8 
REMARK    3  A    between atoms: C7_7  and  C9_9 
ROOT
HETATM    1  C7  UNL     1     -23.452  17.218  10.004  1.00 20.00     0.008 C 
ENDROOT
BRANCH   1   2
HETATM    2  C6  UNL     1     -22.062  17.777   9.663  1.00 20.00     0.004 C 
BRANCH   2   3
HETATM    3  C8  UNL     1     -22.079  18.776   8.489  1.00 20.00    -0.023 C 
HETATM    4  C1  UNL     1     -23.498  19.160   8.065  1.00 20.00     0.009 C 
HETATM    5  C2  UNL     1     -21.327  18.185   7.295  1.00 20.00     0.009 C 
ENDBRANCH   2   3
ENDBRANCH   1   2
BRANCH   1   6
HETATM    6  C9  UNL     1     -23.952  17.491  11.449  1.00 20.00    -0.051 C 
HETATM    7  C3  UNL     1     -22.823  18.050  12.331  1.00 20.00     0.014 C 
HETATM    8  C4  UNL     1     -24.427  16.154  12.051  1.00 20.00     0.014 C 
HETATM    9  C5  UNL     1     -25.134  18.474  11.456  1.00 20.00     0.014 C 
ENDBRANCH   1   6
TORSDOF 3
ENDMDL
MODEL 7
REMARK VINA RESULT:      -3.3     11.764     12.755
REMARK  3 active torsions:
REMARK  status: ('A' for Active; 'I' for Inactive)
REMARK    1  A    between atoms: C6_6  and  C7_7 
REMARK    2  A    between atoms: C6_6  and  C8_8 
REMARK    3  A    between atoms: C7_7  and  C9_9 
ROOT
HETATM    1  C7  UNL     1     -33.489  17.068  -1.737  1.00 20.00     0.008 C 
ENDROOT
BRANCH   1   2
HETATM    2  C6  UNL     1     -32.976  16.502  -3.070  1.00 20.00     0.004 C 
BRANCH   2   3
HETATM    3  C8  UNL     1     -34.085  15.854  -3.923  1.00 20.00    -0.023 C 
HETATM    4  C1  UNL     1     -33.667  14.501  -4.501  1.00 20.00     0.009 C 
HETATM    5  C2  UNL     1     -34.483  16.799  -5.060  1.00 20.00     0.009 C 
ENDBRANCH   2   3
ENDBRANCH   1   2
BRANCH   1   6
HETATM    6  C9  UNL     1     -32.995  18.496  -1.378  1.00 20.00    -0.051 C 
HETATM    7  C3  UNL     1     -34.047  19.258  -0.556  1.00 20.00     0.014 C 
HETATM    8  C4  UNL     1     -32.753  19.263  -2.693  1.00 20.00     0.014 C 
HETATM    9  C5  UNL     1     -31.673  18.451  -0.593  1.00 20.00     0.014 C 
ENDBRANCH   1   6
TORSDOF 3
ENDMDL
MODEL 8
REMARK VINA RESULT:      -3.3      8.785      9.979
REMARK  3 active torsions:
REMARK  status: ('A' for Active; 'I' for Inactive)
REMARK    1  A    between atoms: C6_6  and  C7_7 
REMARK    2  A    between atoms: C6_6  and  C8_8 
REMARK    3  A    between atoms: C7_7  and  C9_9 
ROOT
HETATM    1  C7  UNL     1     -41.443  12.653   6.454  1.00 20.00     0.008 C 
ENDROOT
BRANCH   1   2
HETATM    2  C6  UNL     1     -40.591  12.821   5.186  1.00 20.00     0.004 C 
BRANCH   2   3
HETATM    3  C8  UNL     1     -39.446  11.793   5.083  1.00 20.00    -0.023 C 
HETATM    4  C1  UNL     1     -38.246  12.160   5.958  1.00 20.00     0.009 C 
HETATM    5  C2  UNL     1     -38.999  11.661   3.625  1.00 20.00     0.009 C 
ENDBRANCH   2   3
ENDBRANCH   1   2
BRANCH   1   6
HETATM    6  C9  UNL     1     -41.715  13.953   7.259  1.00 20.00    -0.051 C 
HETATM    7  C3  UNL     1     -42.887  13.768   8.236  1.00 20.00     0.014 C 
HETATM    8  C4  UNL     1     -42.084  15.067   6.258  1.00 20.00     0.014 C 
HETATM    9  C5  UNL     1     -40.468  14.399   8.041  1.00 20.00     0.014 C 
ENDBRANCH   1   6
TORSDOF 3
ENDMDL
MODEL 9
REMARK VINA RESULT:      -3.3      8.776      9.949
REMARK  3 active torsions:
REMARK  status: ('A' for Active; 'I' for Inactive)
REMARK    1  A    between atoms: C6_6  and  C7_7 
REMARK    2  A    between atoms: C6_6  and  C8_8 
REMARK    3  A    between atoms: C7_7  and  C9_9 
ROOT
HETATM    1  C7  UNL     1     -41.444  12.631   6.441  1.00 20.00     0.008 C 
ENDROOT
BRANCH   1   2
HETATM    2  C6  UNL     1     -40.572  12.837   5.194  1.00 20.00     0.004 C 
BRANCH   2   3
HETATM    3  C8  UNL     1     -39.434  11.804   5.070  1.00 20.00    -0.023 C 
HETATM    4  C1  UNL     1     -38.220  12.161   5.930  1.00 20.00     0.009 C 
HETATM    5  C2  UNL     1     -39.007  11.676   3.605  1.00 20.00     0.009 C 
ENDBRANCH   2   3
ENDBRANCH   1   2
BRANCH   1   6
HETATM    6  C9  UNL     1     -41.746  13.910   7.270  1.00 20.00    -0.051 C 
HETATM    7  C3  UNL     1     -42.141  15.084   6.358  1.00 20.00     0.014 C 
HETATM    8  C4  UNL     1     -40.465  14.297   8.035  1.00 20.00     0.014 C 
HETATM    9  C5  UNL     1     -42.866  13.664   8.293  1.00 20.00     0.014 C 
ENDBRANCH   1   6
TORSDOF 3
ENDMDL
