MODEL 1
REMARK VINA RESULT:      -3.6      0.000      0.000
REMARK  2 active torsions:
REMARK  status: ('A' for Active; 'I' for Inactive)
REMARK    1  A    between atoms: C1_1  and  C3_3 
REMARK    2  A    between atoms: C2_2  and  C3_3 
ROOT
HETATM    1  C3  UNL     1     -34.091   6.075   3.938  1.00 20.00     0.109 C 
HETATM    2 CL6  UNL     1     -32.893   5.437   2.759  1.00 20.00    -0.123 Cl
ENDROOT
BRANCH   1   3
HETATM    3  C1  UNL     1     -33.512   7.296   4.660  1.00 20.00     0.135 C 
HETATM    4 CL4  UNL     1     -32.077   7.984   3.858  1.00 20.00    -0.129 Cl
ENDBRANCH   1   3
BRANCH   1   5
HETATM    5  C2  UNL     1     -34.551   4.927   4.837  1.00 20.00     0.135 C 
HETATM    6 CL5  UNL     1     -34.435   5.348   6.564  1.00 20.00    -0.129 Cl
ENDBRANCH   1   5
TORSDOF 2
ENDMDL
MODEL 2
REMARK VINA RESULT:      -3.6      1.115      3.255
REMARK  2 active torsions:
REMARK  status: ('A' for Active; 'I' for Inactive)
REMARK    1  A    between atoms: C1_1  and  C3_3 
REMARK    2  A    between atoms: C2_2  and  C3_3 
ROOT
HETATM    1  C3  UNL     1     -33.961   6.854   4.615  1.00 20.00     0.109 C 
HETATM    2 CL6  UNL     1     -33.858   6.865   6.409  1.00 20.00    -0.123 Cl
ENDROOT
BRANCH   1   3
HETATM    3  C1  UNL     1     -34.081   5.413   4.108  1.00 20.00     0.135 C 
HETATM    4 CL4  UNL     1     -33.055   5.068   2.693  1.00 20.00    -0.129 Cl
ENDBRANCH   1   3
BRANCH   1   5
HETATM    5  C2  UNL     1     -32.791   7.662   4.053  1.00 20.00     0.135 C 
HETATM    6 CL5  UNL     1     -32.371   9.039   5.101  1.00 20.00    -0.129 Cl
ENDBRANCH   1   5
TORSDOF 2
ENDMDL
MODEL 3
REMARK VINA RESULT:      -3.6      1.416      1.528
REMARK  2 active torsions:
REMARK  status: ('A' for Active; 'I' for Inactive)
REMARK    1  A    between atoms: C1_1  and  C3_3 
REMARK    2  A    between atoms: C2_2  and  C3_3 
ROOT
HETATM    1  C3  UNL     1     -33.848   7.205   4.740  1.00 20.00     0.109 C 
HETATM    2 CL6  UNL     1     -33.986   5.638   3.869  1.00 20.00    -0.123 Cl
ENDROOT
BRANCH   1   3
HETATM    3  C1  UNL     1     -32.582   7.942   4.290  1.00 20.00     0.135 C 
HETATM    4 CL4  UNL     1     -32.098   7.569   2.617  1.00 20.00    -0.129 Cl
ENDBRANCH   1   3
BRANCH   1   5
HETATM    5  C2  UNL     1     -33.967   6.942   6.241  1.00 20.00     0.135 C 
HETATM    6 CL5  UNL     1     -34.664   5.338   6.581  1.00 20.00    -0.129 Cl
ENDBRANCH   1   5
TORSDOF 2
ENDMDL
MODEL 4
REMARK VINA RESULT:      -3.5      1.458      3.479
REMARK  2 active torsions:
REMARK  status: ('A' for Active; 'I' for Inactive)
REMARK    1  A    between atoms: C1_1  and  C3_3 
REMARK    2  A    between atoms: C2_2  and  C3_3 
ROOT
HETATM    1  C3  UNL     1     -33.681   7.577   4.904  1.00 20.00     0.109 C 
HETATM    2 CL6  UNL     1     -32.423   8.856   5.018  1.00 20.00    -0.123 Cl
ENDROOT
BRANCH   1   3
HETATM    3  C1  UNL     1     -33.941   6.977   6.290  1.00 20.00     0.135 C 
HETATM    4 CL4  UNL     1     -34.704   5.368   6.238  1.00 20.00    -0.129 Cl
ENDBRANCH   1   3
BRANCH   1   5
HETATM    5  C2  UNL     1     -33.270   6.583   3.816  1.00 20.00     0.135 C 
HETATM    6 CL5  UNL     1     -32.153   7.314   2.637  1.00 20.00    -0.129 Cl
ENDBRANCH   1   5
TORSDOF 2
ENDMDL
MODEL 5
REMARK VINA RESULT:      -3.5      0.706      2.976
REMARK  2 active torsions:
REMARK  status: ('A' for Active; 'I' for Inactive)
REMARK    1  A    between atoms: C1_1  and  C3_3 
REMARK    2  A    between atoms: C2_2  and  C3_3 
ROOT
HETATM    1  C3  UNL     1     -33.864   7.033   4.568  1.00 20.00     0.109 C 
HETATM    2 CL6  UNL     1     -32.327   7.814   4.060  1.00 20.00    -0.123 Cl
ENDROOT
BRANCH   1   3
HETATM    3  C1  UNL     1     -33.943   6.983   6.097  1.00 20.00     0.135 C 
HETATM    4 CL4  UNL     1     -34.650   5.472   6.724  1.00 20.00    -0.129 Cl
ENDBRANCH   1   3
BRANCH   1   5
HETATM    5  C2  UNL     1     -33.988   5.688   3.851  1.00 20.00     0.135 C 
HETATM    6 CL5  UNL     1     -32.763   5.502   2.571  1.00 20.00    -0.129 Cl
ENDBRANCH   1   5
TORSDOF 2
ENDMDL
MODEL 6
REMARK VINA RESULT:      -3.5      0.754      2.564
REMARK  2 active torsions:
REMARK  status: ('A' for Active; 'I' for Inactive)
REMARK    1  A    between atoms: C1_1  and  C3_3 
REMARK    2  A    between atoms: C2_2  and  C3_3 
ROOT
HETATM    1  C3  UNL     1     -33.734   6.418   5.115  1.00 20.00     0.109 C 
HETATM    2 CL6  UNL     1     -34.714   6.068   6.581  1.00 20.00    -0.123 Cl
ENDROOT
BRANCH   1   3
HETATM    3  C1  UNL     1     -33.779   7.918   4.804  1.00 20.00     0.135 C 
HETATM    4 CL4  UNL     1     -32.178   8.625   4.471  1.00 20.00    -0.129 Cl
ENDBRANCH   1   3
BRANCH   1   5
HETATM    5  C2  UNL     1     -34.193   5.491   3.989  1.00 20.00     0.135 C 
HETATM    6 CL5  UNL     1     -32.967   5.349   2.705  1.00 20.00    -0.129 Cl
ENDBRANCH   1   5
TORSDOF 2
ENDMDL
MODEL 7
REMARK VINA RESULT:      -3.4      1.070      2.942
REMARK  2 active torsions:
REMARK  status: ('A' for Active; 'I' for Inactive)
REMARK    1  A    between atoms: C1_1  and  C3_3 
REMARK    2  A    between atoms: C2_2  and  C3_3 
ROOT
HETATM    1  C3  UNL     1     -33.107   6.432   4.054  1.00 20.00     0.109 C 
HETATM    2 CL6  UNL     1     -32.991   5.317   2.649  1.00 20.00    -0.123 Cl
ENDROOT
BRANCH   1   3
HETATM    3  C1  UNL     1     -34.499   6.330   4.687  1.00 20.00     0.135 C 
HETATM    4 CL4  UNL     1     -34.462   6.081   6.451  1.00 20.00    -0.129 Cl
ENDBRANCH   1   3
BRANCH   1   5
HETATM    5  C2  UNL     1     -32.682   7.830   3.603  1.00 20.00     0.135 C 
HETATM    6 CL5  UNL     1     -32.376   8.909   4.987  1.00 20.00    -0.129 Cl
ENDBRANCH   1   5
TORSDOF 2
ENDMDL
MODEL 8
REMARK VINA RESULT:      -3.4      1.319      2.572
REMARK  2 active torsions:
REMARK  status: ('A' for Active; 'I' for Inactive)
REMARK    1  A    between atoms: C1_1  and  C3_3 
REMARK    2  A    between atoms: C2_2  and  C3_3 
ROOT
HETATM    1  C3  UNL     1     -32.822   7.355   4.562  1.00 20.00     0.109 C 
HETATM    2 CL6  UNL     1     -32.418   9.075   4.895  1.00 20.00    -0.123 Cl
ENDROOT
BRANCH   1   3
HETATM    3  C1  UNL     1     -32.485   7.013   3.107  1.00 20.00     0.135 C 
HETATM    4 CL4  UNL     1     -32.914   5.345   2.650  1.00 20.00    -0.129 Cl
ENDBRANCH   1   3
BRANCH   1   5
HETATM    5  C2  UNL     1     -34.269   7.103   4.986  1.00 20.00     0.135 C 
HETATM    6 CL5  UNL     1     -34.366   6.055   6.423  1.00 20.00    -0.129 Cl
ENDBRANCH   1   5
TORSDOF 2
ENDMDL
MODEL 9
REMARK VINA RESULT:      -3.3      1.249      1.358
REMARK  2 active torsions:
REMARK  status: ('A' for Active; 'I' for Inactive)
REMARK    1  A    between atoms: C1_1  and  C3_3 
REMARK    2  A    between atoms: C2_2  and  C3_3 
ROOT
HETATM    1  C3  UNL     1     -33.502   6.875   3.793  1.00 20.00     0.109 C 
HETATM    2 CL6  UNL     1     -33.140   5.298   3.011  1.00 20.00    -0.123 Cl
ENDROOT
BRANCH   1   3
HETATM    3  C1  UNL     1     -32.267   7.780   3.739  1.00 20.00     0.135 C 
HETATM    4 CL4  UNL     1     -32.278   9.073   4.964  1.00 20.00    -0.129 Cl
ENDBRANCH   1   3
BRANCH   1   5
HETATM    5  C2  UNL     1     -34.072   6.610   5.187  1.00 20.00     0.135 C 
HETATM    6 CL5  UNL     1     -34.632   4.929   5.366  1.00 20.00    -0.129 Cl
ENDBRANCH   1   5
TORSDOF 2
ENDMDL
