MODEL 1
REMARK VINA RESULT:      -4.3      0.000      0.000
REMARK  1 active torsions:
REMARK  status: ('A' for Active; 'I' for Inactive)
REMARK    1  A    between atoms: C7_7  and  O12_12 
ROOT
HETATM    1  C1  UNL     1     -36.204  13.891  -4.869  1.00 20.00     0.015 C 
HETATM    2  C2  UNL     1     -35.254  14.590  -5.088  1.00 20.00    -0.079 C 
HETATM    3  C3  UNL     1     -33.319  15.769  -4.067  1.00 20.00     0.055 C 
HETATM    4  C4  UNL     1     -34.336  18.076  -3.950  1.00 20.00     0.013 C 
HETATM    5  C5  UNL     1     -34.487  16.735  -6.102  1.00 20.00     0.060 C 
HETATM    6  C6  UNL     1     -34.035  16.787  -3.171  1.00 20.00    -0.014 C 
HETATM    7  C7  UNL     1     -34.088  15.449  -5.357  1.00 20.00     0.121 C 
HETATM    8  C8  UNL     1     -35.153  17.840  -5.242  1.00 20.00    -0.044 C 
HETATM    9  C9  UNL     1     -33.185  17.099  -1.937  1.00 20.00     0.010 C 
HETATM   10  C10 UNL     1     -36.615  17.495  -4.902  1.00 20.00     0.015 C 
HETATM   11  C11 UNL     1     -35.172  19.148  -6.060  1.00 20.00     0.015 C 
ENDROOT
BRANCH   7  12
HETATM   12  O12 UNL     1     -33.209  14.724  -6.226  1.00 20.00    -0.378 OA
HETATM   13  H30 UNL     1     -32.321  14.821  -5.853  1.00 20.00     0.211 HD
ENDBRANCH   7  12
TORSDOF 1
ENDMDL
MODEL 2
REMARK VINA RESULT:      -3.7     13.052     14.231
REMARK  1 active torsions:
REMARK  status: ('A' for Active; 'I' for Inactive)
REMARK    1  A    between atoms: C7_7  and  O12_12 
ROOT
HETATM    1  C1  UNL     1     -39.596  12.347   6.013  1.00 20.00     0.015 C 
HETATM    2  C2  UNL     1     -40.709  12.600   6.385  1.00 20.00    -0.079 C 
HETATM    3  C3  UNL     1     -42.902  13.568   5.729  1.00 20.00     0.055 C 
HETATM    4  C4  UNL     1     -42.597  15.853   6.757  1.00 20.00     0.013 C 
HETATM    5  C5  UNL     1     -42.067  13.774   8.116  1.00 20.00     0.060 C 
HETATM    6  C6  UNL     1     -42.511  15.028   5.465  1.00 20.00    -0.014 C 
HETATM    7  C7  UNL     1     -42.074  12.910   6.843  1.00 20.00     0.121 C 
HETATM    8  C8  UNL     1     -41.750  15.278   7.915  1.00 20.00    -0.044 C 
HETATM    9  C9  UNL     1     -43.413  15.633   4.386  1.00 20.00     0.010 C 
HETATM   10  C10 UNL     1     -40.249  15.515   7.656  1.00 20.00     0.015 C 
HETATM   11  C11 UNL     1     -42.112  16.030   9.213  1.00 20.00     0.015 C 
ENDROOT
BRANCH   7  12
HETATM   12  O12 UNL     1     -42.706  11.671   7.188  1.00 20.00    -0.378 OA
HETATM   13  H30 UNL     1     -42.949  11.743   8.122  1.00 20.00     0.211 HD
ENDBRANCH   7  12
TORSDOF 1
ENDMDL
MODEL 3
REMARK VINA RESULT:      -3.7      1.835      3.704
REMARK  1 active torsions:
REMARK  status: ('A' for Active; 'I' for Inactive)
REMARK    1  A    between atoms: C7_7  and  O12_12 
ROOT
HETATM    1  C1  UNL     1     -36.488  19.147  -4.653  1.00 20.00     0.015 C 
HETATM    2  C2  UNL     1     -35.345  18.792  -4.737  1.00 20.00    -0.079 C 
HETATM    3  C3  UNL     1     -33.839  16.840  -5.052  1.00 20.00     0.055 C 
HETATM    4  C4  UNL     1     -33.236  16.469  -2.630  1.00 20.00     0.013 C 
HETATM    5  C5  UNL     1     -33.116  18.805  -3.619  1.00 20.00     0.060 C 
HETATM    6  C6  UNL     1     -34.144  16.028  -3.787  1.00 20.00    -0.014 C 
HETATM    7  C7  UNL     1     -33.941  18.358  -4.838  1.00 20.00     0.121 C 
HETATM    8  C8  UNL     1     -33.319  17.981  -2.321  1.00 20.00    -0.044 C 
HETATM    9  C9  UNL     1     -33.966  14.532  -4.061  1.00 20.00     0.010 C 
HETATM   10  C10 UNL     1     -34.656  18.320  -1.633  1.00 20.00     0.015 C 
HETATM   11  C11 UNL     1     -32.193  18.347  -1.331  1.00 20.00     0.015 C 
ENDROOT
BRANCH   7  12
HETATM   12  O12 UNL     1     -33.371  19.003  -5.983  1.00 20.00    -0.378 OA
HETATM   13  H30 UNL     1     -32.413  18.884  -5.910  1.00 20.00     0.211 HD
ENDBRANCH   7  12
TORSDOF 1
ENDMDL
MODEL 4
REMARK VINA RESULT:      -3.6      1.323      3.027
REMARK  1 active torsions:
REMARK  status: ('A' for Active; 'I' for Inactive)
REMARK    1  A    between atoms: C7_7  and  O12_12 
ROOT
HETATM    1  C1  UNL     1     -33.681  15.512  -7.918  1.00 20.00     0.015 C 
HETATM    2  C2  UNL     1     -34.046  15.384  -6.782  1.00 20.00    -0.079 C 
HETATM    3  C3  UNL     1     -36.021  15.111  -5.300  1.00 20.00     0.055 C 
HETATM    4  C4  UNL     1     -36.231  17.512  -4.550  1.00 20.00     0.013 C 
HETATM    5  C5  UNL     1     -33.968  16.361  -4.489  1.00 20.00     0.060 C 
HETATM    6  C6  UNL     1     -36.745  16.444  -5.527  1.00 20.00    -0.014 C 
HETATM    7  C7  UNL     1     -34.493  15.228  -5.387  1.00 20.00     0.121 C 
HETATM    8  C8  UNL     1     -34.701  17.722  -4.614  1.00 20.00    -0.044 C 
HETATM    9  C9  UNL     1     -38.257  16.263  -5.367  1.00 20.00     0.010 C 
HETATM   10  C10 UNL     1     -34.310  18.465  -5.906  1.00 20.00     0.015 C 
HETATM   11  C11 UNL     1     -34.274  18.614  -3.429  1.00 20.00     0.015 C 
ENDROOT
BRANCH   7  12
HETATM   12  O12 UNL     1     -33.929  14.009  -4.887  1.00 20.00    -0.378 OA
HETATM   13  H30 UNL     1     -33.610  13.522  -5.661  1.00 20.00     0.211 HD
ENDBRANCH   7  12
TORSDOF 1
ENDMDL
MODEL 5
REMARK VINA RESULT:      -3.6     13.110     14.369
REMARK  1 active torsions:
REMARK  status: ('A' for Active; 'I' for Inactive)
REMARK    1  A    between atoms: C7_7  and  O12_12 
ROOT
HETATM    1  C1  UNL     1     -42.669  14.005   9.931  1.00 20.00     0.015 C 
HETATM    2  C2  UNL     1     -41.859  14.390   9.132  1.00 20.00    -0.079 C 
HETATM    3  C3  UNL     1     -41.458  15.935   7.228  1.00 20.00     0.055 C 
HETATM    4  C4  UNL     1     -41.742  14.265   5.357  1.00 20.00     0.013 C 
HETATM    5  C5  UNL     1     -40.265  13.698   7.344  1.00 20.00     0.060 C 
HETATM    6  C6  UNL     1     -42.424  15.367   6.181  1.00 20.00    -0.014 C 
HETATM    7  C7  UNL     1     -40.865  14.861   8.153  1.00 20.00     0.121 C 
HETATM    8  C8  UNL     1     -41.161  13.120   6.218  1.00 20.00    -0.044 C 
HETATM    9  C9  UNL     1     -42.927  16.482   5.261  1.00 20.00     0.010 C 
HETATM   10  C10 UNL     1     -42.292  12.240   6.783  1.00 20.00     0.015 C 
HETATM   11  C11 UNL     1     -40.289  12.218   5.319  1.00 20.00     0.015 C 
ENDROOT
BRANCH   7  12
HETATM   12  O12 UNL     1     -39.787  15.457   8.884  1.00 20.00    -0.378 OA
HETATM   13  H30 UNL     1     -39.288  15.987   8.246  1.00 20.00     0.211 HD
ENDBRANCH   7  12
TORSDOF 1
ENDMDL
MODEL 6
REMARK VINA RESULT:      -3.5      1.075      1.133
REMARK  1 active torsions:
REMARK  status: ('A' for Active; 'I' for Inactive)
REMARK    1  A    between atoms: C7_7  and  O12_12 
ROOT
HETATM    1  C1  UNL     1     -37.364  15.404  -5.289  1.00 20.00     0.015 C 
HETATM    2  C2  UNL     1     -36.181  15.498  -5.470  1.00 20.00    -0.079 C 
HETATM    3  C3  UNL     1     -33.959  15.620  -4.366  1.00 20.00     0.055 C 
HETATM    4  C4  UNL     1     -33.649  18.122  -4.477  1.00 20.00     0.013 C 
HETATM    5  C5  UNL     1     -34.381  16.846  -6.547  1.00 20.00     0.060 C 
HETATM    6  C6  UNL     1     -34.085  16.941  -3.597  1.00 20.00    -0.014 C 
HETATM    7  C7  UNL     1     -34.730  15.614  -5.694  1.00 20.00     0.121 C 
HETATM    8  C8  UNL     1     -34.418  18.212  -5.815  1.00 20.00    -0.044 C 
HETATM    9  C9  UNL     1     -33.246  16.893  -2.318  1.00 20.00     0.010 C 
HETATM   10  C10 UNL     1     -35.862  18.694  -5.578  1.00 20.00     0.015 C 
HETATM   11  C11 UNL     1     -33.729  19.263  -6.711  1.00 20.00     0.015 C 
ENDROOT
BRANCH   7  12
HETATM   12  O12 UNL     1     -34.315  14.463  -6.440  1.00 20.00    -0.378 OA
HETATM   13  H30 UNL     1     -34.926  13.751  -6.200  1.00 20.00     0.211 HD
ENDBRANCH   7  12
TORSDOF 1
ENDMDL
MODEL 7
REMARK VINA RESULT:      -3.5      1.689      3.529
REMARK  1 active torsions:
REMARK  status: ('A' for Active; 'I' for Inactive)
REMARK    1  A    between atoms: C7_7  and  O12_12 
ROOT
HETATM    1  C1  UNL     1     -33.461  16.280  -3.042  1.00 20.00     0.015 C 
HETATM    2  C2  UNL     1     -33.867  16.901  -3.986  1.00 20.00    -0.079 C 
HETATM    3  C3  UNL     1     -35.661  18.411  -4.806  1.00 20.00     0.055 C 
HETATM    4  C4  UNL     1     -37.055  16.681  -6.005  1.00 20.00     0.013 C 
HETATM    5  C5  UNL     1     -34.544  16.766  -6.381  1.00 20.00     0.060 C 
HETATM    6  C6  UNL     1     -36.885  17.492  -4.711  1.00 20.00    -0.014 C 
HETATM    7  C7  UNL     1     -34.364  17.663  -5.144  1.00 20.00     0.121 C 
HETATM    8  C8  UNL     1     -35.802  15.860  -6.387  1.00 20.00    -0.044 C 
HETATM    9  C9  UNL     1     -38.146  18.313  -4.430  1.00 20.00     0.010 C 
HETATM   10  C10 UNL     1     -35.639  14.652  -5.444  1.00 20.00     0.015 C 
HETATM   11  C11 UNL     1     -35.994  15.301  -7.813  1.00 20.00     0.015 C 
ENDROOT
BRANCH   7  12
HETATM   12  O12 UNL     1     -33.368  18.636  -5.481  1.00 20.00    -0.378 OA
HETATM   13  H30 UNL     1     -32.976  18.344  -6.317  1.00 20.00     0.211 HD
ENDBRANCH   7  12
TORSDOF 1
ENDMDL
MODEL 8
REMARK VINA RESULT:      -3.5      1.715      2.994
REMARK  1 active torsions:
REMARK  status: ('A' for Active; 'I' for Inactive)
REMARK    1  A    between atoms: C7_7  and  O12_12 
ROOT
HETATM    1  C1  UNL     1     -33.687  14.773  -4.129  1.00 20.00     0.015 C 
HETATM    2  C2  UNL     1     -34.436  15.049  -5.025  1.00 20.00    -0.079 C 
HETATM    3  C3  UNL     1     -34.656  16.227  -7.202  1.00 20.00     0.055 C 
HETATM    4  C4  UNL     1     -35.726  18.346  -6.347  1.00 20.00     0.013 C 
HETATM    5  C5  UNL     1     -36.626  16.088  -5.610  1.00 20.00     0.060 C 
HETATM    6  C6  UNL     1     -34.411  17.679  -6.776  1.00 20.00    -0.014 C 
HETATM    7  C7  UNL     1     -35.357  15.387  -6.124  1.00 20.00     0.121 C 
HETATM    8  C8  UNL     1     -36.469  17.583  -5.227  1.00 20.00    -0.044 C 
HETATM    9  C9  UNL     1     -33.764  18.467  -7.918  1.00 20.00     0.010 C 
HETATM   10  C10 UNL     1     -35.740  17.754  -3.880  1.00 20.00     0.015 C 
HETATM   11  C11 UNL     1     -37.877  18.193  -5.063  1.00 20.00     0.015 C 
ENDROOT
BRANCH   7  12
HETATM   12  O12 UNL     1     -35.779  14.158  -6.728  1.00 20.00    -0.378 OA
HETATM   13  H30 UNL     1     -35.640  14.264  -7.680  1.00 20.00     0.211 HD
ENDBRANCH   7  12
TORSDOF 1
ENDMDL
MODEL 9
REMARK VINA RESULT:      -3.4      1.784      3.560
REMARK  1 active torsions:
REMARK  status: ('A' for Active; 'I' for Inactive)
REMARK    1  A    between atoms: C7_7  and  O12_12 
ROOT
HETATM    1  C1  UNL     1     -34.086  18.654  -7.231  1.00 20.00     0.015 C 
HETATM    2  C2  UNL     1     -34.741  18.269  -6.302  1.00 20.00    -0.079 C 
HETATM    3  C3  UNL     1     -34.776  17.936  -3.840  1.00 20.00     0.055 C 
HETATM    4  C4  UNL     1     -34.236  15.470  -3.813  1.00 20.00     0.013 C 
HETATM    5  C5  UNL     1     -36.037  16.354  -5.371  1.00 20.00     0.060 C 
HETATM    6  C6  UNL     1     -33.667  16.889  -3.670  1.00 20.00    -0.014 C 
HETATM    7  C7  UNL     1     -35.544  17.796  -5.162  1.00 20.00     0.121 C 
HETATM    8  C8  UNL     1     -34.986  15.237  -5.145  1.00 20.00    -0.044 C 
HETATM    9  C9  UNL     1     -32.986  17.053  -2.309  1.00 20.00     0.010 C 
HETATM   10  C10 UNL     1     -33.990  15.145  -6.317  1.00 20.00     0.015 C 
HETATM   11  C11 UNL     1     -35.723  13.883  -5.067  1.00 20.00     0.015 C 
ENDROOT
BRANCH   7  12
HETATM   12  O12 UNL     1     -36.711  18.624  -5.082  1.00 20.00    -0.378 OA
HETATM   13  H30 UNL     1     -37.345  18.258  -5.715  1.00 20.00     0.211 HD
ENDBRANCH   7  12
TORSDOF 1
ENDMDL
