MODEL 1
REMARK VINA RESULT:      -3.8      0.000      0.000
REMARK  2 active torsions:
REMARK  status: ('A' for Active; 'I' for Inactive)
REMARK    1  A    between atoms: C3_3  and  C4_4 
REMARK    2  A    between atoms: C4_4  and  O5_5 
ROOT
HETATM    1  C1  UNL     1     -33.863   7.071   4.654  1.00 20.00     0.046 C 
HETATM    2  C2  UNL     1     -34.583   5.434   6.402  1.00 20.00     0.046 C 
HETATM    3  C4  UNL     1     -34.568   5.733   4.901  1.00 20.00     0.063 C 
ENDROOT
BRANCH   3   4
HETATM    4  C3  UNL     1     -33.880   4.633   4.079  1.00 20.00     0.151 C 
HETATM    5 CL6  UNL     1     -32.967   5.270   2.684  1.00 20.00    -0.127 Cl
ENDBRANCH   3   4
BRANCH   3   6
HETATM    6  O5  UNL     1     -35.923   5.872   4.469  1.00 20.00    -0.390 OA
HETATM    7  H15 UNL     1     -36.311   4.986   4.501  1.00 20.00     0.210 HD
ENDBRANCH   3   6
TORSDOF 2
ENDMDL
MODEL 2
REMARK VINA RESULT:      -3.7      1.715      2.329
REMARK  2 active torsions:
REMARK  status: ('A' for Active; 'I' for Inactive)
REMARK    1  A    between atoms: C3_3  and  C4_4 
REMARK    2  A    between atoms: C4_4  and  O5_5 
ROOT
HETATM    1  C1  UNL     1     -34.488   5.868   6.437  1.00 20.00     0.046 C 
HETATM    2  C2  UNL     1     -33.965   4.392   4.487  1.00 20.00     0.046 C 
HETATM    3  C4  UNL     1     -34.505   5.761   4.908  1.00 20.00     0.063 C 
ENDROOT
BRANCH   3   4
HETATM    4  C3  UNL     1     -33.710   6.928   4.304  1.00 20.00     0.151 C 
HETATM    5 CL6  UNL     1     -33.531   8.306   5.425  1.00 20.00    -0.127 Cl
ENDBRANCH   3   4
BRANCH   3   6
HETATM    6  O5  UNL     1     -35.867   5.843   4.484  1.00 20.00    -0.390 OA
HETATM    7  H15 UNL     1     -36.272   6.550   5.007  1.00 20.00     0.210 HD
ENDBRANCH   3   6
TORSDOF 2
ENDMDL
MODEL 3
REMARK VINA RESULT:      -3.4      1.224      1.534
REMARK  2 active torsions:
REMARK  status: ('A' for Active; 'I' for Inactive)
REMARK    1  A    between atoms: C3_3  and  C4_4 
REMARK    2  A    between atoms: C4_4  and  O5_5 
ROOT
HETATM    1  C1  UNL     1     -35.804   6.050   4.286  1.00 20.00     0.046 C 
HETATM    2  C2  UNL     1     -34.379   6.025   6.341  1.00 20.00     0.046 C 
HETATM    3  C4  UNL     1     -34.430   5.675   4.852  1.00 20.00     0.063 C 
ENDROOT
BRANCH   3   4
HETATM    4  C3  UNL     1     -33.332   6.373   4.035  1.00 20.00     0.151 C 
HETATM    5 CL6  UNL     1     -32.821   5.434   2.606  1.00 20.00    -0.127 Cl
ENDBRANCH   3   4
BRANCH   3   6
HETATM    6  O5  UNL     1     -34.284   4.258   4.730  1.00 20.00    -0.390 OA
HETATM    7  H15 UNL     1     -33.883   4.100   3.863  1.00 20.00     0.210 HD
ENDBRANCH   3   6
TORSDOF 2
ENDMDL
MODEL 4
REMARK VINA RESULT:      -3.1     17.288     17.981
REMARK  2 active torsions:
REMARK  status: ('A' for Active; 'I' for Inactive)
REMARK    1  A    between atoms: C3_3  and  C4_4 
REMARK    2  A    between atoms: C4_4  and  O5_5 
ROOT
HETATM    1  C1  UNL     1     -23.136  18.619   8.575  1.00 20.00     0.046 C 
HETATM    2  C2  UNL     1     -23.850  17.133  10.456  1.00 20.00     0.046 C 
HETATM    3  C4  UNL     1     -22.646  17.706   9.705  1.00 20.00     0.063 C 
ENDROOT
BRANCH   3   4
HETATM    4  C3  UNL     1     -21.690  18.489  10.617  1.00 20.00     0.151 C 
HETATM    5 CL6  UNL     1     -22.185  18.467  12.332  1.00 20.00    -0.127 Cl
ENDBRANCH   3   4
BRANCH   3   6
HETATM    6  O5  UNL     1     -21.945  16.615   9.105  1.00 20.00    -0.390 OA
HETATM    7  H15 UNL     1     -22.380  16.445   8.257  1.00 20.00     0.210 HD
ENDBRANCH   3   6
TORSDOF 2
ENDMDL
MODEL 5
REMARK VINA RESULT:      -3.1     13.257     13.730
REMARK  2 active torsions:
REMARK  status: ('A' for Active; 'I' for Inactive)
REMARK    1  A    between atoms: C3_3  and  C4_4 
REMARK    2  A    between atoms: C4_4  and  O5_5 
ROOT
HETATM    1  C1  UNL     1     -34.019  15.241  -6.868  1.00 20.00     0.046 C 
HETATM    2  C2  UNL     1     -35.803  14.377  -5.343  1.00 20.00     0.046 C 
HETATM    3  C4  UNL     1     -34.396  14.977  -5.406  1.00 20.00     0.063 C 
ENDROOT
BRANCH   3   4
HETATM    4  C3  UNL     1     -34.264  16.277  -4.600  1.00 20.00     0.151 C 
HETATM    5 CL6  UNL     1     -33.394  16.058  -3.057  1.00 20.00    -0.127 Cl
ENDBRANCH   3   4
BRANCH   3   6
HETATM    6  O5  UNL     1     -33.483  14.004  -4.893  1.00 20.00    -0.390 OA
HETATM    7  H15 UNL     1     -33.978  13.482  -4.246  1.00 20.00     0.210 HD
ENDBRANCH   3   6
TORSDOF 2
ENDMDL
MODEL 6
REMARK VINA RESULT:      -3.1      2.009      2.769
REMARK  2 active torsions:
REMARK  status: ('A' for Active; 'I' for Inactive)
REMARK    1  A    between atoms: C3_3  and  C4_4 
REMARK    2  A    between atoms: C4_4  and  O5_5 
ROOT
HETATM    1  C1  UNL     1     -34.029   4.241   4.424  1.00 20.00     0.046 C 
HETATM    2  C2  UNL     1     -33.714   6.691   4.034  1.00 20.00     0.046 C 
HETATM    3  C4  UNL     1     -34.532   5.642   4.791  1.00 20.00     0.063 C 
ENDROOT
BRANCH   3   4
HETATM    4  C3  UNL     1     -34.475   5.824   6.315  1.00 20.00     0.151 C 
HETATM    5 CL6  UNL     1     -34.073   7.493   6.805  1.00 20.00    -0.127 Cl
ENDBRANCH   3   4
BRANCH   3   6
HETATM    6  O5  UNL     1     -35.888   5.744   4.350  1.00 20.00    -0.390 OA
HETATM    7  H15 UNL     1     -35.856   5.811   3.385  1.00 20.00     0.210 HD
ENDBRANCH   3   6
TORSDOF 2
ENDMDL
MODEL 7
REMARK VINA RESULT:      -3.0      8.995      9.427
REMARK  2 active torsions:
REMARK  status: ('A' for Active; 'I' for Inactive)
REMARK    1  A    between atoms: C3_3  and  C4_4 
REMARK    2  A    between atoms: C4_4  and  O5_5 
ROOT
HETATM    1  C1  UNL     1     -41.165  13.405   4.997  1.00 20.00     0.046 C 
HETATM    2  C2  UNL     1     -40.444  13.836   7.352  1.00 20.00     0.046 C 
HETATM    3  C4  UNL     1     -40.692  12.752   6.300  1.00 20.00     0.063 C 
ENDROOT
BRANCH   3   4
HETATM    4  C3  UNL     1     -39.448  11.895   6.021  1.00 20.00     0.151 C 
HETATM    5 CL6  UNL     1     -39.090  11.730   4.280  1.00 20.00    -0.127 Cl
ENDBRANCH   3   4
BRANCH   3   6
HETATM    6  O5  UNL     1     -41.749  11.916   6.774  1.00 20.00    -0.390 OA
HETATM    7  H15 UNL     1     -41.430  11.005   6.697  1.00 20.00     0.210 HD
ENDBRANCH   3   6
TORSDOF 2
ENDMDL
MODEL 8
REMARK VINA RESULT:      -3.0      1.903      2.450
REMARK  2 active torsions:
REMARK  status: ('A' for Active; 'I' for Inactive)
REMARK    1  A    between atoms: C3_3  and  C4_4 
REMARK    2  A    between atoms: C4_4  and  O5_5 
ROOT
HETATM    1  C1  UNL     1     -33.607   5.384   3.711  1.00 20.00     0.046 C 
HETATM    2  C2  UNL     1     -35.911   6.257   4.140  1.00 20.00     0.046 C 
HETATM    3  C4  UNL     1     -34.612   5.785   4.797  1.00 20.00     0.063 C 
ENDROOT
BRANCH   3   4
HETATM    4  C3  UNL     1     -33.983   6.848   5.709  1.00 20.00     0.151 C 
HETATM    5 CL6  UNL     1     -33.275   8.214   4.805  1.00 20.00    -0.127 Cl
ENDBRANCH   3   4
BRANCH   3   6
HETATM    6  O5  UNL     1     -34.909   4.616   5.564  1.00 20.00    -0.390 OA
HETATM    7  H15 UNL     1     -35.400   4.023   4.976  1.00 20.00     0.210 HD
ENDBRANCH   3   6
TORSDOF 2
ENDMDL
MODEL 9
REMARK VINA RESULT:      -2.9      8.410      8.704
REMARK  2 active torsions:
REMARK  status: ('A' for Active; 'I' for Inactive)
REMARK    1  A    between atoms: C3_3  and  C4_4 
REMARK    2  A    between atoms: C4_4  and  O5_5 
ROOT
HETATM    1  C1  UNL     1     -41.637   8.224  -0.381  1.00 20.00     0.046 C 
HETATM    2  C2  UNL     1     -40.699   5.906  -0.394  1.00 20.00     0.046 C 
HETATM    3  C4  UNL     1     -41.363   6.980   0.471  1.00 20.00     0.063 C 
ENDROOT
BRANCH   3   4
HETATM    4  C3  UNL     1     -42.673   6.502   1.115  1.00 20.00     0.151 C 
HETATM    5 CL6  UNL     1     -42.649   4.771   1.548  1.00 20.00    -0.127 Cl
ENDBRANCH   3   4
BRANCH   3   6
HETATM    6  O5  UNL     1     -40.437   7.351   1.494  1.00 20.00    -0.390 OA
HETATM    7  H15 UNL     1     -39.929   8.097   1.143  1.00 20.00     0.210 HD
ENDBRANCH   3   6
TORSDOF 2
ENDMDL
