MODEL 1
REMARK VINA RESULT:      -4.3      0.000      0.000
REMARK  7 active torsions:
REMARK  status: ('A' for Active; 'I' for Inactive)
REMARK    1  A    between atoms: C1_1  and  C4_4 
REMARK    2  A    between atoms: C1_1  and  O10_10 
REMARK    3  A    between atoms: C4_4  and  C5_5 
REMARK    4  A    between atoms: C5_5  and  C6_6 
REMARK    5  A    between atoms: C6_6  and  C7_7 
REMARK    6  A    between atoms: C7_7  and  C8_8 
REMARK    7  A    between atoms: C8_8  and  O11_11 
ROOT
HETATM    1  C5  UNL     1     -33.761   8.019   4.993  1.00 20.00     0.010 C 
ENDROOT
BRANCH   1   2
HETATM    2  C4  UNL     1     -32.412   8.410   4.389  1.00 20.00     0.111 C 
BRANCH   2   3
HETATM    3  C1  UNL     1     -32.369   8.268   2.884  1.00 20.00     0.258 C 
HETATM    4  O9  UNL     1     -32.035   7.258   2.280  1.00 20.00    -0.265 OA
BRANCH   3   5
HETATM    5  O10 UNL     1     -32.792   9.437   2.317  1.00 20.00    -0.326 OA
HETATM    6  C2  UNL     1     -32.793   9.463   0.886  1.00 20.00     0.213 C 
ENDBRANCH   3   5
ENDBRANCH   2   3
ENDBRANCH   1   2
BRANCH   1   7
HETATM    7  C6  UNL     1     -33.613   7.310   6.344  1.00 20.00     0.002 C 
BRANCH   7   8
HETATM    8  C7  UNL     1     -34.478   6.053   6.407  1.00 20.00     0.026 C 
BRANCH   8   9
HETATM    9  C8  UNL     1     -35.071   5.710   5.048  1.00 20.00     0.167 C 
BRANCH   9  10
HETATM   10  O11 UNL     1     -34.529   4.471   4.610  1.00 20.00    -0.396 OA
HETATM   11  C3  UNL     1     -33.662   4.645   3.498  1.00 20.00     0.201 C 
ENDBRANCH   9  10
ENDBRANCH   8   9
ENDBRANCH   7   8
ENDBRANCH   1   7
TORSDOF 7
ENDMDL
MODEL 2
REMARK VINA RESULT:      -4.2      0.834      4.189
REMARK  7 active torsions:
REMARK  status: ('A' for Active; 'I' for Inactive)
REMARK    1  A    between atoms: C1_1  and  C4_4 
REMARK    2  A    between atoms: C1_1  and  O10_10 
REMARK    3  A    between atoms: C4_4  and  C5_5 
REMARK    4  A    between atoms: C5_5  and  C6_6 
REMARK    5  A    between atoms: C6_6  and  C7_7 
REMARK    6  A    between atoms: C7_7  and  C8_8 
REMARK    7  A    between atoms: C8_8  and  O11_11 
ROOT
HETATM    1  C5  UNL     1     -33.568   6.901   6.382  1.00 20.00     0.010 C 
ENDROOT
BRANCH   1   2
HETATM    2  C4  UNL     1     -34.619   5.798   6.258  1.00 20.00     0.111 C 
BRANCH   2   3
HETATM    3  C1  UNL     1     -34.966   5.466   4.824  1.00 20.00     0.258 C 
HETATM    4  O9  UNL     1     -35.911   5.930   4.201  1.00 20.00    -0.265 OA
BRANCH   3   5
HETATM    5  O10 UNL     1     -34.039   4.589   4.335  1.00 20.00    -0.326 OA
HETATM    6  C2  UNL     1     -33.430   4.964   3.095  1.00 20.00     0.213 C 
ENDBRANCH   3   5
ENDBRANCH   2   3
ENDBRANCH   1   2
BRANCH   1   7
HETATM    7  C6  UNL     1     -33.797   8.041   5.384  1.00 20.00     0.002 C 
BRANCH   7   8
HETATM    8  C7  UNL     1     -32.472   8.586   4.853  1.00 20.00     0.026 C 
BRANCH   8   9
HETATM    9  C8  UNL     1     -32.149   8.032   3.473  1.00 20.00     0.167 C 
BRANCH   9  10
HETATM   10  O11 UNL     1     -32.610   8.949   2.490  1.00 20.00    -0.396 OA
HETATM   11  C3  UNL     1     -32.299   8.507   1.176  1.00 20.00     0.201 C 
ENDBRANCH   9  10
ENDBRANCH   8   9
ENDBRANCH   7   8
ENDBRANCH   1   7
TORSDOF 7
ENDMDL
MODEL 3
REMARK VINA RESULT:      -4.0      1.251      1.969
REMARK  7 active torsions:
REMARK  status: ('A' for Active; 'I' for Inactive)
REMARK    1  A    between atoms: C1_1  and  C4_4 
REMARK    2  A    between atoms: C1_1  and  O10_10 
REMARK    3  A    between atoms: C4_4  and  C5_5 
REMARK    4  A    between atoms: C5_5  and  C6_6 
REMARK    5  A    between atoms: C6_6  and  C7_7 
REMARK    6  A    between atoms: C7_7  and  C8_8 
REMARK    7  A    between atoms: C8_8  and  O11_11 
ROOT
HETATM    1  C5  UNL     1     -33.486   8.293   5.030  1.00 20.00     0.010 C 
ENDROOT
BRANCH   1   2
HETATM    2  C4  UNL     1     -32.203   8.304   4.200  1.00 20.00     0.111 C 
BRANCH   2   3
HETATM    3  C1  UNL     1     -32.286   7.435   2.964  1.00 20.00     0.258 C 
HETATM    4  O9  UNL     1     -32.181   7.835   1.813  1.00 20.00    -0.265 OA
BRANCH   3   5
HETATM    5  O10 UNL     1     -32.466   6.136   3.347  1.00 20.00    -0.326 OA
HETATM    6  C2  UNL     1     -32.841   5.232   2.303  1.00 20.00     0.213 C 
ENDBRANCH   3   5
ENDBRANCH   2   3
ENDBRANCH   1   2
BRANCH   1   7
HETATM    7  C6  UNL     1     -33.363   7.419   6.283  1.00 20.00     0.002 C 
BRANCH   7   8
HETATM    8  C7  UNL     1     -34.583   6.515   6.449  1.00 20.00     0.026 C 
BRANCH   8   9
HETATM    9  C8  UNL     1     -34.241   5.056   6.180  1.00 20.00     0.167 C 
BRANCH   9  10
HETATM   10  O11 UNL     1     -34.894   4.644   4.987  1.00 20.00    -0.396 OA
HETATM   11  C3  UNL     1     -35.705   5.679   4.450  1.00 20.00     0.201 C 
ENDBRANCH   9  10
ENDBRANCH   8   9
ENDBRANCH   7   8
ENDBRANCH   1   7
TORSDOF 7
ENDMDL
MODEL 4
REMARK VINA RESULT:      -3.9     11.415     12.413
REMARK  7 active torsions:
REMARK  status: ('A' for Active; 'I' for Inactive)
REMARK    1  A    between atoms: C1_1  and  C4_4 
REMARK    2  A    between atoms: C1_1  and  O10_10 
REMARK    3  A    between atoms: C4_4  and  C5_5 
REMARK    4  A    between atoms: C5_5  and  C6_6 
REMARK    5  A    between atoms: C6_6  and  C7_7 
REMARK    6  A    between atoms: C7_7  and  C8_8 
REMARK    7  A    between atoms: C8_8  and  O11_11 
ROOT
HETATM    1  C5  UNL     1     -33.202  16.496  -2.706  1.00 20.00     0.010 C 
ENDROOT
BRANCH   1   2
HETATM    2  C4  UNL     1     -33.837  16.424  -4.095  1.00 20.00     0.111 C 
BRANCH   2   3
HETATM    3  C1  UNL     1     -33.998  15.009  -4.604  1.00 20.00     0.258 C 
HETATM    4  O9  UNL     1     -34.187  14.024  -3.902  1.00 20.00    -0.265 OA
BRANCH   3   5
HETATM    5  O10 UNL     1     -33.928  15.017  -5.968  1.00 20.00    -0.326 OA
HETATM    6  C2  UNL     1     -35.186  15.065  -6.650  1.00 20.00     0.213 C 
ENDBRANCH   3   5
ENDBRANCH   2   3
ENDBRANCH   1   2
BRANCH   1   7
HETATM    7  C6  UNL     1     -33.947  17.456  -1.773  1.00 20.00     0.002 C 
BRANCH   7   8
HETATM    8  C7  UNL     1     -33.035  17.963  -0.657  1.00 20.00     0.026 C 
BRANCH   8   9
HETATM    9  C8  UNL     1     -31.961  18.899  -1.191  1.00 20.00     0.167 C 
BRANCH   9  10
HETATM   10  O11 UNL     1     -30.735  18.617  -0.530  1.00 20.00    -0.396 OA
HETATM   11  C3  UNL     1     -30.879  18.669   0.882  1.00 20.00     0.201 C 
ENDBRANCH   9  10
ENDBRANCH   8   9
ENDBRANCH   7   8
ENDBRANCH   1   7
TORSDOF 7
ENDMDL
MODEL 5
REMARK VINA RESULT:      -3.9     11.546     12.152
REMARK  7 active torsions:
REMARK  status: ('A' for Active; 'I' for Inactive)
REMARK    1  A    between atoms: C1_1  and  C4_4 
REMARK    2  A    between atoms: C1_1  and  O10_10 
REMARK    3  A    between atoms: C4_4  and  C5_5 
REMARK    4  A    between atoms: C5_5  and  C6_6 
REMARK    5  A    between atoms: C6_6  and  C7_7 
REMARK    6  A    between atoms: C7_7  and  C8_8 
REMARK    7  A    between atoms: C8_8  and  O11_11 
ROOT
HETATM    1  C5  UNL     1     -32.951  17.910  -1.899  1.00 20.00     0.010 C 
ENDROOT
BRANCH   1   2
HETATM    2  C4  UNL     1     -32.961  18.142  -0.388  1.00 20.00     0.111 C 
BRANCH   2   3
HETATM    3  C1  UNL     1     -31.609  18.534   0.163  1.00 20.00     0.258 C 
HETATM    4  O9  UNL     1     -30.600  18.718  -0.506  1.00 20.00    -0.265 OA
BRANCH   3   5
HETATM    5  O10 UNL     1     -31.707  18.679   1.519  1.00 20.00    -0.326 OA
HETATM    6  C2  UNL     1     -30.496  18.467   2.251  1.00 20.00     0.213 C 
ENDBRANCH   3   5
ENDBRANCH   2   3
ENDBRANCH   1   2
BRANCH   1   7
HETATM    7  C6  UNL     1     -33.516  16.538  -2.284  1.00 20.00     0.002 C 
BRANCH   7   8
HETATM    8  C7  UNL     1     -33.317  16.255  -3.771  1.00 20.00     0.026 C 
BRANCH   8   9
HETATM    9  C8  UNL     1     -33.670  14.817  -4.121  1.00 20.00     0.167 C 
BRANCH   9  10
HETATM   10  O11 UNL     1     -34.194  14.780  -5.442  1.00 20.00    -0.396 OA
HETATM   11  C3  UNL     1     -35.613  14.735  -5.440  1.00 20.00     0.201 C 
ENDBRANCH   9  10
ENDBRANCH   8   9
ENDBRANCH   7   8
ENDBRANCH   1   7
TORSDOF 7
ENDMDL
MODEL 6
REMARK VINA RESULT:      -3.9      1.264      1.997
REMARK  7 active torsions:
REMARK  status: ('A' for Active; 'I' for Inactive)
REMARK    1  A    between atoms: C1_1  and  C4_4 
REMARK    2  A    between atoms: C1_1  and  O10_10 
REMARK    3  A    between atoms: C4_4  and  C5_5 
REMARK    4  A    between atoms: C5_5  and  C6_6 
REMARK    5  A    between atoms: C6_6  and  C7_7 
REMARK    6  A    between atoms: C7_7  and  C8_8 
REMARK    7  A    between atoms: C8_8  and  O11_11 
ROOT
HETATM    1  C5  UNL     1     -33.867   7.290   6.422  1.00 20.00     0.010 C 
ENDROOT
BRANCH   1   2
HETATM    2  C4  UNL     1     -33.863   7.891   5.017  1.00 20.00     0.111 C 
BRANCH   2   3
HETATM    3  C1  UNL     1     -32.531   8.495   4.632  1.00 20.00     0.258 C 
HETATM    4  O9  UNL     1     -32.027   9.482   5.152  1.00 20.00    -0.265 OA
BRANCH   3   5
HETATM    5  O10 UNL     1     -31.975   7.744   3.634  1.00 20.00    -0.326 OA
HETATM    6  C2  UNL     1     -32.219   8.209   2.303  1.00 20.00     0.213 C 
ENDBRANCH   3   5
ENDBRANCH   2   3
ENDBRANCH   1   2
BRANCH   1   7
HETATM    7  C6  UNL     1     -34.434   5.866   6.446  1.00 20.00     0.002 C 
BRANCH   7   8
HETATM    8  C7  UNL     1     -35.090   5.509   5.114  1.00 20.00     0.026 C 
BRANCH   8   9
HETATM    9  C8  UNL     1     -34.220   4.567   4.294  1.00 20.00     0.167 C 
BRANCH   9  10
HETATM   10  O11 UNL     1     -33.712   5.272   3.170  1.00 20.00    -0.396 OA
HETATM   11  C3  UNL     1     -32.756   4.499   2.458  1.00 20.00     0.201 C 
ENDBRANCH   9  10
ENDBRANCH   8   9
ENDBRANCH   7   8
ENDBRANCH   1   7
TORSDOF 7
ENDMDL
MODEL 7
REMARK VINA RESULT:      -3.5      1.334      2.608
REMARK  7 active torsions:
REMARK  status: ('A' for Active; 'I' for Inactive)
REMARK    1  A    between atoms: C1_1  and  C4_4 
REMARK    2  A    between atoms: C1_1  and  O10_10 
REMARK    3  A    between atoms: C4_4  and  C5_5 
REMARK    4  A    between atoms: C5_5  and  C6_6 
REMARK    5  A    between atoms: C6_6  and  C7_7 
REMARK    6  A    between atoms: C7_7  and  C8_8 
REMARK    7  A    between atoms: C8_8  and  O11_11 
ROOT
HETATM    1  C5  UNL     1     -32.963   5.558   2.575  1.00 20.00     0.010 C 
ENDROOT
BRANCH   1   2
HETATM    2  C4  UNL     1     -32.333   6.776   3.249  1.00 20.00     0.111 C 
BRANCH   2   3
HETATM    3  C1  UNL     1     -32.317   8.004   2.367  1.00 20.00     0.258 C 
HETATM    4  O9  UNL     1     -32.087   8.006   1.165  1.00 20.00    -0.265 OA
BRANCH   3   5
HETATM    5  O10 UNL     1     -32.630   9.098   3.123  1.00 20.00    -0.326 OA
HETATM    6  C2  UNL     1     -32.303   9.000   4.513  1.00 20.00     0.213 C 
ENDBRANCH   3   5
ENDBRANCH   2   3
ENDBRANCH   1   2
BRANCH   1   7
HETATM    7  C6  UNL     1     -33.788   4.712   3.551  1.00 20.00     0.002 C 
BRANCH   7   8
HETATM    8  C7  UNL     1     -34.704   5.587   4.405  1.00 20.00     0.026 C 
BRANCH   8   9
HETATM    9  C8  UNL     1     -34.877   5.020   5.806  1.00 20.00     0.167 C 
BRANCH   9  10
HETATM   10  O11 UNL     1     -34.031   5.733   6.699  1.00 20.00    -0.396 OA
HETATM   11  C3  UNL     1     -34.153   7.137   6.524  1.00 20.00     0.201 C 
ENDBRANCH   9  10
ENDBRANCH   8   9
ENDBRANCH   7   8
ENDBRANCH   1   7
TORSDOF 7
ENDMDL
MODEL 8
REMARK VINA RESULT:      -3.5     11.661     12.549
REMARK  7 active torsions:
REMARK  status: ('A' for Active; 'I' for Inactive)
REMARK    1  A    between atoms: C1_1  and  C4_4 
REMARK    2  A    between atoms: C1_1  and  O10_10 
REMARK    3  A    between atoms: C4_4  and  C5_5 
REMARK    4  A    between atoms: C5_5  and  C6_6 
REMARK    5  A    between atoms: C6_6  and  C7_7 
REMARK    6  A    between atoms: C7_7  and  C8_8 
REMARK    7  A    between atoms: C8_8  and  O11_11 
ROOT
HETATM    1  C5  UNL     1     -33.077  15.510  -3.900  1.00 20.00     0.010 C 
ENDROOT
BRANCH   1   2
HETATM    2  C4  UNL     1     -34.115  14.469  -4.321  1.00 20.00     0.111 C 
BRANCH   2   3
HETATM    3  C1  UNL     1     -34.764  14.780  -5.652  1.00 20.00     0.258 C 
HETATM    4  O9  UNL     1     -34.170  14.903  -6.714  1.00 20.00    -0.265 OA
BRANCH   3   5
HETATM    5  O10 UNL     1     -36.116  14.870  -5.475  1.00 20.00    -0.326 OA
HETATM    6  C2  UNL     1     -36.676  16.174  -5.662  1.00 20.00     0.213 C 
ENDBRANCH   3   5
ENDBRANCH   2   3
ENDBRANCH   1   2
BRANCH   1   7
HETATM    7  C6  UNL     1     -33.721  16.778  -3.328  1.00 20.00     0.002 C 
BRANCH   7   8
HETATM    8  C7  UNL     1     -33.397  16.942  -1.844  1.00 20.00     0.026 C 
BRANCH   8   9
HETATM    9  C8  UNL     1     -33.937  18.254  -1.293  1.00 20.00     0.167 C 
BRANCH   9  10
HETATM   10  O11 UNL     1     -33.059  18.723  -0.279  1.00 20.00    -0.396 OA
HETATM   11  C3  UNL     1     -31.699  18.506  -0.624  1.00 20.00     0.201 C 
ENDBRANCH   9  10
ENDBRANCH   8   9
ENDBRANCH   7   8
ENDBRANCH   1   7
TORSDOF 7
ENDMDL
MODEL 9
REMARK VINA RESULT:      -3.5     11.694     12.683
REMARK  7 active torsions:
REMARK  status: ('A' for Active; 'I' for Inactive)
REMARK    1  A    between atoms: C1_1  and  C4_4 
REMARK    2  A    between atoms: C1_1  and  O10_10 
REMARK    3  A    between atoms: C4_4  and  C5_5 
REMARK    4  A    between atoms: C5_5  and  C6_6 
REMARK    5  A    between atoms: C6_6  and  C7_7 
REMARK    6  A    between atoms: C7_7  and  C8_8 
REMARK    7  A    between atoms: C8_8  and  O11_11 
ROOT
HETATM    1  C5  UNL     1     -33.400  16.306  -2.744  1.00 20.00     0.010 C 
ENDROOT
BRANCH   1   2
HETATM    2  C4  UNL     1     -33.124  17.795  -2.953  1.00 20.00     0.111 C 
BRANCH   2   3
HETATM    3  C1  UNL     1     -32.695  18.505  -1.689  1.00 20.00     0.258 C 
HETATM    4  O9  UNL     1     -31.694  19.199  -1.575  1.00 20.00    -0.265 OA
BRANCH   3   5
HETATM    5  O10 UNL     1     -33.621  18.268  -0.711  1.00 20.00    -0.326 OA
HETATM    6  C2  UNL     1     -33.167  18.477   0.630  1.00 20.00     0.213 C 
ENDBRANCH   3   5
ENDBRANCH   2   3
ENDBRANCH   1   2
BRANCH   1   7
HETATM    7  C6  UNL     1     -33.000  15.461  -3.959  1.00 20.00     0.002 C 
BRANCH   7   8
HETATM    8  C7  UNL     1     -34.125  14.513  -4.369  1.00 20.00     0.026 C 
BRANCH   8   9
HETATM    9  C8  UNL     1     -34.990  15.110  -5.470  1.00 20.00     0.167 C 
BRANCH   9  10
HETATM   10  O11 UNL     1     -34.403  14.810  -6.729  1.00 20.00    -0.396 OA
HETATM   11  C3  UNL     1     -34.261  15.974  -7.530  1.00 20.00     0.201 C 
ENDBRANCH   9  10
ENDBRANCH   8   9
ENDBRANCH   7   8
ENDBRANCH   1   7
TORSDOF 7
ENDMDL
