MODEL 1
REMARK VINA RESULT:      -4.7      0.000      0.000
REMARK  0 active torsions:
REMARK  status: ('A' for Active; 'I' for Inactive)
ROOT
HETATM    1  C1  UNL     1     -32.711   7.961   4.426  1.00 20.00     0.064 C 
HETATM    2  C2  UNL     1     -33.941   4.983   6.095  1.00 20.00     0.005 C 
HETATM    3  C3  UNL     1     -34.362   6.426   6.407  1.00 20.00     0.006 C 
HETATM    4  C4  UNL     1     -33.371   5.634   3.748  1.00 20.00     0.024 C 
HETATM    5  C5  UNL     1     -35.621   5.658   4.550  1.00 20.00     0.010 C 
HETATM    6  C6  UNL     1     -33.810   7.089   4.003  1.00 20.00     0.097 C 
HETATM    7  C7  UNL     1     -34.345   4.819   4.621  1.00 20.00    -0.013 C 
HETATM    8  C8  UNL     1     -34.926   6.925   5.061  1.00 20.00     0.003 C 
HETATM    9  N9  UNL     1     -31.841   8.651   4.761  1.00 20.00    -0.197 NA
ENDROOT
TORSDOF 0
ENDMDL
MODEL 2
REMARK VINA RESULT:      -4.2     15.420     16.555
REMARK  0 active torsions:
REMARK  status: ('A' for Active; 'I' for Inactive)
ROOT
HETATM    1  C1  UNL     1     -22.468  17.438   9.312  1.00 20.00     0.064 C 
HETATM    2  C2  UNL     1     -25.204  17.012  11.657  1.00 20.00     0.005 C 
HETATM    3  C3  UNL     1     -23.738  16.636  11.911  1.00 20.00     0.006 C 
HETATM    4  C4  UNL     1     -24.495  18.750  10.003  1.00 20.00     0.024 C 
HETATM    5  C5  UNL     1     -24.006  18.954  12.332  1.00 20.00     0.010 C 
HETATM    6  C6  UNL     1     -23.007  18.430  10.246  1.00 20.00     0.097 C 
HETATM    7  C7  UNL     1     -25.130  18.524  11.389  1.00 20.00    -0.013 C 
HETATM    8  C8  UNL     1     -22.996  17.976  11.724  1.00 20.00     0.003 C 
HETATM    9  N9  UNL     1     -22.041  16.651   8.573  1.00 20.00    -0.197 NA
ENDROOT
TORSDOF 0
ENDMDL
MODEL 3
REMARK VINA RESULT:      -3.9     12.466     13.835
REMARK  0 active torsions:
REMARK  status: ('A' for Active; 'I' for Inactive)
ROOT
HETATM    1  C1  UNL     1     -31.686  18.776  -0.939  1.00 20.00     0.064 C 
HETATM    2  C2  UNL     1     -33.412  16.861  -3.491  1.00 20.00     0.005 C 
HETATM    3  C3  UNL     1     -33.531  16.648  -1.976  1.00 20.00     0.006 C 
HETATM    4  C4  UNL     1     -32.813  19.263  -3.130  1.00 20.00     0.024 C 
HETATM    5  C5  UNL     1     -34.983  18.414  -2.606  1.00 20.00     0.010 C 
HETATM    6  C6  UNL     1     -32.950  19.107  -1.603  1.00 20.00     0.097 C 
HETATM    7  C7  UNL     1     -33.895  18.309  -3.674  1.00 20.00    -0.013 C 
HETATM    8  C8  UNL     1     -34.036  18.015  -1.470  1.00 20.00     0.003 C 
HETATM    9  N9  UNL     1     -30.685  18.514  -0.413  1.00 20.00    -0.197 NA
ENDROOT
TORSDOF 0
ENDMDL
MODEL 4
REMARK VINA RESULT:      -3.9      9.046     10.090
REMARK  0 active torsions:
REMARK  status: ('A' for Active; 'I' for Inactive)
ROOT
HETATM    1  C1  UNL     1     -42.750   4.979  -0.789  1.00 20.00     0.064 C 
HETATM    2  C2  UNL     1     -41.878   8.498  -0.645  1.00 20.00     0.005 C 
HETATM    3  C3  UNL     1     -43.152   7.865  -0.068  1.00 20.00     0.006 C 
HETATM    4  C4  UNL     1     -40.663   6.324  -0.409  1.00 20.00     0.024 C 
HETATM    5  C5  UNL     1     -41.390   7.573   1.493  1.00 20.00     0.010 C 
HETATM    6  C6  UNL     1     -41.907   5.651   0.203  1.00 20.00     0.097 C 
HETATM    7  C7  UNL     1     -40.758   7.771   0.115  1.00 20.00    -0.013 C 
HETATM    8  C8  UNL     1     -42.603   6.825   0.930  1.00 20.00     0.003 C 
HETATM    9  N9  UNL     1     -43.417   4.447  -1.575  1.00 20.00    -0.197 NA
ENDROOT
TORSDOF 0
ENDMDL
MODEL 5
REMARK VINA RESULT:      -3.9      8.760     10.148
REMARK  0 active torsions:
REMARK  status: ('A' for Active; 'I' for Inactive)
ROOT
HETATM    1  C1  UNL     1     -43.416   4.569   0.885  1.00 20.00     0.064 C 
HETATM    2  C2  UNL     1     -40.573   6.816   0.707  1.00 20.00     0.005 C 
HETATM    3  C3  UNL     1     -41.019   5.844  -0.394  1.00 20.00     0.006 C 
HETATM    4  C4  UNL     1     -42.912   6.927   1.587  1.00 20.00     0.024 C 
HETATM    5  C5  UNL     1     -42.328   7.815  -0.552  1.00 20.00     0.010 C 
HETATM    6  C6  UNL     1     -43.414   5.978   0.482  1.00 20.00     0.097 C 
HETATM    7  C7  UNL     1     -41.799   7.726   0.880  1.00 20.00    -0.013 C 
HETATM    8  C8  UNL     1     -42.463   6.295  -0.695  1.00 20.00     0.003 C 
HETATM    9  N9  UNL     1     -43.417   3.453   1.204  1.00 20.00    -0.197 NA
ENDROOT
TORSDOF 0
ENDMDL
MODEL 6
REMARK VINA RESULT:      -3.8      9.179     10.277
REMARK  0 active torsions:
REMARK  status: ('A' for Active; 'I' for Inactive)
ROOT
HETATM    1  C1  UNL     1     -42.878   4.958  -1.379  1.00 20.00     0.064 C 
HETATM    2  C2  UNL     1     -43.266   5.894   2.105  1.00 20.00     0.005 C 
HETATM    3  C3  UNL     1     -42.204   4.937   1.545  1.00 20.00     0.006 C 
HETATM    4  C4  UNL     1     -43.417   7.055  -0.106  1.00 20.00     0.024 C 
HETATM    5  C5  UNL     1     -41.448   7.164   1.242  1.00 20.00     0.010 C 
HETATM    6  C6  UNL     1     -42.332   6.138  -0.705  1.00 20.00     0.097 C 
HETATM    7  C7  UNL     1     -42.971   7.207   1.362  1.00 20.00    -0.013 C 
HETATM    8  C8  UNL     1     -41.450   5.811   0.522  1.00 20.00     0.003 C 
HETATM    9  N9  UNL     1     -43.311   4.022  -1.912  1.00 20.00    -0.197 NA
ENDROOT
TORSDOF 0
ENDMDL
MODEL 7
REMARK VINA RESULT:      -3.6     15.368     16.473
REMARK  0 active torsions:
REMARK  status: ('A' for Active; 'I' for Inactive)
ROOT
HETATM    1  C1  UNL     1     -24.534  19.262   8.544  1.00 20.00     0.064 C 
HETATM    2  C2  UNL     1     -23.919  16.387  10.669  1.00 20.00     0.005 C 
HETATM    3  C3  UNL     1     -22.912  17.015   9.695  1.00 20.00     0.006 C 
HETATM    4  C4  UNL     1     -25.104  18.578  10.892  1.00 20.00     0.024 C 
HETATM    5  C5  UNL     1     -22.885  18.258  11.715  1.00 20.00     0.010 C 
HETATM    6  C6  UNL     1     -24.101  19.262   9.943  1.00 20.00     0.097 C 
HETATM    7  C7  UNL     1     -24.234  17.543  11.631  1.00 20.00    -0.013 C 
HETATM    8  C8  UNL     1     -22.798  18.469  10.200  1.00 20.00     0.003 C 
HETATM    9  N9  UNL     1     -24.877  19.262   7.435  1.00 20.00    -0.197 NA
ENDROOT
TORSDOF 0
ENDMDL
MODEL 8
REMARK VINA RESULT:      -3.5     15.791     16.950
REMARK  0 active torsions:
REMARK  status: ('A' for Active; 'I' for Inactive)
ROOT
HETATM    1  C1  UNL     1     -24.137  16.892  11.586  1.00 20.00     0.064 C 
HETATM    2  C2  UNL     1     -21.329  17.375   9.340  1.00 20.00     0.005 C 
HETATM    3  C3  UNL     1     -22.730  16.896   8.935  1.00 20.00     0.006 C 
HETATM    4  C4  UNL     1     -22.285  18.567  11.321  1.00 20.00     0.024 C 
HETATM    5  C5  UNL     1     -22.756  19.263   9.085  1.00 20.00     0.010 C 
HETATM    6  C6  UNL     1     -23.714  18.137  10.939  1.00 20.00     0.097 C 
HETATM    7  C7  UNL     1     -21.602  18.758   9.952  1.00 20.00    -0.013 C 
HETATM    8  C8  UNL     1     -23.642  18.052   9.397  1.00 20.00     0.003 C 
HETATM    9  N9  UNL     1     -24.472  15.906  12.099  1.00 20.00    -0.197 NA
ENDROOT
TORSDOF 0
ENDMDL
MODEL 9
REMARK VINA RESULT:      -3.5      1.989      3.417
REMARK  0 active torsions:
REMARK  status: ('A' for Active; 'I' for Inactive)
ROOT
HETATM    1  C1  UNL     1     -34.246   5.130   4.786  1.00 20.00     0.064 C 
HETATM    2  C2  UNL     1     -31.900   7.866   4.369  1.00 20.00     0.005 C 
HETATM    3  C3  UNL     1     -32.847   7.323   3.290  1.00 20.00     0.006 C 
HETATM    4  C4  UNL     1     -33.456   7.077   6.162  1.00 20.00     0.024 C 
HETATM    5  C5  UNL     1     -34.054   8.835   4.661  1.00 20.00     0.010 C 
HETATM    6  C6  UNL     1     -34.453   6.543   5.116  1.00 20.00     0.097 C 
HETATM    7  C7  UNL     1     -32.865   8.324   5.474  1.00 20.00    -0.013 C 
HETATM    8  C8  UNL     1     -34.241   7.505   3.924  1.00 20.00     0.003 C 
HETATM    9  N9  UNL     1     -34.081   4.011   4.525  1.00 20.00    -0.197 NA
ENDROOT
TORSDOF 0
ENDMDL
