MODEL 1
REMARK VINA RESULT:      -3.1      0.000      0.000
REMARK  1 active torsions:
REMARK  status: ('A' for Active; 'I' for Inactive)
REMARK    1  A    between atoms: C5_5  and  S6_6 
ROOT
HETATM    1  C1  UNL     1     -35.792   6.184   4.234  1.00 20.00     0.026 C 
HETATM    2  C2  UNL     1     -33.546   5.199   3.682  1.00 20.00     0.026 C 
HETATM    3  C3  UNL     1     -34.377   5.178   6.055  1.00 20.00     0.026 C 
HETATM    4  C5  UNL     1     -34.363   5.954   4.734  1.00 20.00    -0.003 C 
ENDROOT
BRANCH   4   5
HETATM    5  S6  UNL     1     -33.572   7.585   5.018  1.00 20.00    -0.165 SA
HETATM    6  C4  UNL     1     -32.440   7.555   3.614  1.00 20.00     0.090 C 
ENDBRANCH   4   5
TORSDOF 1
ENDMDL
MODEL 2
REMARK VINA RESULT:      -3.1      0.069      1.789
REMARK  1 active torsions:
REMARK  status: ('A' for Active; 'I' for Inactive)
REMARK    1  A    between atoms: C5_5  and  S6_6 
ROOT
HETATM    1  C1  UNL     1     -34.373   5.089   5.987  1.00 20.00     0.026 C 
HETATM    2  C2  UNL     1     -35.777   6.195   4.218  1.00 20.00     0.026 C 
HETATM    3  C3  UNL     1     -33.540   5.219   3.617  1.00 20.00     0.026 C 
HETATM    4  C5  UNL     1     -34.350   5.928   4.705  1.00 20.00    -0.003 C 
ENDROOT
BRANCH   4   5
HETATM    5  S6  UNL     1     -33.555   7.541   5.074  1.00 20.00    -0.165 SA
HETATM    6  C4  UNL     1     -32.457   7.603   3.644  1.00 20.00     0.090 C 
ENDBRANCH   4   5
TORSDOF 1
ENDMDL
MODEL 3
REMARK VINA RESULT:      -3.1      0.035      1.775
REMARK  1 active torsions:
REMARK  status: ('A' for Active; 'I' for Inactive)
REMARK    1  A    between atoms: C5_5  and  S6_6 
ROOT
HETATM    1  C1  UNL     1     -33.530   5.230   3.666  1.00 20.00     0.026 C 
HETATM    2  C2  UNL     1     -34.364   5.168   6.037  1.00 20.00     0.026 C 
HETATM    3  C3  UNL     1     -35.788   6.184   4.231  1.00 20.00     0.026 C 
HETATM    4  C5  UNL     1     -34.356   5.962   4.727  1.00 20.00    -0.003 C 
ENDROOT
BRANCH   4   5
HETATM    5  S6  UNL     1     -33.585   7.596   5.048  1.00 20.00    -0.165 SA
HETATM    6  C4  UNL     1     -32.435   7.599   3.657  1.00 20.00     0.090 C 
ENDBRANCH   4   5
TORSDOF 1
ENDMDL
MODEL 4
REMARK VINA RESULT:      -2.8      1.308      1.779
REMARK  1 active torsions:
REMARK  status: ('A' for Active; 'I' for Inactive)
REMARK    1  A    between atoms: C5_5  and  S6_6 
ROOT
HETATM    1  C1  UNL     1     -35.768   6.176   4.245  1.00 20.00     0.026 C 
HETATM    2  C2  UNL     1     -34.274   5.040   5.918  1.00 20.00     0.026 C 
HETATM    3  C3  UNL     1     -33.849   7.433   5.276  1.00 20.00     0.026 C 
HETATM    4  C5  UNL     1     -34.339   6.068   4.785  1.00 20.00    -0.003 C 
ENDROOT
BRANCH   4   5
HETATM    5  S6  UNL     1     -33.241   5.502   3.428  1.00 20.00    -0.165 SA
HETATM    6  C4  UNL     1     -32.388   7.065   3.137  1.00 20.00     0.090 C 
ENDBRANCH   4   5
TORSDOF 1
ENDMDL
MODEL 5
REMARK VINA RESULT:      -2.8      1.317      1.838
REMARK  1 active torsions:
REMARK  status: ('A' for Active; 'I' for Inactive)
REMARK    1  A    between atoms: C5_5  and  S6_6 
ROOT
HETATM    1  C1  UNL     1     -33.849   7.454   5.241  1.00 20.00     0.026 C 
HETATM    2  C2  UNL     1     -35.772   6.162   4.266  1.00 20.00     0.026 C 
HETATM    3  C3  UNL     1     -34.267   5.082   5.966  1.00 20.00     0.026 C 
HETATM    4  C5  UNL     1     -34.340   6.073   4.800  1.00 20.00    -0.003 C 
ENDROOT
BRANCH   4   5
HETATM    5  S6  UNL     1     -33.257   5.469   3.447  1.00 20.00    -0.165 SA
HETATM    6  C4  UNL     1     -32.402   7.022   3.109  1.00 20.00     0.090 C 
ENDBRANCH   4   5
TORSDOF 1
ENDMDL
MODEL 6
REMARK VINA RESULT:      -2.8     15.976     16.932
REMARK  1 active torsions:
REMARK  status: ('A' for Active; 'I' for Inactive)
REMARK    1  A    between atoms: C5_5  and  S6_6 
ROOT
HETATM    1  C1  UNL     1     -24.292  16.461  11.588  1.00 20.00     0.026 C 
HETATM    2  C2  UNL     1     -22.788  18.334  12.331  1.00 20.00     0.026 C 
HETATM    3  C3  UNL     1     -25.270  18.701  12.182  1.00 20.00     0.026 C 
HETATM    4  C5  UNL     1     -24.068  17.976  11.571  1.00 20.00    -0.003 C 
ENDROOT
BRANCH   4   5
HETATM    5  S6  UNL     1     -23.876  18.521   9.829  1.00 20.00    -0.165 SA
HETATM    6  C4  UNL     1     -22.545  17.394   9.366  1.00 20.00     0.090 C 
ENDBRANCH   4   5
TORSDOF 1
ENDMDL
MODEL 7
REMARK VINA RESULT:      -2.8     15.916     16.814
REMARK  1 active torsions:
REMARK  status: ('A' for Active; 'I' for Inactive)
REMARK    1  A    between atoms: C5_5  and  S6_6 
ROOT
HETATM    1  C1  UNL     1     -22.758  18.139  12.332  1.00 20.00     0.026 C 
HETATM    2  C2  UNL     1     -24.349  16.257  11.838  1.00 20.00     0.026 C 
HETATM    3  C3  UNL     1     -23.100  17.370   9.962  1.00 20.00     0.026 C 
HETATM    4  C5  UNL     1     -23.765  17.576  11.326  1.00 20.00    -0.003 C 
ENDROOT
BRANCH   4   5
HETATM    5  S6  UNL     1     -25.138  18.779  11.134  1.00 20.00    -0.165 SA
HETATM    6  C4  UNL     1     -24.813  19.250   9.423  1.00 20.00     0.090 C 
ENDBRANCH   4   5
TORSDOF 1
ENDMDL
MODEL 8
REMARK VINA RESULT:      -2.7     15.813     16.714
REMARK  1 active torsions:
REMARK  status: ('A' for Active; 'I' for Inactive)
REMARK    1  A    between atoms: C5_5  and  S6_6 
ROOT
HETATM    1  C1  UNL     1     -23.023  17.247   9.891  1.00 20.00     0.026 C 
HETATM    2  C2  UNL     1     -22.797  18.083  12.251  1.00 20.00     0.026 C 
HETATM    3  C3  UNL     1     -24.392  16.211  11.730  1.00 20.00     0.026 C 
HETATM    4  C5  UNL     1     -23.758  17.505  11.210  1.00 20.00    -0.003 C 
ENDROOT
BRANCH   4   5
HETATM    5  S6  UNL     1     -25.089  18.732  10.909  1.00 20.00    -0.165 SA
HETATM    6  C4  UNL     1     -26.130  18.313  12.322  1.00 20.00     0.090 C 
ENDBRANCH   4   5
TORSDOF 1
ENDMDL
MODEL 9
REMARK VINA RESULT:      -2.6     16.229     17.125
REMARK  1 active torsions:
REMARK  status: ('A' for Active; 'I' for Inactive)
REMARK    1  A    between atoms: C5_5  and  S6_6 
ROOT
HETATM    1  C1  UNL     1     -23.195  17.286   9.868  1.00 20.00     0.026 C 
HETATM    2  C2  UNL     1     -24.366  16.302  11.863  1.00 20.00     0.026 C 
HETATM    3  C3  UNL     1     -25.007  18.586  11.031  1.00 20.00     0.026 C 
HETATM    4  C5  UNL     1     -23.857  17.592  11.215  1.00 20.00    -0.003 C 
ENDROOT
BRANCH   4   5
HETATM    5  S6  UNL     1     -22.604  18.342  12.327  1.00 20.00    -0.165 SA
HETATM    6  C4  UNL     1     -21.306  18.592  11.098  1.00 20.00     0.090 C 
ENDBRANCH   4   5
TORSDOF 1
ENDMDL
