MODEL 1
REMARK VINA RESULT:      -4.0      0.000      0.000
REMARK  1 active torsions:
REMARK  status: ('A' for Active; 'I' for Inactive)
REMARK    1  A    between atoms: C1_1  and  C2_2 
ROOT
HETATM    1  C1  UNL     1     -32.649   8.360   3.839  1.00 20.00    -0.005 C 
HETATM    2  C3  UNL     1     -32.415   7.619   2.746  1.00 20.00    -0.031 C 
HETATM    3  C5  UNL     1     -31.973   8.190   1.438  1.00 20.00     0.036 C 
ENDROOT
BRANCH   1   4
HETATM    4  C2  UNL     1     -33.077   7.796   5.099  1.00 20.00    -0.005 C 
HETATM    5  C4  UNL     1     -33.992   6.821   5.193  1.00 20.00    -0.031 C 
HETATM    6  C6  UNL     1     -34.444   6.230   6.489  1.00 20.00     0.036 C 
ENDBRANCH   1   4
TORSDOF 1
ENDMDL
MODEL 2
REMARK VINA RESULT:      -4.0      0.067      3.953
REMARK  1 active torsions:
REMARK  status: ('A' for Active; 'I' for Inactive)
REMARK    1  A    between atoms: C1_1  and  C2_2 
ROOT
HETATM    1  C1  UNL     1     -32.997   7.777   5.061  1.00 20.00    -0.005 C 
HETATM    2  C3  UNL     1     -33.979   6.872   5.184  1.00 20.00    -0.031 C 
HETATM    3  C5  UNL     1     -34.384   6.260   6.486  1.00 20.00     0.036 C 
ENDROOT
BRANCH   1   4
HETATM    4  C2  UNL     1     -32.615   8.360   3.796  1.00 20.00    -0.005 C 
HETATM    5  C4  UNL     1     -32.381   7.634   2.694  1.00 20.00    -0.031 C 
HETATM    6  C6  UNL     1     -31.984   8.224   1.380  1.00 20.00     0.036 C 
ENDBRANCH   1   4
TORSDOF 1
ENDMDL
MODEL 3
REMARK VINA RESULT:      -3.2     11.399     11.880
REMARK  1 active torsions:
REMARK  status: ('A' for Active; 'I' for Inactive)
REMARK    1  A    between atoms: C1_1  and  C2_2 
ROOT
HETATM    1  C1  UNL     1     -32.804  17.837  -2.001  1.00 20.00    -0.005 C 
HETATM    2  C3  UNL     1     -33.384  16.671  -2.320  1.00 20.00    -0.031 C 
HETATM    3  C5  UNL     1     -33.724  16.271  -3.719  1.00 20.00     0.036 C 
ENDROOT
BRANCH   1   4
HETATM    4  C2  UNL     1     -32.480  18.213  -0.644  1.00 20.00    -0.005 C 
HETATM    5  C4  UNL     1     -31.243  18.553  -0.252  1.00 20.00    -0.031 C 
HETATM    6  C6  UNL     1     -30.895  18.943   1.148  1.00 20.00     0.036 C 
ENDBRANCH   1   4
TORSDOF 1
ENDMDL
MODEL 4
REMARK VINA RESULT:      -3.2     11.408     12.052
REMARK  1 active torsions:
REMARK  status: ('A' for Active; 'I' for Inactive)
REMARK    1  A    between atoms: C1_1  and  C2_2 
ROOT
HETATM    1  C1  UNL     1     -32.321  18.382  -0.492  1.00 20.00    -0.005 C 
HETATM    2  C3  UNL     1     -31.064  18.455  -0.030  1.00 20.00    -0.031 C 
HETATM    3  C5  UNL     1     -30.716  18.885   1.358  1.00 20.00     0.036 C 
ENDROOT
BRANCH   1   4
HETATM    4  C2  UNL     1     -32.644  17.966  -1.837  1.00 20.00    -0.005 C 
HETATM    5  C4  UNL     1     -33.293  16.826  -2.116  1.00 20.00    -0.031 C 
HETATM    6  C6  UNL     1     -33.633  16.383  -3.502  1.00 20.00     0.036 C 
ENDBRANCH   1   4
TORSDOF 1
ENDMDL
MODEL 5
REMARK VINA RESULT:      -3.2     11.447     11.804
REMARK  1 active torsions:
REMARK  status: ('A' for Active; 'I' for Inactive)
REMARK    1  A    between atoms: C1_1  and  C2_2 
ROOT
HETATM    1  C1  UNL     1     -31.695  18.402  -0.663  1.00 20.00    -0.005 C 
HETATM    2  C3  UNL     1     -32.972  17.995  -0.631  1.00 20.00    -0.031 C 
HETATM    3  C5  UNL     1     -33.687  17.416  -1.808  1.00 20.00     0.036 C 
ENDROOT
BRANCH   1   4
HETATM    4  C2  UNL     1     -31.015  18.961   0.482  1.00 20.00    -0.005 C 
HETATM    5  C4  UNL     1     -30.767  18.264   1.601  1.00 20.00    -0.031 C 
HETATM    6  C6  UNL     1     -30.066  18.831   2.792  1.00 20.00     0.036 C 
ENDBRANCH   1   4
TORSDOF 1
ENDMDL
MODEL 6
REMARK VINA RESULT:      -3.2     11.440     12.022
REMARK  1 active torsions:
REMARK  status: ('A' for Active; 'I' for Inactive)
REMARK    1  A    between atoms: C1_1  and  C2_2 
ROOT
HETATM    1  C1  UNL     1     -31.027  18.970   0.636  1.00 20.00    -0.005 C 
HETATM    2  C3  UNL     1     -30.655  18.266   1.715  1.00 20.00    -0.031 C 
HETATM    3  C5  UNL     1     -30.109  18.885   2.960  1.00 20.00     0.036 C 
ENDROOT
BRANCH   1   4
HETATM    4  C2  UNL     1     -31.553  18.360  -0.563  1.00 20.00    -0.005 C 
HETATM    5  C4  UNL     1     -32.842  18.017  -0.706  1.00 20.00    -0.031 C 
HETATM    6  C6  UNL     1     -33.399  17.384  -1.940  1.00 20.00     0.036 C 
ENDBRANCH   1   4
TORSDOF 1
ENDMDL
MODEL 7
REMARK VINA RESULT:      -3.2     11.685     12.361
REMARK  1 active torsions:
REMARK  status: ('A' for Active; 'I' for Inactive)
REMARK    1  A    between atoms: C1_1  and  C2_2 
ROOT
HETATM    1  C1  UNL     1     -29.342  18.621   3.263  1.00 20.00    -0.005 C 
HETATM    2  C3  UNL     1     -28.063  18.854   3.591  1.00 20.00    -0.031 C 
HETATM    3  C5  UNL     1     -27.417  18.330   4.832  1.00 20.00     0.036 C 
ENDROOT
BRANCH   1   4
HETATM    4  C2  UNL     1     -29.955  19.134   2.060  1.00 20.00    -0.005 C 
HETATM    5  C4  UNL     1     -30.794  18.416   1.300  1.00 20.00    -0.031 C 
HETATM    6  C6  UNL     1     -31.435  18.934   0.054  1.00 20.00     0.036 C 
ENDBRANCH   1   4
TORSDOF 1
ENDMDL
MODEL 8
REMARK VINA RESULT:      -3.2     11.240     11.592
REMARK  1 active torsions:
REMARK  status: ('A' for Active; 'I' for Inactive)
REMARK    1  A    between atoms: C1_1  and  C2_2 
ROOT
HETATM    1  C1  UNL     1     -33.381  16.549  -3.274  1.00 20.00    -0.005 C 
HETATM    2  C3  UNL     1     -33.717  15.312  -3.669  1.00 20.00    -0.031 C 
HETATM    3  C5  UNL     1     -33.669  14.856  -5.091  1.00 20.00     0.036 C 
ENDROOT
BRANCH   1   4
HETATM    4  C2  UNL     1     -33.432  16.979  -1.896  1.00 20.00    -0.005 C 
HETATM    5  C4  UNL     1     -32.665  17.962  -1.405  1.00 20.00    -0.031 C 
HETATM    6  C6  UNL     1     -32.707  18.415   0.018  1.00 20.00     0.036 C 
ENDBRANCH   1   4
TORSDOF 1
ENDMDL
MODEL 9
REMARK VINA RESULT:      -3.2     11.242     11.876
REMARK  1 active torsions:
REMARK  status: ('A' for Active; 'I' for Inactive)
REMARK    1  A    between atoms: C1_1  and  C2_2 
ROOT
HETATM    1  C1  UNL     1     -33.418  16.969  -1.896  1.00 20.00    -0.005 C 
HETATM    2  C3  UNL     1     -32.662  17.967  -1.416  1.00 20.00    -0.031 C 
HETATM    3  C5  UNL     1     -32.686  18.411   0.011  1.00 20.00     0.036 C 
ENDROOT
BRANCH   1   4
HETATM    4  C2  UNL     1     -33.385  16.549  -3.279  1.00 20.00    -0.005 C 
HETATM    5  C4  UNL     1     -33.710  15.311  -3.677  1.00 20.00    -0.031 C 
HETATM    6  C6  UNL     1     -33.680  14.864  -5.103  1.00 20.00     0.036 C 
ENDBRANCH   1   4
TORSDOF 1
ENDMDL
