MODEL 1
REMARK VINA RESULT:      -3.8      0.000      0.000
REMARK  2 active torsions:
REMARK  status: ('A' for Active; 'I' for Inactive)
REMARK    1  A    between atoms: C1_1  and  C3_3 
REMARK    2  A    between atoms: C2_2  and  C4_4 
ROOT
HETATM    1  C1  UNL     1     -33.379   7.366   4.958  1.00 20.00    -0.015 C 
HETATM    2  C2  UNL     1     -33.836   6.972   6.155  1.00 20.00    -0.015 C 
ENDROOT
BRANCH   1   3
HETATM    3  C3  UNL     1     -32.575   8.608   4.747  1.00 20.00     0.141 C 
HETATM    4 CL5  UNL     1     -32.528   9.012   3.019  1.00 20.00    -0.126 Cl
ENDBRANCH   1   3
BRANCH   2   5
HETATM    5  C4  UNL     1     -34.655   5.740   6.362  1.00 20.00     0.141 C 
HETATM    6 CL6  UNL     1     -34.688   4.777   4.869  1.00 20.00    -0.126 Cl
ENDBRANCH   2   5
TORSDOF 2
ENDMDL
MODEL 2
REMARK VINA RESULT:      -3.8      0.054      3.785
REMARK  2 active torsions:
REMARK  status: ('A' for Active; 'I' for Inactive)
REMARK    1  A    between atoms: C1_1  and  C3_3 
REMARK    2  A    between atoms: C2_2  and  C4_4 
ROOT
HETATM    1  C1  UNL     1     -33.822   7.022   6.167  1.00 20.00    -0.015 C 
HETATM    2  C2  UNL     1     -33.327   7.375   4.973  1.00 20.00    -0.015 C 
ENDROOT
BRANCH   1   3
HETATM    3  C3  UNL     1     -34.626   5.785   6.397  1.00 20.00     0.141 C 
HETATM    4 CL5  UNL     1     -34.649   4.795   4.924  1.00 20.00    -0.126 Cl
ENDBRANCH   1   3
BRANCH   2   5
HETATM    5  C4  UNL     1     -32.538   8.622   4.739  1.00 20.00     0.141 C 
HETATM    6 CL6  UNL     1     -32.548   9.030   3.010  1.00 20.00    -0.126 Cl
ENDBRANCH   2   5
TORSDOF 2
ENDMDL
MODEL 3
REMARK VINA RESULT:      -3.8      1.089      3.755
REMARK  2 active torsions:
REMARK  status: ('A' for Active; 'I' for Inactive)
REMARK    1  A    between atoms: C1_1  and  C3_3 
REMARK    2  A    between atoms: C2_2  and  C4_4 
ROOT
HETATM    1  C1  UNL     1     -33.707   7.308   5.101  1.00 20.00    -0.015 C 
HETATM    2  C2  UNL     1     -32.887   8.356   4.942  1.00 20.00    -0.015 C 
ENDROOT
BRANCH   1   3
HETATM    3  C3  UNL     1     -34.201   6.838   6.430  1.00 20.00     0.141 C 
HETATM    4 CL5  UNL     1     -34.673   5.129   6.330  1.00 20.00    -0.126 Cl
ENDBRANCH   1   3
BRANCH   2   5
HETATM    5  C4  UNL     1     -32.379   8.815   3.614  1.00 20.00     0.141 C 
HETATM    6 CL6  UNL     1     -32.182   7.423   2.528  1.00 20.00    -0.126 Cl
ENDBRANCH   2   5
TORSDOF 2
ENDMDL
MODEL 4
REMARK VINA RESULT:      -3.8      1.076      1.286
REMARK  2 active torsions:
REMARK  status: ('A' for Active; 'I' for Inactive)
REMARK    1  A    between atoms: C1_1  and  C3_3 
REMARK    2  A    between atoms: C2_2  and  C4_4 
ROOT
HETATM    1  C1  UNL     1     -32.892   8.337   4.986  1.00 20.00    -0.015 C 
HETATM    2  C2  UNL     1     -33.695   7.273   5.119  1.00 20.00    -0.015 C 
ENDROOT
BRANCH   1   3
HETATM    3  C3  UNL     1     -32.342   8.802   3.677  1.00 20.00     0.141 C 
HETATM    4 CL5  UNL     1     -32.186   7.427   2.565  1.00 20.00    -0.126 Cl
ENDBRANCH   1   3
BRANCH   2   5
HETATM    5  C4  UNL     1     -34.229   6.798   6.431  1.00 20.00     0.141 C 
HETATM    6 CL6  UNL     1     -34.686   5.085   6.314  1.00 20.00    -0.126 Cl
ENDBRANCH   2   5
TORSDOF 2
ENDMDL
MODEL 5
REMARK VINA RESULT:      -3.7      1.101      3.834
REMARK  2 active torsions:
REMARK  status: ('A' for Active; 'I' for Inactive)
REMARK    1  A    between atoms: C1_1  and  C3_3 
REMARK    2  A    between atoms: C2_2  and  C4_4 
ROOT
HETATM    1  C1  UNL     1     -33.936   6.680   4.404  1.00 20.00    -0.015 C 
HETATM    2  C2  UNL     1     -33.407   7.599   5.225  1.00 20.00    -0.015 C 
ENDROOT
BRANCH   1   3
HETATM    3  C3  UNL     1     -34.883   5.616   4.854  1.00 20.00     0.141 C 
HETATM    4 CL5  UNL     1     -34.701   5.342   6.598  1.00 20.00    -0.126 Cl
ENDBRANCH   1   3
BRANCH   2   5
HETATM    5  C4  UNL     1     -32.445   8.651   4.778  1.00 20.00     0.141 C 
HETATM    6 CL6  UNL     1     -32.503   8.812   3.010  1.00 20.00    -0.126 Cl
ENDBRANCH   2   5
TORSDOF 2
ENDMDL
MODEL 6
REMARK VINA RESULT:      -3.6      1.095      1.220
REMARK  2 active torsions:
REMARK  status: ('A' for Active; 'I' for Inactive)
REMARK    1  A    between atoms: C1_1  and  C3_3 
REMARK    2  A    between atoms: C2_2  and  C4_4 
ROOT
HETATM    1  C1  UNL     1     -33.372   7.556   5.261  1.00 20.00    -0.015 C 
HETATM    2  C2  UNL     1     -34.034   6.746   4.423  1.00 20.00    -0.015 C 
ENDROOT
BRANCH   1   3
HETATM    3  C3  UNL     1     -32.456   8.646   4.809  1.00 20.00     0.141 C 
HETATM    4 CL5  UNL     1     -32.519   8.794   3.041  1.00 20.00    -0.126 Cl
ENDBRANCH   1   3
BRANCH   2   5
HETATM    5  C4  UNL     1     -34.937   5.645   4.876  1.00 20.00     0.141 C 
HETATM    6 CL6  UNL     1     -34.697   5.343   6.610  1.00 20.00    -0.126 Cl
ENDBRANCH   2   5
TORSDOF 2
ENDMDL
MODEL 7
REMARK VINA RESULT:      -3.5      1.031      3.887
REMARK  2 active torsions:
REMARK  status: ('A' for Active; 'I' for Inactive)
REMARK    1  A    between atoms: C1_1  and  C3_3 
REMARK    2  A    between atoms: C2_2  and  C4_4 
ROOT
HETATM    1  C1  UNL     1     -33.741   7.234   5.731  1.00 20.00    -0.015 C 
HETATM    2  C2  UNL     1     -33.374   7.235   4.442  1.00 20.00    -0.015 C 
ENDROOT
BRANCH   1   3
HETATM    3  C3  UNL     1     -34.506   6.122   6.372  1.00 20.00     0.141 C 
HETATM    4 CL5  UNL     1     -34.767   4.813   5.202  1.00 20.00    -0.126 Cl
ENDBRANCH   1   3
BRANCH   2   5
HETATM    5  C4  UNL     1     -32.625   8.355   3.796  1.00 20.00     0.141 C 
HETATM    6 CL6  UNL     1     -31.976   9.445   5.041  1.00 20.00    -0.126 Cl
ENDBRANCH   2   5
TORSDOF 2
ENDMDL
MODEL 8
REMARK VINA RESULT:      -3.4      1.341      4.049
REMARK  2 active torsions:
REMARK  status: ('A' for Active; 'I' for Inactive)
REMARK    1  A    between atoms: C1_1  and  C3_3 
REMARK    2  A    between atoms: C2_2  and  C4_4 
ROOT
HETATM    1  C1  UNL     1     -33.615   7.212   4.611  1.00 20.00    -0.015 C 
HETATM    2  C2  UNL     1     -32.540   7.843   4.119  1.00 20.00    -0.015 C 
ENDROOT
BRANCH   1   3
HETATM    3  C3  UNL     1     -33.948   7.155   6.066  1.00 20.00     0.141 C 
HETATM    4 CL5  UNL     1     -34.663   5.579   6.462  1.00 20.00    -0.126 Cl
ENDBRANCH   1   3
BRANCH   2   5
HETATM    5  C4  UNL     1     -32.197   7.884   2.666  1.00 20.00     0.141 C 
HETATM    6 CL6  UNL     1     -32.810   9.387   1.943  1.00 20.00    -0.126 Cl
ENDBRANCH   2   5
TORSDOF 2
ENDMDL
MODEL 9
REMARK VINA RESULT:      -3.2      2.106      2.338
REMARK  2 active torsions:
REMARK  status: ('A' for Active; 'I' for Inactive)
REMARK    1  A    between atoms: C1_1  and  C3_3 
REMARK    2  A    between atoms: C2_2  and  C4_4 
ROOT
HETATM    1  C1  UNL     1     -33.545   6.037   3.999  1.00 20.00    -0.015 C 
HETATM    2  C2  UNL     1     -34.300   5.119   4.617  1.00 20.00    -0.015 C 
ENDROOT
BRANCH   1   3
HETATM    3  C3  UNL     1     -32.909   5.823   2.664  1.00 20.00     0.141 C 
HETATM    4 CL5  UNL     1     -32.152   7.329   2.106  1.00 20.00    -0.126 Cl
ENDBRANCH   1   3
BRANCH   2   5
HETATM    5  C4  UNL     1     -34.921   5.327   5.960  1.00 20.00     0.141 C 
HETATM    6 CL6  UNL     1     -34.329   6.844   6.671  1.00 20.00    -0.126 Cl
ENDBRANCH   2   5
TORSDOF 2
ENDMDL
