MODEL 1
REMARK VINA RESULT:      -4.2      0.000      0.000
REMARK  2 active torsions:
REMARK  status: ('A' for Active; 'I' for Inactive)
REMARK    1  A    between atoms: C6_6  and  C7_7 
REMARK    2  A    between atoms: C7_7  and  C8_8 
ROOT
HETATM    1  C1  UNL     1     -22.426  18.501  11.634  1.00 20.00     0.069 C 
HETATM    2  C2  UNL     1     -24.658  16.396  11.689  1.00 20.00     0.002 C 
HETATM    3  C3  UNL     1     -25.285  17.632  12.331  1.00 20.00     0.002 C 
HETATM    4  C4  UNL     1     -23.902  16.893  10.456  1.00 20.00     0.024 C 
HETATM    5  C5  UNL     1     -24.879  18.820  11.458  1.00 20.00     0.024 C 
HETATM    6  C6  UNL     1     -23.599  18.369  10.744  1.00 20.00     0.050 C 
HETATM    7  N9  UNL     1     -21.505  18.605  12.332  1.00 20.00    -0.196 NA
ENDROOT
BRANCH   6   8
HETATM    8  C7  UNL     1     -23.352  19.161   9.461  1.00 20.00     0.039 C 
BRANCH   8   9
HETATM    9  C8  UNL     1     -21.910  19.086   8.978  1.00 20.00     0.116 C 
HETATM   10 CL10 UNL     1     -21.667  17.780   7.795  1.00 20.00    -0.130 Cl
ENDBRANCH   8   9
ENDBRANCH   6   8
TORSDOF 2
ENDMDL
MODEL 2
REMARK VINA RESULT:      -4.0     19.069     19.718
REMARK  2 active torsions:
REMARK  status: ('A' for Active; 'I' for Inactive)
REMARK    1  A    between atoms: C6_6  and  C7_7 
REMARK    2  A    between atoms: C7_7  and  C8_8 
ROOT
HETATM    1  C1  UNL     1     -35.262  14.040  -4.672  1.00 20.00     0.069 C 
HETATM    2  C2  UNL     1     -35.101  15.510  -7.361  1.00 20.00     0.002 C 
HETATM    3  C3  UNL     1     -36.056  16.357  -6.520  1.00 20.00     0.002 C 
HETATM    4  C4  UNL     1     -33.930  15.151  -6.445  1.00 20.00     0.024 C 
HETATM    5  C5  UNL     1     -35.418  16.471  -5.136  1.00 20.00     0.024 C 
HETATM    6  C6  UNL     1     -34.493  15.253  -5.022  1.00 20.00     0.050 C 
HETATM    7  N9  UNL     1     -35.865  13.087  -4.397  1.00 20.00    -0.196 NA
ENDROOT
BRANCH   6   8
HETATM    8  C7  UNL     1     -33.390  15.469  -3.986  1.00 20.00     0.039 C 
BRANCH   8   9
HETATM    9  C8  UNL     1     -33.336  16.893  -3.455  1.00 20.00     0.116 C 
HETATM   10 CL10 UNL     1     -33.546  16.959  -1.690  1.00 20.00    -0.130 Cl
ENDBRANCH   8   9
ENDBRANCH   6   8
TORSDOF 2
ENDMDL
MODEL 3
REMARK VINA RESULT:      -3.9     18.231     19.146
REMARK  2 active torsions:
REMARK  status: ('A' for Active; 'I' for Inactive)
REMARK    1  A    between atoms: C6_6  and  C7_7 
REMARK    2  A    between atoms: C7_7  and  C8_8 
ROOT
HETATM    1  C1  UNL     1     -41.522  13.684   4.912  1.00 20.00     0.069 C 
HETATM    2  C2  UNL     1     -41.705  14.883   7.731  1.00 20.00     0.002 C 
HETATM    3  C3  UNL     1     -42.941  13.993   7.615  1.00 20.00     0.002 C 
HETATM    4  C4  UNL     1     -40.541  14.074   7.156  1.00 20.00     0.024 C 
HETATM    5  C5  UNL     1     -42.468  12.687   6.976  1.00 20.00     0.024 C 
HETATM    6  C6  UNL     1     -41.192  13.058   6.210  1.00 20.00     0.050 C 
HETATM    7  N9  UNL     1     -41.780  14.176   3.893  1.00 20.00    -0.196 NA
ENDROOT
BRANCH   6   8
HETATM    8  C7  UNL     1     -40.296  11.843   5.972  1.00 20.00     0.039 C 
BRANCH   8   9
HETATM    9  C8  UNL     1     -38.957  12.200   5.342  1.00 20.00     0.116 C 
HETATM   10 CL10 UNL     1     -38.844  11.655   3.653  1.00 20.00    -0.130 Cl
ENDBRANCH   8   9
ENDBRANCH   6   8
TORSDOF 2
ENDMDL
MODEL 4
REMARK VINA RESULT:      -3.8     18.278     19.187
REMARK  2 active torsions:
REMARK  status: ('A' for Active; 'I' for Inactive)
REMARK    1  A    between atoms: C6_6  and  C7_7 
REMARK    2  A    between atoms: C7_7  and  C8_8 
ROOT
HETATM    1  C1  UNL     1     -42.356  12.340   7.055  1.00 20.00     0.069 C 
HETATM    2  C2  UNL     1     -42.075  15.059   5.659  1.00 20.00     0.002 C 
HETATM    3  C3  UNL     1     -41.364  15.243   6.999  1.00 20.00     0.002 C 
HETATM    4  C4  UNL     1     -41.619  13.703   5.118  1.00 20.00     0.024 C 
HETATM    5  C5  UNL     1     -40.511  13.991   7.206  1.00 20.00     0.024 C 
HETATM    6  C6  UNL     1     -41.184  12.908   6.354  1.00 20.00     0.050 C 
HETATM    7  N9  UNL     1     -43.276  11.895   7.604  1.00 20.00    -0.196 NA
ENDROOT
BRANCH   6   8
HETATM    8  C7  UNL     1     -40.216  11.781   5.996  1.00 20.00     0.039 C 
BRANCH   8   9
HETATM    9  C8  UNL     1     -38.964  12.269   5.282  1.00 20.00     0.116 C 
HETATM   10 CL10 UNL     1     -38.899  11.722   3.591  1.00 20.00    -0.130 Cl
ENDBRANCH   8   9
ENDBRANCH   6   8
TORSDOF 2
ENDMDL
MODEL 5
REMARK VINA RESULT:      -3.8     15.675     16.708
REMARK  2 active torsions:
REMARK  status: ('A' for Active; 'I' for Inactive)
REMARK    1  A    between atoms: C6_6  and  C7_7 
REMARK    2  A    between atoms: C7_7  and  C8_8 
ROOT
HETATM    1  C1  UNL     1     -33.149   6.071   3.593  1.00 20.00     0.069 C 
HETATM    2  C2  UNL     1     -35.268   5.153   5.615  1.00 20.00     0.002 C 
HETATM    3  C3  UNL     1     -33.987   5.282   6.438  1.00 20.00     0.002 C 
HETATM    4  C4  UNL     1     -35.332   6.396   4.726  1.00 20.00     0.024 C 
HETATM    5  C5  UNL     1     -33.336   6.598   6.010  1.00 20.00     0.024 C 
HETATM    6  C6  UNL     1     -33.879   6.870   4.602  1.00 20.00     0.050 C 
HETATM    7  N9  UNL     1     -32.577   5.445   2.802  1.00 20.00    -0.196 NA
ENDROOT
BRANCH   6   8
HETATM    8  C7  UNL     1     -33.792   8.351   4.232  1.00 20.00     0.039 C 
BRANCH   8   9
HETATM    9  C8  UNL     1     -32.495   8.717   3.526  1.00 20.00     0.116 C 
HETATM   10 CL10 UNL     1     -32.779   9.350   1.888  1.00 20.00    -0.130 Cl
ENDBRANCH   8   9
ENDBRANCH   6   8
TORSDOF 2
ENDMDL
MODEL 6
REMARK VINA RESULT:      -3.7     18.194     19.092
REMARK  2 active torsions:
REMARK  status: ('A' for Active; 'I' for Inactive)
REMARK    1  A    between atoms: C6_6  and  C7_7 
REMARK    2  A    between atoms: C7_7  and  C8_8 
ROOT
HETATM    1  C1  UNL     1     -40.766  14.286   7.554  1.00 20.00     0.069 C 
HETATM    2  C2  UNL     1     -43.413  13.149   6.497  1.00 20.00     0.002 C 
HETATM    3  C3  UNL     1     -42.990  14.172   5.443  1.00 20.00     0.002 C 
HETATM    4  C4  UNL     1     -42.155  12.355   6.850  1.00 20.00     0.024 C 
HETATM    5  C5  UNL     1     -41.496  13.949   5.208  1.00 20.00     0.024 C 
HETATM    6  C6  UNL     1     -40.986  13.282   6.491  1.00 20.00     0.050 C 
HETATM    7  N9  UNL     1     -40.592  15.074   8.388  1.00 20.00    -0.196 NA
ENDROOT
BRANCH   6   8
HETATM    8  C7  UNL     1     -39.692  12.503   6.256  1.00 20.00     0.039 C 
BRANCH   8   9
HETATM    9  C8  UNL     1     -39.846  11.375   5.247  1.00 20.00     0.116 C 
HETATM   10 CL10 UNL     1     -38.922  11.676   3.757  1.00 20.00    -0.130 Cl
ENDBRANCH   8   9
ENDBRANCH   6   8
TORSDOF 2
ENDMDL
MODEL 7
REMARK VINA RESULT:      -3.6     19.400     20.055
REMARK  2 active torsions:
REMARK  status: ('A' for Active; 'I' for Inactive)
REMARK    1  A    between atoms: C6_6  and  C7_7 
REMARK    2  A    between atoms: C7_7  and  C8_8 
ROOT
HETATM    1  C1  UNL     1     -34.137  15.305  -6.691  1.00 20.00     0.069 C 
HETATM    2  C2  UNL     1     -36.208  17.491  -6.100  1.00 20.00     0.002 C 
HETATM    3  C3  UNL     1     -37.031  16.209  -6.218  1.00 20.00     0.002 C 
HETATM    4  C4  UNL     1     -34.986  17.137  -5.251  1.00 20.00     0.024 C 
HETATM    5  C5  UNL     1     -36.269  15.139  -5.435  1.00 20.00     0.024 C 
HETATM    6  C6  UNL     1     -34.814  15.622  -5.415  1.00 20.00     0.050 C 
HETATM    7  N9  UNL     1     -33.605  15.056  -7.692  1.00 20.00    -0.196 NA
ENDROOT
BRANCH   6   8
HETATM    8  C7  UNL     1     -34.024  15.009  -4.259  1.00 20.00     0.039 C 
BRANCH   8   9
HETATM    9  C8  UNL     1     -33.016  15.969  -3.645  1.00 20.00     0.116 C 
HETATM   10 CL10 UNL     1     -33.534  16.554  -2.047  1.00 20.00    -0.130 Cl
ENDBRANCH   8   9
ENDBRANCH   6   8
TORSDOF 2
ENDMDL
MODEL 8
REMARK VINA RESULT:      -3.6     16.604     17.285
REMARK  2 active torsions:
REMARK  status: ('A' for Active; 'I' for Inactive)
REMARK    1  A    between atoms: C6_6  and  C7_7 
REMARK    2  A    between atoms: C7_7  and  C8_8 
ROOT
HETATM    1  C1  UNL     1     -35.247  18.557  -2.632  1.00 20.00     0.069 C 
HETATM    2  C2  UNL     1     -32.529  19.263  -1.394  1.00 20.00     0.002 C 
HETATM    3  C3  UNL     1     -33.047  18.107  -0.540  1.00 20.00     0.002 C 
HETATM    4  C4  UNL     1     -32.796  18.872  -2.848  1.00 20.00     0.024 C 
HETATM    5  C5  UNL     1     -33.604  17.071  -1.517  1.00 20.00     0.024 C 
HETATM    6  C6  UNL     1     -33.949  17.864  -2.783  1.00 20.00     0.050 C 
HETATM    7  N9  UNL     1     -36.264  19.101  -2.514  1.00 20.00    -0.196 NA
ENDROOT
BRANCH   6   8
HETATM    8  C7  UNL     1     -33.996  16.969  -4.022  1.00 20.00     0.039 C 
BRANCH   8   9
HETATM    9  C8  UNL     1     -33.218  15.672  -3.855  1.00 20.00     0.116 C 
HETATM   10 CL10 UNL     1     -34.247  14.240  -4.083  1.00 20.00    -0.130 Cl
ENDBRANCH   8   9
ENDBRANCH   6   8
TORSDOF 2
ENDMDL
MODEL 9
REMARK VINA RESULT:      -3.6     18.303     19.179
REMARK  2 active torsions:
REMARK  status: ('A' for Active; 'I' for Inactive)
REMARK    1  A    between atoms: C6_6  and  C7_7 
REMARK    2  A    between atoms: C7_7  and  C8_8 
ROOT
HETATM    1  C1  UNL     1     -42.387  12.648   7.030  1.00 20.00     0.069 C 
HETATM    2  C2  UNL     1     -42.255  15.667   7.564  1.00 20.00     0.002 C 
HETATM    3  C3  UNL     1     -41.104  15.085   8.382  1.00 20.00     0.002 C 
HETATM    4  C4  UNL     1     -42.200  14.978   6.199  1.00 20.00     0.024 C 
HETATM    5  C5  UNL     1     -40.405  14.072   7.475  1.00 20.00     0.024 C 
HETATM    6  C6  UNL     1     -41.469  13.654   6.453  1.00 20.00     0.050 C 
HETATM    7  N9  UNL     1     -43.107  11.858   7.482  1.00 20.00    -0.196 NA
ENDROOT
BRANCH   6   8
HETATM    8  C7  UNL     1     -40.844  13.094   5.175  1.00 20.00     0.039 C 
BRANCH   8   9
HETATM    9  C8  UNL     1     -39.836  11.985   5.437  1.00 20.00     0.116 C 
HETATM   10 CL10 UNL     1     -38.855  11.618   3.999  1.00 20.00    -0.130 Cl
ENDBRANCH   8   9
ENDBRANCH   6   8
TORSDOF 2
ENDMDL
