MODEL 1
REMARK VINA RESULT:      -4.3      0.000      0.000
REMARK  2 active torsions:
REMARK  status: ('A' for Active; 'I' for Inactive)
REMARK    1  A    between atoms: C6_6  and  C11_11 
REMARK    2  A    between atoms: C11_11  and  O12_12 
ROOT
HETATM    1  C1  UNL     1     -31.043  18.618   0.692  1.00 20.00    -0.024 C 
HETATM    2  C2  UNL     1     -31.850  18.931   1.720  1.00 20.00    -0.087 C 
HETATM    3  C3  UNL     1     -31.537  18.299  -0.688  1.00 20.00     0.035 C 
HETATM    4  C4  UNL     1     -33.347  19.023   1.558  1.00 20.00     0.034 C 
HETATM    5  C5  UNL     1     -33.810  19.042   0.098  1.00 20.00     0.012 C 
HETATM    6  C6  UNL     1     -33.046  18.012  -0.740  1.00 20.00     0.023 C 
HETATM    7  C7  UNL     1     -31.316  19.209   3.094  1.00 20.00     0.043 C 
ENDROOT
BRANCH   6   8
HETATM    8  C11 UNL     1     -33.546  17.994  -2.182  1.00 20.00     0.057 C 
HETATM    9  C8  UNL     1     -33.364  16.607  -2.797  1.00 20.00     0.046 C 
HETATM   10  C9  UNL     1     -32.828  19.051  -3.021  1.00 20.00     0.046 C 
BRANCH   8  11
HETATM   11  O12 UNL     1     -34.944  18.285  -2.184  1.00 20.00    -0.385 OA
HETATM   12  C10 UNL     1     -35.374  18.735  -3.458  1.00 20.00     0.202 C 
ENDBRANCH   8  11
ENDBRANCH   6   8
TORSDOF 2
ENDMDL
MODEL 2
REMARK VINA RESULT:      -4.1      1.012      2.025
REMARK  2 active torsions:
REMARK  status: ('A' for Active; 'I' for Inactive)
REMARK    1  A    between atoms: C6_6  and  C11_11 
REMARK    2  A    between atoms: C11_11  and  O12_12 
ROOT
HETATM    1  C1  UNL     1     -33.320  18.785   1.409  1.00 20.00    -0.024 C 
HETATM    2  C2  UNL     1     -31.996  18.894   1.609  1.00 20.00    -0.087 C 
HETATM    3  C3  UNL     1     -33.941  18.534   0.067  1.00 20.00     0.035 C 
HETATM    4  C4  UNL     1     -31.004  18.736   0.484  1.00 20.00     0.034 C 
HETATM    5  C5  UNL     1     -31.608  18.143  -0.793  1.00 20.00     0.012 C 
HETATM    6  C6  UNL     1     -32.972  18.768  -1.103  1.00 20.00     0.023 C 
HETATM    7  C7  UNL     1     -31.418  19.181   2.963  1.00 20.00     0.043 C 
ENDROOT
BRANCH   6   8
HETATM    8  C11 UNL     1     -33.549  18.215  -2.405  1.00 20.00     0.057 C 
HETATM    9  C8  UNL     1     -35.044  18.513  -2.499  1.00 20.00     0.046 C 
HETATM   10  C9  UNL     1     -33.293  16.712  -2.519  1.00 20.00     0.046 C 
BRANCH   8  11
HETATM   11  O12 UNL     1     -32.909  18.869  -3.501  1.00 20.00    -0.385 OA
HETATM   12  C10 UNL     1     -33.685  18.770  -4.683  1.00 20.00     0.202 C 
ENDBRANCH   8  11
ENDBRANCH   6   8
TORSDOF 2
ENDMDL
MODEL 3
REMARK VINA RESULT:      -4.1      3.310      5.377
REMARK  2 active torsions:
REMARK  status: ('A' for Active; 'I' for Inactive)
REMARK    1  A    between atoms: C6_6  and  C11_11 
REMARK    2  A    between atoms: C11_11  and  O12_12 
ROOT
HETATM    1  C1  UNL     1     -34.570  18.096  -3.397  1.00 20.00    -0.024 C 
HETATM    2  C2  UNL     1     -33.541  17.552  -2.727  1.00 20.00    -0.087 C 
HETATM    3  C3  UNL     1     -35.265  17.425  -4.545  1.00 20.00     0.035 C 
HETATM    4  C4  UNL     1     -33.010  16.179  -3.059  1.00 20.00     0.034 C 
HETATM    5  C5  UNL     1     -33.928  15.368  -3.978  1.00 20.00     0.012 C 
HETATM    6  C6  UNL     1     -34.478  16.234  -5.116  1.00 20.00     0.023 C 
HETATM    7  C7  UNL     1     -32.852  18.274  -1.606  1.00 20.00     0.043 C 
ENDROOT
BRANCH   6   8
HETATM    8  C11 UNL     1     -35.350  15.412  -6.063  1.00 20.00     0.057 C 
HETATM    9  C8  UNL     1     -36.391  16.299  -6.742  1.00 20.00     0.046 C 
HETATM   10  C9  UNL     1     -36.028  14.262  -5.319  1.00 20.00     0.046 C 
BRANCH   8  11
HETATM   11  O12 UNL     1     -34.518  14.863  -7.086  1.00 20.00    -0.385 OA
HETATM   12  C10 UNL     1     -33.985  15.881  -7.917  1.00 20.00     0.202 C 
ENDBRANCH   8  11
ENDBRANCH   6   8
TORSDOF 2
ENDMDL
MODEL 4
REMARK VINA RESULT:      -3.9      2.994      4.848
REMARK  2 active torsions:
REMARK  status: ('A' for Active; 'I' for Inactive)
REMARK    1  A    between atoms: C6_6  and  C11_11 
REMARK    2  A    between atoms: C11_11  and  O12_12 
ROOT
HETATM    1  C1  UNL     1     -33.257  16.193  -2.994  1.00 20.00    -0.024 C 
HETATM    2  C2  UNL     1     -33.271  17.489  -2.639  1.00 20.00    -0.087 C 
HETATM    3  C3  UNL     1     -33.914  15.662  -4.234  1.00 20.00     0.035 C 
HETATM    4  C4  UNL     1     -33.934  18.542  -3.492  1.00 20.00     0.034 C 
HETATM    5  C5  UNL     1     -34.290  18.060  -4.901  1.00 20.00     0.012 C 
HETATM    6  C6  UNL     1     -34.900  16.655  -4.870  1.00 20.00     0.023 C 
HETATM    7  C7  UNL     1     -32.631  17.972  -1.371  1.00 20.00     0.043 C 
ENDROOT
BRANCH   6   8
HETATM    8  C11 UNL     1     -35.305  16.198  -6.269  1.00 20.00     0.057 C 
HETATM    9  C8  UNL     1     -34.222  15.309  -6.878  1.00 20.00     0.046 C 
HETATM   10  C9  UNL     1     -35.586  17.397  -7.175  1.00 20.00     0.046 C 
BRANCH   8  11
HETATM   11  O12 UNL     1     -36.496  15.417  -6.167  1.00 20.00    -0.385 OA
HETATM   12  C10 UNL     1     -37.513  16.121  -5.473  1.00 20.00     0.202 C 
ENDBRANCH   8  11
ENDBRANCH   6   8
TORSDOF 2
ENDMDL
MODEL 5
REMARK VINA RESULT:      -3.9     11.173     12.715
REMARK  2 active torsions:
REMARK  status: ('A' for Active; 'I' for Inactive)
REMARK    1  A    between atoms: C6_6  and  C11_11 
REMARK    2  A    between atoms: C11_11  and  O12_12 
ROOT
HETATM    1  C1  UNL     1     -39.148  12.062   6.230  1.00 20.00    -0.024 C 
HETATM    2  C2  UNL     1     -39.641  12.233   4.993  1.00 20.00    -0.087 C 
HETATM    3  C3  UNL     1     -39.649  12.801   7.436  1.00 20.00     0.035 C 
HETATM    4  C4  UNL     1     -40.785  13.176   4.713  1.00 20.00     0.034 C 
HETATM    5  C5  UNL     1     -41.512  13.655   5.973  1.00 20.00     0.012 C 
HETATM    6  C6  UNL     1     -40.519  14.018   7.082  1.00 20.00     0.023 C 
HETATM    7  C7  UNL     1     -39.086  11.498   3.808  1.00 20.00     0.043 C 
ENDROOT
BRANCH   6   8
HETATM    8  C11 UNL     1     -41.242  14.547   8.319  1.00 20.00     0.057 C 
HETATM    9  C8  UNL     1     -42.504  15.308   7.919  1.00 20.00     0.046 C 
HETATM   10  C9  UNL     1     -40.319  15.437   9.151  1.00 20.00     0.046 C 
BRANCH   8  11
HETATM   11  O12 UNL     1     -41.645  13.436   9.120  1.00 20.00    -0.385 OA
HETATM   12  C10 UNL     1     -43.029  13.495   9.422  1.00 20.00     0.202 C 
ENDBRANCH   8  11
ENDBRANCH   6   8
TORSDOF 2
ENDMDL
MODEL 6
REMARK VINA RESULT:      -3.8     11.273     12.863
REMARK  2 active torsions:
REMARK  status: ('A' for Active; 'I' for Inactive)
REMARK    1  A    between atoms: C6_6  and  C11_11 
REMARK    2  A    between atoms: C11_11  and  O12_12 
ROOT
HETATM    1  C1  UNL     1     -40.748  13.135   4.642  1.00 20.00    -0.024 C 
HETATM    2  C2  UNL     1     -39.738  12.282   4.879  1.00 20.00    -0.087 C 
HETATM    3  C3  UNL     1     -41.493  13.864   5.721  1.00 20.00     0.035 C 
HETATM    4  C4  UNL     1     -39.236  12.008   6.275  1.00 20.00     0.034 C 
HETATM    5  C5  UNL     1     -39.752  13.000   7.321  1.00 20.00     0.012 C 
HETATM    6  C6  UNL     1     -41.244  13.288   7.124  1.00 20.00     0.023 C 
HETATM    7  C7  UNL     1     -39.043  11.546   3.771  1.00 20.00     0.043 C 
ENDROOT
BRANCH   6   8
HETATM    8  C11 UNL     1     -41.771  14.235   8.200  1.00 20.00     0.057 C 
HETATM    9  C8  UNL     1     -43.103  14.847   7.773  1.00 20.00     0.046 C 
HETATM   10  C9  UNL     1     -40.751  15.331   8.509  1.00 20.00     0.046 C 
BRANCH   8  11
HETATM   11  O12 UNL     1     -42.005  13.484   9.392  1.00 20.00    -0.385 OA
HETATM   12  C10 UNL     1     -41.420  14.115  10.520  1.00 20.00     0.202 C 
ENDBRANCH   8  11
ENDBRANCH   6   8
TORSDOF 2
ENDMDL
MODEL 7
REMARK VINA RESULT:      -3.8      2.037      5.529
REMARK  2 active torsions:
REMARK  status: ('A' for Active; 'I' for Inactive)
REMARK    1  A    between atoms: C6_6  and  C11_11 
REMARK    2  A    between atoms: C11_11  and  O12_12 
ROOT
HETATM    1  C1  UNL     1     -34.628  17.274  -5.339  1.00 20.00    -0.024 C 
HETATM    2  C2  UNL     1     -34.280  15.976  -5.361  1.00 20.00    -0.087 C 
HETATM    3  C3  UNL     1     -34.512  18.146  -4.124  1.00 20.00     0.035 C 
HETATM    4  C4  UNL     1     -33.703  15.285  -4.151  1.00 20.00     0.034 C 
HETATM    5  C5  UNL     1     -33.266  16.246  -3.042  1.00 20.00     0.012 C 
HETATM    6  C6  UNL     1     -34.304  17.352  -2.825  1.00 20.00     0.023 C 
HETATM    7  C7  UNL     1     -34.446  15.130  -6.589  1.00 20.00     0.043 C 
ENDROOT
BRANCH   6   8
HETATM    8  C11 UNL     1     -33.894  18.278  -1.682  1.00 20.00     0.057 C 
HETATM    9  C8  UNL     1     -35.015  19.263  -1.360  1.00 20.00     0.046 C 
HETATM   10  C9  UNL     1     -32.604  19.025  -2.022  1.00 20.00     0.046 C 
BRANCH   8  11
HETATM   11  O12 UNL     1     -33.666  17.487  -0.515  1.00 20.00    -0.385 OA
HETATM   12  C10 UNL     1     -33.401  18.303   0.615  1.00 20.00     0.202 C 
ENDBRANCH   8  11
ENDBRANCH   6   8
TORSDOF 2
ENDMDL
MODEL 8
REMARK VINA RESULT:      -3.7     10.859     12.460
REMARK  2 active torsions:
REMARK  status: ('A' for Active; 'I' for Inactive)
REMARK    1  A    between atoms: C6_6  and  C11_11 
REMARK    2  A    between atoms: C11_11  and  O12_12 
ROOT
HETATM    1  C1  UNL     1     -39.166  12.143   6.295  1.00 20.00    -0.024 C 
HETATM    2  C2  UNL     1     -39.666  12.269   5.054  1.00 20.00    -0.087 C 
HETATM    3  C3  UNL     1     -39.691  12.892   7.484  1.00 20.00     0.035 C 
HETATM    4  C4  UNL     1     -40.841  13.167   4.755  1.00 20.00     0.034 C 
HETATM    5  C5  UNL     1     -41.583  13.649   6.006  1.00 20.00     0.012 C 
HETATM    6  C6  UNL     1     -40.602  14.070   7.104  1.00 20.00     0.023 C 
HETATM    7  C7  UNL     1     -39.087  11.527   3.885  1.00 20.00     0.043 C 
ENDROOT
BRANCH   6   8
HETATM    8  C11 UNL     1     -41.341  14.602   8.330  1.00 20.00     0.057 C 
HETATM    9  C8  UNL     1     -40.397  14.698   9.527  1.00 20.00     0.046 C 
HETATM   10  C9  UNL     1     -42.545  13.721   8.665  1.00 20.00     0.046 C 
BRANCH   8  11
HETATM   11  O12 UNL     1     -41.809  15.920   8.044  1.00 20.00    -0.385 OA
HETATM   12  C10 UNL     1     -40.729  16.825   7.883  1.00 20.00     0.202 C 
ENDBRANCH   8  11
ENDBRANCH   6   8
TORSDOF 2
ENDMDL
MODEL 9
REMARK VINA RESULT:      -3.7     11.175     12.225
REMARK  2 active torsions:
REMARK  status: ('A' for Active; 'I' for Inactive)
REMARK    1  A    between atoms: C6_6  and  C11_11 
REMARK    2  A    between atoms: C11_11  and  O12_12 
ROOT
HETATM    1  C1  UNL     1     -41.917  16.650   7.415  1.00 20.00    -0.024 C 
HETATM    2  C2  UNL     1     -41.223  16.834   8.550  1.00 20.00    -0.087 C 
HETATM    3  C3  UNL     1     -41.882  15.381   6.614  1.00 20.00     0.035 C 
HETATM    4  C4  UNL     1     -40.361  15.748   9.143  1.00 20.00     0.034 C 
HETATM    5  C5  UNL     1     -40.599  14.366   8.527  1.00 20.00     0.012 C 
HETATM    6  C6  UNL     1     -40.722  14.452   7.002  1.00 20.00     0.023 C 
HETATM    7  C7  UNL     1     -41.259  18.133   9.301  1.00 20.00     0.043 C 
ENDROOT
BRANCH   6   8
HETATM    8  C11 UNL     1     -40.905  13.067   6.384  1.00 20.00     0.057 C 
HETATM    9  C8  UNL     1     -40.851  13.148   4.860  1.00 20.00     0.046 C 
HETATM   10  C9  UNL     1     -42.220  12.436   6.842  1.00 20.00     0.046 C 
BRANCH   8  11
HETATM   11  O12 UNL     1     -39.828  12.232   6.811  1.00 20.00    -0.385 OA
HETATM   12  C10 UNL     1     -38.902  12.012   5.760  1.00 20.00     0.202 C 
ENDBRANCH   8  11
ENDBRANCH   6   8
TORSDOF 2
ENDMDL
