MODEL 1
REMARK VINA RESULT:      -5.2      0.000      0.000
REMARK  2 active torsions:
REMARK  status: ('A' for Active; 'I' for Inactive)
REMARK    1  A    between atoms: C5_5  and  C9_9 
REMARK    2  A    between atoms: C9_9  and  O10_10 
ROOT
HETATM    1  C1  UNL     1     -32.132   7.670   3.424  1.00 20.00    -0.024 C 
HETATM    2  C2  UNL     1     -32.461   8.352   4.528  1.00 20.00    -0.087 C 
HETATM    3  C3  UNL     1     -32.938   6.421   3.285  1.00 20.00     0.035 C 
HETATM    4  C4  UNL     1     -33.546   7.664   5.298  1.00 20.00     0.041 C 
HETATM    5  C5  UNL     1     -34.084   6.652   4.277  1.00 20.00     0.026 C 
HETATM    6  C6  UNL     1     -31.849   9.615   5.016  1.00 20.00     0.043 C 
ENDROOT
BRANCH   5   7
HETATM    7  C9  UNL     1     -34.589   5.368   4.917  1.00 20.00     0.055 C 
HETATM    8  C7  UNL     1     -34.507   5.451   6.443  1.00 20.00     0.045 C 
HETATM    9  C8  UNL     1     -33.810   4.153   4.407  1.00 20.00     0.045 C 
BRANCH   7  10
HETATM   10  O10 UNL     1     -35.967   5.193   4.576  1.00 20.00    -0.390 OA
HETATM   11  H26 UNL     1     -36.231   5.994   4.099  1.00 20.00     0.210 HD
ENDBRANCH   7  10
ENDBRANCH   5   7
TORSDOF 2
ENDMDL
MODEL 2
REMARK VINA RESULT:      -4.9      1.158      2.257
REMARK  2 active torsions:
REMARK  status: ('A' for Active; 'I' for Inactive)
REMARK    1  A    between atoms: C5_5  and  C9_9 
REMARK    2  A    between atoms: C9_9  and  O10_10 
ROOT
HETATM    1  C1  UNL     1     -32.658   8.522   3.724  1.00 20.00    -0.024 C 
HETATM    2  C2  UNL     1     -32.491   7.708   2.675  1.00 20.00    -0.087 C 
HETATM    3  C3  UNL     1     -33.347   7.834   4.856  1.00 20.00     0.035 C 
HETATM    4  C4  UNL     1     -33.041   6.342   2.945  1.00 20.00     0.041 C 
HETATM    5  C5  UNL     1     -33.222   6.354   4.469  1.00 20.00     0.026 C 
HETATM    6  C6  UNL     1     -31.885   8.052   1.363  1.00 20.00     0.043 C 
ENDROOT
BRANCH   5   7
HETATM    7  C9  UNL     1     -34.399   5.513   4.938  1.00 20.00     0.055 C 
HETATM    8  C7  UNL     1     -35.703   5.999   4.303  1.00 20.00     0.045 C 
HETATM    9  C8  UNL     1     -34.513   5.525   6.465  1.00 20.00     0.045 C 
BRANCH   7  10
HETATM   10  O10 UNL     1     -34.198   4.162   4.514  1.00 20.00    -0.390 OA
HETATM   11  H26 UNL     1     -33.361   4.153   4.027  1.00 20.00     0.210 HD
ENDBRANCH   7  10
ENDBRANCH   5   7
TORSDOF 2
ENDMDL
MODEL 3
REMARK VINA RESULT:      -4.5      0.965      1.885
REMARK  2 active torsions:
REMARK  status: ('A' for Active; 'I' for Inactive)
REMARK    1  A    between atoms: C5_5  and  C9_9 
REMARK    2  A    between atoms: C9_9  and  O10_10 
ROOT
HETATM    1  C1  UNL     1     -32.838   8.741   3.610  1.00 20.00    -0.024 C 
HETATM    2  C2  UNL     1     -32.529   7.872   2.640  1.00 20.00    -0.087 C 
HETATM    3  C3  UNL     1     -33.530   8.075   4.752  1.00 20.00     0.035 C 
HETATM    4  C4  UNL     1     -32.966   6.482   2.987  1.00 20.00     0.041 C 
HETATM    5  C5  UNL     1     -33.243   6.590   4.493  1.00 20.00     0.026 C 
HETATM    6  C6  UNL     1     -31.876   8.174   1.340  1.00 20.00     0.043 C 
ENDROOT
BRANCH   5   7
HETATM    7  C9  UNL     1     -34.364   5.674   4.962  1.00 20.00     0.055 C 
HETATM    8  C7  UNL     1     -34.535   5.757   6.480  1.00 20.00     0.045 C 
HETATM    9  C8  UNL     1     -34.110   4.227   4.533  1.00 20.00     0.045 C 
BRANCH   7  10
HETATM   10  O10 UNL     1     -35.592   6.109   4.372  1.00 20.00    -0.390 OA
HETATM   11  H26 UNL     1     -35.607   5.740   3.477  1.00 20.00     0.210 HD
ENDBRANCH   7  10
ENDBRANCH   5   7
TORSDOF 2
ENDMDL
MODEL 4
REMARK VINA RESULT:      -4.2      2.135      4.039
REMARK  2 active torsions:
REMARK  status: ('A' for Active; 'I' for Inactive)
REMARK    1  A    between atoms: C5_5  and  C9_9 
REMARK    2  A    between atoms: C9_9  and  O10_10 
ROOT
HETATM    1  C1  UNL     1     -34.123   7.253   6.606  1.00 20.00    -0.024 C 
HETATM    2  C2  UNL     1     -34.395   6.119   5.948  1.00 20.00    -0.087 C 
HETATM    3  C3  UNL     1     -33.407   8.237   5.741  1.00 20.00     0.035 C 
HETATM    4  C4  UNL     1     -33.903   6.171   4.534  1.00 20.00     0.041 C 
HETATM    5  C5  UNL     1     -33.633   7.669   4.334  1.00 20.00     0.026 C 
HETATM    6  C6  UNL     1     -35.057   4.905   6.492  1.00 20.00     0.043 C 
ENDROOT
BRANCH   5   7
HETATM    7  C9  UNL     1     -32.477   7.946   3.385  1.00 20.00     0.055 C 
HETATM    8  C7  UNL     1     -32.738   9.209   2.563  1.00 20.00     0.045 C 
HETATM    9  C8  UNL     1     -32.224   6.752   2.460  1.00 20.00     0.045 C 
BRANCH   7  10
HETATM   10  O10 UNL     1     -31.294   8.176   4.154  1.00 20.00    -0.390 OA
HETATM   11  H26 UNL     1     -30.548   7.983   3.568  1.00 20.00     0.210 HD
ENDBRANCH   7  10
ENDBRANCH   5   7
TORSDOF 2
ENDMDL
MODEL 5
REMARK VINA RESULT:      -4.2     12.599     13.153
REMARK  2 active torsions:
REMARK  status: ('A' for Active; 'I' for Inactive)
REMARK    1  A    between atoms: C5_5  and  C9_9 
REMARK    2  A    between atoms: C9_9  and  O10_10 
ROOT
HETATM    1  C1  UNL     1     -33.135  18.651   0.837  1.00 20.00    -0.024 C 
HETATM    2  C2  UNL     1     -31.869  18.686   0.405  1.00 20.00    -0.087 C 
HETATM    3  C3  UNL     1     -34.067  18.153  -0.218  1.00 20.00     0.035 C 
HETATM    4  C4  UNL     1     -31.756  18.211  -1.011  1.00 20.00     0.041 C 
HETATM    5  C5  UNL     1     -33.108  17.519  -1.235  1.00 20.00     0.026 C 
HETATM    6  C6  UNL     1     -30.679  19.160   1.157  1.00 20.00     0.043 C 
ENDROOT
BRANCH   5   7
HETATM    7  C9  UNL     1     -33.603  17.626  -2.670  1.00 20.00     0.055 C 
HETATM    8  C7  UNL     1     -33.319  16.335  -3.441  1.00 20.00     0.045 C 
HETATM    9  C8  UNL     1     -32.971  18.823  -3.385  1.00 20.00     0.045 C 
BRANCH   7  10
HETATM   10  O10 UNL     1     -35.021  17.809  -2.656  1.00 20.00    -0.390 OA
HETATM   11  H26 UNL     1     -35.404  16.940  -2.464  1.00 20.00     0.210 HD
ENDBRANCH   7  10
ENDBRANCH   5   7
TORSDOF 2
ENDMDL
MODEL 6
REMARK VINA RESULT:      -4.1      1.382      2.241
REMARK  2 active torsions:
REMARK  status: ('A' for Active; 'I' for Inactive)
REMARK    1  A    between atoms: C5_5  and  C9_9 
REMARK    2  A    between atoms: C9_9  and  O10_10 
ROOT
HETATM    1  C1  UNL     1     -32.553   8.834   3.810  1.00 20.00    -0.024 C 
HETATM    2  C2  UNL     1     -32.489   7.892   2.862  1.00 20.00    -0.087 C 
HETATM    3  C3  UNL     1     -33.202   8.325   5.054  1.00 20.00     0.035 C 
HETATM    4  C4  UNL     1     -33.085   6.600   3.328  1.00 20.00     0.041 C 
HETATM    5  C5  UNL     1     -33.171   6.805   4.847  1.00 20.00     0.026 C 
HETATM    6  C6  UNL     1     -31.949   8.041   1.486  1.00 20.00     0.043 C 
ENDROOT
BRANCH   5   7
HETATM    7  C9  UNL     1     -34.355   6.091   5.481  1.00 20.00     0.055 C 
HETATM    8  C7  UNL     1     -33.978   4.665   5.885  1.00 20.00     0.045 C 
HETATM    9  C8  UNL     1     -35.561   6.076   4.537  1.00 20.00     0.045 C 
BRANCH   7  10
HETATM   10  O10 UNL     1     -34.728   6.786   6.673  1.00 20.00    -0.390 OA
HETATM   11  H26 UNL     1     -35.687   6.912   6.625  1.00 20.00     0.210 HD
ENDBRANCH   7  10
ENDBRANCH   5   7
TORSDOF 2
ENDMDL
MODEL 7
REMARK VINA RESULT:      -4.1     12.253     13.175
REMARK  2 active torsions:
REMARK  status: ('A' for Active; 'I' for Inactive)
REMARK    1  A    between atoms: C5_5  and  C9_9 
REMARK    2  A    between atoms: C9_9  and  O10_10 
ROOT
HETATM    1  C1  UNL     1     -33.532  18.210  -3.882  1.00 20.00    -0.024 C 
HETATM    2  C2  UNL     1     -33.206  17.443  -2.835  1.00 20.00    -0.087 C 
HETATM    3  C3  UNL     1     -34.150  17.412  -4.982  1.00 20.00     0.035 C 
HETATM    4  C4  UNL     1     -33.559  16.007  -3.072  1.00 20.00     0.041 C 
HETATM    5  C5  UNL     1     -34.505  16.095  -4.278  1.00 20.00     0.026 C 
HETATM    6  C6  UNL     1     -32.539  17.876  -1.580  1.00 20.00     0.043 C 
ENDROOT
BRANCH   5   7
HETATM    7  C9  UNL     1     -34.418  14.885  -5.196  1.00 20.00     0.055 C 
HETATM    8  C7  UNL     1     -34.070  15.309  -6.624  1.00 20.00     0.045 C 
HETATM    9  C8  UNL     1     -35.723  14.085  -5.180  1.00 20.00     0.045 C 
BRANCH   7  10
HETATM   10  O10 UNL     1     -33.364  14.034  -4.737  1.00 20.00    -0.390 OA
HETATM   11  H26 UNL     1     -33.134  13.462  -5.484  1.00 20.00     0.210 HD
ENDBRANCH   7  10
ENDBRANCH   5   7
TORSDOF 2
ENDMDL
MODEL 8
REMARK VINA RESULT:      -4.0     12.476     13.728
REMARK  2 active torsions:
REMARK  status: ('A' for Active; 'I' for Inactive)
REMARK    1  A    between atoms: C5_5  and  C9_9 
REMARK    2  A    between atoms: C9_9  and  O10_10 
ROOT
HETATM    1  C1  UNL     1     -33.119  15.235  -3.954  1.00 20.00    -0.024 C 
HETATM    2  C2  UNL     1     -33.619  16.426  -3.603  1.00 20.00    -0.087 C 
HETATM    3  C3  UNL     1     -33.789  14.691  -5.172  1.00 20.00     0.035 C 
HETATM    4  C4  UNL     1     -34.703  16.866  -4.538  1.00 20.00     0.041 C 
HETATM    5  C5  UNL     1     -34.510  15.923  -5.733  1.00 20.00     0.026 C 
HETATM    6  C6  UNL     1     -33.232  17.249  -2.428  1.00 20.00     0.043 C 
ENDROOT
BRANCH   5   7
HETATM    7  C9  UNL     1     -35.812  15.582  -6.443  1.00 20.00     0.055 C 
HETATM    8  C7  UNL     1     -35.885  16.271  -7.806  1.00 20.00     0.045 C 
HETATM    9  C8  UNL     1     -37.023  15.964  -5.587  1.00 20.00     0.045 C 
BRANCH   7  10
HETATM   10  O10 UNL     1     -35.854  14.172  -6.677  1.00 20.00    -0.390 OA
HETATM   11  H26 UNL     1     -36.295  14.053  -7.530  1.00 20.00     0.210 HD
ENDBRANCH   7  10
ENDBRANCH   5   7
TORSDOF 2
ENDMDL
MODEL 9
REMARK VINA RESULT:      -4.0     12.347     13.405
REMARK  2 active torsions:
REMARK  status: ('A' for Active; 'I' for Inactive)
REMARK    1  A    between atoms: C5_5  and  C9_9 
REMARK    2  A    between atoms: C9_9  and  O10_10 
ROOT
HETATM    1  C1  UNL     1     -33.660  17.156  -2.447  1.00 20.00    -0.024 C 
HETATM    2  C2  UNL     1     -34.588  17.893  -3.071  1.00 20.00    -0.087 C 
HETATM    3  C3  UNL     1     -33.260  15.968  -3.256  1.00 20.00     0.035 C 
HETATM    4  C4  UNL     1     -34.950  17.310  -4.403  1.00 20.00     0.041 C 
HETATM    5  C5  UNL     1     -33.809  16.312  -4.647  1.00 20.00     0.026 C 
HETATM    6  C6  UNL     1     -35.251  19.119  -2.559  1.00 20.00     0.043 C 
ENDROOT
BRANCH   5   7
HETATM    7  C9  UNL     1     -34.244  15.088  -5.438  1.00 20.00     0.055 C 
HETATM    8  C7  UNL     1     -33.898  15.246  -6.920  1.00 20.00     0.045 C 
HETATM    9  C8  UNL     1     -35.742  14.824  -5.267  1.00 20.00     0.045 C 
BRANCH   7  10
HETATM   10  O10 UNL     1     -33.529  13.948  -4.954  1.00 20.00    -0.390 OA
HETATM   11  H26 UNL     1     -33.891  13.753  -4.078  1.00 20.00     0.210 HD
ENDBRANCH   7  10
ENDBRANCH   5   7
TORSDOF 2
ENDMDL
