MODEL 1
REMARK VINA RESULT:      -4.8      0.000      0.000
REMARK  1 active torsions:
REMARK  status: ('A' for Active; 'I' for Inactive)
REMARK    1  A    between atoms: C2_2  and  C3_3 
ROOT
HETATM    1  C3  UNL     1     -34.535   5.652   4.500  1.00 20.00     0.423 C 
HETATM    2  F4  UNL     1     -34.459   4.489   5.199  1.00 20.00    -0.166 F 
HETATM    3  F5  UNL     1     -33.920   5.424   3.311  1.00 20.00    -0.166 F 
HETATM    4  F6  UNL     1     -35.848   5.856   4.220  1.00 20.00    -0.166 F 
ENDROOT
BRANCH   1   5
HETATM    5  C2  UNL     1     -33.941   6.795   5.254  1.00 20.00     0.085 C 
HETATM    6  C1  UNL     1     -34.168   7.028   6.553  1.00 20.00     0.036 C 
HETATM    7 BR7  UNL     1     -32.833   7.913   4.243  1.00 20.00    -0.047 Br
ENDBRANCH   1   5
TORSDOF 1
ENDMDL
MODEL 2
REMARK VINA RESULT:      -4.8      0.014      1.422
REMARK  1 active torsions:
REMARK  status: ('A' for Active; 'I' for Inactive)
REMARK    1  A    between atoms: C2_2  and  C3_3 
ROOT
HETATM    1  C3  UNL     1     -34.538   5.658   4.504  1.00 20.00     0.423 C 
HETATM    2  F4  UNL     1     -33.905   5.439   3.322  1.00 20.00    -0.166 F 
HETATM    3  F5  UNL     1     -35.849   5.850   4.205  1.00 20.00    -0.166 F 
HETATM    4  F6  UNL     1     -34.472   4.497   5.206  1.00 20.00    -0.166 F 
ENDROOT
BRANCH   1   5
HETATM    5  C2  UNL     1     -33.938   6.799   5.255  1.00 20.00     0.085 C 
HETATM    6  C1  UNL     1     -34.163   7.035   6.554  1.00 20.00     0.036 C 
HETATM    7 BR7  UNL     1     -32.826   7.911   4.242  1.00 20.00    -0.047 Br
ENDBRANCH   1   5
TORSDOF 1
ENDMDL
MODEL 3
REMARK VINA RESULT:      -4.6      1.212      1.945
REMARK  1 active torsions:
REMARK  status: ('A' for Active; 'I' for Inactive)
REMARK    1  A    between atoms: C2_2  and  C3_3 
ROOT
HETATM    1  C3  UNL     1     -34.823   5.670   4.943  1.00 20.00     0.423 C 
HETATM    2  F4  UNL     1     -36.010   5.936   4.337  1.00 20.00    -0.166 F 
HETATM    3  F5  UNL     1     -35.083   5.588   6.273  1.00 20.00    -0.166 F 
HETATM    4  F6  UNL     1     -34.452   4.424   4.548  1.00 20.00    -0.166 F 
ENDROOT
BRANCH   1   5
HETATM    5  C2  UNL     1     -33.787   6.691   4.613  1.00 20.00     0.085 C 
HETATM    6  C1  UNL     1     -33.560   7.786   5.350  1.00 20.00     0.036 C 
HETATM    7 BR7  UNL     1     -32.801   6.340   3.062  1.00 20.00    -0.047 Br
ENDBRANCH   1   5
TORSDOF 1
ENDMDL
MODEL 4
REMARK VINA RESULT:      -4.6      1.278      2.006
REMARK  1 active torsions:
REMARK  status: ('A' for Active; 'I' for Inactive)
REMARK    1  A    between atoms: C2_2  and  C3_3 
ROOT
HETATM    1  C3  UNL     1     -34.720   5.817   4.933  1.00 20.00     0.423 C 
HETATM    2  F4  UNL     1     -34.576   4.497   5.224  1.00 20.00    -0.166 F 
HETATM    3  F5  UNL     1     -35.943   5.950   4.357  1.00 20.00    -0.166 F 
HETATM    4  F6  UNL     1     -34.781   6.476   6.119  1.00 20.00    -0.166 F 
ENDROOT
BRANCH   1   5
HETATM    5  C2  UNL     1     -33.611   6.321   4.072  1.00 20.00     0.085 C 
HETATM    6  C1  UNL     1     -33.118   5.650   3.023  1.00 20.00     0.036 C 
HETATM    7 BR7  UNL     1     -32.933   7.995   4.562  1.00 20.00    -0.047 Br
ENDBRANCH   1   5
TORSDOF 1
ENDMDL
MODEL 5
REMARK VINA RESULT:      -4.6      1.261      1.852
REMARK  1 active torsions:
REMARK  status: ('A' for Active; 'I' for Inactive)
REMARK    1  A    between atoms: C2_2  and  C3_3 
ROOT
HETATM    1  C3  UNL     1     -34.744   5.721   4.914  1.00 20.00     0.423 C 
HETATM    2  F4  UNL     1     -34.855   6.070   6.222  1.00 20.00    -0.166 F 
HETATM    3  F5  UNL     1     -34.567   4.374   4.892  1.00 20.00    -0.166 F 
HETATM    4  F6  UNL     1     -35.952   5.957   4.340  1.00 20.00    -0.166 F 
ENDROOT
BRANCH   1   5
HETATM    5  C2  UNL     1     -33.647   6.465   4.229  1.00 20.00     0.085 C 
HETATM    6  C1  UNL     1     -33.008   6.014   3.142  1.00 20.00     0.036 C 
HETATM    7 BR7  UNL     1     -33.206   8.108   5.007  1.00 20.00    -0.047 Br
ENDBRANCH   1   5
TORSDOF 1
ENDMDL
MODEL 6
REMARK VINA RESULT:      -4.6      1.262      2.245
REMARK  1 active torsions:
REMARK  status: ('A' for Active; 'I' for Inactive)
REMARK    1  A    between atoms: C2_2  and  C3_3 
ROOT
HETATM    1  C3  UNL     1     -34.749   5.691   4.888  1.00 20.00     0.423 C 
HETATM    2  F4  UNL     1     -35.956   5.950   4.322  1.00 20.00    -0.166 F 
HETATM    3  F5  UNL     1     -34.882   5.963   6.213  1.00 20.00    -0.166 F 
HETATM    4  F6  UNL     1     -34.548   4.352   4.790  1.00 20.00    -0.166 F 
ENDROOT
BRANCH   1   5
HETATM    5  C2  UNL     1     -33.652   6.469   4.241  1.00 20.00     0.085 C 
HETATM    6  C1  UNL     1     -32.993   6.058   3.150  1.00 20.00     0.036 C 
HETATM    7 BR7  UNL     1     -33.242   8.094   5.072  1.00 20.00    -0.047 Br
ENDBRANCH   1   5
TORSDOF 1
ENDMDL
MODEL 7
REMARK VINA RESULT:      -4.4      1.736      2.130
REMARK  1 active torsions:
REMARK  status: ('A' for Active; 'I' for Inactive)
REMARK    1  A    between atoms: C2_2  and  C3_3 
ROOT
HETATM    1  C3  UNL     1     -34.450   6.184   5.677  1.00 20.00     0.423 C 
HETATM    2  F4  UNL     1     -34.660   7.008   6.736  1.00 20.00    -0.166 F 
HETATM    3  F5  UNL     1     -33.987   5.014   6.189  1.00 20.00    -0.166 F 
HETATM    4  F6  UNL     1     -35.669   5.912   5.143  1.00 20.00    -0.166 F 
ENDROOT
BRANCH   1   5
HETATM    5  C2  UNL     1     -33.524   6.788   4.675  1.00 20.00     0.085 C 
HETATM    6  C1  UNL     1     -32.973   8.002   4.807  1.00 20.00     0.036 C 
HETATM    7 BR7  UNL     1     -33.174   5.718   3.181  1.00 20.00    -0.047 Br
ENDBRANCH   1   5
TORSDOF 1
ENDMDL
MODEL 8
REMARK VINA RESULT:      -4.3      2.447      2.887
REMARK  1 active torsions:
REMARK  status: ('A' for Active; 'I' for Inactive)
REMARK    1  A    between atoms: C2_2  and  C3_3 
ROOT
HETATM    1  C3  UNL     1     -33.381   7.371   4.946  1.00 20.00     0.423 C 
HETATM    2  F4  UNL     1     -33.193   7.259   6.287  1.00 20.00    -0.166 F 
HETATM    3  F5  UNL     1     -34.191   8.445   4.761  1.00 20.00    -0.166 F 
HETATM    4  F6  UNL     1     -32.178   7.702   4.407  1.00 20.00    -0.166 F 
ENDROOT
BRANCH   1   5
HETATM    5  C2  UNL     1     -33.931   6.117   4.354  1.00 20.00     0.085 C 
HETATM    6  C1  UNL     1     -34.997   5.469   4.840  1.00 20.00     0.036 C 
HETATM    7 BR7  UNL     1     -33.012   5.487   2.851  1.00 20.00    -0.047 Br
ENDBRANCH   1   5
TORSDOF 1
ENDMDL
MODEL 9
REMARK VINA RESULT:      -4.3      2.449      2.829
REMARK  1 active torsions:
REMARK  status: ('A' for Active; 'I' for Inactive)
REMARK    1  A    between atoms: C2_2  and  C3_3 
ROOT
HETATM    1  C3  UNL     1     -32.991   7.609   4.291  1.00 20.00     0.423 C 
HETATM    2  F4  UNL     1     -32.488   6.811   3.313  1.00 20.00    -0.166 F 
HETATM    3  F5  UNL     1     -31.924   8.201   4.888  1.00 20.00    -0.166 F 
HETATM    4  F6  UNL     1     -33.682   8.601   3.672  1.00 20.00    -0.166 F 
ENDROOT
BRANCH   1   5
HETATM    5  C2  UNL     1     -33.846   6.847   5.248  1.00 20.00     0.085 C 
HETATM    6  C1  UNL     1     -34.069   7.227   6.512  1.00 20.00     0.036 C 
HETATM    7 BR7  UNL     1     -34.604   5.284   4.553  1.00 20.00    -0.047 Br
ENDBRANCH   1   5
TORSDOF 1
ENDMDL
