MODEL 1
REMARK VINA RESULT:      -4.0      0.000      0.000
REMARK  0 active torsions:
REMARK  status: ('A' for Active; 'I' for Inactive)
ROOT
HETATM    1  C1  UNL     1     -25.330  17.050  12.220  1.00 20.00     0.005 C 
HETATM    2  C2  UNL     1     -25.275  18.583  12.247  1.00 20.00     0.008 C 
HETATM    3  C3  UNL     1     -23.063  17.764  12.332  1.00 20.00     0.012 C 
HETATM    4  C4  UNL     1     -23.840  16.979  10.205  1.00 20.00     0.047 C 
HETATM    5  C5  UNL     1     -23.929  16.666  11.715  1.00 20.00    -0.011 C 
HETATM    6  C6  UNL     1     -23.873  18.893  11.678  1.00 20.00     0.025 C 
HETATM    7  C7  UNL     1     -23.768  18.523  10.175  1.00 20.00     0.117 C 
HETATM    8 CL8  UNL     1     -25.050  19.238   9.167  1.00 20.00    -0.101 Cl
HETATM    9 CL9  UNL     1     -22.189  19.064   9.510  1.00 20.00    -0.101 Cl
ENDROOT
TORSDOF 0
ENDMDL
MODEL 2
REMARK VINA RESULT:      -3.7     23.135     24.082
REMARK  0 active torsions:
REMARK  status: ('A' for Active; 'I' for Inactive)
ROOT
HETATM    1  C1  UNL     1     -42.313   8.479  -0.658  1.00 20.00     0.005 C 
HETATM    2  C2  UNL     1     -41.034   8.139   0.118  1.00 20.00     0.008 C 
HETATM    3  C3  UNL     1     -42.886   7.537   1.451  1.00 20.00     0.012 C 
HETATM    4  C4  UNL     1     -43.122   6.114  -0.462  1.00 20.00     0.047 C 
HETATM    5  C5  UNL     1     -43.363   7.568  -0.001  1.00 20.00    -0.011 C 
HETATM    6  C6  UNL     1     -41.491   7.016   1.074  1.00 20.00     0.025 C 
HETATM    7  C7  UNL     1     -41.841   5.715   0.306  1.00 20.00     0.117 C 
HETATM    8 CL8  UNL     1     -40.549   5.153  -0.783  1.00 20.00    -0.101 Cl
HETATM    9 CL9  UNL     1     -42.192   4.385   1.462  1.00 20.00    -0.101 Cl
ENDROOT
TORSDOF 0
ENDMDL
MODEL 3
REMARK VINA RESULT:      -3.7     15.694     16.691
REMARK  0 active torsions:
REMARK  status: ('A' for Active; 'I' for Inactive)
ROOT
HETATM    1  C1  UNL     1     -33.708   4.400   4.709  1.00 20.00     0.005 C 
HETATM    2  C2  UNL     1     -33.739   5.279   3.452  1.00 20.00     0.008 C 
HETATM    3  C3  UNL     1     -35.514   5.942   4.859  1.00 20.00     0.012 C 
HETATM    4  C4  UNL     1     -33.576   6.423   6.184  1.00 20.00     0.047 C 
HETATM    5  C5  UNL     1     -34.474   5.248   5.738  1.00 20.00    -0.011 C 
HETATM    6  C6  UNL     1     -34.452   6.559   3.937  1.00 20.00     0.025 C 
HETATM    7  C7  UNL     1     -33.584   7.353   4.948  1.00 20.00     0.117 C 
HETATM    8 CL8  UNL     1     -31.941   7.708   4.361  1.00 20.00    -0.101 Cl
HETATM    9 CL9  UNL     1     -34.368   8.919   5.348  1.00 20.00    -0.101 Cl
ENDROOT
TORSDOF 0
ENDMDL
MODEL 4
REMARK VINA RESULT:      -3.6      2.060      3.563
REMARK  0 active torsions:
REMARK  status: ('A' for Active; 'I' for Inactive)
ROOT
HETATM    1  C1  UNL     1     -21.300  17.582   8.790  1.00 20.00     0.005 C 
HETATM    2  C2  UNL     1     -21.293  19.018   9.332  1.00 20.00     0.008 C 
HETATM    3  C3  UNL     1     -23.460  18.545   8.526  1.00 20.00     0.012 C 
HETATM    4  C4  UNL     1     -23.197  16.964  10.307  1.00 20.00     0.047 C 
HETATM    5  C5  UNL     1     -22.790  17.207   8.837  1.00 20.00    -0.011 C 
HETATM    6  C6  UNL     1     -22.772  19.262   9.697  1.00 20.00     0.025 C 
HETATM    7  C7  UNL     1     -23.218  18.391  10.901  1.00 20.00     0.117 C 
HETATM    8 CL8  UNL     1     -22.164  18.543  12.328  1.00 20.00    -0.101 Cl
HETATM    9 CL9  UNL     1     -24.884  18.835  11.408  1.00 20.00    -0.101 Cl
ENDROOT
TORSDOF 0
ENDMDL
MODEL 5
REMARK VINA RESULT:      -3.6     23.268     24.204
REMARK  0 active torsions:
REMARK  status: ('A' for Active; 'I' for Inactive)
ROOT
HETATM    1  C1  UNL     1     -40.837   7.765   1.094  1.00 20.00     0.005 C 
HETATM    2  C2  UNL     1     -42.288   7.499   1.515  1.00 20.00     0.008 C 
HETATM    3  C3  UNL     1     -42.223   7.672  -0.838  1.00 20.00     0.012 C 
HETATM    4  C4  UNL     1     -40.850   5.756  -0.407  1.00 20.00     0.047 C 
HETATM    5  C5  UNL     1     -40.816   7.300  -0.372  1.00 20.00    -0.011 C 
HETATM    6  C6  UNL     1     -42.903   6.841   0.261  1.00 20.00     0.025 C 
HETATM    7  C7  UNL     1     -42.306   5.433   0.000  1.00 20.00     0.117 C 
HETATM    8 CL8  UNL     1     -42.387   4.346   1.408  1.00 20.00    -0.101 Cl
HETATM    9 CL9  UNL     1     -43.172   4.631  -1.355  1.00 20.00    -0.101 Cl
ENDROOT
TORSDOF 0
ENDMDL
MODEL 6
REMARK VINA RESULT:      -3.5      2.381      3.658
REMARK  0 active torsions:
REMARK  status: ('A' for Active; 'I' for Inactive)
ROOT
HETATM    1  C1  UNL     1     -22.397  18.024   7.770  1.00 20.00     0.005 C 
HETATM    2  C2  UNL     1     -21.744  17.017   8.725  1.00 20.00     0.008 C 
HETATM    3  C3  UNL     1     -21.367  19.187   9.573  1.00 20.00     0.012 C 
HETATM    4  C4  UNL     1     -23.755  18.996   9.641  1.00 20.00     0.047 C 
HETATM    5  C5  UNL     1     -22.591  19.263   8.660  1.00 20.00    -0.011 C 
HETATM    6  C6  UNL     1     -21.715  17.775  10.069  1.00 20.00     0.025 C 
HETATM    7  C7  UNL     1     -23.142  17.989  10.640  1.00 20.00     0.117 C 
HETATM    8 CL8  UNL     1     -24.098  16.492  10.761  1.00 20.00    -0.101 Cl
HETATM    9 CL9  UNL     1     -23.054  18.710  12.283  1.00 20.00    -0.101 Cl
ENDROOT
TORSDOF 0
ENDMDL
MODEL 7
REMARK VINA RESULT:      -3.3     15.121     16.122
REMARK  0 active torsions:
REMARK  status: ('A' for Active; 'I' for Inactive)
ROOT
HETATM    1  C1  UNL     1     -31.546   8.000   4.157  1.00 20.00     0.005 C 
HETATM    2  C2  UNL     1     -32.544   8.601   5.155  1.00 20.00     0.008 C 
HETATM    3  C3  UNL     1     -33.665   8.261   3.106  1.00 20.00     0.012 C 
HETATM    4  C4  UNL     1     -33.052   6.037   3.754  1.00 20.00     0.047 C 
HETATM    5  C5  UNL     1     -32.462   7.319   3.126  1.00 20.00    -0.011 C 
HETATM    6  C6  UNL     1     -33.910   8.124   4.617  1.00 20.00     0.025 C 
HETATM    7  C7  UNL     1     -34.082   6.589   4.766  1.00 20.00     0.117 C 
HETATM    8 CL8  UNL     1     -33.791   5.992   6.418  1.00 20.00    -0.101 Cl
HETATM    9 CL9  UNL     1     -35.746   6.101   4.298  1.00 20.00    -0.101 Cl
ENDROOT
TORSDOF 0
ENDMDL
MODEL 8
REMARK VINA RESULT:      -3.1     19.470     20.305
REMARK  0 active torsions:
REMARK  status: ('A' for Active; 'I' for Inactive)
ROOT
HETATM    1  C1  UNL     1     -27.640  -0.425  10.238  1.00 20.00     0.005 C 
HETATM    2  C2  UNL     1     -27.292  -0.239  11.720  1.00 20.00     0.008 C 
HETATM    3  C3  UNL     1     -28.210  -2.396  11.443  1.00 20.00     0.012 C 
HETATM    4  C4  UNL     1     -26.222  -2.488  10.109  1.00 20.00     0.047 C 
HETATM    5  C5  UNL     1     -27.671  -1.954  10.083  1.00 20.00    -0.011 C 
HETATM    6  C6  UNL     1     -27.088  -1.687  12.217  1.00 20.00     0.025 C 
HETATM    7  C7  UNL     1     -25.823  -2.335  11.595  1.00 20.00     0.117 C 
HETATM    8 CL8  UNL     1     -24.344  -1.365  11.799  1.00 20.00    -0.101 Cl
HETATM    9 CL9  UNL     1     -25.521  -3.946  12.332  1.00 20.00    -0.101 Cl
ENDROOT
TORSDOF 0
ENDMDL
MODEL 9
REMARK VINA RESULT:      -3.0     19.330     20.368
REMARK  0 active torsions:
REMARK  status: ('A' for Active; 'I' for Inactive)
ROOT
HETATM    1  C1  UNL     1     -34.447  17.519  -6.882  1.00 20.00     0.005 C 
HETATM    2  C2  UNL     1     -35.165  17.706  -5.539  1.00 20.00     0.008 C 
HETATM    3  C3  UNL     1     -36.278  16.006  -6.739  1.00 20.00     0.012 C 
HETATM    4  C4  UNL     1     -34.092  15.082  -6.411  1.00 20.00     0.047 C 
HETATM    5  C5  UNL     1     -34.856  16.094  -7.292  1.00 20.00    -0.011 C 
HETATM    6  C6  UNL     1     -35.836  16.335  -5.305  1.00 20.00     0.025 C 
HETATM    7  C7  UNL     1     -34.789  15.221  -5.038  1.00 20.00     0.117 C 
HETATM    8 CL8  UNL     1     -33.641  15.612  -3.735  1.00 20.00    -0.101 Cl
HETATM    9 CL9  UNL     1     -35.612  13.687  -4.594  1.00 20.00    -0.101 Cl
ENDROOT
TORSDOF 0
ENDMDL
