MODEL 1
REMARK VINA RESULT:      -4.3      0.000      0.000
REMARK  2 active torsions:
REMARK  status: ('A' for Active; 'I' for Inactive)
REMARK    1  A    between atoms: C1_1  and  C2_2 
REMARK    2  A    between atoms: C3_3  and  C4_4 
ROOT
HETATM    1  C1  UNL     1     -32.778   7.250   3.870  1.00 20.00     0.051 C 
HETATM    2  C3  UNL     1     -33.445   6.089   3.760  1.00 20.00    -0.014 C 
HETATM    3  C5  UNL     1     -33.161   4.978   2.787  1.00 20.00     0.052 C 
ENDROOT
BRANCH   2   4
HETATM    4  C4  UNL     1     -34.611   5.817   4.683  1.00 20.00     0.151 C 
HETATM    5  C6  UNL     1     -34.366   5.303   6.081  1.00 20.00     0.096 C 
HETATM    6  O8  UNL     1     -35.763   6.017   4.296  1.00 20.00    -0.293 OA
ENDBRANCH   2   4
BRANCH   1   7
HETATM    7  C2  UNL     1     -33.096   8.316   4.847  1.00 20.00     0.259 C 
HETATM    8  O7  UNL     1     -32.284   9.191   5.130  1.00 20.00    -0.302 OA
ENDBRANCH   1   7
TORSDOF 2
ENDMDL
MODEL 2
REMARK VINA RESULT:      -4.1      0.876      2.163
REMARK  2 active torsions:
REMARK  status: ('A' for Active; 'I' for Inactive)
REMARK    1  A    between atoms: C1_1  and  C2_2 
REMARK    2  A    between atoms: C3_3  and  C4_4 
ROOT
HETATM    1  C1  UNL     1     -33.590   7.368   5.987  1.00 20.00     0.051 C 
HETATM    2  C3  UNL     1     -34.245   6.214   5.779  1.00 20.00    -0.014 C 
HETATM    3  C5  UNL     1     -34.633   5.200   6.819  1.00 20.00     0.052 C 
ENDROOT
BRANCH   2   4
HETATM    4  C4  UNL     1     -34.660   5.844   4.372  1.00 20.00     0.151 C 
HETATM    5  C6  UNL     1     -33.647   5.273   3.410  1.00 20.00     0.096 C 
HETATM    6  O8  UNL     1     -35.825   6.009   4.010  1.00 20.00    -0.293 OA
ENDBRANCH   2   4
BRANCH   1   7
HETATM    7  C2  UNL     1     -33.230   8.337   4.927  1.00 20.00     0.259 C 
HETATM    8  O7  UNL     1     -32.109   8.357   4.429  1.00 20.00    -0.302 OA
ENDBRANCH   1   7
TORSDOF 2
ENDMDL
MODEL 3
REMARK VINA RESULT:      -4.0      1.459      2.290
REMARK  2 active torsions:
REMARK  status: ('A' for Active; 'I' for Inactive)
REMARK    1  A    between atoms: C1_1  and  C2_2 
REMARK    2  A    between atoms: C3_3  and  C4_4 
ROOT
HETATM    1  C1  UNL     1     -33.187   7.772   4.960  1.00 20.00     0.051 C 
HETATM    2  C3  UNL     1     -34.021   6.870   5.504  1.00 20.00    -0.014 C 
HETATM    3  C5  UNL     1     -34.392   6.751   6.957  1.00 20.00     0.052 C 
ENDROOT
BRANCH   2   4
HETATM    4  C4  UNL     1     -34.684   5.847   4.612  1.00 20.00     0.151 C 
HETATM    5  C6  UNL     1     -33.971   4.559   4.277  1.00 20.00     0.096 C 
HETATM    6  O8  UNL     1     -35.808   6.062   4.156  1.00 20.00    -0.293 OA
ENDBRANCH   2   4
BRANCH   1   7
HETATM    7  C2  UNL     1     -32.852   7.851   3.520  1.00 20.00     0.259 C 
HETATM    8  O7  UNL     1     -31.894   7.246   3.049  1.00 20.00    -0.302 OA
ENDBRANCH   1   7
TORSDOF 2
ENDMDL
MODEL 4
REMARK VINA RESULT:      -3.9      1.775      2.721
REMARK  2 active torsions:
REMARK  status: ('A' for Active; 'I' for Inactive)
REMARK    1  A    between atoms: C1_1  and  C2_2 
REMARK    2  A    between atoms: C3_3  and  C4_4 
ROOT
HETATM    1  C1  UNL     1     -32.927   6.851   3.477  1.00 20.00     0.051 C 
HETATM    2  C3  UNL     1     -33.623   7.104   4.598  1.00 20.00    -0.014 C 
HETATM    3  C5  UNL     1     -33.464   8.292   5.505  1.00 20.00     0.052 C 
ENDROOT
BRANCH   2   4
HETATM    4  C4  UNL     1     -34.688   6.127   5.040  1.00 20.00     0.151 C 
HETATM    5  C6  UNL     1     -34.492   5.310   6.295  1.00 20.00     0.096 C 
HETATM    6  O8  UNL     1     -35.719   5.997   4.378  1.00 20.00    -0.293 OA
ENDBRANCH   2   4
BRANCH   1   7
HETATM    7  C2  UNL     1     -33.120   5.663   2.613  1.00 20.00     0.259 C 
HETATM    8  O7  UNL     1     -32.506   4.620   2.808  1.00 20.00    -0.302 OA
ENDBRANCH   1   7
TORSDOF 2
ENDMDL
MODEL 5
REMARK VINA RESULT:      -3.9      1.973      3.714
REMARK  2 active torsions:
REMARK  status: ('A' for Active; 'I' for Inactive)
REMARK    1  A    between atoms: C1_1  and  C2_2 
REMARK    2  A    between atoms: C3_3  and  C4_4 
ROOT
HETATM    1  C1  UNL     1     -34.126   6.874   5.002  1.00 20.00     0.051 C 
HETATM    2  C3  UNL     1     -33.111   7.487   4.370  1.00 20.00    -0.014 C 
HETATM    3  C5  UNL     1     -32.348   8.690   4.852  1.00 20.00     0.052 C 
ENDROOT
BRANCH   2   4
HETATM    4  C4  UNL     1     -32.647   6.957   3.033  1.00 20.00     0.151 C 
HETATM    5  C6  UNL     1     -32.244   7.914   1.937  1.00 20.00     0.096 C 
HETATM    6  O8  UNL     1     -32.596   5.742   2.836  1.00 20.00    -0.293 OA
ENDBRANCH   2   4
BRANCH   1   7
HETATM    7  C2  UNL     1     -34.848   5.689   4.486  1.00 20.00     0.259 C 
HETATM    8  O7  UNL     1     -34.765   4.596   5.037  1.00 20.00    -0.302 OA
ENDBRANCH   1   7
TORSDOF 2
ENDMDL
MODEL 6
REMARK VINA RESULT:      -3.6     15.471     16.771
REMARK  2 active torsions:
REMARK  status: ('A' for Active; 'I' for Inactive)
REMARK    1  A    between atoms: C1_1  and  C2_2 
REMARK    2  A    between atoms: C3_3  and  C4_4 
ROOT
HETATM    1  C1  UNL     1     -21.803  18.261   9.818  1.00 20.00     0.051 C 
HETATM    2  C3  UNL     1     -22.535  18.231  10.944  1.00 20.00    -0.014 C 
HETATM    3  C5  UNL     1     -22.063  18.568  12.332  1.00 20.00     0.052 C 
ENDROOT
BRANCH   2   4
HETATM    4  C4  UNL     1     -23.988  17.823  10.868  1.00 20.00     0.151 C 
HETATM    5  C6  UNL     1     -24.404  16.425  11.257  1.00 20.00     0.096 C 
HETATM    6  O8  UNL     1     -24.836  18.633  10.489  1.00 20.00    -0.293 OA
ENDBRANCH   2   4
BRANCH   1   7
HETATM    7  C2  UNL     1     -22.313  17.920   8.470  1.00 20.00     0.259 C 
HETATM    8  O7  UNL     1     -21.995  16.877   7.907  1.00 20.00    -0.302 OA
ENDBRANCH   1   7
TORSDOF 2
ENDMDL
MODEL 7
REMARK VINA RESULT:      -3.6      1.502      2.975
REMARK  2 active torsions:
REMARK  status: ('A' for Active; 'I' for Inactive)
REMARK    1  A    between atoms: C1_1  and  C2_2 
REMARK    2  A    between atoms: C3_3  and  C4_4 
ROOT
HETATM    1  C1  UNL     1     -34.263   4.930   4.513  1.00 20.00     0.051 C 
HETATM    2  C3  UNL     1     -33.538   5.698   3.683  1.00 20.00    -0.014 C 
HETATM    3  C5  UNL     1     -32.939   5.283   2.368  1.00 20.00     0.052 C 
ENDROOT
BRANCH   2   4
HETATM    4  C4  UNL     1     -33.263   7.136   4.060  1.00 20.00     0.151 C 
HETATM    5  C6  UNL     1     -31.947   7.777   3.692  1.00 20.00     0.096 C 
HETATM    6  O8  UNL     1     -34.114   7.787   4.668  1.00 20.00    -0.293 OA
ENDBRANCH   2   4
BRANCH   1   7
HETATM    7  C2  UNL     1     -34.834   5.385   5.801  1.00 20.00     0.259 C 
HETATM    8  O7  UNL     1     -34.221   5.258   6.856  1.00 20.00    -0.302 OA
ENDBRANCH   1   7
TORSDOF 2
ENDMDL
MODEL 8
REMARK VINA RESULT:      -3.5      1.835      2.695
REMARK  2 active torsions:
REMARK  status: ('A' for Active; 'I' for Inactive)
REMARK    1  A    between atoms: C1_1  and  C2_2 
REMARK    2  A    between atoms: C3_3  and  C4_4 
ROOT
HETATM    1  C1  UNL     1     -33.271   6.094   3.280  1.00 20.00     0.051 C 
HETATM    2  C3  UNL     1     -33.971   6.156   4.426  1.00 20.00    -0.014 C 
HETATM    3  C5  UNL     1     -35.117   5.270   4.827  1.00 20.00     0.052 C 
ENDROOT
BRANCH   2   4
HETATM    4  C4  UNL     1     -33.611   7.205   5.453  1.00 20.00     0.151 C 
HETATM    5  C6  UNL     1     -33.624   8.667   5.078  1.00 20.00     0.096 C 
HETATM    6  O8  UNL     1     -33.307   6.867   6.598  1.00 20.00    -0.293 OA
ENDBRANCH   2   4
BRANCH   1   7
HETATM    7  C2  UNL     1     -32.146   6.990   2.928  1.00 20.00     0.259 C 
HETATM    8  O7  UNL     1     -32.173   7.689   1.920  1.00 20.00    -0.302 OA
ENDBRANCH   1   7
TORSDOF 2
ENDMDL
MODEL 9
REMARK VINA RESULT:      -3.4      1.375      3.142
REMARK  2 active torsions:
REMARK  status: ('A' for Active; 'I' for Inactive)
REMARK    1  A    between atoms: C1_1  and  C2_2 
REMARK    2  A    between atoms: C3_3  and  C4_4 
ROOT
HETATM    1  C1  UNL     1     -33.393   5.987   3.560  1.00 20.00     0.051 C 
HETATM    2  C3  UNL     1     -32.948   7.162   4.034  1.00 20.00    -0.014 C 
HETATM    3  C5  UNL     1     -31.881   8.030   3.426  1.00 20.00     0.052 C 
ENDROOT
BRANCH   2   4
HETATM    4  C4  UNL     1     -33.545   7.718   5.307  1.00 20.00     0.151 C 
HETATM    5  C6  UNL     1     -33.752   6.819   6.502  1.00 20.00     0.096 C 
HETATM    6  O8  UNL     1     -33.862   8.907   5.370  1.00 20.00    -0.293 OA
ENDBRANCH   2   4
BRANCH   1   7
HETATM    7  C2  UNL     1     -34.450   5.166   4.196  1.00 20.00     0.259 C 
HETATM    8  O7  UNL     1     -34.229   4.024   4.585  1.00 20.00    -0.302 OA
ENDBRANCH   1   7
TORSDOF 2
ENDMDL
