MODEL 1
REMARK VINA RESULT:      -3.5      0.000      0.000
REMARK  1 active torsions:
REMARK  status: ('A' for Active; 'I' for Inactive)
REMARK    1  A    between atoms: C1_1  and  O7_7 
ROOT
HETATM    1  C1  UNL     1     -33.892   6.886   4.432  1.00 20.00     0.294 A 
HETATM    2  C2  UNL     1     -34.322   5.587   5.078  1.00 20.00     0.106 A 
HETATM    3  C3  UNL     1     -34.063   4.301   4.359  1.00 20.00     0.051 C 
HETATM    4  C4  UNL     1     -34.539   5.499   6.556  1.00 20.00     0.051 C 
HETATM    5  O6  UNL     1     -35.259   6.444   4.409  1.00 20.00    -0.343 OA
ENDROOT
BRANCH   1   6
HETATM    6  O7  UNL     1     -33.606   7.993   5.301  1.00 20.00    -0.363 OA
HETATM    7  C5  UNL     1     -32.463   8.703   4.859  1.00 20.00     0.204 C 
ENDBRANCH   1   6
TORSDOF 1
ENDMDL
MODEL 2
REMARK VINA RESULT:      -3.4      1.472      2.536
REMARK  1 active torsions:
REMARK  status: ('A' for Active; 'I' for Inactive)
REMARK    1  A    between atoms: C1_1  and  O7_7 
ROOT
HETATM    1  C1  UNL     1     -34.161   5.382   4.193  1.00 20.00     0.294 A 
HETATM    2  C2  UNL     1     -34.387   6.169   5.466  1.00 20.00     0.106 A 
HETATM    3  C3  UNL     1     -34.728   5.432   6.721  1.00 20.00     0.051 C 
HETATM    4  C4  UNL     1     -33.827   7.547   5.626  1.00 20.00     0.051 C 
HETATM    5  O6  UNL     1     -35.394   6.072   4.448  1.00 20.00    -0.343 OA
ENDROOT
BRANCH   1   6
HETATM    6  O7  UNL     1     -33.310   5.968   3.196  1.00 20.00    -0.363 OA
HETATM    7  C5  UNL     1     -32.813   4.980   2.310  1.00 20.00     0.204 C 
ENDBRANCH   1   6
TORSDOF 1
ENDMDL
MODEL 3
REMARK VINA RESULT:      -3.3      1.244      3.470
REMARK  1 active torsions:
REMARK  status: ('A' for Active; 'I' for Inactive)
REMARK    1  A    between atoms: C1_1  and  O7_7 
ROOT
HETATM    1  C1  UNL     1     -33.756   7.228   5.310  1.00 20.00     0.294 A 
HETATM    2  C2  UNL     1     -32.811   7.954   4.377  1.00 20.00     0.106 A 
HETATM    3  C3  UNL     1     -32.037   9.123   4.897  1.00 20.00     0.051 C 
HETATM    4  C4  UNL     1     -32.275   7.282   3.153  1.00 20.00     0.051 C 
HETATM    5  O6  UNL     1     -34.230   8.173   4.337  1.00 20.00    -0.343 OA
ENDROOT
BRANCH   1   6
HETATM    6  O7  UNL     1     -34.032   5.847   5.029  1.00 20.00    -0.363 OA
HETATM    7  C5  UNL     1     -34.659   5.220   6.133  1.00 20.00     0.204 C 
ENDBRANCH   1   6
TORSDOF 1
ENDMDL
MODEL 4
REMARK VINA RESULT:      -3.0      1.489      1.848
REMARK  1 active torsions:
REMARK  status: ('A' for Active; 'I' for Inactive)
REMARK    1  A    between atoms: C1_1  and  O7_7 
ROOT
HETATM    1  C1  UNL     1     -33.928   7.596   4.821  1.00 20.00     0.294 A 
HETATM    2  C2  UNL     1     -34.117   6.136   4.470  1.00 20.00     0.106 A 
HETATM    3  C3  UNL     1     -35.398   5.462   4.846  1.00 20.00     0.051 C 
HETATM    4  C4  UNL     1     -33.317   5.499   3.378  1.00 20.00     0.051 C 
HETATM    5  O6  UNL     1     -33.328   6.546   5.596  1.00 20.00    -0.343 OA
ENDROOT
BRANCH   1   6
HETATM    6  O7  UNL     1     -33.030   8.361   4.002  1.00 20.00    -0.363 OA
HETATM    7  C5  UNL     1     -32.120   9.097   4.800  1.00 20.00     0.204 C 
ENDBRANCH   1   6
TORSDOF 1
ENDMDL
MODEL 5
REMARK VINA RESULT:      -3.0      9.494      9.910
REMARK  1 active torsions:
REMARK  status: ('A' for Active; 'I' for Inactive)
REMARK    1  A    between atoms: C1_1  and  O7_7 
ROOT
HETATM    1  C1  UNL     1     -40.949  13.772   7.391  1.00 20.00     0.294 A 
HETATM    2  C2  UNL     1     -40.601  12.954   6.165  1.00 20.00     0.106 A 
HETATM    3  C3  UNL     1     -41.129  13.385   4.834  1.00 20.00     0.051 C 
HETATM    4  C4  UNL     1     -39.404  12.057   6.156  1.00 20.00     0.051 C 
HETATM    5  O6  UNL     1     -41.622  12.540   7.086  1.00 20.00    -0.343 OA
ENDROOT
BRANCH   1   6
HETATM    6  O7  UNL     1     -40.034  13.728   8.496  1.00 20.00    -0.363 OA
HETATM    7  C5  UNL     1     -40.210  14.849   9.345  1.00 20.00     0.204 C 
ENDBRANCH   1   6
TORSDOF 1
ENDMDL
MODEL 6
REMARK VINA RESULT:      -3.0     16.329     17.049
REMARK  1 active torsions:
REMARK  status: ('A' for Active; 'I' for Inactive)
REMARK    1  A    between atoms: C1_1  and  O7_7 
ROOT
HETATM    1  C1  UNL     1     -24.534  18.362  10.976  1.00 20.00     0.294 A 
HETATM    2  C2  UNL     1     -23.021  18.368  11.025  1.00 20.00     0.106 A 
HETATM    3  C3  UNL     1     -22.259  18.797   9.812  1.00 20.00     0.051 C 
HETATM    4  C4  UNL     1     -22.296  18.431  12.332  1.00 20.00     0.051 C 
HETATM    5  O6  UNL     1     -23.766  17.155  10.840  1.00 20.00    -0.343 OA
ENDROOT
BRANCH   1   6
HETATM    6  O7  UNL     1     -25.236  18.521  12.218  1.00 20.00    -0.363 OA
HETATM    7  C5  UNL     1     -26.429  19.263  12.035  1.00 20.00     0.204 C 
ENDBRANCH   1   6
TORSDOF 1
ENDMDL
MODEL 7
REMARK VINA RESULT:      -2.9     13.022     13.475
REMARK  1 active torsions:
REMARK  status: ('A' for Active; 'I' for Inactive)
REMARK    1  A    between atoms: C1_1  and  O7_7 
ROOT
HETATM    1  C1  UNL     1     -31.459  18.413  -0.503  1.00 20.00     0.294 A 
HETATM    2  C2  UNL     1     -32.836  18.300  -1.122  1.00 20.00     0.106 A 
HETATM    3  C3  UNL     1     -33.136  17.136  -2.012  1.00 20.00     0.051 C 
HETATM    4  C4  UNL     1     -34.009  19.004  -0.517  1.00 20.00     0.051 C 
HETATM    5  O6  UNL     1     -31.841  19.190  -1.649  1.00 20.00    -0.343 OA
ENDROOT
BRANCH   1   6
HETATM    6  O7  UNL     1     -31.347  19.134   0.733  1.00 20.00    -0.363 OA
HETATM    7  C5  UNL     1     -30.721  18.343   1.727  1.00 20.00     0.204 C 
ENDBRANCH   1   6
TORSDOF 1
ENDMDL
MODEL 8
REMARK VINA RESULT:      -2.9      9.124      9.720
REMARK  1 active torsions:
REMARK  status: ('A' for Active; 'I' for Inactive)
REMARK    1  A    between atoms: C1_1  and  O7_7 
ROOT
HETATM    1  C1  UNL     1     -40.007  12.622   6.024  1.00 20.00     0.294 A 
HETATM    2  C2  UNL     1     -40.907  13.672   6.640  1.00 20.00     0.106 A 
HETATM    3  C3  UNL     1     -40.491  14.317   7.924  1.00 20.00     0.051 C 
HETATM    4  C4  UNL     1     -41.904  14.412   5.807  1.00 20.00     0.051 C 
HETATM    5  O6  UNL     1     -41.188  12.269   6.762  1.00 20.00    -0.343 OA
ENDROOT
BRANCH   1   6
HETATM    6  O7  UNL     1     -40.081  12.441   4.601  1.00 20.00    -0.363 OA
HETATM    7  C5  UNL     1     -39.004  11.646   4.135  1.00 20.00     0.204 C 
ENDBRANCH   1   6
TORSDOF 1
ENDMDL
MODEL 9
REMARK VINA RESULT:      -2.8      9.184      9.918
REMARK  1 active torsions:
REMARK  status: ('A' for Active; 'I' for Inactive)
REMARK    1  A    between atoms: C1_1  and  O7_7 
ROOT
HETATM    1  C1  UNL     1     -42.902   7.013   0.503  1.00 20.00     0.294 A 
HETATM    2  C2  UNL     1     -41.533   7.149  -0.129  1.00 20.00     0.106 A 
HETATM    3  C3  UNL     1     -40.789   8.436   0.029  1.00 20.00     0.051 C 
HETATM    4  C4  UNL     1     -40.721   5.940  -0.469  1.00 20.00     0.051 C 
HETATM    5  O6  UNL     1     -42.737   7.269  -0.901  1.00 20.00    -0.343 OA
ENDROOT
BRANCH   1   6
HETATM    6  O7  UNL     1     -43.341   5.691   0.851  1.00 20.00    -0.363 OA
HETATM    7  C5  UNL     1     -43.417   5.535   2.257  1.00 20.00     0.204 C 
ENDBRANCH   1   6
TORSDOF 1
ENDMDL
