MODEL 1
REMARK VINA RESULT:      -4.2      0.000      0.000
REMARK  1 active torsions:
REMARK  status: ('A' for Active; 'I' for Inactive)
REMARK    1  A    between atoms: C1_1  and  C8_8 
ROOT
HETATM    1  C1  UNL     1     -33.023   7.073   3.974  1.00 20.00     0.139 C 
HETATM    2  C2  UNL     1     -33.647   4.985   3.749  1.00 20.00     0.209 C 
HETATM    3  C3  UNL     1     -34.512   5.703   4.779  1.00 20.00     0.070 C 
HETATM    4  C4  UNL     1     -35.924   5.971   4.251  1.00 20.00     0.042 C 
HETATM    5  C5  UNL     1     -34.569   4.952   6.105  1.00 20.00     0.042 C 
HETATM    6  N9  UNL     1     -33.838   7.002   4.977  1.00 20.00    -0.258 NA
HETATM    7  O10 UNL     1     -32.918   6.031   3.119  1.00 20.00    -0.335 OA
ENDROOT
BRANCH   1   8
HETATM    8  C8  UNL     1     -32.149   8.229   3.661  1.00 20.00     0.054 C 
HETATM    9  C6  UNL     1     -32.609   8.927   2.378  1.00 20.00     0.018 C 
HETATM   10  C7  UNL     1     -32.108   9.227   4.823  1.00 20.00     0.018 C 
ENDBRANCH   1   8
TORSDOF 1
ENDMDL
MODEL 2
REMARK VINA RESULT:      -3.9      9.188      9.989
REMARK  1 active torsions:
REMARK  status: ('A' for Active; 'I' for Inactive)
REMARK    1  A    between atoms: C1_1  and  C8_8 
ROOT
HETATM    1  C1  UNL     1     -40.492  12.529   5.607  1.00 20.00     0.139 C 
HETATM    2  C2  UNL     1     -42.159  13.902   5.239  1.00 20.00     0.209 C 
HETATM    3  C3  UNL     1     -42.084  13.519   6.713  1.00 20.00     0.070 C 
HETATM    4  C4  UNL     1     -41.584  14.679   7.579  1.00 20.00     0.042 C 
HETATM    5  C5  UNL     1     -43.417  12.993   7.238  1.00 20.00     0.042 C 
HETATM    6  N9  UNL     1     -41.077  12.440   6.758  1.00 20.00    -0.258 NA
HETATM    7  O10 UNL     1     -40.936  13.421   4.694  1.00 20.00    -0.335 OA
ENDROOT
BRANCH   1   8
HETATM    8  C8  UNL     1     -39.340  11.705   5.167  1.00 20.00     0.054 C 
HETATM    9  C6  UNL     1     -39.146  11.807   3.651  1.00 20.00     0.018 C 
HETATM   10  C7  UNL     1     -38.055  12.111   5.895  1.00 20.00     0.018 C 
ENDBRANCH   1   8
TORSDOF 1
ENDMDL
MODEL 3
REMARK VINA RESULT:      -3.8     11.914     12.791
REMARK  1 active torsions:
REMARK  status: ('A' for Active; 'I' for Inactive)
REMARK    1  A    between atoms: C1_1  and  C8_8 
ROOT
HETATM    1  C1  UNL     1     -33.683  16.472  -3.906  1.00 20.00     0.139 C 
HETATM    2  C2  UNL     1     -33.556  14.387  -4.565  1.00 20.00     0.209 C 
HETATM    3  C3  UNL     1     -34.593  15.152  -5.379  1.00 20.00     0.070 C 
HETATM    4  C4  UNL     1     -34.112  15.421  -6.808  1.00 20.00     0.042 C 
HETATM    5  C5  UNL     1     -35.947  14.448  -5.393  1.00 20.00     0.042 C 
HETATM    6  N9  UNL     1     -34.720  16.448  -4.681  1.00 20.00    -0.258 NA
HETATM    7  O10 UNL     1     -32.862  15.400  -3.847  1.00 20.00    -0.335 OA
ENDROOT
BRANCH   1   8
HETATM    8  C8  UNL     1     -33.296  17.605  -3.030  1.00 20.00     0.054 C 
HETATM    9  C6  UNL     1     -34.044  18.880  -3.429  1.00 20.00     0.018 C 
HETATM   10  C7  UNL     1     -33.550  17.280  -1.555  1.00 20.00     0.018 C 
ENDBRANCH   1   8
TORSDOF 1
ENDMDL
MODEL 4
REMARK VINA RESULT:      -3.7      9.372     10.194
REMARK  1 active torsions:
REMARK  status: ('A' for Active; 'I' for Inactive)
REMARK    1  A    between atoms: C1_1  and  C8_8 
ROOT
HETATM    1  C1  UNL     1     -40.356  12.734   5.969  1.00 20.00     0.139 C 
HETATM    2  C2  UNL     1     -41.229  14.029   7.505  1.00 20.00     0.209 C 
HETATM    3  C3  UNL     1     -42.064  14.060   6.230  1.00 20.00     0.070 C 
HETATM    4  C4  UNL     1     -43.388  13.309   6.396  1.00 20.00     0.042 C 
HETATM    5  C5  UNL     1     -42.311  15.483   5.740  1.00 20.00     0.042 C 
HETATM    6  N9  UNL     1     -41.242  13.334   5.240  1.00 20.00    -0.258 NA
HETATM    7  O10 UNL     1     -40.327  12.948   7.303  1.00 20.00    -0.335 OA
ENDROOT
BRANCH   1   8
HETATM    8  C8  UNL     1     -39.319  11.803   5.462  1.00 20.00     0.054 C 
HETATM    9  C6  UNL     1     -39.283  11.811   3.931  1.00 20.00     0.018 C 
HETATM   10  C7  UNL     1     -37.937  12.147   6.027  1.00 20.00     0.018 C 
ENDBRANCH   1   8
TORSDOF 1
ENDMDL
MODEL 5
REMARK VINA RESULT:      -3.7      0.920      3.872
REMARK  1 active torsions:
REMARK  status: ('A' for Active; 'I' for Inactive)
REMARK    1  A    between atoms: C1_1  and  C8_8 
ROOT
HETATM    1  C1  UNL     1     -33.753   6.730   4.306  1.00 20.00     0.139 C 
HETATM    2  C2  UNL     1     -32.087   7.347   3.026  1.00 20.00     0.209 C 
HETATM    3  C3  UNL     1     -32.722   8.552   3.710  1.00 20.00     0.070 C 
HETATM    4  C4  UNL     1     -31.824   9.123   4.811  1.00 20.00     0.042 C 
HETATM    5  C5  UNL     1     -33.108   9.642   2.714  1.00 20.00     0.042 C 
HETATM    6  N9  UNL     1     -33.942   8.010   4.343  1.00 20.00    -0.258 NA
HETATM    7  O10 UNL     1     -32.658   6.229   3.694  1.00 20.00    -0.335 OA
ENDROOT
BRANCH   1   8
HETATM    8  C8  UNL     1     -34.665   5.714   4.887  1.00 20.00     0.054 C 
HETATM    9  C6  UNL     1     -34.206   4.300   4.521  1.00 20.00     0.018 C 
HETATM   10  C7  UNL     1     -34.768   5.862   6.408  1.00 20.00     0.018 C 
ENDBRANCH   1   8
TORSDOF 1
ENDMDL
MODEL 6
REMARK VINA RESULT:      -3.6     11.895     13.024
REMARK  1 active torsions:
REMARK  status: ('A' for Active; 'I' for Inactive)
REMARK    1  A    between atoms: C1_1  and  C8_8 
ROOT
HETATM    1  C1  UNL     1     -33.642  17.268  -3.077  1.00 20.00     0.139 C 
HETATM    2  C2  UNL     1     -33.899  19.163  -2.010  1.00 20.00     0.209 C 
HETATM    3  C3  UNL     1     -33.244  18.118  -1.113  1.00 20.00     0.070 C 
HETATM    4  C4  UNL     1     -31.761  18.418  -0.875  1.00 20.00     0.042 C 
HETATM    5  C5  UNL     1     -33.978  17.960   0.216  1.00 20.00     0.042 C 
HETATM    6  N9  UNL     1     -33.345  16.863  -1.884  1.00 20.00    -0.258 NA
HETATM    7  O10 UNL     1     -33.855  18.582  -3.307  1.00 20.00    -0.335 OA
ENDROOT
BRANCH   1   8
HETATM    8  C8  UNL     1     -33.787  16.393  -4.265  1.00 20.00     0.054 C 
HETATM    9  C6  UNL     1     -33.773  14.917  -3.859  1.00 20.00     0.018 C 
HETATM   10  C7  UNL     1     -35.066  16.717  -5.044  1.00 20.00     0.018 C 
ENDBRANCH   1   8
TORSDOF 1
ENDMDL
MODEL 7
REMARK VINA RESULT:      -3.5     10.360     11.173
REMARK  1 active torsions:
REMARK  status: ('A' for Active; 'I' for Inactive)
REMARK    1  A    between atoms: C1_1  and  C8_8 
ROOT
HETATM    1  C1  UNL     1     -40.766  14.105   7.989  1.00 20.00     0.139 C 
HETATM    2  C2  UNL     1     -42.207  12.803   6.977  1.00 20.00     0.209 C 
HETATM    3  C3  UNL     1     -41.070  13.190   6.037  1.00 20.00     0.070 C 
HETATM    4  C4  UNL     1     -40.125  12.015   5.770  1.00 20.00     0.042 C 
HETATM    5  C5  UNL     1     -41.582  13.775   4.725  1.00 20.00     0.042 C 
HETATM    6  N9  UNL     1     -40.321  14.225   6.779  1.00 20.00    -0.258 NA
HETATM    7  O10 UNL     1     -41.757  13.228   8.258  1.00 20.00    -0.335 OA
ENDROOT
BRANCH   1   8
HETATM    8  C8  UNL     1     -40.279  14.876   9.159  1.00 20.00     0.054 C 
HETATM    9  C6  UNL     1     -40.745  16.333   9.082  1.00 20.00     0.018 C 
HETATM   10  C7  UNL     1     -40.738  14.241  10.476  1.00 20.00     0.018 C 
ENDBRANCH   1   8
TORSDOF 1
ENDMDL
MODEL 8
REMARK VINA RESULT:      -3.5     12.038     12.997
REMARK  1 active torsions:
REMARK  status: ('A' for Active; 'I' for Inactive)
REMARK    1  A    between atoms: C1_1  and  C8_8 
ROOT
HETATM    1  C1  UNL     1     -33.759  16.807  -3.678  1.00 20.00     0.139 C 
HETATM    2  C2  UNL     1     -35.322  16.733  -5.211  1.00 20.00     0.209 C 
HETATM    3  C3  UNL     1     -34.491  15.455  -5.221  1.00 20.00     0.070 C 
HETATM    4  C4  UNL     1     -35.269  14.264  -4.657  1.00 20.00     0.042 C 
HETATM    5  C5  UNL     1     -33.949  15.133  -6.610  1.00 20.00     0.042 C 
HETATM    6  N9  UNL     1     -33.366  15.746  -4.309  1.00 20.00    -0.258 NA
HETATM    7  O10 UNL     1     -34.929  17.393  -4.013  1.00 20.00    -0.335 OA
ENDROOT
BRANCH   1   8
HETATM    8  C8  UNL     1     -33.015  17.476  -2.584  1.00 20.00     0.054 C 
HETATM    9  C6  UNL     1     -32.829  18.966  -2.885  1.00 20.00     0.018 C 
HETATM   10  C7  UNL     1     -33.719  17.290  -1.236  1.00 20.00     0.018 C 
ENDBRANCH   1   8
TORSDOF 1
ENDMDL
MODEL 9
REMARK VINA RESULT:      -3.4     10.374     11.194
REMARK  1 active torsions:
REMARK  status: ('A' for Active; 'I' for Inactive)
REMARK    1  A    between atoms: C1_1  and  C8_8 
ROOT
HETATM    1  C1  UNL     1     -41.080  13.378   7.295  1.00 20.00     0.139 C 
HETATM    2  C2  UNL     1     -42.427  14.422   8.671  1.00 20.00     0.209 C 
HETATM    3  C3  UNL     1     -40.975  14.584   9.105  1.00 20.00     0.070 C 
HETATM    4  C4  UNL     1     -40.459  16.003   8.853  1.00 20.00     0.042 C 
HETATM    5  C5  UNL     1     -40.763  14.186  10.562  1.00 20.00     0.042 C 
HETATM    6  N9  UNL     1     -40.228  13.658   8.228  1.00 20.00    -0.258 NA
HETATM    7  O10 UNL     1     -42.339  13.864   7.365  1.00 20.00    -0.335 OA
ENDROOT
BRANCH   1   8
HETATM    8  C8  UNL     1     -40.802  12.532   6.109  1.00 20.00     0.054 C 
HETATM    9  C6  UNL     1     -41.063  13.307   4.815  1.00 20.00     0.018 C 
HETATM   10  C7  UNL     1     -39.365  12.000   6.129  1.00 20.00     0.018 C 
ENDBRANCH   1   8
TORSDOF 1
ENDMDL
