MODEL 1
REMARK VINA RESULT:      -4.5      0.000      0.000
REMARK  1 active torsions:
REMARK  status: ('A' for Active; 'I' for Inactive)
REMARK    1  A    between atoms: C1_1  and  C3_3 
ROOT
HETATM    1  C2  UNL     1     -32.366   8.765   4.930  1.00 20.00     0.018 A 
HETATM    2  C3  UNL     1     -33.749   8.171   4.841  1.00 20.00     0.076 A 
HETATM    3  C4  UNL     1     -32.863   8.224   3.620  1.00 20.00    -0.005 A 
HETATM    4  C5  UNL     1     -32.243   6.999   3.036  1.00 20.00     0.011 C 
ENDROOT
BRANCH   2   5
HETATM    5  C1  UNL     1     -34.031   6.898   5.514  1.00 20.00     0.223 C 
HETATM    6  O6  UNL     1     -33.466   6.580   6.557  1.00 20.00    -0.279 OA
HETATM    7 CL7  UNL     1     -35.218   5.956   4.662  1.00 20.00    -0.043 Cl
ENDBRANCH   2   5
TORSDOF 1
ENDMDL
MODEL 2
REMARK VINA RESULT:      -4.2      1.989      2.606
REMARK  1 active torsions:
REMARK  status: ('A' for Active; 'I' for Inactive)
REMARK    1  A    between atoms: C1_1  and  C3_3 
ROOT
HETATM    1  C2  UNL     1     -34.424   6.556   6.232  1.00 20.00     0.018 A 
HETATM    2  C3  UNL     1     -34.750   6.171   4.811  1.00 20.00     0.076 A 
HETATM    3  C4  UNL     1     -34.089   7.495   5.109  1.00 20.00    -0.005 A 
HETATM    4  C5  UNL     1     -32.663   7.765   4.763  1.00 20.00     0.011 C 
ENDROOT
BRANCH   2   5
HETATM    5  C1  UNL     1     -34.004   5.082   4.170  1.00 20.00     0.223 C 
HETATM    6  O6  UNL     1     -33.954   3.958   4.661  1.00 20.00    -0.279 OA
HETATM    7 CL7  UNL     1     -33.241   5.592   2.695  1.00 20.00    -0.043 Cl
ENDBRANCH   2   5
TORSDOF 1
ENDMDL
MODEL 3
REMARK VINA RESULT:      -4.2      2.115      3.224
REMARK  1 active torsions:
REMARK  status: ('A' for Active; 'I' for Inactive)
REMARK    1  A    between atoms: C1_1  and  C3_3 
ROOT
HETATM    1  C2  UNL     1     -34.164   5.177   3.997  1.00 20.00     0.018 A 
HETATM    2  C3  UNL     1     -34.580   6.597   4.287  1.00 20.00     0.076 A 
HETATM    3  C4  UNL     1     -34.890   5.495   5.272  1.00 20.00    -0.005 A 
HETATM    4  C5  UNL     1     -34.183   5.379   6.581  1.00 20.00     0.011 C 
ENDROOT
BRANCH   2   5
HETATM    5  C1  UNL     1     -33.553   7.603   4.579  1.00 20.00     0.223 C 
HETATM    6  O6  UNL     1     -33.699   8.436   5.468  1.00 20.00    -0.279 OA
HETATM    7 CL7  UNL     1     -32.172   7.449   3.534  1.00 20.00    -0.043 Cl
ENDBRANCH   2   5
TORSDOF 1
ENDMDL
MODEL 4
REMARK VINA RESULT:      -4.1      1.601      1.601
REMARK  1 active torsions:
REMARK  status: ('A' for Active; 'I' for Inactive)
REMARK    1  A    between atoms: C1_1  and  C3_3 
ROOT
HETATM    1  C2  UNL     1     -32.858   7.987   5.526  1.00 20.00     0.018 A 
HETATM    2  C3  UNL     1     -34.226   7.660   4.980  1.00 20.00     0.076 A 
HETATM    3  C4  UNL     1     -33.082   7.960   4.041  1.00 20.00    -0.005 A 
HETATM    4  C5  UNL     1     -32.440   6.901   3.210  1.00 20.00     0.011 C 
ENDROOT
BRANCH   2   5
HETATM    5  C1  UNL     1     -34.748   6.296   5.121  1.00 20.00     0.223 C 
HETATM    6  O6  UNL     1     -35.554   5.827   4.322  1.00 20.00    -0.279 OA
HETATM    7 CL7  UNL     1     -34.096   5.486   6.514  1.00 20.00    -0.043 Cl
ENDBRANCH   2   5
TORSDOF 1
ENDMDL
MODEL 5
REMARK VINA RESULT:      -4.1      2.081      2.884
REMARK  1 active torsions:
REMARK  status: ('A' for Active; 'I' for Inactive)
REMARK    1  A    between atoms: C1_1  and  C3_3 
ROOT
HETATM    1  C2  UNL     1     -33.459   5.819   6.634  1.00 20.00     0.018 A 
HETATM    2  C3  UNL     1     -34.847   5.994   6.070  1.00 20.00     0.076 A 
HETATM    3  C4  UNL     1     -33.971   7.197   6.325  1.00 20.00    -0.005 A 
HETATM    4  C5  UNL     1     -33.363   7.986   5.215  1.00 20.00     0.011 C 
ENDROOT
BRANCH   2   5
HETATM    5  C1  UNL     1     -35.130   5.544   4.703  1.00 20.00     0.223 C 
HETATM    6  O6  UNL     1     -36.070   5.996   4.055  1.00 20.00    -0.279 OA
HETATM    7 CL7  UNL     1     -34.000   4.337   4.165  1.00 20.00    -0.043 Cl
ENDBRANCH   2   5
TORSDOF 1
ENDMDL
MODEL 6
REMARK VINA RESULT:      -4.1      2.026      3.019
REMARK  1 active torsions:
REMARK  status: ('A' for Active; 'I' for Inactive)
REMARK    1  A    between atoms: C1_1  and  C3_3 
ROOT
HETATM    1  C2  UNL     1     -34.556   6.610   6.718  1.00 20.00     0.018 A 
HETATM    2  C3  UNL     1     -33.374   6.639   5.782  1.00 20.00     0.076 A 
HETATM    3  C4  UNL     1     -34.503   5.662   5.554  1.00 20.00    -0.005 A 
HETATM    4  C5  UNL     1     -35.467   5.813   4.425  1.00 20.00     0.011 C 
ENDROOT
BRANCH   2   5
HETATM    5  C1  UNL     1     -33.185   7.793   4.896  1.00 20.00     0.223 C 
HETATM    6  O6  UNL     1     -33.610   8.907   5.189  1.00 20.00    -0.279 OA
HETATM    7 CL7  UNL     1     -32.320   7.373   3.449  1.00 20.00    -0.043 Cl
ENDBRANCH   2   5
TORSDOF 1
ENDMDL
MODEL 7
REMARK VINA RESULT:      -3.9      1.897      2.363
REMARK  1 active torsions:
REMARK  status: ('A' for Active; 'I' for Inactive)
REMARK    1  A    between atoms: C1_1  and  C3_3 
ROOT
HETATM    1  C2  UNL     1     -33.951   7.027   6.169  1.00 20.00     0.018 A 
HETATM    2  C3  UNL     1     -34.381   6.798   4.742  1.00 20.00     0.076 A 
HETATM    3  C4  UNL     1     -33.664   8.069   5.127  1.00 20.00    -0.005 A 
HETATM    4  C5  UNL     1     -32.257   8.343   4.714  1.00 20.00     0.011 C 
ENDROOT
BRANCH   2   5
HETATM    5  C1  UNL     1     -33.710   5.765   3.945  1.00 20.00     0.223 C 
HETATM    6  O6  UNL     1     -33.064   6.043   2.940  1.00 20.00    -0.279 OA
HETATM    7 CL7  UNL     1     -33.955   4.173   4.599  1.00 20.00    -0.043 Cl
ENDBRANCH   2   5
TORSDOF 1
ENDMDL
MODEL 8
REMARK VINA RESULT:      -3.8      2.149      2.893
REMARK  1 active torsions:
REMARK  status: ('A' for Active; 'I' for Inactive)
REMARK    1  A    between atoms: C1_1  and  C3_3 
ROOT
HETATM    1  C2  UNL     1     -34.062   8.023   5.897  1.00 20.00     0.018 A 
HETATM    2  C3  UNL     1     -32.960   7.304   5.158  1.00 20.00     0.076 A 
HETATM    3  C4  UNL     1     -34.166   6.544   5.656  1.00 20.00    -0.005 A 
HETATM    4  C5  UNL     1     -35.206   6.011   4.729  1.00 20.00     0.011 C 
ENDROOT
BRANCH   2   5
HETATM    5  C1  UNL     1     -32.768   7.560   3.727  1.00 20.00     0.223 C 
HETATM    6  O6  UNL     1     -32.763   8.700   3.269  1.00 20.00    -0.279 OA
HETATM    7 CL7  UNL     1     -32.562   6.091   2.821  1.00 20.00    -0.043 Cl
ENDBRANCH   2   5
TORSDOF 1
ENDMDL
MODEL 9
REMARK VINA RESULT:      -3.8      2.011      2.749
REMARK  1 active torsions:
REMARK  status: ('A' for Active; 'I' for Inactive)
REMARK    1  A    between atoms: C1_1  and  C3_3 
ROOT
HETATM    1  C2  UNL     1     -35.624   5.855   4.415  1.00 20.00     0.018 A 
HETATM    2  C3  UNL     1     -34.704   5.837   5.611  1.00 20.00     0.076 A 
HETATM    3  C4  UNL     1     -34.466   4.899   4.452  1.00 20.00    -0.005 A 
HETATM    4  C5  UNL     1     -33.324   5.075   3.510  1.00 20.00     0.011 C 
ENDROOT
BRANCH   2   5
HETATM    5  C1  UNL     1     -33.815   6.979   5.851  1.00 20.00     0.223 C 
HETATM    6  O6  UNL     1     -33.055   7.013   6.815  1.00 20.00    -0.279 OA
HETATM    7 CL7  UNL     1     -33.989   8.211   4.637  1.00 20.00    -0.043 Cl
ENDBRANCH   2   5
TORSDOF 1
ENDMDL
