MODEL 1
REMARK VINA RESULT:      -2.6      0.000      0.000
REMARK  1 active torsions:
REMARK  status: ('A' for Active; 'I' for Inactive)
REMARK    1  A    between atoms: C5_5  and  C6_6 
ROOT
HETATM    1  C1  UNL     1     -41.002  13.224   4.819  1.00 20.00     0.086 C 
HETATM    2  C2  UNL     1     -41.945  14.376   4.550  1.00 20.00     0.086 C 
HETATM    3  C5  UNL     1     -42.374  13.637   7.141  1.00 20.00     0.078 C 
HETATM    4  C7  UNL     1     -43.058  12.404   7.732  1.00 20.00     0.041 C 
HETATM    5  S9  UNL     1     -40.682  13.186   6.599  1.00 20.00    -0.145 SA
HETATM    6  S10 UNL     1     -43.339  14.217   5.694  1.00 20.00    -0.145 SA
ENDROOT
BRANCH   3   7
HETATM    7  C6  UNL     1     -42.282  14.765   8.168  1.00 20.00     0.078 C 
HETATM    8  C8  UNL     1     -43.313  15.858   7.886  1.00 20.00     0.041 C 
HETATM    9  S11 UNL     1     -40.600  15.494   8.103  1.00 20.00    -0.145 SA
HETATM   10  C3  UNL     1     -40.275  15.456   9.884  1.00 20.00     0.086 C 
HETATM   11  C4  UNL     1     -40.871  14.177  10.429  1.00 20.00     0.086 C 
HETATM   12  S12 UNL     1     -42.582  14.082   9.843  1.00 20.00    -0.145 SA
ENDBRANCH   3   7
TORSDOF 1
ENDMDL
MODEL 2
REMARK VINA RESULT:      -2.6      0.082      4.220
REMARK  1 active torsions:
REMARK  status: ('A' for Active; 'I' for Inactive)
REMARK    1  A    between atoms: C5_5  and  C6_6 
ROOT
HETATM    1  C1  UNL     1     -40.391  15.483   9.931  1.00 20.00     0.086 C 
HETATM    2  C2  UNL     1     -40.984  14.198  10.467  1.00 20.00     0.086 C 
HETATM    3  C5  UNL     1     -42.360  14.771   8.182  1.00 20.00     0.078 C 
HETATM    4  C7  UNL     1     -43.399  15.851   7.881  1.00 20.00     0.041 C 
HETATM    5  S9  UNL     1     -40.686  15.517   8.146  1.00 20.00    -0.145 SA
HETATM    6  S10 UNL     1     -42.682  14.084   9.851  1.00 20.00    -0.145 SA
ENDROOT
BRANCH   3   7
HETATM    7  C6  UNL     1     -42.422  13.642   7.153  1.00 20.00     0.078 C 
HETATM    8  C8  UNL     1     -43.079  12.392   7.741  1.00 20.00     0.041 C 
HETATM    9  S11 UNL     1     -40.717  13.230   6.618  1.00 20.00    -0.145 SA
HETATM   10  C3  UNL     1     -41.031  13.261   4.836  1.00 20.00     0.086 C 
HETATM   11  C4  UNL     1     -41.999  14.392   4.564  1.00 20.00     0.086 C 
HETATM   12  S12 UNL     1     -43.394  14.200   5.703  1.00 20.00    -0.145 SA
ENDBRANCH   3   7
TORSDOF 1
ENDMDL
MODEL 3
REMARK VINA RESULT:      -2.6     14.054     15.984
REMARK  1 active torsions:
REMARK  status: ('A' for Active; 'I' for Inactive)
REMARK    1  A    between atoms: C5_5  and  C6_6 
ROOT
HETATM    1  C1  UNL     1     -33.710  16.466  -3.244  1.00 20.00     0.086 C 
HETATM    2  C2  UNL     1     -32.918  15.556  -4.158  1.00 20.00     0.086 C 
HETATM    3  C5  UNL     1     -35.197  16.193  -5.516  1.00 20.00     0.078 C 
HETATM    4  C7  UNL     1     -36.645  15.750  -5.308  1.00 20.00     0.041 C 
HETATM    5  S9  UNL     1     -34.780  17.487  -4.287  1.00 20.00    -0.145 SA
HETATM    6  S10 UNL     1     -34.092  14.750  -5.274  1.00 20.00    -0.145 SA
ENDROOT
BRANCH   3   7
HETATM    7  C6  UNL     1     -34.987  16.757  -6.921  1.00 20.00     0.078 C 
HETATM    8  C8  UNL     1     -34.050  15.869  -7.741  1.00 20.00     0.041 C 
HETATM    9  S11 UNL     1     -34.259  18.435  -6.786  1.00 20.00    -0.145 SA
HETATM   10  C3  UNL     1     -35.404  19.263  -7.918  1.00 20.00     0.086 C 
HETATM   11  C4  UNL     1     -36.776  18.666  -7.696  1.00 20.00     0.086 C 
HETATM   12  S12 UNL     1     -36.604  16.865  -7.776  1.00 20.00    -0.145 SA
ENDBRANCH   3   7
TORSDOF 1
ENDMDL
MODEL 4
REMARK VINA RESULT:      -2.6     13.861     15.023
REMARK  1 active torsions:
REMARK  status: ('A' for Active; 'I' for Inactive)
REMARK    1  A    between atoms: C5_5  and  C6_6 
ROOT
HETATM    1  C1  UNL     1     -38.264  17.736  -7.184  1.00 20.00     0.086 C 
HETATM    2  C2  UNL     1     -37.765  18.676  -6.109  1.00 20.00     0.086 C 
HETATM    3  C5  UNL     1     -36.337  16.369  -5.818  1.00 20.00     0.078 C 
HETATM    4  C7  UNL     1     -36.750  14.994  -5.293  1.00 20.00     0.041 C 
HETATM    5  S9  UNL     1     -36.935  16.561  -7.540  1.00 20.00    -0.145 SA
HETATM    6  S10 UNL     1     -37.100  17.662  -4.765  1.00 20.00    -0.145 SA
ENDROOT
BRANCH   3   7
HETATM    7  C6  UNL     1     -34.818  16.537  -5.799  1.00 20.00     0.078 C 
HETATM    8  C8  UNL     1     -34.304  17.089  -7.129  1.00 20.00     0.041 C 
HETATM    9  S11 UNL     1     -34.043  14.905  -5.485  1.00 20.00    -0.145 SA
HETATM   10  C3  UNL     1     -32.923  15.442  -4.168  1.00 20.00     0.086 C 
HETATM   11  C4  UNL     1     -33.664  16.459  -3.327  1.00 20.00     0.086 C 
HETATM   12  S12 UNL     1     -34.356  17.695  -4.455  1.00 20.00    -0.145 SA
ENDBRANCH   3   7
TORSDOF 1
ENDMDL
MODEL 5
REMARK VINA RESULT:      -2.6      1.297      4.029
REMARK  1 active torsions:
REMARK  status: ('A' for Active; 'I' for Inactive)
REMARK    1  A    between atoms: C5_5  and  C6_6 
ROOT
HETATM    1  C1  UNL     1     -41.983  16.908   8.682  1.00 20.00     0.086 C 
HETATM    2  C2  UNL     1     -40.681  16.384   8.117  1.00 20.00     0.086 C 
HETATM    3  C5  UNL     1     -42.304  14.211   8.421  1.00 20.00     0.078 C 
HETATM    4  C7  UNL     1     -42.772  13.477   9.677  1.00 20.00     0.041 C 
HETATM    5  S9  UNL     1     -43.288  15.744   8.216  1.00 20.00    -0.145 SA
HETATM    6  S10 UNL     1     -40.534  14.649   8.612  1.00 20.00    -0.145 SA
ENDROOT
BRANCH   3   7
HETATM    7  C6  UNL     1     -42.475  13.342   7.176  1.00 20.00     0.078 C 
HETATM    8  C8  UNL     1     -43.226  12.050   7.500  1.00 20.00     0.041 C 
HETATM    9  S11 UNL     1     -40.818  12.923   6.509  1.00 20.00    -0.145 SA
HETATM   10  C3  UNL     1     -41.155  13.367   4.787  1.00 20.00     0.086 C 
HETATM   11  C4  UNL     1     -42.028  14.603   4.797  1.00 20.00     0.086 C 
HETATM   12  S12 UNL     1     -43.417  14.277   5.912  1.00 20.00    -0.145 SA
ENDBRANCH   3   7
TORSDOF 1
ENDMDL
MODEL 6
REMARK VINA RESULT:      -2.6      1.297      1.841
REMARK  1 active torsions:
REMARK  status: ('A' for Active; 'I' for Inactive)
REMARK    1  A    between atoms: C5_5  and  C6_6 
ROOT
HETATM    1  C1  UNL     1     -41.127  13.319   4.822  1.00 20.00     0.086 C 
HETATM    2  C2  UNL     1     -42.009  14.548   4.790  1.00 20.00     0.086 C 
HETATM    3  C5  UNL     1     -42.474  13.345   7.195  1.00 20.00     0.078 C 
HETATM    4  C7  UNL     1     -43.221  12.058   7.545  1.00 20.00     0.041 C 
HETATM    5  S9  UNL     1     -40.808  12.922   6.559  1.00 20.00    -0.145 SA
HETATM    6  S10 UNL     1     -43.408  14.242   5.897  1.00 20.00    -0.145 SA
ENDROOT
BRANCH   3   7
HETATM    7  C6  UNL     1     -42.323  14.248   8.419  1.00 20.00     0.078 C 
HETATM    8  C8  UNL     1     -42.801  13.544   9.690  1.00 20.00     0.041 C 
HETATM    9  S11 UNL     1     -43.316  15.768   8.164  1.00 20.00    -0.145 SA
HETATM   10  C3  UNL     1     -42.024  16.953   8.615  1.00 20.00     0.086 C 
HETATM   11  C4  UNL     1     -40.713  16.424   8.077  1.00 20.00     0.086 C 
HETATM   12  S12 UNL     1     -40.559  14.703   8.619  1.00 20.00    -0.145 SA
ENDBRANCH   3   7
TORSDOF 1
ENDMDL
MODEL 7
REMARK VINA RESULT:      -2.5     13.689     15.145
REMARK  1 active torsions:
REMARK  status: ('A' for Active; 'I' for Inactive)
REMARK    1  A    between atoms: C5_5  and  C6_6 
ROOT
HETATM    1  C1  UNL     1     -33.658  14.845  -4.556  1.00 20.00     0.086 C 
HETATM    2  C2  UNL     1     -33.668  15.888  -3.460  1.00 20.00     0.086 C 
HETATM    3  C5  UNL     1     -34.951  17.016  -5.587  1.00 20.00     0.078 C 
HETATM    4  C7  UNL     1     -34.416  17.530  -6.924  1.00 20.00     0.041 C 
HETATM    5  S9  UNL     1     -35.062  15.187  -5.645  1.00 20.00    -0.145 SA
HETATM    6  S10 UNL     1     -33.795  17.510  -4.253  1.00 20.00    -0.145 SA
ENDROOT
BRANCH   3   7
HETATM    7  C6  UNL     1     -36.337  17.587  -5.289  1.00 20.00     0.078 C 
HETATM    8  C8  UNL     1     -36.368  18.283  -3.928  1.00 20.00     0.041 C 
HETATM    9  S11 UNL     1     -37.559  16.219  -5.293  1.00 20.00    -0.145 SA
HETATM   10  C3  UNL     1     -38.775  17.013  -6.373  1.00 20.00     0.086 C 
HETATM   11  C4  UNL     1     -38.012  17.776  -7.435  1.00 20.00     0.086 C 
HETATM   12  S12 UNL     1     -36.782  18.800  -6.589  1.00 20.00    -0.145 SA
ENDBRANCH   3   7
TORSDOF 1
ENDMDL
MODEL 8
REMARK VINA RESULT:      -2.5     13.694     14.915
REMARK  1 active torsions:
REMARK  status: ('A' for Active; 'I' for Inactive)
REMARK    1  A    between atoms: C5_5  and  C6_6 
ROOT
HETATM    1  C1  UNL     1     -38.775  17.013  -6.374  1.00 20.00     0.086 C 
HETATM    2  C2  UNL     1     -38.010  17.769  -7.438  1.00 20.00     0.086 C 
HETATM    3  C5  UNL     1     -36.335  17.582  -5.293  1.00 20.00     0.078 C 
HETATM    4  C7  UNL     1     -36.362  18.285  -3.935  1.00 20.00     0.041 C 
HETATM    5  S9  UNL     1     -37.562  16.220  -5.291  1.00 20.00    -0.145 SA
HETATM    6  S10 UNL     1     -36.776  18.792  -6.598  1.00 20.00    -0.145 SA
ENDROOT
BRANCH   3   7
HETATM    7  C6  UNL     1     -34.952  17.004  -5.589  1.00 20.00     0.078 C 
HETATM    8  C8  UNL     1     -34.417  17.505  -6.932  1.00 20.00     0.041 C 
HETATM    9  S11 UNL     1     -35.069  15.174  -5.634  1.00 20.00    -0.145 SA
HETATM   10  C3  UNL     1     -33.663  14.837  -4.545  1.00 20.00     0.086 C 
HETATM   11  C4  UNL     1     -33.668  15.888  -3.456  1.00 20.00     0.086 C 
HETATM   12  S12 UNL     1     -33.791  17.505  -4.262  1.00 20.00    -0.145 SA
ENDBRANCH   3   7
TORSDOF 1
ENDMDL
MODEL 9
REMARK VINA RESULT:      -2.4     13.117     15.206
REMARK  1 active torsions:
REMARK  status: ('A' for Active; 'I' for Inactive)
REMARK    1  A    between atoms: C5_5  and  C6_6 
ROOT
HETATM    1  C1  UNL     1     -33.296  17.804  -2.093  1.00 20.00     0.086 C 
HETATM    2  C2  UNL     1     -34.700  18.304  -1.832  1.00 20.00     0.086 C 
HETATM    3  C5  UNL     1     -34.429  18.194  -4.545  1.00 20.00     0.078 C 
HETATM    4  C7  UNL     1     -33.630  19.070  -5.509  1.00 20.00     0.041 C 
HETATM    5  S9  UNL     1     -33.293  17.014  -3.721  1.00 20.00    -0.145 SA
HETATM    6  S10 UNL     1     -35.214  19.263  -3.279  1.00 20.00    -0.145 SA
ENDROOT
BRANCH   3   7
HETATM    7  C6  UNL     1     -35.513  17.407  -5.280  1.00 20.00     0.078 C 
HETATM    8  C8  UNL     1     -36.905  17.751  -4.749  1.00 20.00     0.041 C 
HETATM    9  S11 UNL     1     -35.207  15.613  -5.049  1.00 20.00    -0.145 SA
HETATM   10  C3  UNL     1     -35.357  15.138  -6.789  1.00 20.00     0.086 C 
HETATM   11  C4  UNL     1     -34.728  16.237  -7.618  1.00 20.00     0.086 C 
HETATM   12  S12 UNL     1     -35.442  17.808  -7.068  1.00 20.00    -0.145 SA
ENDBRANCH   3   7
TORSDOF 1
ENDMDL
