MODEL 1
REMARK VINA RESULT:      -4.7      0.000      0.000
REMARK  0 active torsions:
REMARK  status: ('A' for Active; 'I' for Inactive)
ROOT
HETATM    1  C1  UNL     1     -33.112   7.634   3.991  1.00 20.00     0.131 C 
HETATM    2  C2  UNL     1     -32.609   6.276   3.537  1.00 20.00     0.079 C 
HETATM    3  C3  UNL     1     -33.705   5.223   3.399  1.00 20.00     0.012 C 
HETATM    4  C4  UNL     1     -33.512   5.853   6.571  1.00 20.00     0.001 C 
HETATM    5  C5  UNL     1     -33.881   7.325   6.375  1.00 20.00     0.012 C 
HETATM    6  C6  UNL     1     -34.446   4.885   5.845  1.00 20.00     0.005 C 
HETATM    7  C7  UNL     1     -35.386   6.742   4.441  1.00 20.00     0.016 C 
HETATM    8  C8  UNL     1     -34.297   7.680   4.944  1.00 20.00     0.056 C 
HETATM    9  C9  UNL     1     -34.846   5.315   4.424  1.00 20.00    -0.013 C 
HETATM   10  O10 UNL     1     -32.515   8.664   3.675  1.00 20.00    -0.298 OA
ENDROOT
TORSDOF 0
ENDMDL
MODEL 2
REMARK VINA RESULT:      -3.9     12.371     13.724
REMARK  0 active torsions:
REMARK  status: ('A' for Active; 'I' for Inactive)
ROOT
HETATM    1  C1  UNL     1     -35.548  14.076  -4.881  1.00 20.00     0.131 C 
HETATM    2  C2  UNL     1     -36.646  15.039  -5.293  1.00 20.00     0.079 C 
HETATM    3  C3  UNL     1     -36.279  15.929  -6.477  1.00 20.00     0.012 C 
HETATM    4  C4  UNL     1     -34.352  16.881  -4.053  1.00 20.00     0.001 C 
HETATM    5  C5  UNL     1     -33.693  15.505  -3.939  1.00 20.00     0.012 C 
HETATM    6  C6  UNL     1     -34.417  17.412  -5.485  1.00 20.00     0.005 C 
HETATM    7  C7  UNL     1     -33.914  15.138  -6.421  1.00 20.00     0.016 C 
HETATM    8  C8  UNL     1     -34.102  14.523  -5.041  1.00 20.00     0.056 C 
HETATM    9  C9  UNL     1     -34.808  16.369  -6.544  1.00 20.00    -0.013 C 
HETATM   10  O10 UNL     1     -35.821  13.003  -4.342  1.00 20.00    -0.298 OA
ENDROOT
TORSDOF 0
ENDMDL
MODEL 3
REMARK VINA RESULT:      -3.8     12.422     13.898
REMARK  0 active torsions:
REMARK  status: ('A' for Active; 'I' for Inactive)
ROOT
HETATM    1  C1  UNL     1     -35.381  14.111  -4.675  1.00 20.00     0.131 C 
HETATM    2  C2  UNL     1     -33.996  14.602  -4.296  1.00 20.00     0.079 C 
HETATM    3  C3  UNL     1     -33.892  16.119  -4.161  1.00 20.00     0.012 C 
HETATM    4  C4  UNL     1     -34.422  15.569  -7.309  1.00 20.00     0.001 C 
HETATM    5  C5  UNL     1     -35.771  14.901  -7.040  1.00 20.00     0.012 C 
HETATM    6  C6  UNL     1     -34.245  16.906  -6.590  1.00 20.00     0.005 C 
HETATM    7  C7  UNL     1     -36.190  16.424  -5.078  1.00 20.00     0.016 C 
HETATM    8  C8  UNL     1     -36.232  14.988  -5.582  1.00 20.00     0.056 C 
HETATM    9  C9  UNL     1     -34.753  16.933  -5.139  1.00 20.00    -0.013 C 
HETATM   10  O10 UNL     1     -35.765  12.990  -4.338  1.00 20.00    -0.298 OA
ENDROOT
TORSDOF 0
ENDMDL
MODEL 4
REMARK VINA RESULT:      -3.7     15.556     16.713
REMARK  0 active torsions:
REMARK  status: ('A' for Active; 'I' for Inactive)
ROOT
HETATM    1  C1  UNL     1     -25.154  18.208  11.353  1.00 20.00     0.131 C 
HETATM    2  C2  UNL     1     -24.970  19.263  10.278  1.00 20.00     0.079 C 
HETATM    3  C3  UNL     1     -24.172  18.783   9.068  1.00 20.00     0.012 C 
HETATM    4  C4  UNL     1     -22.063  18.836  11.527  1.00 20.00     0.001 C 
HETATM    5  C5  UNL     1     -22.862  17.809  12.330  1.00 20.00     0.012 C 
HETATM    6  C6  UNL     1     -21.825  18.427  10.074  1.00 20.00     0.005 C 
HETATM    7  C7  UNL     1     -23.590  16.648  10.218  1.00 20.00     0.016 C 
HETATM    8  C8  UNL     1     -24.038  17.195  11.566  1.00 20.00     0.056 C 
HETATM    9  C9  UNL     1     -23.037  17.793   9.374  1.00 20.00    -0.013 C 
HETATM   10  O10 UNL     1     -26.136  18.231  12.097  1.00 20.00    -0.298 OA
ENDROOT
TORSDOF 0
ENDMDL
MODEL 5
REMARK VINA RESULT:      -3.7      1.799      3.336
REMARK  0 active torsions:
REMARK  status: ('A' for Active; 'I' for Inactive)
ROOT
HETATM    1  C1  UNL     1     -34.158   5.431   4.877  1.00 20.00     0.131 C 
HETATM    2  C2  UNL     1     -33.615   5.892   6.216  1.00 20.00     0.079 C 
HETATM    3  C3  UNL     1     -33.916   7.354   6.537  1.00 20.00     0.012 C 
HETATM    4  C4  UNL     1     -31.857   7.427   4.037  1.00 20.00     0.001 C 
HETATM    5  C5  UNL     1     -32.821   6.663   3.127  1.00 20.00     0.012 C 
HETATM    6  C6  UNL     1     -32.507   8.598   4.772  1.00 20.00     0.005 C 
HETATM    7  C7  UNL     1     -34.806   7.742   4.240  1.00 20.00     0.016 C 
HETATM    8  C8  UNL     1     -34.208   6.436   3.735  1.00 20.00     0.056 C 
HETATM    9  C9  UNL     1     -33.908   8.311   5.335  1.00 20.00    -0.013 C 
HETATM   10  O10 UNL     1     -34.458   4.250   4.692  1.00 20.00    -0.298 OA
ENDROOT
TORSDOF 0
ENDMDL
MODEL 6
REMARK VINA RESULT:      -3.6      1.861      3.350
REMARK  0 active torsions:
REMARK  status: ('A' for Active; 'I' for Inactive)
ROOT
HETATM    1  C1  UNL     1     -34.475   5.849   5.975  1.00 20.00     0.131 C 
HETATM    2  C2  UNL     1     -33.287   6.682   6.417  1.00 20.00     0.079 C 
HETATM    3  C3  UNL     1     -33.176   8.029   5.707  1.00 20.00     0.012 C 
HETATM    4  C4  UNL     1     -32.614   5.802   3.423  1.00 20.00     0.001 C 
HETATM    5  C5  UNL     1     -33.999   5.175   3.591  1.00 20.00     0.012 C 
HETATM    6  C6  UNL     1     -32.643   7.324   3.285  1.00 20.00     0.005 C 
HETATM    7  C7  UNL     1     -35.006   7.420   4.127  1.00 20.00     0.016 C 
HETATM    8  C8  UNL     1     -34.929   5.953   4.526  1.00 20.00     0.056 C 
HETATM    9  C9  UNL     1     -33.616   8.041   4.235  1.00 20.00    -0.013 C 
HETATM   10  O10 UNL     1     -34.996   5.038   6.743  1.00 20.00    -0.298 OA
ENDROOT
TORSDOF 0
ENDMDL
MODEL 7
REMARK VINA RESULT:      -3.6      8.646     10.053
REMARK  0 active torsions:
REMARK  status: ('A' for Active; 'I' for Inactive)
ROOT
HETATM    1  C1  UNL     1     -42.060   7.521  -0.164  1.00 20.00     0.131 C 
HETATM    2  C2  UNL     1     -43.345   7.582   0.640  1.00 20.00     0.079 C 
HETATM    3  C3  UNL     1     -43.379   6.623   1.827  1.00 20.00     0.012 C 
HETATM    4  C4  UNL     1     -43.405   4.735  -0.805  1.00 20.00     0.001 C 
HETATM    5  C5  UNL     1     -42.050   5.260  -1.284  1.00 20.00     0.012 C 
HETATM    6  C6  UNL     1     -43.417   4.322   0.666  1.00 20.00     0.005 C 
HETATM    7  C7  UNL     1     -41.260   5.533   1.092  1.00 20.00     0.016 C 
HETATM    8  C8  UNL     1     -41.348   6.181  -0.283  1.00 20.00     0.056 C 
HETATM    9  C9  UNL     1     -42.672   5.276   1.612  1.00 20.00    -0.013 C 
HETATM   10  O10 UNL     1     -41.657   8.507  -0.784  1.00 20.00    -0.298 OA
ENDROOT
TORSDOF 0
ENDMDL
MODEL 8
REMARK VINA RESULT:      -3.6     15.709     16.871
REMARK  0 active torsions:
REMARK  status: ('A' for Active; 'I' for Inactive)
ROOT
HETATM    1  C1  UNL     1     -22.691  17.169   9.186  1.00 20.00     0.131 C 
HETATM    2  C2  UNL     1     -23.497  16.331  10.160  1.00 20.00     0.079 C 
HETATM    3  C3  UNL     1     -24.615  17.098  10.862  1.00 20.00     0.012 C 
HETATM    4  C4  UNL     1     -21.857  18.373  11.986  1.00 20.00     0.001 C 
HETATM    5  C5  UNL     1     -21.416  18.830  10.595  1.00 20.00     0.012 C 
HETATM    6  C6  UNL     1     -23.295  18.757  12.330  1.00 20.00     0.005 C 
HETATM    7  C7  UNL     1     -23.805  19.262   9.925  1.00 20.00     0.016 C 
HETATM    8  C8  UNL     1     -22.479  18.641   9.508  1.00 20.00     0.056 C 
HETATM    9  C9  UNL     1     -24.306  18.568  11.188  1.00 20.00    -0.013 C 
HETATM   10  O10 UNL     1     -22.141  16.650   8.213  1.00 20.00    -0.298 OA
ENDROOT
TORSDOF 0
ENDMDL
MODEL 9
REMARK VINA RESULT:      -3.6      8.370      9.529
REMARK  0 active torsions:
REMARK  status: ('A' for Active; 'I' for Inactive)
ROOT
HETATM    1  C1  UNL     1     -41.354   7.280   0.869  1.00 20.00     0.131 C 
HETATM    2  C2  UNL     1     -40.627   6.085   0.281  1.00 20.00     0.079 C 
HETATM    3  C3  UNL     1     -41.388   5.389  -0.845  1.00 20.00     0.012 C 
HETATM    4  C4  UNL     1     -43.131   4.850   1.832  1.00 20.00     0.001 C 
HETATM    5  C5  UNL     1     -43.370   6.343   2.064  1.00 20.00     0.012 C 
HETATM    6  C6  UNL     1     -43.417   4.399   0.400  1.00 20.00     0.005 C 
HETATM    7  C7  UNL     1     -43.417   6.773  -0.417  1.00 20.00     0.016 C 
HETATM    8  C8  UNL     1     -42.875   7.241   0.926  1.00 20.00     0.056 C 
HETATM    9  C9  UNL     1     -42.916   5.358  -0.692  1.00 20.00    -0.013 C 
HETATM   10  O10 UNL     1     -40.727   8.212   1.376  1.00 20.00    -0.298 OA
ENDROOT
TORSDOF 0
ENDMDL
