MODEL 1
REMARK VINA RESULT:      -3.9      0.000      0.000
REMARK  2 active torsions:
REMARK  status: ('A' for Active; 'I' for Inactive)
REMARK    1  A    between atoms: C1_1  and  C3_3 
REMARK    2  A    between atoms: C2_2  and  C5_5 
ROOT
HETATM    1  C1  UNL     1     -32.952   7.829   4.950  1.00 20.00     0.003 C 
HETATM    2  C2  UNL     1     -33.991   6.994   5.071  1.00 20.00     0.041 C 
ENDROOT
BRANCH   1   3
HETATM    3  C3  UNL     1     -32.564   8.415   3.687  1.00 20.00    -0.004 C 
HETATM    4  C4  UNL     1     -32.377   7.696   2.571  1.00 20.00    -0.031 C 
HETATM    5  C6  UNL     1     -31.976   8.289   1.261  1.00 20.00     0.036 C 
ENDBRANCH   1   3
BRANCH   2   6
HETATM    6  C5  UNL     1     -34.316   6.443   6.400  1.00 20.00     0.258 C 
HETATM    7  O7  UNL     1     -34.281   5.240   6.630  1.00 20.00    -0.302 OA
ENDBRANCH   2   6
TORSDOF 2
ENDMDL
MODEL 2
REMARK VINA RESULT:      -3.9      2.718      4.543
REMARK  2 active torsions:
REMARK  status: ('A' for Active; 'I' for Inactive)
REMARK    1  A    between atoms: C1_1  and  C3_3 
REMARK    2  A    between atoms: C2_2  and  C5_5 
ROOT
HETATM    1  C1  UNL     1     -32.574   8.417   3.714  1.00 20.00     0.003 C 
HETATM    2  C2  UNL     1     -32.417   7.634   2.640  1.00 20.00     0.041 C 
ENDROOT
BRANCH   1   3
HETATM    3  C3  UNL     1     -32.998   7.906   4.997  1.00 20.00    -0.004 C 
HETATM    4  C4  UNL     1     -33.931   6.951   5.136  1.00 20.00    -0.031 C 
HETATM    5  C6  UNL     1     -34.378   6.415   6.456  1.00 20.00     0.036 C 
ENDBRANCH   1   3
BRANCH   2   6
HETATM    6  C5  UNL     1     -31.979   8.241   1.368  1.00 20.00     0.258 C 
HETATM    7  O7  UNL     1     -32.607   9.146   0.832  1.00 20.00    -0.302 OA
ENDBRANCH   2   6
TORSDOF 2
ENDMDL
MODEL 3
REMARK VINA RESULT:      -3.7     12.017     12.684
REMARK  2 active torsions:
REMARK  status: ('A' for Active; 'I' for Inactive)
REMARK    1  A    between atoms: C1_1  and  C3_3 
REMARK    2  A    between atoms: C2_2  and  C5_5 
ROOT
HETATM    1  C1  UNL     1     -29.915  19.103   2.372  1.00 20.00     0.003 C 
HETATM    2  C2  UNL     1     -30.708  18.235   1.733  1.00 20.00     0.041 C 
ENDROOT
BRANCH   1   3
HETATM    3  C3  UNL     1     -29.282  18.800   3.635  1.00 20.00    -0.004 C 
HETATM    4  C4  UNL     1     -27.959  18.625   3.770  1.00 20.00    -0.031 C 
HETATM    5  C6  UNL     1     -27.294  18.310   5.070  1.00 20.00     0.036 C 
ENDBRANCH   1   3
BRANCH   2   6
HETATM    6  C5  UNL     1     -31.312  18.629   0.446  1.00 20.00     0.258 C 
HETATM    7  O7  UNL     1     -30.657  18.688  -0.587  1.00 20.00    -0.302 OA
ENDBRANCH   2   6
TORSDOF 2
ENDMDL
MODEL 4
REMARK VINA RESULT:      -3.7     11.782     12.283
REMARK  2 active torsions:
REMARK  status: ('A' for Active; 'I' for Inactive)
REMARK    1  A    between atoms: C1_1  and  C3_3 
REMARK    2  A    between atoms: C2_2  and  C5_5 
ROOT
HETATM    1  C1  UNL     1     -32.843  17.620  -2.326  1.00 20.00     0.003 C 
HETATM    2  C2  UNL     1     -32.682  17.900  -1.027  1.00 20.00     0.041 C 
ENDROOT
BRANCH   1   3
HETATM    3  C3  UNL     1     -33.641  16.510  -2.793  1.00 20.00    -0.004 C 
HETATM    4  C4  UNL     1     -33.233  15.662  -3.750  1.00 20.00    -0.031 C 
HETATM    5  C6  UNL     1     -34.048  14.512  -4.240  1.00 20.00     0.036 C 
ENDBRANCH   1   3
BRANCH   2   6
HETATM    6  C5  UNL     1     -31.848  19.054  -0.641  1.00 20.00     0.258 C 
HETATM    7  O7  UNL     1     -30.674  18.927  -0.317  1.00 20.00    -0.302 OA
ENDBRANCH   2   6
TORSDOF 2
ENDMDL
MODEL 5
REMARK VINA RESULT:      -3.6     11.521     11.939
REMARK  2 active torsions:
REMARK  status: ('A' for Active; 'I' for Inactive)
REMARK    1  A    between atoms: C1_1  and  C3_3 
REMARK    2  A    between atoms: C2_2  and  C5_5 
ROOT
HETATM    1  C1  UNL     1     -33.683  16.303  -2.763  1.00 20.00     0.003 C 
HETATM    2  C2  UNL     1     -33.039  15.701  -3.770  1.00 20.00     0.041 C 
ENDROOT
BRANCH   1   3
HETATM    3  C3  UNL     1     -33.065  17.313  -1.934  1.00 20.00    -0.004 C 
HETATM    4  C4  UNL     1     -33.570  17.703  -0.754  1.00 20.00    -0.031 C 
HETATM    5  C6  UNL     1     -32.941  18.746   0.111  1.00 20.00     0.036 C 
ENDBRANCH   1   3
BRANCH   2   6
HETATM    6  C5  UNL     1     -33.748  14.680  -4.565  1.00 20.00     0.258 C 
HETATM    7  O7  UNL     1     -34.438  13.814  -4.042  1.00 20.00    -0.302 OA
ENDBRANCH   2   6
TORSDOF 2
ENDMDL
MODEL 6
REMARK VINA RESULT:      -3.4     11.790     12.224
REMARK  2 active torsions:
REMARK  status: ('A' for Active; 'I' for Inactive)
REMARK    1  A    between atoms: C1_1  and  C3_3 
REMARK    2  A    between atoms: C2_2  and  C5_5 
ROOT
HETATM    1  C1  UNL     1     -33.693  17.207  -1.687  1.00 20.00     0.003 C 
HETATM    2  C2  UNL     1     -33.038  16.829  -2.791  1.00 20.00     0.041 C 
ENDROOT
BRANCH   1   3
HETATM    3  C3  UNL     1     -33.068  17.967  -0.629  1.00 20.00    -0.004 C 
HETATM    4  C4  UNL     1     -31.793  18.384  -0.679  1.00 20.00    -0.031 C 
HETATM    5  C6  UNL     1     -31.136  19.169   0.407  1.00 20.00     0.036 C 
ENDBRANCH   1   3
BRANCH   2   6
HETATM    6  C5  UNL     1     -33.756  16.055  -3.822  1.00 20.00     0.258 C 
HETATM    7  O7  UNL     1     -33.748  14.830  -3.836  1.00 20.00    -0.302 OA
ENDBRANCH   2   6
TORSDOF 2
ENDMDL
MODEL 7
REMARK VINA RESULT:      -3.3      9.543     10.001
REMARK  2 active torsions:
REMARK  status: ('A' for Active; 'I' for Inactive)
REMARK    1  A    between atoms: C1_1  and  C3_3 
REMARK    2  A    between atoms: C2_2  and  C5_5 
ROOT
HETATM    1  C1  UNL     1     -41.414  13.032   6.690  1.00 20.00     0.003 C 
HETATM    2  C2  UNL     1     -42.623  12.491   6.880  1.00 20.00     0.041 C 
ENDROOT
BRANCH   1   3
HETATM    3  C3  UNL     1     -40.653  12.835   5.477  1.00 20.00    -0.004 C 
HETATM    4  C4  UNL     1     -39.745  11.858   5.330  1.00 20.00    -0.031 C 
HETATM    5  C6  UNL     1     -38.953  11.645   4.082  1.00 20.00     0.036 C 
ENDBRANCH   1   3
BRANCH   2   6
HETATM    6  C5  UNL     1     -43.329  12.744   8.151  1.00 20.00     0.258 C 
HETATM    7  O7  UNL     1     -43.089  12.102   9.166  1.00 20.00    -0.302 OA
ENDBRANCH   2   6
TORSDOF 2
ENDMDL
MODEL 8
REMARK VINA RESULT:      -3.3     11.753     12.305
REMARK  2 active torsions:
REMARK  status: ('A' for Active; 'I' for Inactive)
REMARK    1  A    between atoms: C1_1  and  C3_3 
REMARK    2  A    between atoms: C2_2  and  C5_5 
ROOT
HETATM    1  C1  UNL     1     -31.484  18.362  -0.476  1.00 20.00     0.003 C 
HETATM    2  C2  UNL     1     -32.786  18.243  -0.759  1.00 20.00     0.041 C 
ENDROOT
BRANCH   1   3
HETATM    3  C3  UNL     1     -31.002  18.972   0.743  1.00 20.00    -0.004 C 
HETATM    4  C4  UNL     1     -30.650  18.265   1.827  1.00 20.00    -0.031 C 
HETATM    5  C6  UNL     1     -30.151  18.882   3.092  1.00 20.00     0.036 C 
ENDBRANCH   1   3
BRANCH   2   6
HETATM    6  C5  UNL     1     -33.189  17.607  -2.028  1.00 20.00     0.258 C 
HETATM    7  O7  UNL     1     -33.531  16.432  -2.085  1.00 20.00    -0.302 OA
ENDBRANCH   2   6
TORSDOF 2
ENDMDL
MODEL 9
REMARK VINA RESULT:      -3.3     11.918     12.454
REMARK  2 active torsions:
REMARK  status: ('A' for Active; 'I' for Inactive)
REMARK    1  A    between atoms: C1_1  and  C3_3 
REMARK    2  A    between atoms: C2_2  and  C5_5 
ROOT
HETATM    1  C1  UNL     1     -33.922  15.285  -4.093  1.00 20.00     0.003 C 
HETATM    2  C2  UNL     1     -34.727  15.726  -5.068  1.00 20.00     0.041 C 
ENDROOT
BRANCH   1   3
HETATM    3  C3  UNL     1     -33.095  16.169  -3.304  1.00 20.00    -0.004 C 
HETATM    4  C4  UNL     1     -33.556  16.859  -2.250  1.00 20.00    -0.031 C 
HETATM    5  C6  UNL     1     -32.711  17.776  -1.427  1.00 20.00     0.036 C 
ENDBRANCH   1   3
BRANCH   2   6
HETATM    6  C5  UNL     1     -35.538  14.752  -5.823  1.00 20.00     0.258 C 
HETATM    7  O7  UNL     1     -36.597  14.315  -5.391  1.00 20.00    -0.302 OA
ENDBRANCH   2   6
TORSDOF 2
ENDMDL
