MODEL 1
REMARK VINA RESULT:      -3.8      0.000      0.000
REMARK  0 active torsions:
REMARK  status: ('A' for Active; 'I' for Inactive)
ROOT
HETATM    1  C1  UNL     1     -41.792   8.388  -0.759  1.00 20.00     0.005 C 
HETATM    2  C2  UNL     1     -43.106   8.041  -0.045  1.00 20.00     0.008 C 
HETATM    3  C3  UNL     1     -41.321   7.597   1.436  1.00 20.00     0.012 C 
HETATM    4  C4  UNL     1     -40.909   6.074  -0.370  1.00 20.00     0.047 C 
HETATM    5  C5  UNL     1     -40.752   7.562   0.017  1.00 20.00    -0.011 C 
HETATM    6  C6  UNL     1     -42.669   6.998   1.005  1.00 20.00     0.025 C 
HETATM    7  C7  UNL     1     -42.220   5.668   0.341  1.00 20.00     0.117 C 
HETATM    8 CL8  UNL     1     -41.895   4.424   1.597  1.00 20.00    -0.101 Cl
HETATM    9 CL9  UNL     1     -43.417   4.990  -0.790  1.00 20.00    -0.101 Cl
ENDROOT
TORSDOF 0
ENDMDL
MODEL 2
REMARK VINA RESULT:      -3.5     23.180     24.278
REMARK  0 active torsions:
REMARK  status: ('A' for Active; 'I' for Inactive)
ROOT
HETATM    1  C1  UNL     1     -25.355  17.384  11.656  1.00 20.00     0.005 C 
HETATM    2  C2  UNL     1     -24.089  16.546  11.882  1.00 20.00     0.008 C 
HETATM    3  C3  UNL     1     -23.569  18.804  12.332  1.00 20.00     0.012 C 
HETATM    4  C4  UNL     1     -24.155  18.844  10.008  1.00 20.00     0.047 C 
HETATM    5  C5  UNL     1     -24.792  18.795  11.415  1.00 20.00    -0.011 C 
HETATM    6  C6  UNL     1     -22.951  17.565  11.667  1.00 20.00     0.025 C 
HETATM    7  C7  UNL     1     -22.859  18.019  10.185  1.00 20.00     0.117 C 
HETATM    8 CL8  UNL     1     -21.415  19.060   9.941  1.00 20.00    -0.101 Cl
HETATM    9 CL9  UNL     1     -22.754  16.672   9.025  1.00 20.00    -0.101 Cl
ENDROOT
TORSDOF 0
ENDMDL
MODEL 3
REMARK VINA RESULT:      -3.5      1.197      2.242
REMARK  0 active torsions:
REMARK  status: ('A' for Active; 'I' for Inactive)
ROOT
HETATM    1  C1  UNL     1     -41.279   7.985   1.300  1.00 20.00     0.005 C 
HETATM    2  C2  UNL     1     -41.167   8.041  -0.229  1.00 20.00     0.008 C 
HETATM    3  C3  UNL     1     -43.411   7.564   0.330  1.00 20.00     0.012 C 
HETATM    4  C4  UNL     1     -42.229   5.668   1.199  1.00 20.00     0.047 C 
HETATM    5  C5  UNL     1     -42.549   7.145   1.520  1.00 20.00    -0.011 C 
HETATM    6  C6  UNL     1     -42.344   7.159  -0.699  1.00 20.00     0.025 C 
HETATM    7  C7  UNL     1     -42.119   5.664  -0.343  1.00 20.00     0.117 C 
HETATM    8 CL8  UNL     1     -43.417   4.652  -1.063  1.00 20.00    -0.101 Cl
HETATM    9 CL9  UNL     1     -40.558   5.019  -0.906  1.00 20.00    -0.101 Cl
ENDROOT
TORSDOF 0
ENDMDL
MODEL 4
REMARK VINA RESULT:      -3.2     13.862     14.747
REMARK  0 active torsions:
REMARK  status: ('A' for Active; 'I' for Inactive)
ROOT
HETATM    1  C1  UNL     1     -35.014  17.963  -3.461  1.00 20.00     0.005 C 
HETATM    2  C2  UNL     1     -34.974  19.169  -2.513  1.00 20.00     0.008 C 
HETATM    3  C3  UNL     1     -32.834  18.916  -3.476  1.00 20.00     0.012 C 
HETATM    4  C4  UNL     1     -33.110  16.878  -2.245  1.00 20.00     0.047 C 
HETATM    5  C5  UNL     1     -33.534  17.560  -3.565  1.00 20.00    -0.011 C 
HETATM    6  C6  UNL     1     -33.483  19.262  -2.127  1.00 20.00     0.025 C 
HETATM    7  C7  UNL     1     -33.040  18.060  -1.251  1.00 20.00     0.117 C 
HETATM    8 CL8  UNL     1     -31.355  18.297  -0.675  1.00 20.00    -0.101 Cl
HETATM    9 CL9  UNL     1     -34.066  17.798   0.181  1.00 20.00    -0.101 Cl
ENDROOT
TORSDOF 0
ENDMDL
MODEL 5
REMARK VINA RESULT:      -3.2      8.605      9.644
REMARK  0 active torsions:
REMARK  status: ('A' for Active; 'I' for Inactive)
ROOT
HETATM    1  C1  UNL     1     -31.993   8.402   4.965  1.00 20.00     0.005 C 
HETATM    2  C2  UNL     1     -32.667   8.390   3.586  1.00 20.00     0.008 C 
HETATM    3  C3  UNL     1     -34.353   8.551   5.230  1.00 20.00     0.012 C 
HETATM    4  C4  UNL     1     -33.349   6.426   5.702  1.00 20.00     0.047 C 
HETATM    5  C5  UNL     1     -33.123   7.942   5.902  1.00 20.00    -0.011 C 
HETATM    6  C6  UNL     1     -34.080   7.849   3.891  1.00 20.00     0.025 C 
HETATM    7  C7  UNL     1     -34.044   6.358   4.323  1.00 20.00     0.117 C 
HETATM    8 CL8  UNL     1     -35.714   5.719   4.492  1.00 20.00    -0.101 Cl
HETATM    9 CL9  UNL     1     -33.176   5.301   3.183  1.00 20.00    -0.101 Cl
ENDROOT
TORSDOF 0
ENDMDL
MODEL 6
REMARK VINA RESULT:      -3.2     12.103     13.046
REMARK  0 active torsions:
REMARK  status: ('A' for Active; 'I' for Inactive)
ROOT
HETATM    1  C1  UNL     1     -35.998  16.043  -7.595  1.00 20.00     0.005 C 
HETATM    2  C2  UNL     1     -36.772  16.199  -6.278  1.00 20.00     0.008 C 
HETATM    3  C3  UNL     1     -34.719  17.345  -6.068  1.00 20.00     0.012 C 
HETATM    4  C4  UNL     1     -34.031  15.071  -6.383  1.00 20.00     0.047 C 
HETATM    5  C5  UNL     1     -34.543  16.299  -7.168  1.00 20.00    -0.011 C 
HETATM    6  C6  UNL     1     -35.655  16.449  -5.243  1.00 20.00     0.025 C 
HETATM    7  C7  UNL     1     -34.774  15.188  -5.033  1.00 20.00     0.117 C 
HETATM    8 CL8  UNL     1     -33.606  15.461  -3.695  1.00 20.00    -0.101 Cl
HETATM    9 CL9  UNL     1     -35.703  13.719  -4.645  1.00 20.00    -0.101 Cl
ENDROOT
TORSDOF 0
ENDMDL
MODEL 7
REMARK VINA RESULT:      -3.2      2.053      3.100
REMARK  0 active torsions:
REMARK  status: ('A' for Active; 'I' for Inactive)
ROOT
HETATM    1  C1  UNL     1     -43.417   4.871  -0.117  1.00 20.00     0.005 C 
HETATM    2  C2  UNL     1     -42.217   5.244  -0.999  1.00 20.00     0.008 C 
HETATM    3  C3  UNL     1     -41.450   4.984   1.218  1.00 20.00     0.012 C 
HETATM    4  C4  UNL     1     -42.979   6.822   1.394  1.00 20.00     0.047 C 
HETATM    5  C5  UNL     1     -42.948   5.281   1.289  1.00 20.00    -0.011 C 
HETATM    6  C6  UNL     1     -41.237   5.895  -0.000  1.00 20.00     0.025 C 
HETATM    7  C7  UNL     1     -41.773   7.253   0.528  1.00 20.00     0.117 C 
HETATM    8 CL8  UNL     1     -40.529   8.061   1.542  1.00 20.00    -0.101 Cl
HETATM    9 CL9  UNL     1     -42.241   8.391  -0.759  1.00 20.00    -0.101 Cl
ENDROOT
TORSDOF 0
ENDMDL
MODEL 8
REMARK VINA RESULT:      -3.1      8.652      9.786
REMARK  0 active torsions:
REMARK  status: ('A' for Active; 'I' for Inactive)
ROOT
HETATM    1  C1  UNL     1     -34.069   4.998   5.858  1.00 20.00     0.005 C 
HETATM    2  C2  UNL     1     -34.433   6.372   6.439  1.00 20.00     0.008 C 
HETATM    3  C3  UNL     1     -35.450   6.175   4.318  1.00 20.00     0.012 C 
HETATM    4  C4  UNL     1     -33.111   6.064   3.801  1.00 20.00     0.047 C 
HETATM    5  C5  UNL     1     -34.272   5.202   4.347  1.00 20.00    -0.011 C 
HETATM    6  C6  UNL     1     -34.724   7.218   5.182  1.00 20.00     0.025 C 
HETATM    7  C7  UNL     1     -33.438   7.472   4.350  1.00 20.00     0.117 C 
HETATM    8 CL8  UNL     1     -33.785   8.606   3.000  1.00 20.00    -0.101 Cl
HETATM    9 CL9  UNL     1     -32.093   8.155   5.296  1.00 20.00    -0.101 Cl
ENDROOT
TORSDOF 0
ENDMDL
MODEL 9
REMARK VINA RESULT:      -3.0     19.876     20.663
REMARK  0 active torsions:
REMARK  status: ('A' for Active; 'I' for Inactive)
ROOT
HETATM    1  C1  UNL     1     -28.697  -1.748  12.101  1.00 20.00     0.005 C 
HETATM    2  C2  UNL     1     -28.000  -0.659  11.274  1.00 20.00     0.008 C 
HETATM    3  C3  UNL     1     -28.146  -2.610   9.952  1.00 20.00     0.012 C 
HETATM    4  C4  UNL     1     -26.759  -3.305  11.779  1.00 20.00     0.047 C 
HETATM    5  C5  UNL     1     -28.237  -3.046  11.414  1.00 20.00    -0.011 C 
HETATM    6  C6  UNL     1     -27.164  -1.469  10.261  1.00 20.00     0.025 C 
HETATM    7  C7  UNL     1     -26.005  -2.235  10.956  1.00 20.00     0.117 C 
HETATM    8 CL8  UNL     1     -24.951  -3.016   9.728  1.00 20.00    -0.101 Cl
HETATM    9 CL9  UNL     1     -24.972  -1.204  11.975  1.00 20.00    -0.101 Cl
ENDROOT
TORSDOF 0
ENDMDL
