MODEL 1
REMARK VINA RESULT:      -3.9      0.000      0.000
REMARK  0 active torsions:
REMARK  status: ('A' for Active; 'I' for Inactive)
ROOT
HETATM    1  C1  UNL     1     -33.098   5.563   3.202  1.00 20.00     0.223 A 
HETATM    2  C2  UNL     1     -35.337   5.927   4.403  1.00 20.00     0.027 A 
HETATM    3  C3  UNL     1     -33.966   5.322   4.377  1.00 20.00     0.089 A 
HETATM    4  C4  UNL     1     -34.178   6.651   5.071  1.00 20.00    -0.006 A 
HETATM    5  C5  UNL     1     -33.350   7.688   4.291  1.00 20.00     0.034 A 
HETATM    6  C6  UNL     1     -34.208   6.726   6.569  1.00 20.00     0.018 C 
HETATM    7  C7  UNL     1     -32.167   8.240   5.096  1.00 20.00     0.039 C 
HETATM    8  C8  UNL     1     -34.220   8.840   3.788  1.00 20.00     0.039 C 
HETATM    9  N9  UNL     1     -32.813   6.915   3.166  1.00 20.00    -0.351 N 
HETATM   10  O10 UNL     1     -32.746   4.685   2.432  1.00 20.00    -0.273 OA
HETATM   11  H23 UNL     1     -32.235   7.332   2.443  1.00 20.00     0.163 HD
ENDROOT
TORSDOF 0
ENDMDL
MODEL 2
REMARK VINA RESULT:      -3.8     12.110     13.318
REMARK  0 active torsions:
REMARK  status: ('A' for Active; 'I' for Inactive)
ROOT
HETATM    1  C1  UNL     1     -34.013  15.325  -4.104  1.00 20.00     0.223 A 
HETATM    2  C2  UNL     1     -33.667  16.951  -2.147  1.00 20.00     0.027 A 
HETATM    3  C3  UNL     1     -33.125  16.239  -3.350  1.00 20.00     0.089 A 
HETATM    4  C4  UNL     1     -33.674  17.642  -3.502  1.00 20.00    -0.006 A 
HETATM    5  C5  UNL     1     -34.898  17.534  -4.430  1.00 20.00     0.034 A 
HETATM    6  C6  UNL     1     -32.742  18.806  -3.665  1.00 20.00     0.018 C 
HETATM    7  C7  UNL     1     -34.683  18.212  -5.788  1.00 20.00     0.039 C 
HETATM    8  C8  UNL     1     -36.159  18.086  -3.765  1.00 20.00     0.039 C 
HETATM    9  N9  UNL     1     -35.023  16.090  -4.658  1.00 20.00    -0.351 N 
HETATM   10  O10 UNL     1     -33.840  14.120  -4.172  1.00 20.00    -0.273 OA
HETATM   11  H23 UNL     1     -35.766  15.688  -5.220  1.00 20.00     0.163 HD
ENDROOT
TORSDOF 0
ENDMDL
MODEL 3
REMARK VINA RESULT:      -3.8     11.625     12.614
REMARK  0 active torsions:
REMARK  status: ('A' for Active; 'I' for Inactive)
ROOT
HETATM    1  C1  UNL     1     -35.546  13.998  -4.549  1.00 20.00     0.223 A 
HETATM    2  C2  UNL     1     -34.464  15.170  -6.560  1.00 20.00     0.027 A 
HETATM    3  C3  UNL     1     -35.547  15.111  -5.526  1.00 20.00     0.089 A 
HETATM    4  C4  UNL     1     -34.317  15.953  -5.265  1.00 20.00    -0.006 A 
HETATM    5  C5  UNL     1     -33.610  15.327  -4.048  1.00 20.00     0.034 A 
HETATM    6  C6  UNL     1     -34.386  17.448  -5.372  1.00 20.00     0.018 C 
HETATM    7  C7  UNL     1     -33.644  16.226  -2.806  1.00 20.00     0.039 C 
HETATM    8  C8  UNL     1     -32.166  14.942  -4.373  1.00 20.00     0.039 C 
HETATM    9  N9  UNL     1     -34.414  14.133  -3.767  1.00 20.00    -0.351 N 
HETATM   10  O10 UNL     1     -36.410  13.138  -4.504  1.00 20.00    -0.273 OA
HETATM   11  H23 UNL     1     -34.184  13.482  -3.023  1.00 20.00     0.163 HD
ENDROOT
TORSDOF 0
ENDMDL
MODEL 4
REMARK VINA RESULT:      -3.8     12.165     13.314
REMARK  0 active torsions:
REMARK  status: ('A' for Active; 'I' for Inactive)
ROOT
HETATM    1  C1  UNL     1     -33.586  16.947  -4.035  1.00 20.00     0.223 A 
HETATM    2  C2  UNL     1     -33.052  14.462  -4.401  1.00 20.00     0.027 A 
HETATM    3  C3  UNL     1     -33.789  15.530  -3.651  1.00 20.00     0.089 A 
HETATM    4  C4  UNL     1     -34.469  14.834  -4.811  1.00 20.00    -0.006 A 
HETATM    5  C5  UNL     1     -34.717  15.911  -5.883  1.00 20.00     0.034 A 
HETATM    6  C6  UNL     1     -35.532  13.806  -4.557  1.00 20.00     0.018 C 
HETATM    7  C7  UNL     1     -36.205  16.218  -6.092  1.00 20.00     0.039 C 
HETATM    8  C8  UNL     1     -34.070  15.537  -7.216  1.00 20.00     0.039 C 
HETATM    9  N9  UNL     1     -34.082  17.105  -5.315  1.00 20.00    -0.351 N 
HETATM   10  O10 UNL     1     -33.055  17.772  -3.311  1.00 20.00    -0.273 OA
HETATM   11  H23 UNL     1     -34.052  17.993  -5.806  1.00 20.00     0.163 HD
ENDROOT
TORSDOF 0
ENDMDL
MODEL 5
REMARK VINA RESULT:      -3.7     12.559     13.626
REMARK  0 active torsions:
REMARK  status: ('A' for Active; 'I' for Inactive)
ROOT
HETATM    1  C1  UNL     1     -33.996  15.484  -6.846  1.00 20.00     0.223 A 
HETATM    2  C2  UNL     1     -34.785  14.490  -4.615  1.00 20.00     0.027 A 
HETATM    3  C3  UNL     1     -33.668  14.934  -5.511  1.00 20.00     0.089 A 
HETATM    4  C4  UNL     1     -34.214  15.892  -4.474  1.00 20.00    -0.006 A 
HETATM    5  C5  UNL     1     -34.830  17.071  -5.249  1.00 20.00     0.034 A 
HETATM    6  C6  UNL     1     -33.435  16.176  -3.223  1.00 20.00     0.018 C 
HETATM    7  C7  UNL     1     -34.062  18.384  -5.056  1.00 20.00     0.039 C 
HETATM    8  C8  UNL     1     -36.303  17.271  -4.890  1.00 20.00     0.039 C 
HETATM    9  N9  UNL     1     -34.689  16.664  -6.651  1.00 20.00    -0.351 N 
HETATM   10  O10 UNL     1     -33.694  14.937  -7.894  1.00 20.00    -0.273 OA
HETATM   11  H23 UNL     1     -35.032  17.229  -7.421  1.00 20.00     0.163 HD
ENDROOT
TORSDOF 0
ENDMDL
MODEL 6
REMARK VINA RESULT:      -3.6      8.771      9.890
REMARK  0 active torsions:
REMARK  status: ('A' for Active; 'I' for Inactive)
ROOT
HETATM    1  C1  UNL     1     -42.468   5.331  -1.170  1.00 20.00     0.223 A 
HETATM    2  C2  UNL     1     -40.657   5.642   0.622  1.00 20.00     0.027 A 
HETATM    3  C3  UNL     1     -41.138   5.854  -0.781  1.00 20.00     0.089 A 
HETATM    4  C4  UNL     1     -41.357   6.940   0.252  1.00 20.00    -0.006 A 
HETATM    5  C5  UNL     1     -42.880   7.083   0.420  1.00 20.00     0.034 A 
HETATM    6  C6  UNL     1     -40.509   8.178   0.238  1.00 20.00     0.018 C 
HETATM    7  C7  UNL     1     -43.417   8.424  -0.096  1.00 20.00     0.039 C 
HETATM    8  C8  UNL     1     -43.308   6.874   1.873  1.00 20.00     0.039 C 
HETATM    9  N9  UNL     1     -43.416   6.020  -0.436  1.00 20.00    -0.351 N 
HETATM   10  O10 UNL     1     -42.630   4.439  -1.986  1.00 20.00    -0.273 OA
HETATM   11  H23 UNL     1     -44.411   5.835  -0.521  1.00 20.00     0.163 HD
ENDROOT
TORSDOF 0
ENDMDL
MODEL 7
REMARK VINA RESULT:      -3.6      9.913     10.785
REMARK  0 active torsions:
REMARK  status: ('A' for Active; 'I' for Inactive)
ROOT
HETATM    1  C1  UNL     1     -40.439  12.636   6.213  1.00 20.00     0.223 A 
HETATM    2  C2  UNL     1     -42.803  13.636   6.152  1.00 20.00     0.027 A 
HETATM    3  C3  UNL     1     -41.863  12.563   6.613  1.00 20.00     0.089 A 
HETATM    4  C4  UNL     1     -42.146  13.741   7.520  1.00 20.00    -0.006 A 
HETATM    5  C5  UNL     1     -40.812  14.490   7.692  1.00 20.00     0.034 A 
HETATM    6  C6  UNL     1     -43.046  13.580   8.710  1.00 20.00     0.018 C 
HETATM    7  C7  UNL     1     -40.257  14.407   9.120  1.00 20.00     0.039 C 
HETATM    8  C8  UNL     1     -40.929  15.953   7.263  1.00 20.00     0.039 C 
HETATM    9  N9  UNL     1     -39.899  13.761   6.807  1.00 20.00    -0.351 N 
HETATM   10  O10 UNL     1     -39.903  11.826   5.475  1.00 20.00    -0.273 OA
HETATM   11  H23 UNL     1     -38.929  14.034   6.677  1.00 20.00     0.163 HD
ENDROOT
TORSDOF 0
ENDMDL
MODEL 8
REMARK VINA RESULT:      -3.5     12.331     13.543
REMARK  0 active torsions:
REMARK  status: ('A' for Active; 'I' for Inactive)
ROOT
HETATM    1  C1  UNL     1     -34.040  14.890  -4.726  1.00 20.00     0.223 A 
HETATM    2  C2  UNL     1     -35.687  14.867  -6.695  1.00 20.00     0.027 A 
HETATM    3  C3  UNL     1     -35.404  14.630  -5.242  1.00 20.00     0.089 A 
HETATM    4  C4  UNL     1     -35.990  15.956  -5.678  1.00 20.00    -0.006 A 
HETATM    5  C5  UNL     1     -34.939  17.030  -5.343  1.00 20.00     0.034 A 
HETATM    6  C6  UNL     1     -37.439  16.259  -5.431  1.00 20.00     0.018 C 
HETATM    7  C7  UNL     1     -35.387  17.982  -4.228  1.00 20.00     0.039 C 
HETATM    8  C8  UNL     1     -34.539  17.831  -6.583  1.00 20.00     0.039 C 
HETATM    9  N9  UNL     1     -33.804  16.247  -4.844  1.00 20.00    -0.351 N 
HETATM   10  O10 UNL     1     -33.302  14.018  -4.301  1.00 20.00    -0.273 OA
HETATM   11  H23 UNL     1     -32.928  16.675  -4.560  1.00 20.00     0.163 HD
ENDROOT
TORSDOF 0
ENDMDL
MODEL 9
REMARK VINA RESULT:      -3.5     12.162     13.689
REMARK  0 active torsions:
REMARK  status: ('A' for Active; 'I' for Inactive)
ROOT
HETATM    1  C1  UNL     1     -35.860  14.169  -4.874  1.00 20.00     0.223 A 
HETATM    2  C2  UNL     1     -34.069  15.999  -4.689  1.00 20.00     0.027 A 
HETATM    3  C3  UNL     1     -34.630  14.805  -5.400  1.00 20.00     0.089 A 
HETATM    4  C4  UNL     1     -35.000  16.193  -5.876  1.00 20.00    -0.006 A 
HETATM    5  C5  UNL     1     -36.518  16.338  -5.665  1.00 20.00     0.034 A 
HETATM    6  C6  UNL     1     -34.385  16.753  -7.126  1.00 20.00     0.018 C 
HETATM    7  C7  UNL     1     -37.301  16.428  -6.981  1.00 20.00     0.039 C 
HETATM    8  C8  UNL     1     -36.851  17.538  -4.778  1.00 20.00     0.039 C 
HETATM    9  N9  UNL     1     -36.888  15.084  -5.001  1.00 20.00    -0.351 N 
HETATM   10  O10 UNL     1     -35.891  13.041  -4.409  1.00 20.00    -0.273 OA
HETATM   11  H23 UNL     1     -37.837  14.884  -4.701  1.00 20.00     0.163 HD
ENDROOT
TORSDOF 0
ENDMDL
