MODEL 1
REMARK VINA RESULT:      -4.1      0.000      0.000
REMARK  0 active torsions:
REMARK  status: ('A' for Active; 'I' for Inactive)
ROOT
HETATM    1  C1  UNL     1     -34.796   5.002   6.349  1.00 20.00     0.000 C 
HETATM    2  C2  UNL     1     -33.485   5.692   6.706  1.00 20.00     0.003 C 
HETATM    3  C3  UNL     1     -35.100   5.114   4.860  1.00 20.00     0.003 C 
HETATM    4  C4  UNL     1     -32.375   9.035   3.957  1.00 20.00     0.029 C 
HETATM    5  C5  UNL     1     -33.470   7.150   6.245  1.00 20.00     0.038 C 
HETATM    6  C6  UNL     1     -35.092   6.569   4.390  1.00 20.00     0.038 C 
HETATM    7  C7  UNL     1     -33.817   8.759   4.308  1.00 20.00     0.040 C 
HETATM    8  C8  UNL     1     -31.948   7.721   3.346  1.00 20.00     0.168 C 
HETATM    9  C9  UNL     1     -33.784   7.292   4.742  1.00 20.00     0.061 C 
HETATM   10  O10 UNL     1     -32.699   6.691   4.001  1.00 20.00    -0.380 OA
ENDROOT
TORSDOF 0
ENDMDL
MODEL 2
REMARK VINA RESULT:      -4.0     12.261     13.409
REMARK  0 active torsions:
REMARK  status: ('A' for Active; 'I' for Inactive)
ROOT
HETATM    1  C1  UNL     1     -33.851  17.260  -4.120  1.00 20.00     0.000 C 
HETATM    2  C2  UNL     1     -33.246  16.397  -3.019  1.00 20.00     0.003 C 
HETATM    3  C3  UNL     1     -33.452  18.723  -3.966  1.00 20.00     0.003 C 
HETATM    4  C4  UNL     1     -32.426  18.599   0.781  1.00 20.00     0.029 C 
HETATM    5  C5  UNL     1     -33.601  16.926  -1.629  1.00 20.00     0.038 C 
HETATM    6  C6  UNL     1     -33.806  19.263  -2.580  1.00 20.00     0.038 C 
HETATM    7  C7  UNL     1     -33.623  18.937  -0.073  1.00 20.00     0.040 C 
HETATM    8  C8  UNL     1     -31.284  18.821  -0.183  1.00 20.00     0.168 C 
HETATM    9  C9  UNL     1     -33.215  18.408  -1.450  1.00 20.00     0.061 C 
HETATM   10  O10 UNL     1     -31.774  18.503  -1.492  1.00 20.00    -0.380 OA
ENDROOT
TORSDOF 0
ENDMDL
MODEL 3
REMARK VINA RESULT:      -3.9      1.162      2.134
REMARK  0 active torsions:
REMARK  status: ('A' for Active; 'I' for Inactive)
ROOT
HETATM    1  C1  UNL     1     -34.887   5.524   6.064  1.00 20.00     0.000 C 
HETATM    2  C2  UNL     1     -34.994   5.518   4.543  1.00 20.00     0.003 C 
HETATM    3  C3  UNL     1     -34.378   6.863   6.584  1.00 20.00     0.003 C 
HETATM    4  C4  UNL     1     -32.177   8.326   2.507  1.00 20.00     0.029 C 
HETATM    5  C5  UNL     1     -33.669   5.904   3.883  1.00 20.00     0.038 C 
HETATM    6  C6  UNL     1     -33.052   7.256   5.932  1.00 20.00     0.038 C 
HETATM    7  C7  UNL     1     -31.778   7.599   3.768  1.00 20.00     0.040 C 
HETATM    8  C8  UNL     1     -33.401   9.086   2.962  1.00 20.00     0.168 C 
HETATM    9  C9  UNL     1     -33.128   7.252   4.399  1.00 20.00     0.061 C 
HETATM   10  O10 UNL     1     -34.036   8.291   3.971  1.00 20.00    -0.380 OA
ENDROOT
TORSDOF 0
ENDMDL
MODEL 4
REMARK VINA RESULT:      -3.8     12.516     13.294
REMARK  0 active torsions:
REMARK  status: ('A' for Active; 'I' for Inactive)
ROOT
HETATM    1  C1  UNL     1     -32.338  19.125   1.421  1.00 20.00     0.000 C 
HETATM    2  C2  UNL     1     -33.756  19.080   0.863  1.00 20.00     0.003 C 
HETATM    3  C3  UNL     1     -31.302  19.244   0.309  1.00 20.00     0.003 C 
HETATM    4  C4  UNL     1     -34.031  17.446  -3.287  1.00 20.00     0.029 C 
HETATM    5  C5  UNL     1     -33.920  17.966  -0.172  1.00 20.00     0.038 C 
HETATM    6  C6  UNL     1     -31.456  18.132  -0.728  1.00 20.00     0.038 C 
HETATM    7  C7  UNL     1     -33.022  16.907  -2.302  1.00 20.00     0.040 C 
HETATM    8  C8  UNL     1     -33.654  18.908  -3.348  1.00 20.00     0.168 C 
HETATM    9  C9  UNL     1     -32.878  18.059  -1.304  1.00 20.00     0.061 C 
HETATM   10  O10 UNL     1     -33.143  19.263  -2.057  1.00 20.00    -0.380 OA
ENDROOT
TORSDOF 0
ENDMDL
MODEL 5
REMARK VINA RESULT:      -3.8     12.166     13.097
REMARK  0 active torsions:
REMARK  status: ('A' for Active; 'I' for Inactive)
ROOT
HETATM    1  C1  UNL     1     -32.403  18.890   0.793  1.00 20.00     0.000 C 
HETATM    2  C2  UNL     1     -31.496  18.559  -0.386  1.00 20.00     0.003 C 
HETATM    3  C3  UNL     1     -33.746  18.178   0.683  1.00 20.00     0.003 C 
HETATM    4  C4  UNL     1     -33.689  17.472  -4.124  1.00 20.00     0.029 C 
HETATM    5  C5  UNL     1     -32.176  18.860  -1.723  1.00 20.00     0.038 C 
HETATM    6  C6  UNL     1     -34.436  18.476  -0.649  1.00 20.00     0.038 C 
HETATM    7  C7  UNL     1     -34.233  18.512  -3.176  1.00 20.00     0.040 C 
HETATM    8  C8  UNL     1     -33.590  16.258  -3.230  1.00 20.00     0.168 C 
HETATM    9  C9  UNL     1     -33.542  18.159  -1.856  1.00 20.00     0.061 C 
HETATM   10  O10 UNL     1     -33.309  16.734  -1.908  1.00 20.00    -0.380 OA
ENDROOT
TORSDOF 0
ENDMDL
MODEL 6
REMARK VINA RESULT:      -3.7     12.573     13.994
REMARK  0 active torsions:
REMARK  status: ('A' for Active; 'I' for Inactive)
ROOT
HETATM    1  C1  UNL     1     -33.419  16.653  -3.197  1.00 20.00     0.000 C 
HETATM    2  C2  UNL     1     -34.114  17.576  -4.191  1.00 20.00     0.003 C 
HETATM    3  C3  UNL     1     -32.944  15.368  -3.864  1.00 20.00     0.003 C 
HETATM    4  C4  UNL     1     -36.005  15.452  -7.637  1.00 20.00     0.029 C 
HETATM    5  C5  UNL     1     -35.262  16.868  -4.911  1.00 20.00     0.038 C 
HETATM    6  C6  UNL     1     -34.086  14.650  -4.584  1.00 20.00     0.038 C 
HETATM    7  C7  UNL     1     -35.980  14.836  -6.259  1.00 20.00     0.040 C 
HETATM    8  C8  UNL     1     -34.534  15.648  -7.916  1.00 20.00     0.168 C 
HETATM    9  C9  UNL     1     -34.810  15.559  -5.588  1.00 20.00     0.061 C 
HETATM   10  O10 UNL     1     -33.899  15.900  -6.656  1.00 20.00    -0.380 OA
ENDROOT
TORSDOF 0
ENDMDL
MODEL 7
REMARK VINA RESULT:      -3.6      1.014      3.746
REMARK  0 active torsions:
REMARK  status: ('A' for Active; 'I' for Inactive)
ROOT
HETATM    1  C1  UNL     1     -32.050   8.218   2.818  1.00 20.00     0.000 C 
HETATM    2  C2  UNL     1     -31.970   6.705   2.982  1.00 20.00     0.003 C 
HETATM    3  C3  UNL     1     -32.652   8.883   4.050  1.00 20.00     0.003 C 
HETATM    4  C4  UNL     1     -35.032   5.006   5.758  1.00 20.00     0.029 C 
HETATM    5  C5  UNL     1     -33.332   6.102   3.330  1.00 20.00     0.038 C 
HETATM    6  C6  UNL     1     -34.016   8.289   4.403  1.00 20.00     0.038 C 
HETATM    7  C7  UNL     1     -35.351   6.186   4.872  1.00 20.00     0.040 C 
HETATM    8  C8  UNL     1     -33.863   5.529   6.560  1.00 20.00     0.168 C 
HETATM    9  C9  UNL     1     -33.967   6.764   4.568  1.00 20.00     0.061 C 
HETATM   10  O10 UNL     1     -33.150   6.441   5.716  1.00 20.00    -0.380 OA
ENDROOT
TORSDOF 0
ENDMDL
MODEL 8
REMARK VINA RESULT:      -3.5      8.912     10.100
REMARK  0 active torsions:
REMARK  status: ('A' for Active; 'I' for Inactive)
ROOT
HETATM    1  C1  UNL     1     -38.599  12.120   5.316  1.00 20.00     0.000 C 
HETATM    2  C2  UNL     1     -39.895  12.075   4.515  1.00 20.00     0.003 C 
HETATM    3  C3  UNL     1     -38.868  12.114   6.816  1.00 20.00     0.003 C 
HETATM    4  C4  UNL     1     -43.416  13.816   6.643  1.00 20.00     0.029 C 
HETATM    5  C5  UNL     1     -40.844  13.206   4.913  1.00 20.00     0.038 C 
HETATM    6  C6  UNL     1     -39.814  13.245   7.225  1.00 20.00     0.038 C 
HETATM    7  C7  UNL     1     -42.034  14.397   6.817  1.00 20.00     0.040 C 
HETATM    8  C8  UNL     1     -43.212  12.389   7.097  1.00 20.00     0.168 C 
HETATM    9  C9  UNL     1     -41.126  13.229   6.428  1.00 20.00     0.061 C 
HETATM   10  O10 UNL     1     -41.865  12.033   6.762  1.00 20.00    -0.380 OA
ENDROOT
TORSDOF 0
ENDMDL
MODEL 9
REMARK VINA RESULT:      -3.5     12.243     14.039
REMARK  0 active torsions:
REMARK  status: ('A' for Active; 'I' for Inactive)
ROOT
HETATM    1  C1  UNL     1     -35.966  15.570  -7.918  1.00 20.00     0.000 C 
HETATM    2  C2  UNL     1     -34.492  15.927  -7.773  1.00 20.00     0.003 C 
HETATM    3  C3  UNL     1     -36.725  15.789  -6.614  1.00 20.00     0.003 C 
HETATM    4  C4  UNL     1     -32.913  15.510  -3.614  1.00 20.00     0.029 C 
HETATM    5  C5  UNL     1     -33.839  15.169  -6.616  1.00 20.00     0.038 C 
HETATM    6  C6  UNL     1     -36.082  15.032  -5.452  1.00 20.00     0.038 C 
HETATM    7  C7  UNL     1     -33.958  14.562  -4.151  1.00 20.00     0.040 C 
HETATM    8  C8  UNL     1     -33.605  16.845  -3.756  1.00 20.00     0.168 C 
HETATM    9  C9  UNL     1     -34.593  15.367  -5.287  1.00 20.00     0.061 C 
HETATM   10  O10 UNL     1     -34.462  16.754  -4.901  1.00 20.00    -0.380 OA
ENDROOT
TORSDOF 0
ENDMDL
