MODEL 1
REMARK VINA RESULT:      -5.7      0.000      0.000
REMARK  0 active torsions:
REMARK  status: ('A' for Active; 'I' for Inactive)
ROOT
HETATM    1  C1  UNL     1     -34.321   6.081   5.618  1.00 20.00    -0.089 C 
HETATM    2  C2  UNL     1     -34.879   5.293   6.553  1.00 20.00     0.014 C 
HETATM    3  C3  UNL     1     -34.704   5.919   4.168  1.00 20.00     0.033 C 
HETATM    4  C4  UNL     1     -33.344   7.159   6.031  1.00 20.00     0.033 C 
HETATM    5  C5  UNL     1     -33.593   5.418   3.248  1.00 20.00     0.004 C 
HETATM    6  C6  UNL     1     -33.445   8.488   5.273  1.00 20.00     0.004 C 
HETATM    7  C7  UNL     1     -32.347   6.295   3.115  1.00 20.00     0.000 C 
HETATM    8  C8  UNL     1     -32.432   8.656   4.136  1.00 20.00     0.000 C 
HETATM    9  C9  UNL     1     -32.628   7.782   2.896  1.00 20.00     0.000 C 
ENDROOT
TORSDOF 0
ENDMDL
MODEL 2
REMARK VINA RESULT:      -5.6      0.784      3.179
REMARK  0 active torsions:
REMARK  status: ('A' for Active; 'I' for Inactive)
ROOT
HETATM    1  C1  UNL     1     -32.728   7.235   3.256  1.00 20.00    -0.089 C 
HETATM    2  C2  UNL     1     -32.202   7.750   2.131  1.00 20.00     0.014 C 
HETATM    3  C3  UNL     1     -32.701   5.745   3.488  1.00 20.00     0.033 C 
HETATM    4  C4  UNL     1     -33.305   8.159   4.306  1.00 20.00     0.033 C 
HETATM    5  C5  UNL     1     -34.065   5.058   3.501  1.00 20.00     0.004 C 
HETATM    6  C6  UNL     1     -33.036   7.772   5.765  1.00 20.00     0.004 C 
HETATM    7  C7  UNL     1     -35.057   5.495   4.581  1.00 20.00     0.000 C 
HETATM    8  C8  UNL     1     -34.187   7.031   6.453  1.00 20.00     0.000 C 
HETATM    9  C9  UNL     1     -34.470   5.602   5.988  1.00 20.00     0.000 C 
ENDROOT
TORSDOF 0
ENDMDL
MODEL 3
REMARK VINA RESULT:      -5.4      0.960      3.736
REMARK  0 active torsions:
REMARK  status: ('A' for Active; 'I' for Inactive)
ROOT
HETATM    1  C1  UNL     1     -32.955   7.865   4.173  1.00 20.00    -0.089 C 
HETATM    2  C2  UNL     1     -32.243   8.966   3.876  1.00 20.00     0.014 C 
HETATM    3  C3  UNL     1     -34.187   7.973   5.036  1.00 20.00     0.033 C 
HETATM    4  C4  UNL     1     -32.540   6.527   3.603  1.00 20.00     0.033 C 
HETATM    5  C5  UNL     1     -34.094   7.296   6.402  1.00 20.00     0.004 C 
HETATM    6  C6  UNL     1     -33.678   5.599   3.161  1.00 20.00     0.004 C 
HETATM    7  C7  UNL     1     -33.869   5.783   6.417  1.00 20.00     0.000 C 
HETATM    8  C8  UNL     1     -34.058   4.522   4.182  1.00 20.00     0.000 C 
HETATM    9  C9  UNL     1     -34.759   4.991   5.459  1.00 20.00     0.000 C 
ENDROOT
TORSDOF 0
ENDMDL
MODEL 4
REMARK VINA RESULT:      -5.2      0.538      2.500
REMARK  0 active torsions:
REMARK  status: ('A' for Active; 'I' for Inactive)
ROOT
HETATM    1  C1  UNL     1     -34.334   6.004   5.691  1.00 20.00    -0.089 C 
HETATM    2  C2  UNL     1     -35.190   5.627   6.657  1.00 20.00     0.014 C 
HETATM    3  C3  UNL     1     -33.186   6.925   6.016  1.00 20.00     0.033 C 
HETATM    4  C4  UNL     1     -34.503   5.464   4.287  1.00 20.00     0.033 C 
HETATM    5  C5  UNL     1     -33.252   8.309   5.374  1.00 20.00     0.004 C 
HETATM    6  C6  UNL     1     -33.211   5.119   3.538  1.00 20.00     0.004 C 
HETATM    7  C7  UNL     1     -33.240   8.371   3.846  1.00 20.00     0.000 C 
HETATM    8  C8  UNL     1     -32.728   6.199   2.564  1.00 20.00     0.000 C 
HETATM    9  C9  UNL     1     -32.184   7.492   3.175  1.00 20.00     0.000 C 
ENDROOT
TORSDOF 0
ENDMDL
MODEL 5
REMARK VINA RESULT:      -4.6      1.022      3.016
REMARK  0 active torsions:
REMARK  status: ('A' for Active; 'I' for Inactive)
ROOT
HETATM    1  C1  UNL     1     -33.054   5.470   2.891  1.00 20.00    -0.089 C 
HETATM    2  C2  UNL     1     -32.915   4.744   1.768  1.00 20.00     0.014 C 
HETATM    3  C3  UNL     1     -33.359   4.785   4.199  1.00 20.00     0.033 C 
HETATM    4  C4  UNL     1     -32.857   6.969   2.845  1.00 20.00     0.033 C 
HETATM    5  C5  UNL     1     -34.730   5.094   4.797  1.00 20.00     0.004 C 
HETATM    6  C6  UNL     1     -32.134   7.592   4.044  1.00 20.00     0.004 C 
HETATM    7  C7  UNL     1     -35.020   6.550   5.166  1.00 20.00     0.000 C 
HETATM    8  C8  UNL     1     -33.058   8.214   5.096  1.00 20.00     0.000 C 
HETATM    9  C9  UNL     1     -33.901   7.253   5.936  1.00 20.00     0.000 C 
ENDROOT
TORSDOF 0
ENDMDL
MODEL 6
REMARK VINA RESULT:      -4.6      1.051      3.455
REMARK  0 active torsions:
REMARK  status: ('A' for Active; 'I' for Inactive)
ROOT
HETATM    1  C1  UNL     1     -33.357   5.580   3.282  1.00 20.00    -0.089 C 
HETATM    2  C2  UNL     1     -32.830   5.041   2.168  1.00 20.00     0.014 C 
HETATM    3  C3  UNL     1     -33.582   7.069   3.365  1.00 20.00     0.033 C 
HETATM    4  C4  UNL     1     -33.763   4.683   4.430  1.00 20.00     0.033 C 
HETATM    5  C5  UNL     1     -32.722   7.806   4.390  1.00 20.00     0.004 C 
HETATM    6  C6  UNL     1     -35.056   5.065   5.160  1.00 20.00     0.004 C 
HETATM    7  C7  UNL     1     -32.891   7.411   5.858  1.00 20.00     0.000 C 
HETATM    8  C8  UNL     1     -34.848   5.852   6.459  1.00 20.00     0.000 C 
HETATM    9  C9  UNL     1     -34.341   7.289   6.328  1.00 20.00     0.000 C 
ENDROOT
TORSDOF 0
ENDMDL
MODEL 7
REMARK VINA RESULT:      -4.0      1.041      2.903
REMARK  0 active torsions:
REMARK  status: ('A' for Active; 'I' for Inactive)
ROOT
HETATM    1  C1  UNL     1     -33.696   7.797   5.125  1.00 20.00    -0.089 C 
HETATM    2  C2  UNL     1     -33.993   8.953   5.745  1.00 20.00     0.014 C 
HETATM    3  C3  UNL     1     -32.324   7.589   4.534  1.00 20.00     0.033 C 
HETATM    4  C4  UNL     1     -34.727   6.692   5.063  1.00 20.00     0.033 C 
HETATM    5  C5  UNL     1     -32.275   7.480   3.011  1.00 20.00     0.004 C 
HETATM    6  C6  UNL     1     -34.196   5.264   5.237  1.00 20.00     0.004 C 
HETATM    7  C7  UNL     1     -33.039   6.319   2.370  1.00 20.00     0.000 C 
HETATM    8  C8  UNL     1     -33.978   4.499   3.928  1.00 20.00     0.000 C 
HETATM    9  C9  UNL     1     -32.822   4.961   3.037  1.00 20.00     0.000 C 
ENDROOT
TORSDOF 0
ENDMDL
MODEL 8
REMARK VINA RESULT:      -3.6     11.917     13.561
REMARK  0 active torsions:
REMARK  status: ('A' for Active; 'I' for Inactive)
ROOT
HETATM    1  C1  UNL     1     -33.254  17.361  -2.698  1.00 20.00    -0.089 C 
HETATM    2  C2  UNL     1     -32.892  17.826  -1.489  1.00 20.00     0.014 C 
HETATM    3  C3  UNL     1     -33.292  18.290  -3.884  1.00 20.00     0.033 C 
HETATM    4  C4  UNL     1     -33.580  15.893  -2.870  1.00 20.00     0.033 C 
HETATM    5  C5  UNL     1     -34.678  18.554  -4.468  1.00 20.00     0.004 C 
HETATM    6  C6  UNL     1     -33.096  15.243  -4.172  1.00 20.00     0.004 C 
HETATM    7  C7  UNL     1     -35.441  17.351  -5.027  1.00 20.00     0.000 C 
HETATM    8  C8  UNL     1     -34.163  15.130  -5.266  1.00 20.00     0.000 C 
HETATM    9  C9  UNL     1     -34.618  16.431  -5.930  1.00 20.00     0.000 C 
ENDROOT
TORSDOF 0
ENDMDL
MODEL 9
REMARK VINA RESULT:      -3.5     12.123     13.786
REMARK  0 active torsions:
REMARK  status: ('A' for Active; 'I' for Inactive)
ROOT
HETATM    1  C1  UNL     1     -34.231  16.261  -4.550  1.00 20.00    -0.089 C 
HETATM    2  C2  UNL     1     -34.524  15.249  -5.386  1.00 20.00     0.014 C 
HETATM    3  C3  UNL     1     -34.965  17.573  -4.668  1.00 20.00     0.033 C 
HETATM    4  C4  UNL     1     -33.195  16.063  -3.466  1.00 20.00     0.033 C 
HETATM    5  C5  UNL     1     -34.115  18.763  -5.109  1.00 20.00     0.004 C 
HETATM    6  C6  UNL     1     -33.502  16.715  -2.112  1.00 20.00     0.004 C 
HETATM    7  C7  UNL     1     -32.955  19.169  -4.198  1.00 20.00     0.000 C 
HETATM    8  C8  UNL     1     -32.810  18.062  -1.879  1.00 20.00     0.000 C 
HETATM    9  C9  UNL     1     -33.302  19.248  -2.711  1.00 20.00     0.000 C 
ENDROOT
TORSDOF 0
ENDMDL
