MODEL 1
REMARK VINA RESULT:      -5.9      0.000      0.000
REMARK  0 active torsions:
REMARK  status: ('A' for Active; 'I' for Inactive)
ROOT
HETATM    1  C1  UNL     1     -33.090   6.026   2.937  1.00 20.00     0.053 A 
HETATM    2  C2  UNL     1     -33.891   6.173   3.993  1.00 20.00    -0.072 A 
HETATM    3  C3  UNL     1     -32.424   7.325   2.766  1.00 20.00     0.150 A 
HETATM    4  C4  UNL     1     -34.737   5.122   4.634  1.00 20.00     0.034 C 
HETATM    5  C5  UNL     1     -32.840   8.315   3.818  1.00 20.00     0.092 A 
HETATM    6  C6  UNL     1     -34.427   5.042   6.132  1.00 20.00     0.004 C 
HETATM    7  C7  UNL     1     -34.466   6.415   6.810  1.00 20.00     0.001 C 
HETATM    8  C8  UNL     1     -33.541   7.420   6.114  1.00 20.00     0.009 C 
HETATM    9  C9  UNL     1     -33.877   7.536   4.625  1.00 20.00     0.022 A 
HETATM   10  O10 UNL     1     -31.623   7.550   1.871  1.00 20.00    -0.293 OA
ENDROOT
TORSDOF 0
ENDMDL
MODEL 2
REMARK VINA RESULT:      -5.8      2.215      4.112
REMARK  0 active torsions:
REMARK  status: ('A' for Active; 'I' for Inactive)
ROOT
HETATM    1  C1  UNL     1     -33.991   6.876   6.287  1.00 20.00     0.053 A 
HETATM    2  C2  UNL     1     -33.704   7.268   5.045  1.00 20.00    -0.072 A 
HETATM    3  C3  UNL     1     -34.618   5.554   6.145  1.00 20.00     0.150 A 
HETATM    4  C4  UNL     1     -32.987   8.514   4.638  1.00 20.00     0.034 C 
HETATM    5  C5  UNL     1     -34.685   5.112   4.710  1.00 20.00     0.092 A 
HETATM    6  C6  UNL     1     -31.798   8.163   3.738  1.00 20.00     0.004 C 
HETATM    7  C7  UNL     1     -32.193   7.231   2.587  1.00 20.00     0.001 C 
HETATM    8  C8  UNL     1     -32.887   5.962   3.096  1.00 20.00     0.009 C 
HETATM    9  C9  UNL     1     -34.102   6.308   3.959  1.00 20.00     0.022 A 
HETATM   10  O10 UNL     1     -35.022   4.903   7.097  1.00 20.00    -0.293 OA
ENDROOT
TORSDOF 0
ENDMDL
MODEL 3
REMARK VINA RESULT:      -5.6      1.478      2.120
REMARK  0 active torsions:
REMARK  status: ('A' for Active; 'I' for Inactive)
ROOT
HETATM    1  C1  UNL     1     -32.286   7.678   3.790  1.00 20.00     0.053 A 
HETATM    2  C2  UNL     1     -33.313   6.842   3.956  1.00 20.00    -0.072 A 
HETATM    3  C3  UNL     1     -32.477   8.736   4.792  1.00 20.00     0.150 A 
HETATM    4  C4  UNL     1     -33.551   5.556   3.234  1.00 20.00     0.034 C 
HETATM    5  C5  UNL     1     -33.696   8.499   5.639  1.00 20.00     0.092 A 
HETATM    6  C6  UNL     1     -33.752   4.420   4.241  1.00 20.00     0.004 C 
HETATM    7  C7  UNL     1     -34.788   4.769   5.315  1.00 20.00     0.001 C 
HETATM    8  C8  UNL     1     -34.445   6.080   6.032  1.00 20.00     0.009 C 
HETATM    9  C9  UNL     1     -34.288   7.228   5.031  1.00 20.00     0.022 A 
HETATM   10  O10 UNL     1     -31.716   9.684   4.913  1.00 20.00    -0.293 OA
ENDROOT
TORSDOF 0
ENDMDL
MODEL 4
REMARK VINA RESULT:      -5.4      1.013      2.176
REMARK  0 active torsions:
REMARK  status: ('A' for Active; 'I' for Inactive)
ROOT
HETATM    1  C1  UNL     1     -33.171   8.657   4.528  1.00 20.00     0.053 A 
HETATM    2  C2  UNL     1     -33.271   7.413   4.998  1.00 20.00    -0.072 A 
HETATM    3  C3  UNL     1     -32.761   8.513   3.124  1.00 20.00     0.150 A 
HETATM    4  C4  UNL     1     -33.731   6.999   6.358  1.00 20.00     0.034 C 
HETATM    5  C5  UNL     1     -32.633   7.071   2.718  1.00 20.00     0.092 A 
HETATM    6  C6  UNL     1     -34.871   5.984   6.239  1.00 20.00     0.004 C 
HETATM    7  C7  UNL     1     -34.530   4.832   5.287  1.00 20.00     0.001 C 
HETATM    8  C8  UNL     1     -34.107   5.344   3.905  1.00 20.00     0.009 C 
HETATM    9  C9  UNL     1     -32.938   6.325   4.016  1.00 20.00     0.022 A 
HETATM   10  O10 UNL     1     -32.561   9.467   2.387  1.00 20.00    -0.293 OA
ENDROOT
TORSDOF 0
ENDMDL
MODEL 5
REMARK VINA RESULT:      -4.9      2.072      3.549
REMARK  0 active torsions:
REMARK  status: ('A' for Active; 'I' for Inactive)
ROOT
HETATM    1  C1  UNL     1     -33.955   5.617   3.786  1.00 20.00     0.053 A 
HETATM    2  C2  UNL     1     -33.112   6.620   4.037  1.00 20.00    -0.072 A 
HETATM    3  C3  UNL     1     -34.703   5.413   5.035  1.00 20.00     0.150 A 
HETATM    4  C4  UNL     1     -32.175   7.270   3.072  1.00 20.00     0.034 C 
HETATM    5  C5  UNL     1     -34.294   6.388   6.104  1.00 20.00     0.092 A 
HETATM    6  C6  UNL     1     -32.404   8.784   3.058  1.00 20.00     0.004 C 
HETATM    7  C7  UNL     1     -32.411   9.386   4.468  1.00 20.00     0.001 C 
HETATM    8  C8  UNL     1     -33.427   8.687   5.379  1.00 20.00     0.009 C 
HETATM    9  C9  UNL     1     -33.173   7.179   5.430  1.00 20.00     0.022 A 
HETATM   10  O10 UNL     1     -35.560   4.553   5.165  1.00 20.00    -0.293 OA
ENDROOT
TORSDOF 0
ENDMDL
MODEL 6
REMARK VINA RESULT:      -4.8      1.368      1.876
REMARK  0 active torsions:
REMARK  status: ('A' for Active; 'I' for Inactive)
ROOT
HETATM    1  C1  UNL     1     -33.860   4.678   3.755  1.00 20.00     0.053 A 
HETATM    2  C2  UNL     1     -34.186   5.794   4.409  1.00 20.00    -0.072 A 
HETATM    3  C3  UNL     1     -32.961   5.105   2.675  1.00 20.00     0.150 A 
HETATM    4  C4  UNL     1     -35.022   5.903   5.642  1.00 20.00     0.034 C 
HETATM    5  C5  UNL     1     -32.709   6.587   2.702  1.00 20.00     0.092 A 
HETATM    6  C6  UNL     1     -34.262   6.676   6.723  1.00 20.00     0.004 C 
HETATM    7  C7  UNL     1     -33.692   8.000   6.202  1.00 20.00     0.001 C 
HETATM    8  C8  UNL     1     -32.816   7.792   4.960  1.00 20.00     0.009 C 
HETATM    9  C9  UNL     1     -33.587   7.058   3.861  1.00 20.00     0.022 A 
HETATM   10  O10 UNL     1     -32.478   4.329   1.864  1.00 20.00    -0.293 OA
ENDROOT
TORSDOF 0
ENDMDL
MODEL 7
REMARK VINA RESULT:      -4.8      1.970      3.474
REMARK  0 active torsions:
REMARK  status: ('A' for Active; 'I' for Inactive)
ROOT
HETATM    1  C1  UNL     1     -34.234   5.672   5.378  1.00 20.00     0.053 A 
HETATM    2  C2  UNL     1     -33.953   6.856   4.833  1.00 20.00    -0.072 A 
HETATM    3  C3  UNL     1     -33.895   4.678   4.350  1.00 20.00     0.150 A 
HETATM    4  C4  UNL     1     -34.048   8.195   5.491  1.00 20.00     0.034 C 
HETATM    5  C5  UNL     1     -33.344   5.317   3.106  1.00 20.00     0.092 A 
HETATM    6  C6  UNL     1     -32.714   8.936   5.364  1.00 20.00     0.004 C 
HETATM    7  C7  UNL     1     -32.190   8.952   3.924  1.00 20.00     0.001 C 
HETATM    8  C8  UNL     1     -32.087   7.537   3.341  1.00 20.00     0.009 C 
HETATM    9  C9  UNL     1     -33.430   6.809   3.425  1.00 20.00     0.022 A 
HETATM   10  O10 UNL     1     -34.043   3.476   4.511  1.00 20.00    -0.293 OA
ENDROOT
TORSDOF 0
ENDMDL
MODEL 8
REMARK VINA RESULT:      -4.4     15.207     15.922
REMARK  0 active torsions:
REMARK  status: ('A' for Active; 'I' for Inactive)
ROOT
HETATM    1  C1  UNL     1     -24.193  19.201   9.246  1.00 20.00     0.053 A 
HETATM    2  C2  UNL     1     -24.301  18.654  10.459  1.00 20.00    -0.072 A 
HETATM    3  C3  UNL     1     -23.136  18.440   8.567  1.00 20.00     0.150 A 
HETATM    4  C4  UNL     1     -25.287  19.013  11.523  1.00 20.00     0.034 C 
HETATM    5  C5  UNL     1     -22.590  17.336   9.430  1.00 20.00     0.092 A 
HETATM    6  C6  UNL     1     -26.039  17.760  11.981  1.00 20.00     0.004 C 
HETATM    7  C7  UNL     1     -25.093  16.606  12.330  1.00 20.00     0.001 C 
HETATM    8  C8  UNL     1     -24.144  16.279  11.170  1.00 20.00     0.009 C 
HETATM    9  C9  UNL     1     -23.358  17.519  10.738  1.00 20.00     0.022 A 
HETATM   10  O10 UNL     1     -22.765  18.685   7.428  1.00 20.00    -0.293 OA
ENDROOT
TORSDOF 0
ENDMDL
MODEL 9
REMARK VINA RESULT:      -4.1     12.422     12.884
REMARK  0 active torsions:
REMARK  status: ('A' for Active; 'I' for Inactive)
ROOT
HETATM    1  C1  UNL     1     -30.651  18.444   1.114  1.00 20.00     0.053 A 
HETATM    2  C2  UNL     1     -31.692  18.718   0.324  1.00 20.00    -0.072 A 
HETATM    3  C3  UNL     1     -31.094  18.777   2.474  1.00 20.00     0.150 A 
HETATM    4  C4  UNL     1     -31.790  18.485  -1.148  1.00 20.00     0.034 C 
HETATM    5  C5  UNL     1     -32.517  19.261   2.503  1.00 20.00     0.092 A 
HETATM    6  C6  UNL     1     -33.038  17.657  -1.465  1.00 20.00     0.004 C 
HETATM    7  C7  UNL     1     -34.300  18.229  -0.809  1.00 20.00     0.001 C 
HETATM    8  C8  UNL     1     -34.126  18.399   0.706  1.00 20.00     0.009 C 
HETATM    9  C9  UNL     1     -32.904  19.263   1.025  1.00 20.00     0.022 A 
HETATM   10  O10 UNL     1     -30.377  18.658   3.456  1.00 20.00    -0.293 OA
ENDROOT
TORSDOF 0
ENDMDL
