MODEL 1
REMARK VINA RESULT:      -4.2      0.000      0.000
REMARK  3 active torsions:
REMARK  status: ('A' for Active; 'I' for Inactive)
REMARK    1  A    between atoms: C1_1  and  C3_3 
REMARK    2  A    between atoms: C1_1  and  C4_4 
REMARK    3  A    between atoms: C4_4  and  C5_5 
ROOT
HETATM    1  C1  UNL     1     -32.750   8.079   4.395  1.00 20.00     0.127 C 
HETATM    2  O6  UNL     1     -32.204   9.037   4.939  1.00 20.00    -0.298 OA
ENDROOT
BRANCH   1   3
HETATM    3  C3  UNL     1     -32.177   7.422   3.150  1.00 20.00     0.074 C 
HETATM    4  C2  UNL     1     -32.792   6.063   2.868  1.00 20.00     0.013 C 
ENDBRANCH   1   3
BRANCH   1   5
HETATM    5  C4  UNL     1     -34.059   7.491   4.903  1.00 20.00     0.093 C 
BRANCH   5   6
HETATM    6  C5  UNL     1     -33.966   6.889   6.298  1.00 20.00     0.122 C 
HETATM    7 CL7  UNL     1     -34.531   5.200   6.312  1.00 20.00    -0.130 Cl
ENDBRANCH   5   6
ENDBRANCH   1   5
TORSDOF 3
ENDMDL
MODEL 2
REMARK VINA RESULT:      -4.2      2.236      2.788
REMARK  3 active torsions:
REMARK  status: ('A' for Active; 'I' for Inactive)
REMARK    1  A    between atoms: C1_1  and  C3_3 
REMARK    2  A    between atoms: C1_1  and  C4_4 
REMARK    3  A    between atoms: C4_4  and  C5_5 
ROOT
HETATM    1  C1  UNL     1     -34.030   6.908   5.465  1.00 20.00     0.127 C 
HETATM    2  O6  UNL     1     -33.656   6.733   6.624  1.00 20.00    -0.298 OA
ENDROOT
BRANCH   1   3
HETATM    3  C3  UNL     1     -33.699   8.173   4.690  1.00 20.00     0.074 C 
HETATM    4  C2  UNL     1     -32.216   8.310   4.396  1.00 20.00     0.013 C 
ENDBRANCH   1   3
BRANCH   1   5
HETATM    5  C4  UNL     1     -34.881   5.887   4.721  1.00 20.00     0.093 C 
BRANCH   5   6
HETATM    6  C5  UNL     1     -34.095   4.694   4.195  1.00 20.00     0.122 C 
HETATM    7 CL7  UNL     1     -33.112   5.140   2.778  1.00 20.00    -0.130 Cl
ENDBRANCH   5   6
ENDBRANCH   1   5
TORSDOF 3
ENDMDL
MODEL 3
REMARK VINA RESULT:      -4.1      2.517      3.075
REMARK  3 active torsions:
REMARK  status: ('A' for Active; 'I' for Inactive)
REMARK    1  A    between atoms: C1_1  and  C3_3 
REMARK    2  A    between atoms: C1_1  and  C4_4 
REMARK    3  A    between atoms: C4_4  and  C5_5 
ROOT
HETATM    1  C1  UNL     1     -34.007   6.964   5.628  1.00 20.00     0.127 C 
HETATM    2  O6  UNL     1     -33.550   6.643   6.725  1.00 20.00    -0.298 OA
ENDROOT
BRANCH   1   3
HETATM    3  C3  UNL     1     -34.941   6.057   4.845  1.00 20.00     0.074 C 
HETATM    4  C2  UNL     1     -34.339   4.690   4.572  1.00 20.00     0.013 C 
ENDBRANCH   1   3
BRANCH   1   5
HETATM    5  C4  UNL     1     -33.650   8.280   4.951  1.00 20.00     0.093 C 
BRANCH   5   6
HETATM    6  C5  UNL     1     -32.247   8.311   4.360  1.00 20.00     0.122 C 
HETATM    7 CL7  UNL     1     -32.151   7.333   2.874  1.00 20.00    -0.130 Cl
ENDBRANCH   5   6
ENDBRANCH   1   5
TORSDOF 3
ENDMDL
MODEL 4
REMARK VINA RESULT:      -4.1      2.692      3.009
REMARK  3 active torsions:
REMARK  status: ('A' for Active; 'I' for Inactive)
REMARK    1  A    between atoms: C1_1  and  C3_3 
REMARK    2  A    between atoms: C1_1  and  C4_4 
REMARK    3  A    between atoms: C4_4  and  C5_5 
ROOT
HETATM    1  C1  UNL     1     -34.822   5.425   4.768  1.00 20.00     0.127 C 
HETATM    2  O6  UNL     1     -35.830   5.910   4.256  1.00 20.00    -0.298 OA
ENDROOT
BRANCH   1   3
HETATM    3  C3  UNL     1     -33.886   4.507   4.000  1.00 20.00     0.074 C 
HETATM    4  C2  UNL     1     -33.143   5.225   2.888  1.00 20.00     0.013 C 
ENDBRANCH   1   3
BRANCH   1   5
HETATM    5  C4  UNL     1     -34.446   5.677   6.222  1.00 20.00     0.093 C 
BRANCH   5   6
HETATM    6  C5  UNL     1     -34.165   7.139   6.542  1.00 20.00     0.122 C 
HETATM    7 CL7  UNL     1     -33.137   7.888   5.295  1.00 20.00    -0.130 Cl
ENDBRANCH   5   6
ENDBRANCH   1   5
TORSDOF 3
ENDMDL
MODEL 5
REMARK VINA RESULT:      -4.1      2.829      3.954
REMARK  3 active torsions:
REMARK  status: ('A' for Active; 'I' for Inactive)
REMARK    1  A    between atoms: C1_1  and  C3_3 
REMARK    2  A    between atoms: C1_1  and  C4_4 
REMARK    3  A    between atoms: C4_4  and  C5_5 
ROOT
HETATM    1  C1  UNL     1     -34.829   5.447   4.780  1.00 20.00     0.127 C 
HETATM    2  O6  UNL     1     -35.823   5.903   4.217  1.00 20.00    -0.298 OA
ENDROOT
BRANCH   1   3
HETATM    3  C3  UNL     1     -34.527   5.728   6.242  1.00 20.00     0.074 C 
HETATM    4  C2  UNL     1     -34.021   7.141   6.475  1.00 20.00     0.013 C 
ENDBRANCH   1   3
BRANCH   1   5
HETATM    5  C4  UNL     1     -33.803   4.589   4.052  1.00 20.00     0.093 C 
BRANCH   5   6
HETATM    6  C5  UNL     1     -33.204   5.254   2.821  1.00 20.00     0.122 C 
HETATM    7 CL7  UNL     1     -32.493   6.837   3.222  1.00 20.00    -0.130 Cl
ENDBRANCH   5   6
ENDBRANCH   1   5
TORSDOF 3
ENDMDL
MODEL 6
REMARK VINA RESULT:      -3.9      3.169      4.118
REMARK  3 active torsions:
REMARK  status: ('A' for Active; 'I' for Inactive)
REMARK    1  A    between atoms: C1_1  and  C3_3 
REMARK    2  A    between atoms: C1_1  and  C4_4 
REMARK    3  A    between atoms: C4_4  and  C5_5 
ROOT
HETATM    1  C1  UNL     1     -34.016   5.179   4.142  1.00 20.00     0.127 C 
HETATM    2  O6  UNL     1     -34.080   3.987   4.440  1.00 20.00    -0.298 OA
ENDROOT
BRANCH   1   3
HETATM    3  C3  UNL     1     -34.804   6.242   4.888  1.00 20.00     0.074 C 
HETATM    4  C2  UNL     1     -34.432   6.325   6.358  1.00 20.00     0.013 C 
ENDBRANCH   1   3
BRANCH   1   5
HETATM    5  C4  UNL     1     -33.168   5.684   2.982  1.00 20.00     0.093 C 
BRANCH   5   6
HETATM    6  C5  UNL     1     -32.483   7.016   3.252  1.00 20.00     0.122 C 
HETATM    7 CL7  UNL     1     -32.138   7.884   1.735  1.00 20.00    -0.130 Cl
ENDBRANCH   5   6
ENDBRANCH   1   5
TORSDOF 3
ENDMDL
MODEL 7
REMARK VINA RESULT:      -3.9      2.835      3.608
REMARK  3 active torsions:
REMARK  status: ('A' for Active; 'I' for Inactive)
REMARK    1  A    between atoms: C1_1  and  C3_3 
REMARK    2  A    between atoms: C1_1  and  C4_4 
REMARK    3  A    between atoms: C4_4  and  C5_5 
ROOT
HETATM    1  C1  UNL     1     -33.754   5.680   3.891  1.00 20.00     0.127 C 
HETATM    2  O6  UNL     1     -33.198   5.216   2.896  1.00 20.00    -0.298 OA
ENDROOT
BRANCH   1   3
HETATM    3  C3  UNL     1     -34.537   4.810   4.859  1.00 20.00     0.074 C 
HETATM    4  C2  UNL     1     -34.647   5.424   6.243  1.00 20.00     0.013 C 
ENDBRANCH   1   3
BRANCH   1   5
HETATM    5  C4  UNL     1     -33.730   7.167   4.217  1.00 20.00     0.093 C 
BRANCH   5   6
HETATM    6  C5  UNL     1     -32.415   7.854   3.877  1.00 20.00     0.122 C 
HETATM    7 CL7  UNL     1     -32.103   9.229   4.966  1.00 20.00    -0.130 Cl
ENDBRANCH   5   6
ENDBRANCH   1   5
TORSDOF 3
ENDMDL
MODEL 8
REMARK VINA RESULT:      -3.8      2.026      2.423
REMARK  3 active torsions:
REMARK  status: ('A' for Active; 'I' for Inactive)
REMARK    1  A    between atoms: C1_1  and  C3_3 
REMARK    2  A    between atoms: C1_1  and  C4_4 
REMARK    3  A    between atoms: C4_4  and  C5_5 
ROOT
HETATM    1  C1  UNL     1     -33.088   6.236   3.263  1.00 20.00     0.127 C 
HETATM    2  O6  UNL     1     -32.790   5.243   2.600  1.00 20.00    -0.298 OA
ENDROOT
BRANCH   1   3
HETATM    3  C3  UNL     1     -32.212   7.478   3.297  1.00 20.00     0.074 C 
HETATM    4  C2  UNL     1     -32.475   8.348   4.513  1.00 20.00     0.013 C 
ENDBRANCH   1   3
BRANCH   1   5
HETATM    5  C4  UNL     1     -34.339   6.292   4.128  1.00 20.00     0.093 C 
BRANCH   5   6
HETATM    6  C5  UNL     1     -34.597   5.021   4.925  1.00 20.00     0.122 C 
HETATM    7 CL7  UNL     1     -34.341   5.287   6.668  1.00 20.00    -0.130 Cl
ENDBRANCH   5   6
ENDBRANCH   1   5
TORSDOF 3
ENDMDL
MODEL 9
REMARK VINA RESULT:      -3.8      2.592      2.918
REMARK  3 active torsions:
REMARK  status: ('A' for Active; 'I' for Inactive)
REMARK    1  A    between atoms: C1_1  and  C3_3 
REMARK    2  A    between atoms: C1_1  and  C4_4 
REMARK    3  A    between atoms: C4_4  and  C5_5 
ROOT
HETATM    1  C1  UNL     1     -33.978   4.883   3.948  1.00 20.00     0.127 C 
HETATM    2  O6  UNL     1     -33.874   3.715   4.319  1.00 20.00    -0.298 OA
ENDROOT
BRANCH   1   3
HETATM    3  C3  UNL     1     -33.125   5.456   2.828  1.00 20.00     0.074 C 
HETATM    4  C2  UNL     1     -32.546   6.817   3.168  1.00 20.00     0.013 C 
ENDBRANCH   1   3
BRANCH   1   5
HETATM    5  C4  UNL     1     -34.947   5.861   4.600  1.00 20.00     0.093 C 
BRANCH   5   6
HETATM    6  C5  UNL     1     -34.806   5.954   6.112  1.00 20.00     0.122 C 
HETATM    7 CL7  UNL     1     -33.944   7.437   6.592  1.00 20.00    -0.130 Cl
ENDBRANCH   5   6
ENDBRANCH   1   5
TORSDOF 3
ENDMDL
