MODEL 1
REMARK VINA RESULT:      -4.6      0.000      0.000
REMARK  3 active torsions:
REMARK  status: ('A' for Active; 'I' for Inactive)
REMARK    1  A    between atoms: C4_4  and  C10_10 
REMARK    2  A    between atoms: C5_5  and  C11_11 
REMARK    3  A    between atoms: C6_6  and  C12_12 
ROOT
HETATM    1  C7  UNL     1     -33.380   5.084   3.247  1.00 20.00     0.009 C 
HETATM    2  C8  UNL     1     -32.909   5.955   2.084  1.00 20.00     0.010 C 
HETATM    3  C9  UNL     1     -33.601   7.134   4.702  1.00 20.00     0.017 C 
HETATM    4  C10 UNL     1     -34.296   5.863   4.194  1.00 20.00     0.008 C 
HETATM    5  C11 UNL     1     -32.218   7.238   2.570  1.00 20.00     0.015 C 
HETATM    6  C12 UNL     1     -33.125   8.026   3.542  1.00 20.00     0.015 C 
ENDROOT
BRANCH   4   7
HETATM    7  C4  UNL     1     -34.729   4.995   5.336  1.00 20.00    -0.032 C 
HETATM    8  C1  UNL     1     -34.614   5.340   6.623  1.00 20.00     0.007 C 
ENDBRANCH   4   7
BRANCH   6   9
HETATM    9  C6  UNL     1     -32.431   9.237   4.096  1.00 20.00    -0.031 C 
HETATM   10  C3  UNL     1     -32.083   9.379   5.380  1.00 20.00     0.007 C 
ENDBRANCH   6   9
BRANCH   5  11
HETATM   11  C5  UNL     1     -31.813   8.056   1.377  1.00 20.00    -0.031 C 
HETATM   12  C2  UNL     1     -32.660   8.801   0.658  1.00 20.00     0.007 C 
ENDBRANCH   5  11
TORSDOF 3
ENDMDL
MODEL 2
REMARK VINA RESULT:      -4.2     10.913     12.691
REMARK  3 active torsions:
REMARK  status: ('A' for Active; 'I' for Inactive)
REMARK    1  A    between atoms: C4_4  and  C10_10 
REMARK    2  A    between atoms: C5_5  and  C11_11 
REMARK    3  A    between atoms: C6_6  and  C12_12 
ROOT
HETATM    1  C7  UNL     1     -34.928  18.755  -2.077  1.00 20.00     0.009 C 
HETATM    2  C8  UNL     1     -34.847  18.811  -3.601  1.00 20.00     0.010 C 
HETATM    3  C9  UNL     1     -33.479  16.689  -2.070  1.00 20.00     0.017 C 
HETATM    4  C10 UNL     1     -33.687  18.088  -1.476  1.00 20.00     0.008 C 
HETATM    5  C11 UNL     1     -34.630  17.420  -4.217  1.00 20.00     0.015 C 
HETATM    6  C12 UNL     1     -33.390  16.727  -3.606  1.00 20.00     0.015 C 
ENDROOT
BRANCH   4   7
HETATM    7  C4  UNL     1     -33.796  18.028   0.017  1.00 20.00    -0.032 C 
HETATM    8  C1  UNL     1     -32.925  18.601   0.854  1.00 20.00     0.007 C 
ENDBRANCH   4   7
BRANCH   6   9
HETATM    9  C6  UNL     1     -33.215  15.332  -4.131  1.00 20.00    -0.031 C 
HETATM   10  C3  UNL     1     -34.164  14.391  -4.088  1.00 20.00     0.007 C 
ENDBRANCH   6   9
BRANCH   5  11
HETATM   11  C5  UNL     1     -34.529  17.557  -5.709  1.00 20.00    -0.031 C 
HETATM   12  C2  UNL     1     -35.452  17.105  -6.566  1.00 20.00     0.007 C 
ENDBRANCH   5  11
TORSDOF 3
ENDMDL
MODEL 3
REMARK VINA RESULT:      -4.0     10.443     11.462
REMARK  3 active torsions:
REMARK  status: ('A' for Active; 'I' for Inactive)
REMARK    1  A    between atoms: C4_4  and  C10_10 
REMARK    2  A    between atoms: C5_5  and  C11_11 
REMARK    3  A    between atoms: C6_6  and  C12_12 
ROOT
HETATM    1  C7  UNL     1     -41.253  13.418   4.867  1.00 20.00     0.009 C 
HETATM    2  C8  UNL     1     -42.251  14.443   5.401  1.00 20.00     0.010 C 
HETATM    3  C9  UNL     1     -40.002  13.483   7.058  1.00 20.00     0.017 C 
HETATM    4  C10 UNL     1     -40.651  12.581   5.999  1.00 20.00     0.008 C 
HETATM    5  C11 UNL     1     -41.625  15.352   6.470  1.00 20.00     0.015 C 
HETATM    6  C12 UNL     1     -40.996  14.520   7.611  1.00 20.00     0.015 C 
ENDROOT
BRANCH   4   7
HETATM    7  C4  UNL     1     -39.663  11.596   5.454  1.00 20.00    -0.032 C 
HETATM    8  C1  UNL     1     -39.033  11.739   4.283  1.00 20.00     0.007 C 
ENDBRANCH   4   7
BRANCH   6   9
HETATM    9  C6  UNL     1     -40.302  15.390   8.619  1.00 20.00    -0.031 C 
HETATM   10  C3  UNL     1     -40.257  15.127   9.930  1.00 20.00     0.007 C 
ENDBRANCH   6   9
BRANCH   5  11
HETATM   11  C5  UNL     1     -42.669  16.309   6.970  1.00 20.00    -0.031 C 
HETATM   12  C2  UNL     1     -42.683  17.616   6.685  1.00 20.00     0.007 C 
ENDBRANCH   5  11
TORSDOF 3
ENDMDL
MODEL 4
REMARK VINA RESULT:      -4.0     10.536     11.882
REMARK  3 active torsions:
REMARK  status: ('A' for Active; 'I' for Inactive)
REMARK    1  A    between atoms: C4_4  and  C10_10 
REMARK    2  A    between atoms: C5_5  and  C11_11 
REMARK    3  A    between atoms: C6_6  and  C12_12 
ROOT
HETATM    1  C7  UNL     1     -42.404  15.767   5.680  1.00 20.00     0.009 C 
HETATM    2  C8  UNL     1     -41.921  15.440   7.091  1.00 20.00     0.010 C 
HETATM    3  C9  UNL     1     -41.408  13.609   4.832  1.00 20.00     0.017 C 
HETATM    4  C10 UNL     1     -42.661  14.495   4.869  1.00 20.00     0.008 C 
HETATM    5  C11 UNL     1     -40.672  14.546   7.080  1.00 20.00     0.015 C 
HETATM    6  C12 UNL     1     -40.911  13.265   6.248  1.00 20.00     0.015 C 
ENDROOT
BRANCH   4   7
HETATM    7  C4  UNL     1     -43.115  14.839   3.484  1.00 20.00    -0.032 C 
HETATM    8  C1  UNL     1     -42.342  15.437   2.570  1.00 20.00     0.007 C 
ENDBRANCH   4   7
BRANCH   6   9
HETATM    9  C6  UNL     1     -39.672  12.423   6.151  1.00 20.00    -0.031 C 
HETATM   10  C3  UNL     1     -39.238  11.856   5.020  1.00 20.00     0.007 C 
ENDBRANCH   6   9
BRANCH   5  11
HETATM   11  C5  UNL     1     -40.275  14.242   8.496  1.00 20.00    -0.031 C 
HETATM   12  C2  UNL     1     -40.170  15.164   9.458  1.00 20.00     0.007 C 
ENDBRANCH   5  11
TORSDOF 3
ENDMDL
MODEL 5
REMARK VINA RESULT:      -3.9      0.992      2.870
REMARK  3 active torsions:
REMARK  status: ('A' for Active; 'I' for Inactive)
REMARK    1  A    between atoms: C4_4  and  C10_10 
REMARK    2  A    between atoms: C5_5  and  C11_11 
REMARK    3  A    between atoms: C6_6  and  C12_12 
ROOT
HETATM    1  C7  UNL     1     -33.535   8.599   4.914  1.00 20.00     0.009 C 
HETATM    2  C8  UNL     1     -32.676   8.956   3.702  1.00 20.00     0.010 C 
HETATM    3  C9  UNL     1     -33.466   6.165   4.254  1.00 20.00     0.017 C 
HETATM    4  C10 UNL     1     -33.259   7.172   5.393  1.00 20.00     0.008 C 
HETATM    5  C11 UNL     1     -32.861   7.955   2.551  1.00 20.00     0.015 C 
HETATM    6  C12 UNL     1     -32.604   6.507   3.026  1.00 20.00     0.015 C 
ENDROOT
BRANCH   4   7
HETATM    7  C4  UNL     1     -34.125   6.838   6.569  1.00 20.00    -0.032 C 
HETATM    8  C1  UNL     1     -34.873   5.732   6.656  1.00 20.00     0.007 C 
ENDBRANCH   4   7
BRANCH   6   9
HETATM    9  C6  UNL     1     -32.866   5.507   1.936  1.00 20.00    -0.031 C 
HETATM   10  C3  UNL     1     -32.933   4.186   2.133  1.00 20.00     0.007 C 
ENDBRANCH   6   9
BRANCH   5  11
HETATM   11  C5  UNL     1     -31.965   8.350   1.412  1.00 20.00    -0.031 C 
HETATM   12  C2  UNL     1     -32.388   8.990   0.316  1.00 20.00     0.007 C 
ENDBRANCH   5  11
TORSDOF 3
ENDMDL
MODEL 6
REMARK VINA RESULT:      -3.9     10.494     11.594
REMARK  3 active torsions:
REMARK  status: ('A' for Active; 'I' for Inactive)
REMARK    1  A    between atoms: C4_4  and  C10_10 
REMARK    2  A    between atoms: C5_5  and  C11_11 
REMARK    3  A    between atoms: C6_6  and  C12_12 
ROOT
HETATM    1  C7  UNL     1     -41.755  15.759   7.874  1.00 20.00     0.009 C 
HETATM    2  C8  UNL     1     -42.027  15.691   6.373  1.00 20.00     0.010 C 
HETATM    3  C9  UNL     1     -40.241  13.748   7.699  1.00 20.00     0.017 C 
HETATM    4  C10 UNL     1     -40.379  15.185   8.220  1.00 20.00     0.008 C 
HETATM    5  C11 UNL     1     -41.886  14.262   5.827  1.00 20.00     0.015 C 
HETATM    6  C12 UNL     1     -40.507  13.662   6.185  1.00 20.00     0.015 C 
ENDROOT
BRANCH   4   7
HETATM    7  C4  UNL     1     -40.142  15.245   9.697  1.00 20.00    -0.032 C 
HETATM    8  C1  UNL     1     -40.679  14.391  10.576  1.00 20.00     0.007 C 
ENDBRANCH   4   7
BRANCH   6   9
HETATM    9  C6  UNL     1     -40.386  12.234   5.737  1.00 20.00    -0.031 C 
HETATM   10  C3  UNL     1     -39.429  11.785   4.918  1.00 20.00     0.007 C 
ENDBRANCH   6   9
BRANCH   5  11
HETATM   11  C5  UNL     1     -42.135  14.278   4.346  1.00 20.00    -0.031 C 
HETATM   12  C2  UNL     1     -42.622  15.331   3.681  1.00 20.00     0.007 C 
ENDBRANCH   5  11
TORSDOF 3
ENDMDL
MODEL 7
REMARK VINA RESULT:      -3.9     11.419     13.008
REMARK  3 active torsions:
REMARK  status: ('A' for Active; 'I' for Inactive)
REMARK    1  A    between atoms: C4_4  and  C10_10 
REMARK    2  A    between atoms: C5_5  and  C11_11 
REMARK    3  A    between atoms: C6_6  and  C12_12 
ROOT
HETATM    1  C7  UNL     1     -33.956  14.936  -4.405  1.00 20.00     0.009 C 
HETATM    2  C8  UNL     1     -33.100  15.776  -3.459  1.00 20.00     0.010 C 
HETATM    3  C9  UNL     1     -35.291  16.986  -5.026  1.00 20.00     0.017 C 
HETATM    4  C10 UNL     1     -34.505  15.780  -5.558  1.00 20.00     0.008 C 
HETATM    5  C11 UNL     1     -33.865  16.995  -2.920  1.00 20.00     0.015 C 
HETATM    6  C12 UNL     1     -34.441  17.846  -4.074  1.00 20.00     0.015 C 
ENDROOT
BRANCH   4   7
HETATM    7  C4  UNL     1     -35.356  14.941  -6.462  1.00 20.00    -0.032 C 
HETATM    8  C1  UNL     1     -35.988  15.412  -7.543  1.00 20.00     0.007 C 
ENDBRANCH   4   7
BRANCH   6   9
HETATM    9  C6  UNL     1     -35.267  18.992  -3.564  1.00 20.00    -0.031 C 
HETATM   10  C3  UNL     1     -36.431  18.848  -2.923  1.00 20.00     0.007 C 
ENDBRANCH   6   9
BRANCH   5  11
HETATM   11  C5  UNL     1     -32.954  17.786  -2.026  1.00 20.00    -0.031 C 
HETATM   12  C2  UNL     1     -33.151  17.949  -0.713  1.00 20.00     0.007 C 
ENDBRANCH   5  11
TORSDOF 3
ENDMDL
MODEL 8
REMARK VINA RESULT:      -3.9     10.921     12.752
REMARK  3 active torsions:
REMARK  status: ('A' for Active; 'I' for Inactive)
REMARK    1  A    between atoms: C4_4  and  C10_10 
REMARK    2  A    between atoms: C5_5  and  C11_11 
REMARK    3  A    between atoms: C6_6  and  C12_12 
ROOT
HETATM    1  C7  UNL     1     -34.085  18.634  -3.059  1.00 20.00     0.009 C 
HETATM    2  C8  UNL     1     -34.222  18.407  -4.563  1.00 20.00     0.010 C 
HETATM    3  C9  UNL     1     -33.323  16.247  -2.762  1.00 20.00     0.017 C 
HETATM    4  C10 UNL     1     -33.020  17.718  -2.451  1.00 20.00     0.008 C 
HETATM    5  C11 UNL     1     -34.518  16.937  -4.899  1.00 20.00     0.015 C 
HETATM    6  C12 UNL     1     -33.460  15.999  -4.275  1.00 20.00     0.015 C 
ENDROOT
BRANCH   4   7
HETATM    7  C4  UNL     1     -32.916  17.944  -0.974  1.00 20.00    -0.032 C 
HETATM    8  C1  UNL     1     -33.969  18.121  -0.168  1.00 20.00     0.007 C 
ENDBRANCH   4   7
BRANCH   6   9
HETATM    9  C6  UNL     1     -33.783  14.553  -4.517  1.00 20.00    -0.031 C 
HETATM   10  C3  UNL     1     -34.985  14.008  -4.301  1.00 20.00     0.007 C 
ENDBRANCH   6   9
BRANCH   5  11
HETATM   11  C5  UNL     1     -34.607  16.785  -6.390  1.00 20.00    -0.031 C 
HETATM   12  C2  UNL     1     -35.742  16.526  -7.049  1.00 20.00     0.007 C 
ENDBRANCH   5  11
TORSDOF 3
ENDMDL
MODEL 9
REMARK VINA RESULT:      -3.8     10.570     11.872
REMARK  3 active torsions:
REMARK  status: ('A' for Active; 'I' for Inactive)
REMARK    1  A    between atoms: C4_4  and  C10_10 
REMARK    2  A    between atoms: C5_5  and  C11_11 
REMARK    3  A    between atoms: C6_6  and  C12_12 
ROOT
HETATM    1  C7  UNL     1     -42.243  12.542   6.432  1.00 20.00     0.009 C 
HETATM    2  C8  UNL     1     -42.780  12.765   7.844  1.00 20.00     0.010 C 
HETATM    3  C9  UNL     1     -40.299  14.075   6.922  1.00 20.00     0.017 C 
HETATM    4  C10 UNL     1     -40.721  12.702   6.382  1.00 20.00     0.008 C 
HETATM    5  C11 UNL     1     -42.362  14.131   8.409  1.00 20.00     0.015 C 
HETATM    6  C12 UNL     1     -40.829  14.314   8.347  1.00 20.00     0.015 C 
ENDROOT
BRANCH   4   7
HETATM    7  C4  UNL     1     -40.219  12.497   4.986  1.00 20.00    -0.032 C 
HETATM    8  C1  UNL     1     -39.168  11.730   4.674  1.00 20.00     0.007 C 
ENDBRANCH   4   7
BRANCH   6   9
HETATM    9  C6  UNL     1     -40.410  15.679   8.813  1.00 20.00    -0.031 C 
HETATM   10  C3  UNL     1     -40.705  16.813   8.168  1.00 20.00     0.007 C 
ENDBRANCH   6   9
BRANCH   5  11
HETATM   11  C5  UNL     1     -42.898  14.267   9.806  1.00 20.00    -0.031 C 
HETATM   12  C2  UNL     1     -42.647  13.397  10.791  1.00 20.00     0.007 C 
ENDBRANCH   5  11
TORSDOF 3
ENDMDL
