MODEL 1
REMARK VINA RESULT:      -4.9      0.000      0.000
REMARK  2 active torsions:
REMARK  status: ('A' for Active; 'I' for Inactive)
REMARK    1  A    between atoms: C1_1  and  C7_7 
REMARK       I    between atoms: C1_1  and  N9_9 
REMARK    2  A    between atoms: C7_7  and  C8_8 
ROOT
HETATM    1  C1  UNL     1     -32.759   8.084   4.506  1.00 20.00     0.219 C 
HETATM    2  C2  UNL     1     -35.249   5.413   5.127  1.00 20.00     0.021 C 
HETATM    3  C3  UNL     1     -34.431   5.420   6.412  1.00 20.00     0.021 C 
HETATM    4  C4  UNL     1     -34.337   6.127   4.139  1.00 20.00     0.126 C 
HETATM    5  C5  UNL     1     -33.756   6.783   6.375  1.00 20.00     0.126 C 
HETATM    6  N9  UNL     1     -33.571   7.059   4.958  1.00 20.00    -0.352 N 
HETATM    7  O10 UNL     1     -32.561   9.131   5.125  1.00 20.00    -0.273 OA
ENDROOT
BRANCH   1   8
HETATM    8  C7  UNL     1     -32.110   7.854   3.165  1.00 20.00     0.103 C 
BRANCH   8   9
HETATM    9  C8  UNL     1     -32.591   8.887   2.160  1.00 20.00     0.005 C 
HETATM   10  C6  UNL     1     -32.241   8.522   0.724  1.00 20.00     0.005 C 
ENDBRANCH   8   9
ENDBRANCH   1   8
TORSDOF 2
ENDMDL
MODEL 2
REMARK VINA RESULT:      -4.5      1.599      2.045
REMARK  2 active torsions:
REMARK  status: ('A' for Active; 'I' for Inactive)
REMARK    1  A    between atoms: C1_1  and  C7_7 
REMARK       I    between atoms: C1_1  and  N9_9 
REMARK    2  A    between atoms: C7_7  and  C8_8 
ROOT
HETATM    1  C1  UNL     1     -32.767   6.745   3.108  1.00 20.00     0.219 C 
HETATM    2  C2  UNL     1     -34.067   6.667   6.576  1.00 20.00     0.021 C 
HETATM    3  C3  UNL     1     -35.086   5.830   5.812  1.00 20.00     0.021 C 
HETATM    4  C4  UNL     1     -33.376   7.454   5.471  1.00 20.00     0.126 C 
HETATM    5  C5  UNL     1     -34.333   5.454   4.546  1.00 20.00     0.126 C 
HETATM    6  N9  UNL     1     -33.440   6.578   4.306  1.00 20.00    -0.352 N 
HETATM    7  O10 UNL     1     -32.408   5.815   2.384  1.00 20.00    -0.273 OA
ENDROOT
BRANCH   1   8
HETATM    8  C7  UNL     1     -32.476   8.172   2.720  1.00 20.00     0.103 C 
BRANCH   8   9
HETATM    9  C8  UNL     1     -32.038   8.247   1.267  1.00 20.00     0.005 C 
HETATM   10  C6  UNL     1     -32.748   9.347   0.491  1.00 20.00     0.005 C 
ENDBRANCH   8   9
ENDBRANCH   1   8
TORSDOF 2
ENDMDL
MODEL 3
REMARK VINA RESULT:      -3.9     11.784     12.370
REMARK  2 active torsions:
REMARK  status: ('A' for Active; 'I' for Inactive)
REMARK    1  A    between atoms: C1_1  and  C7_7 
REMARK       I    between atoms: C1_1  and  N9_9 
REMARK    2  A    between atoms: C7_7  and  C8_8 
ROOT
HETATM    1  C1  UNL     1     -32.730  18.649  -1.772  1.00 20.00     0.219 C 
HETATM    2  C2  UNL     1     -32.328  18.855   1.904  1.00 20.00     0.021 C 
HETATM    3  C3  UNL     1     -30.947  18.416   1.436  1.00 20.00     0.021 C 
HETATM    4  C4  UNL     1     -33.217  18.508   0.718  1.00 20.00     0.126 C 
HETATM    5  C5  UNL     1     -30.954  18.793  -0.038  1.00 20.00     0.126 C 
HETATM    6  N9  UNL     1     -32.345  18.648  -0.444  1.00 20.00    -0.352 N 
HETATM    7  O10 UNL     1     -32.138  19.263  -2.661  1.00 20.00    -0.273 OA
ENDROOT
BRANCH   1   8
HETATM    8  C7  UNL     1     -33.960  17.838  -2.092  1.00 20.00     0.103 C 
BRANCH   8   9
HETATM    9  C8  UNL     1     -33.593  16.380  -2.305  1.00 20.00     0.005 C 
HETATM   10  C6  UNL     1     -33.312  16.048  -3.764  1.00 20.00     0.005 C 
ENDBRANCH   8   9
ENDBRANCH   1   8
TORSDOF 2
ENDMDL
MODEL 4
REMARK VINA RESULT:      -3.7     11.682     13.026
REMARK  2 active torsions:
REMARK  status: ('A' for Active; 'I' for Inactive)
REMARK    1  A    between atoms: C1_1  and  C7_7 
REMARK       I    between atoms: C1_1  and  N9_9 
REMARK    2  A    between atoms: C7_7  and  C8_8 
ROOT
HETATM    1  C1  UNL     1     -34.066  15.179  -4.280  1.00 20.00     0.219 C 
HETATM    2  C2  UNL     1     -36.729  16.846  -6.241  1.00 20.00     0.021 C 
HETATM    3  C3  UNL     1     -36.201  15.795  -7.210  1.00 20.00     0.021 C 
HETATM    4  C4  UNL     1     -35.603  16.968  -5.224  1.00 20.00     0.126 C 
HETATM    5  C5  UNL     1     -35.484  14.819  -6.291  1.00 20.00     0.126 C 
HETATM    6  N9  UNL     1     -34.992  15.643  -5.196  1.00 20.00    -0.352 N 
HETATM    7  O10 UNL     1     -33.963  13.999  -3.941  1.00 20.00    -0.273 OA
ENDROOT
BRANCH   1   8
HETATM    8  C7  UNL     1     -33.157  16.226  -3.688  1.00 20.00     0.103 C 
BRANCH   8   9
HETATM    9  C8  UNL     1     -33.574  16.544  -2.262  1.00 20.00     0.005 C 
HETATM   10  C6  UNL     1     -32.790  17.703  -1.662  1.00 20.00     0.005 C 
ENDBRANCH   8   9
ENDBRANCH   1   8
TORSDOF 2
ENDMDL
MODEL 5
REMARK VINA RESULT:      -3.7     12.128     12.991
REMARK  2 active torsions:
REMARK  status: ('A' for Active; 'I' for Inactive)
REMARK    1  A    between atoms: C1_1  and  C7_7 
REMARK       I    between atoms: C1_1  and  N9_9 
REMARK    2  A    between atoms: C7_7  and  C8_8 
ROOT
HETATM    1  C1  UNL     1     -33.834  17.172  -3.996  1.00 20.00     0.219 C 
HETATM    2  C2  UNL     1     -35.659  14.675  -6.033  1.00 20.00     0.021 C 
HETATM    3  C3  UNL     1     -36.673  15.804  -5.892  1.00 20.00     0.021 C 
HETATM    4  C4  UNL     1     -34.678  14.954  -4.903  1.00 20.00     0.126 C 
HETATM    5  C5  UNL     1     -35.804  16.990  -5.502  1.00 20.00     0.126 C 
HETATM    6  N9  UNL     1     -34.706  16.405  -4.747  1.00 20.00    -0.352 N 
HETATM    7  O10 UNL     1     -33.529  18.335  -4.268  1.00 20.00    -0.273 OA
ENDROOT
BRANCH   1   8
HETATM    8  C7  UNL     1     -33.246  16.492  -2.786  1.00 20.00     0.103 C 
BRANCH   8   9
HETATM    9  C8  UNL     1     -33.562  17.281  -1.528  1.00 20.00     0.005 C 
HETATM   10  C6  UNL     1     -32.376  18.091  -1.024  1.00 20.00     0.005 C 
ENDBRANCH   8   9
ENDBRANCH   1   8
TORSDOF 2
ENDMDL
MODEL 6
REMARK VINA RESULT:      -3.7      1.193      4.537
REMARK  2 active torsions:
REMARK  status: ('A' for Active; 'I' for Inactive)
REMARK    1  A    between atoms: C1_1  and  C7_7 
REMARK       I    between atoms: C1_1  and  N9_9 
REMARK    2  A    between atoms: C7_7  and  C8_8 
ROOT
HETATM    1  C1  UNL     1     -32.808   8.278   4.277  1.00 20.00     0.219 C 
HETATM    2  C2  UNL     1     -31.959   8.270   0.672  1.00 20.00     0.021 C 
HETATM    3  C3  UNL     1     -32.832   9.511   0.813  1.00 20.00     0.021 C 
HETATM    4  C4  UNL     1     -32.298   7.471   1.923  1.00 20.00     0.126 C 
HETATM    5  C5  UNL     1     -32.779   9.793   2.307  1.00 20.00     0.126 C 
HETATM    6  N9  UNL     1     -32.635   8.481   2.920  1.00 20.00    -0.352 N 
HETATM    7  O10 UNL     1     -32.569   9.127   5.138  1.00 20.00    -0.273 OA
ENDROOT
BRANCH   1   8
HETATM    8  C7  UNL     1     -33.315   6.914   4.670  1.00 20.00     0.103 C 
BRANCH   8   9
HETATM    9  C8  UNL     1     -33.955   6.963   6.047  1.00 20.00     0.005 C 
HETATM   10  C6  UNL     1     -34.650   5.661   6.423  1.00 20.00     0.005 C 
ENDBRANCH   8   9
ENDBRANCH   1   8
TORSDOF 2
ENDMDL
MODEL 7
REMARK VINA RESULT:      -3.7     10.442     10.901
REMARK  2 active torsions:
REMARK  status: ('A' for Active; 'I' for Inactive)
REMARK    1  A    between atoms: C1_1  and  C7_7 
REMARK       I    between atoms: C1_1  and  N9_9 
REMARK    2  A    between atoms: C7_7  and  C8_8 
ROOT
HETATM    1  C1  UNL     1     -41.574  13.055   6.762  1.00 20.00     0.219 C 
HETATM    2  C2  UNL     1     -40.617  16.062   8.703  1.00 20.00     0.021 C 
HETATM    3  C3  UNL     1     -42.139  16.141   8.683  1.00 20.00     0.021 C 
HETATM    4  C4  UNL     1     -40.310  15.112   7.553  1.00 20.00     0.126 C 
HETATM    5  C5  UNL     1     -42.546  14.717   8.337  1.00 20.00     0.126 C 
HETATM    6  N9  UNL     1     -41.464  14.222   7.497  1.00 20.00    -0.352 N 
HETATM    7  O10 UNL     1     -42.263  12.091   7.099  1.00 20.00    -0.273 OA
ENDROOT
BRANCH   1   8
HETATM    8  C7  UNL     1     -40.774  13.014   5.485  1.00 20.00     0.103 C 
BRANCH   8   9
HETATM    9  C8  UNL     1     -39.805  11.845   5.505  1.00 20.00     0.005 C 
HETATM   10  C6  UNL     1     -39.049  11.681   4.193  1.00 20.00     0.005 C 
ENDBRANCH   8   9
ENDBRANCH   1   8
TORSDOF 2
ENDMDL
MODEL 8
REMARK VINA RESULT:      -3.7     12.026     12.895
REMARK  2 active torsions:
REMARK  status: ('A' for Active; 'I' for Inactive)
REMARK    1  A    between atoms: C1_1  and  C7_7 
REMARK       I    between atoms: C1_1  and  N9_9 
REMARK    2  A    between atoms: C7_7  and  C8_8 
ROOT
HETATM    1  C1  UNL     1     -33.228  17.838  -3.082  1.00 20.00     0.219 C 
HETATM    2  C2  UNL     1     -33.956  14.875  -5.181  1.00 20.00     0.021 C 
HETATM    3  C3  UNL     1     -35.018  15.874  -5.624  1.00 20.00     0.021 C 
HETATM    4  C4  UNL     1     -33.507  15.428  -3.836  1.00 20.00     0.126 C 
HETATM    5  C5  UNL     1     -34.448  17.203  -5.153  1.00 20.00     0.126 C 
HETATM    6  N9  UNL     1     -33.689  16.871  -3.956  1.00 20.00    -0.352 N 
HETATM    7  O10 UNL     1     -32.920  18.983  -3.420  1.00 20.00    -0.273 OA
ENDROOT
BRANCH   1   8
HETATM    8  C7  UNL     1     -33.107  17.408  -1.642  1.00 20.00     0.103 C 
BRANCH   8   9
HETATM    9  C8  UNL     1     -32.696  18.583  -0.771  1.00 20.00     0.005 C 
HETATM   10  C6  UNL     1     -31.255  18.487  -0.290  1.00 20.00     0.005 C 
ENDBRANCH   8   9
ENDBRANCH   1   8
TORSDOF 2
ENDMDL
MODEL 9
REMARK VINA RESULT:      -3.5     11.949     12.783
REMARK  2 active torsions:
REMARK  status: ('A' for Active; 'I' for Inactive)
REMARK    1  A    between atoms: C1_1  and  C7_7 
REMARK       I    between atoms: C1_1  and  N9_9 
REMARK    2  A    between atoms: C7_7  and  C8_8 
ROOT
HETATM    1  C1  UNL     1     -33.819  16.967  -4.108  1.00 20.00     0.219 C 
HETATM    2  C2  UNL     1     -33.267  18.128  -0.635  1.00 20.00     0.021 C 
HETATM    3  C3  UNL     1     -32.291  18.980  -1.437  1.00 20.00     0.021 C 
HETATM    4  C4  UNL     1     -33.568  16.974  -1.580  1.00 20.00     0.126 C 
HETATM    5  C5  UNL     1     -32.836  18.875  -2.853  1.00 20.00     0.126 C 
HETATM    6  N9  UNL     1     -33.439  17.551  -2.914  1.00 20.00    -0.352 N 
HETATM    7  O10 UNL     1     -34.195  17.600  -5.097  1.00 20.00    -0.273 OA
ENDROOT
BRANCH   1   8
HETATM    8  C7  UNL     1     -33.757  15.461  -4.143  1.00 20.00     0.103 C 
BRANCH   8   9
HETATM    9  C8  UNL     1     -34.277  14.940  -5.472  1.00 20.00     0.005 C 
HETATM   10  C6  UNL     1     -35.727  14.480  -5.401  1.00 20.00     0.005 C 
ENDBRANCH   8   9
ENDBRANCH   1   8
TORSDOF 2
ENDMDL
