MODEL 1
REMARK VINA RESULT:      -3.3      0.000      0.000
REMARK  2 active torsions:
REMARK  status: ('A' for Active; 'I' for Inactive)
REMARK    1  A    between atoms: C9_9  and  C11_11 
REMARK    2  A    between atoms: C10_10  and  C11_11 
ROOT
HETATM    1  C6  UNL     1     -39.710  12.830   5.777  1.00 20.00     0.207 A 
HETATM    2  C11 UNL     1     -40.789  13.538   6.557  1.00 20.00     0.089 A 
HETATM    3  O12 UNL     1     -40.007  12.490   7.141  1.00 20.00    -0.374 OA
ENDROOT
BRANCH   2   4
HETATM    4  C9  UNL     1     -42.247  13.208   6.344  1.00 20.00     0.023 C 
HETATM    5  C2  UNL     1     -42.866  12.813   7.698  1.00 20.00     0.012 C 
HETATM    6  C7  UNL     1     -42.690  13.959   8.715  1.00 20.00    -0.013 C 
HETATM    7  C1  UNL     1     -43.381  15.224   8.177  1.00 20.00     0.009 C 
HETATM    8  C3  UNL     1     -41.184  14.242   8.902  1.00 20.00     0.012 C 
HETATM    9  C8  UNL     1     -42.763  15.634   6.828  1.00 20.00    -0.013 C 
HETATM   10  C4  UNL     1     -42.943  14.480   5.819  1.00 20.00     0.012 C 
HETATM   11  C5  UNL     1     -41.256  15.912   7.024  1.00 20.00     0.012 C 
HETATM   12  C10 UNL     1     -40.553  14.648   7.556  1.00 20.00     0.023 C 
ENDBRANCH   2   4
TORSDOF 2
ENDMDL
MODEL 2
REMARK VINA RESULT:      -3.3     13.381     14.803
REMARK  2 active torsions:
REMARK  status: ('A' for Active; 'I' for Inactive)
REMARK    1  A    between atoms: C9_9  and  C11_11 
REMARK    2  A    between atoms: C10_10  and  C11_11 
ROOT
HETATM    1  C6  UNL     1     -33.667  16.262  -2.943  1.00 20.00     0.207 A 
HETATM    2  C11 UNL     1     -34.338  16.130  -4.288  1.00 20.00     0.089 A 
HETATM    3  O12 UNL     1     -32.917  16.264  -4.168  1.00 20.00    -0.374 OA
ENDROOT
BRANCH   2   4
HETATM    4  C9  UNL     1     -35.042  17.305  -4.924  1.00 20.00     0.023 C 
HETATM    5  C2  UNL     1     -34.417  17.563  -6.308  1.00 20.00     0.012 C 
HETATM    6  C7  UNL     1     -34.527  16.297  -7.183  1.00 20.00    -0.013 C 
HETATM    7  C1  UNL     1     -36.010  15.920  -7.345  1.00 20.00     0.009 C 
HETATM    8  C3  UNL     1     -33.780  15.138  -6.491  1.00 20.00     0.012 C 
HETATM    9  C8  UNL     1     -36.642  15.650  -5.968  1.00 20.00    -0.013 C 
HETATM   10  C4  UNL     1     -36.526  16.921  -5.100  1.00 20.00     0.012 C 
HETATM   11  C5  UNL     1     -35.887  14.491  -5.282  1.00 20.00     0.012 C 
HETATM   12  C10 UNL     1     -34.401  14.862  -5.108  1.00 20.00     0.023 C 
ENDBRANCH   2   4
TORSDOF 2
ENDMDL
MODEL 3
REMARK VINA RESULT:      -3.1      0.771      2.617
REMARK  2 active torsions:
REMARK  status: ('A' for Active; 'I' for Inactive)
REMARK    1  A    between atoms: C9_9  and  C11_11 
REMARK    2  A    between atoms: C10_10  and  C11_11 
ROOT
HETATM    1  C6  UNL     1     -40.070  12.154   5.957  1.00 20.00     0.207 A 
HETATM    2  C11 UNL     1     -41.094  13.083   6.561  1.00 20.00     0.089 A 
HETATM    3  O12 UNL     1     -40.793  13.106   5.161  1.00 20.00    -0.374 OA
ENDROOT
BRANCH   2   4
HETATM    4  C9  UNL     1     -40.671  14.312   7.330  1.00 20.00     0.023 C 
HETATM    5  C2  UNL     1     -41.372  15.540   6.719  1.00 20.00     0.012 C 
HETATM    6  C7  UNL     1     -42.902  15.348   6.756  1.00 20.00    -0.013 C 
HETATM    7  C1  UNL     1     -43.354  15.165   8.215  1.00 20.00     0.009 C 
HETATM    8  C3  UNL     1     -43.274  14.089   5.946  1.00 20.00     0.012 C 
HETATM    9  C8  UNL     1     -42.667  13.934   8.833  1.00 20.00    -0.013 C 
HETATM   10  C4  UNL     1     -41.137  14.134   8.789  1.00 20.00     0.012 C 
HETATM   11  C5  UNL     1     -43.042  12.680   8.014  1.00 20.00     0.012 C 
HETATM   12  C10 UNL     1     -42.587  12.850   6.552  1.00 20.00     0.023 C 
ENDBRANCH   2   4
TORSDOF 2
ENDMDL
MODEL 4
REMARK VINA RESULT:      -3.1      1.284      3.014
REMARK  2 active torsions:
REMARK  status: ('A' for Active; 'I' for Inactive)
REMARK    1  A    between atoms: C9_9  and  C11_11 
REMARK    2  A    between atoms: C10_10  and  C11_11 
ROOT
HETATM    1  C6  UNL     1     -41.884  14.594  10.421  1.00 20.00     0.207 A 
HETATM    2  C11 UNL     1     -41.885  14.376   8.929  1.00 20.00     0.089 A 
HETATM    3  O12 UNL     1     -41.761  13.284   9.846  1.00 20.00    -0.374 OA
ENDROOT
BRANCH   2   4
HETATM    4  C9  UNL     1     -40.656  14.662   8.100  1.00 20.00     0.023 C 
HETATM    5  C2  UNL     1     -40.336  13.418   7.249  1.00 20.00     0.012 C 
HETATM    6  C7  UNL     1     -41.545  13.060   6.361  1.00 20.00    -0.013 C 
HETATM    7  C1  UNL     1     -41.868  14.250   5.440  1.00 20.00     0.009 C 
HETATM    8  C3  UNL     1     -42.764  12.766   7.260  1.00 20.00     0.012 C 
HETATM    9  C8  UNL     1     -42.199  15.496   6.281  1.00 20.00    -0.013 C 
HETATM   10  C4  UNL     1     -40.984  15.845   7.167  1.00 20.00     0.012 C 
HETATM   11  C5  UNL     1     -43.417  15.192   7.180  1.00 20.00     0.012 C 
HETATM   12  C10 UNL     1     -43.101  14.006   8.111  1.00 20.00     0.023 C 
ENDBRANCH   2   4
TORSDOF 2
ENDMDL
MODEL 5
REMARK VINA RESULT:      -3.1     21.009     22.306
REMARK  2 active torsions:
REMARK  status: ('A' for Active; 'I' for Inactive)
REMARK    1  A    between atoms: C9_9  and  C11_11 
REMARK    2  A    between atoms: C10_10  and  C11_11 
ROOT
HETATM    1  C6  UNL     1     -24.702  -2.814   9.684  1.00 20.00     0.207 A 
HETATM    2  C11 UNL     1     -25.995  -2.563  10.419  1.00 20.00     0.089 A 
HETATM    3  O12 UNL     1     -25.549  -3.890  10.117  1.00 20.00    -0.374 OA
ENDROOT
BRANCH   2   4
HETATM    4  C9  UNL     1     -27.236  -2.119   9.682  1.00 20.00     0.023 C 
HETATM    5  C2  UNL     1     -28.410  -3.021  10.105  1.00 20.00     0.012 C 
HETATM    6  C7  UNL     1     -28.606  -2.952  11.634  1.00 20.00    -0.013 C 
HETATM    7  C1  UNL     1     -28.896  -1.497  12.041  1.00 20.00     0.009 C 
HETATM    8  C3  UNL     1     -27.315  -3.428  12.332  1.00 20.00     0.012 C 
HETATM    9  C8  UNL     1     -27.725  -0.587  11.631  1.00 20.00    -0.013 C 
HETATM   10  C4  UNL     1     -27.535  -0.666  10.101  1.00 20.00     0.012 C 
HETATM   11  C5  UNL     1     -26.437  -1.073  12.331  1.00 20.00     0.012 C 
HETATM   12  C10 UNL     1     -26.133  -2.527  11.924  1.00 20.00     0.023 C 
ENDBRANCH   2   4
TORSDOF 2
ENDMDL
MODEL 6
REMARK VINA RESULT:      -3.1     13.274     15.074
REMARK  2 active torsions:
REMARK  status: ('A' for Active; 'I' for Inactive)
REMARK    1  A    between atoms: C9_9  and  C11_11 
REMARK    2  A    between atoms: C10_10  and  C11_11 
ROOT
HETATM    1  C6  UNL     1     -37.507  17.765  -4.543  1.00 20.00     0.207 A 
HETATM    2  C11 UNL     1     -36.398  17.034  -5.256  1.00 20.00     0.089 A 
HETATM    3  O12 UNL     1     -36.977  18.228  -5.796  1.00 20.00    -0.374 OA
ENDROOT
BRANCH   2   4
HETATM    4  C9  UNL     1     -36.676  15.774  -6.042  1.00 20.00     0.023 C 
HETATM    5  C2  UNL     1     -36.197  15.981  -7.491  1.00 20.00     0.012 C 
HETATM    6  C7  UNL     1     -34.696  16.337  -7.507  1.00 20.00    -0.013 C 
HETATM    7  C1  UNL     1     -33.898  15.194  -6.855  1.00 20.00     0.009 C 
HETATM    8  C3  UNL     1     -34.476  17.636  -6.703  1.00 20.00     0.012 C 
HETATM    9  C8  UNL     1     -34.362  14.985  -5.402  1.00 20.00    -0.013 C 
HETATM   10  C4  UNL     1     -35.865  14.632  -5.397  1.00 20.00     0.012 C 
HETATM   11  C5  UNL     1     -34.140  16.290  -4.606  1.00 20.00     0.012 C 
HETATM   12  C10 UNL     1     -34.942  17.439  -5.247  1.00 20.00     0.023 C 
ENDBRANCH   2   4
TORSDOF 2
ENDMDL
MODEL 7
REMARK VINA RESULT:      -3.1     14.110     15.470
REMARK  2 active torsions:
REMARK  status: ('A' for Active; 'I' for Inactive)
REMARK    1  A    between atoms: C9_9  and  C11_11 
REMARK    2  A    between atoms: C10_10  and  C11_11 
ROOT
HETATM    1  C6  UNL     1     -34.048  18.849  -7.201  1.00 20.00     0.207 A 
HETATM    2  C11 UNL     1     -34.598  17.546  -6.677  1.00 20.00     0.089 A 
HETATM    3  O12 UNL     1     -35.403  18.443  -7.451  1.00 20.00    -0.374 OA
ENDROOT
BRANCH   2   4
HETATM    4  C9  UNL     1     -35.008  17.400  -5.231  1.00 20.00     0.023 C 
HETATM    5  C2  UNL     1     -36.484  16.965  -5.179  1.00 20.00     0.012 C 
HETATM    6  C7  UNL     1     -36.675  15.646  -5.955  1.00 20.00    -0.013 C 
HETATM    7  C1  UNL     1     -35.790  14.556  -5.327  1.00 20.00     0.009 C 
HETATM    8  C3  UNL     1     -36.255  15.859  -7.425  1.00 20.00     0.012 C 
HETATM    9  C8  UNL     1     -34.311  14.976  -5.382  1.00 20.00    -0.013 C 
HETATM   10  C4  UNL     1     -34.131  16.297  -4.605  1.00 20.00     0.012 C 
HETATM   11  C5  UNL     1     -33.899  15.190  -6.855  1.00 20.00     0.012 C 
HETATM   12  C10 UNL     1     -34.775  16.286  -7.492  1.00 20.00     0.023 C 
ENDBRANCH   2   4
TORSDOF 2
ENDMDL
MODEL 8
REMARK VINA RESULT:      -3.1     13.590     15.157
REMARK  2 active torsions:
REMARK  status: ('A' for Active; 'I' for Inactive)
REMARK    1  A    between atoms: C9_9  and  C11_11 
REMARK    2  A    between atoms: C10_10  and  C11_11 
ROOT
HETATM    1  C6  UNL     1     -36.088  13.729  -4.887  1.00 20.00     0.207 A 
HETATM    2  C11 UNL     1     -35.662  15.051  -5.476  1.00 20.00     0.089 A 
HETATM    3  O12 UNL     1     -36.074  13.958  -6.305  1.00 20.00    -0.374 OA
ENDROOT
BRANCH   2   4
HETATM    4  C9  UNL     1     -34.201  15.421  -5.581  1.00 20.00     0.023 C 
HETATM    5  C2  UNL     1     -33.862  15.671  -7.062  1.00 20.00     0.012 C 
HETATM    6  C7  UNL     1     -34.768  16.781  -7.633  1.00 20.00    -0.013 C 
HETATM    7  C1  UNL     1     -34.555  18.073  -6.825  1.00 20.00     0.009 C 
HETATM    8  C3  UNL     1     -36.243  16.342  -7.511  1.00 20.00     0.012 C 
HETATM    9  C8  UNL     1     -34.901  17.837  -5.345  1.00 20.00    -0.013 C 
HETATM   10  C4  UNL     1     -33.991  16.724  -4.784  1.00 20.00     0.012 C 
HETATM   11  C5  UNL     1     -36.377  17.396  -5.233  1.00 20.00     0.012 C 
HETATM   12  C10 UNL     1     -36.599  16.097  -6.032  1.00 20.00     0.023 C 
ENDBRANCH   2   4
TORSDOF 2
ENDMDL
MODEL 9
REMARK VINA RESULT:      -3.0      1.441      2.964
REMARK  2 active torsions:
REMARK  status: ('A' for Active; 'I' for Inactive)
REMARK    1  A    between atoms: C9_9  and  C11_11 
REMARK    2  A    between atoms: C10_10  and  C11_11 
ROOT
HETATM    1  C6  UNL     1     -41.640  14.017  10.344  1.00 20.00     0.207 A 
HETATM    2  C11 UNL     1     -41.704  14.087   8.838  1.00 20.00     0.089 A 
HETATM    3  O12 UNL     1     -41.784  15.266   9.648  1.00 20.00    -0.374 OA
ENDROOT
BRANCH   2   4
HETATM    4  C9  UNL     1     -42.969  13.731   8.095  1.00 20.00     0.023 C 
HETATM    5  C2  UNL     1     -43.409  14.948   7.260  1.00 20.00     0.012 C 
HETATM    6  C7  UNL     1     -42.283  15.360   6.291  1.00 20.00    -0.013 C 
HETATM    7  C1  UNL     1     -41.960  14.179   5.358  1.00 20.00     0.009 C 
HETATM    8  C3  UNL     1     -41.023  15.724   7.105  1.00 20.00     0.012 C 
HETATM    9  C8  UNL     1     -41.510  12.960   6.182  1.00 20.00    -0.013 C 
HETATM   10  C4  UNL     1     -42.643  12.557   7.150  1.00 20.00     0.012 C 
HETATM   11  C5  UNL     1     -40.251  13.334   6.995  1.00 20.00     0.012 C 
HETATM   12  C10 UNL     1     -40.566  14.512   7.939  1.00 20.00     0.023 C 
ENDBRANCH   2   4
TORSDOF 2
ENDMDL
