MODEL 1
REMARK VINA RESULT:      -3.4      0.000      0.000
REMARK  2 active torsions:
REMARK  status: ('A' for Active; 'I' for Inactive)
REMARK    1  A    between atoms: C2_2  and  C3_3 
REMARK    2  A    between atoms: C2_2  and  S5_5 
ROOT
HETATM    1  C1  UNL     1     -33.098   7.796   5.283  1.00 20.00     0.133 C 
HETATM    2  N4  UNL     1     -32.407   8.496   4.668  1.00 20.00    -0.184 NA
HETATM    3  S5  UNL     1     -34.102   6.782   6.188  1.00 20.00    -0.050 SA
ENDROOT
BRANCH   3   4
HETATM    4  C2  UNL     1     -34.932   5.934   4.811  1.00 20.00     0.105 C 
BRANCH   4   5
HETATM    5  C3  UNL     1     -34.119   4.767   4.272  1.00 20.00     0.126 C 
HETATM    6 CL6  UNL     1     -33.154   5.224   2.846  1.00 20.00    -0.130 Cl
ENDBRANCH   4   5
ENDBRANCH   3   4
TORSDOF 2
ENDMDL
MODEL 2
REMARK VINA RESULT:      -3.4      2.211      2.982
REMARK  2 active torsions:
REMARK  status: ('A' for Active; 'I' for Inactive)
REMARK    1  A    between atoms: C2_2  and  C3_3 
REMARK    2  A    between atoms: C2_2  and  S5_5 
ROOT
HETATM    1  C1  UNL     1     -34.438   5.579   5.401  1.00 20.00     0.133 C 
HETATM    2  N4  UNL     1     -34.734   4.645   4.781  1.00 20.00    -0.184 NA
HETATM    3  S5  UNL     1     -34.005   6.933   6.315  1.00 20.00    -0.050 SA
ENDROOT
BRANCH   3   4
HETATM    4  C2  UNL     1     -33.774   8.110   4.949  1.00 20.00     0.105 C 
BRANCH   4   5
HETATM    5  C3  UNL     1     -32.337   8.149   4.451  1.00 20.00     0.126 C 
HETATM    6 CL6  UNL     1     -32.157   7.367   2.860  1.00 20.00    -0.130 Cl
ENDBRANCH   4   5
ENDBRANCH   3   4
TORSDOF 2
ENDMDL
MODEL 3
REMARK VINA RESULT:      -3.3      2.811      3.066
REMARK  2 active torsions:
REMARK  status: ('A' for Active; 'I' for Inactive)
REMARK    1  A    between atoms: C2_2  and  C3_3 
REMARK    2  A    between atoms: C2_2  and  S5_5 
ROOT
HETATM    1  C1  UNL     1     -32.680   6.524   3.202  1.00 20.00     0.133 C 
HETATM    2  N4  UNL     1     -32.871   5.509   2.672  1.00 20.00    -0.184 NA
HETATM    3  S5  UNL     1     -32.394   8.003   3.966  1.00 20.00    -0.050 SA
ENDROOT
BRANCH   3   4
HETATM    4  C2  UNL     1     -33.807   7.988   5.109  1.00 20.00     0.105 C 
BRANCH   4   5
HETATM    5  C3  UNL     1     -33.637   6.975   6.231  1.00 20.00     0.126 C 
HETATM    6 CL6  UNL     1     -34.776   5.614   6.086  1.00 20.00    -0.130 Cl
ENDBRANCH   4   5
ENDBRANCH   3   4
TORSDOF 2
ENDMDL
MODEL 4
REMARK VINA RESULT:      -3.0      2.454      2.605
REMARK  2 active torsions:
REMARK  status: ('A' for Active; 'I' for Inactive)
REMARK    1  A    between atoms: C2_2  and  C3_3 
REMARK    2  A    between atoms: C2_2  and  S5_5 
ROOT
HETATM    1  C1  UNL     1     -32.613   6.884   3.441  1.00 20.00     0.133 C 
HETATM    2  N4  UNL     1     -32.288   7.913   3.870  1.00 20.00    -0.184 NA
HETATM    3  S5  UNL     1     -33.078   5.389   2.807  1.00 20.00    -0.050 SA
ENDROOT
BRANCH   3   4
HETATM    4  C2  UNL     1     -34.013   4.774   4.239  1.00 20.00     0.105 C 
BRANCH   4   5
HETATM    5  C3  UNL     1     -34.959   5.821   4.809  1.00 20.00     0.126 C 
HETATM    6 CL6  UNL     1     -34.538   6.268   6.481  1.00 20.00    -0.130 Cl
ENDBRANCH   4   5
ENDBRANCH   3   4
TORSDOF 2
ENDMDL
MODEL 5
REMARK VINA RESULT:      -2.8      2.202      2.682
REMARK  2 active torsions:
REMARK  status: ('A' for Active; 'I' for Inactive)
REMARK    1  A    between atoms: C2_2  and  C3_3 
REMARK    2  A    between atoms: C2_2  and  S5_5 
ROOT
HETATM    1  C1  UNL     1     -34.015   6.879   5.838  1.00 20.00     0.133 C 
HETATM    2  N4  UNL     1     -34.284   5.868   6.340  1.00 20.00    -0.184 NA
HETATM    3  S5  UNL     1     -33.631   8.357   5.114  1.00 20.00    -0.050 SA
ENDROOT
BRANCH   3   4
HETATM    4  C2  UNL     1     -32.119   7.841   4.247  1.00 20.00     0.105 C 
BRANCH   4   5
HETATM    5  C3  UNL     1     -32.394   7.380   2.823  1.00 20.00     0.126 C 
HETATM    6 CL6  UNL     1     -32.822   5.653   2.748  1.00 20.00    -0.130 Cl
ENDBRANCH   4   5
ENDBRANCH   3   4
TORSDOF 2
ENDMDL
MODEL 6
REMARK VINA RESULT:      -2.8     12.655     12.901
REMARK  2 active torsions:
REMARK  status: ('A' for Active; 'I' for Inactive)
REMARK    1  A    between atoms: C2_2  and  C3_3 
REMARK    2  A    between atoms: C2_2  and  S5_5 
ROOT
HETATM    1  C1  UNL     1     -31.783  18.651  -0.730  1.00 20.00     0.133 C 
HETATM    2  N4  UNL     1     -30.673  18.618  -0.393  1.00 20.00    -0.184 NA
HETATM    3  S5  UNL     1     -33.400  18.713  -1.219  1.00 20.00    -0.050 SA
ENDROOT
BRANCH   3   4
HETATM    4  C2  UNL     1     -33.573  16.991  -1.774  1.00 20.00     0.105 C 
BRANCH   4   5
HETATM    5  C3  UNL     1     -33.295  16.828  -3.261  1.00 20.00     0.126 C 
HETATM    6 CL6  UNL     1     -33.630  15.174  -3.830  1.00 20.00    -0.130 Cl
ENDBRANCH   4   5
ENDBRANCH   3   4
TORSDOF 2
ENDMDL
MODEL 7
REMARK VINA RESULT:      -2.7      2.533      2.940
REMARK  2 active torsions:
REMARK  status: ('A' for Active; 'I' for Inactive)
REMARK    1  A    between atoms: C2_2  and  C3_3 
REMARK    2  A    between atoms: C2_2  and  S5_5 
ROOT
HETATM    1  C1  UNL     1     -33.342   5.427   3.441  1.00 20.00     0.133 C 
HETATM    2  N4  UNL     1     -32.724   5.976   2.627  1.00 20.00    -0.184 NA
HETATM    3  S5  UNL     1     -34.237   4.615   4.623  1.00 20.00    -0.050 SA
ENDROOT
BRANCH   3   4
HETATM    4  C2  UNL     1     -34.919   6.066   5.480  1.00 20.00     0.105 C 
BRANCH   4   5
HETATM    5  C3  UNL     1     -33.844   6.893   6.169  1.00 20.00     0.126 C 
HETATM    6 CL6  UNL     1     -33.511   8.415   5.305  1.00 20.00    -0.130 Cl
ENDBRANCH   4   5
ENDBRANCH   3   4
TORSDOF 2
ENDMDL
MODEL 8
REMARK VINA RESULT:      -2.7      3.162      3.689
REMARK  2 active torsions:
REMARK  status: ('A' for Active; 'I' for Inactive)
REMARK    1  A    between atoms: C2_2  and  C3_3 
REMARK    2  A    between atoms: C2_2  and  S5_5 
ROOT
HETATM    1  C1  UNL     1     -34.105   5.039   4.087  1.00 20.00     0.133 C 
HETATM    2  N4  UNL     1     -34.881   4.888   4.937  1.00 20.00    -0.184 NA
HETATM    3  S5  UNL     1     -32.979   5.247   2.844  1.00 20.00    -0.050 SA
ENDROOT
BRANCH   3   4
HETATM    4  C2  UNL     1     -32.578   6.995   3.142  1.00 20.00     0.105 C 
BRANCH   4   5
HETATM    5  C3  UNL     1     -33.095   7.489   4.486  1.00 20.00     0.126 C 
HETATM    6 CL6  UNL     1     -32.330   9.022   4.976  1.00 20.00    -0.130 Cl
ENDBRANCH   4   5
ENDBRANCH   3   4
TORSDOF 2
ENDMDL
MODEL 9
REMARK VINA RESULT:      -2.6     13.099     13.368
REMARK  2 active torsions:
REMARK  status: ('A' for Active; 'I' for Inactive)
REMARK    1  A    between atoms: C2_2  and  C3_3 
REMARK    2  A    between atoms: C2_2  and  S5_5 
ROOT
HETATM    1  C1  UNL     1     -31.341  18.890   0.489  1.00 20.00     0.133 C 
HETATM    2  N4  UNL     1     -30.715  18.641  -0.456  1.00 20.00    -0.184 NA
HETATM    3  S5  UNL     1     -32.262  19.255   1.857  1.00 20.00    -0.050 SA
ENDROOT
BRANCH   3   4
HETATM    4  C2  UNL     1     -31.034  18.824   3.125  1.00 20.00     0.105 C 
BRANCH   4   5
HETATM    5  C3  UNL     1     -29.626  19.255   2.742  1.00 20.00     0.126 C 
HETATM    6 CL6  UNL     1     -28.381  18.385   3.673  1.00 20.00    -0.130 Cl
ENDBRANCH   4   5
ENDBRANCH   3   4
TORSDOF 2
ENDMDL
