MODEL 1
REMARK VINA RESULT:      -4.4      0.000      0.000
REMARK  1 active torsions:
REMARK  status: ('A' for Active; 'I' for Inactive)
REMARK    1  A    between atoms: C3_3  and  C7_7 
ROOT
HETATM    1  C1  UNL     1     -34.546  17.008  -4.493  1.00 20.00     0.001 C 
HETATM    2  C2  UNL     1     -33.765  16.199  -3.757  1.00 20.00    -0.083 C 
HETATM    3  C5  UNL     1     -35.140  18.268  -3.939  1.00 20.00     0.196 C 
HETATM    4  C6  UNL     1     -33.425  16.562  -2.335  1.00 20.00     0.069 C 
HETATM    5  C7  UNL     1     -33.735  18.036  -2.040  1.00 20.00     0.148 C 
HETATM    6  C8  UNL     1     -33.200  14.918  -4.287  1.00 20.00     0.043 C 
HETATM    7  O11 UNL     1     -35.052  18.335  -2.511  1.00 20.00    -0.378 OA
ENDROOT
BRANCH   5   8
HETATM    8  C3  UNL     1     -33.683  18.325  -0.576  1.00 20.00     0.007 C 
HETATM    9  C4  UNL     1     -32.595  18.576   0.176  1.00 20.00    -0.089 C 
HETATM   10  C9  UNL     1     -32.714  18.851   1.650  1.00 20.00     0.042 C 
HETATM   11  C10 UNL     1     -31.194  18.608  -0.366  1.00 20.00     0.042 C 
ENDBRANCH   5   8
TORSDOF 1
ENDMDL
MODEL 2
REMARK VINA RESULT:      -4.2      1.582      2.732
REMARK  1 active torsions:
REMARK  status: ('A' for Active; 'I' for Inactive)
REMARK    1  A    between atoms: C3_3  and  C7_7 
ROOT
HETATM    1  C1  UNL     1     -34.869  15.301  -5.154  1.00 20.00     0.001 C 
HETATM    2  C2  UNL     1     -35.090  16.623  -5.078  1.00 20.00    -0.083 C 
HETATM    3  C5  UNL     1     -33.819  14.616  -4.332  1.00 20.00     0.196 C 
HETATM    4  C6  UNL     1     -34.298  17.470  -4.115  1.00 20.00     0.069 C 
HETATM    5  C7  UNL     1     -33.580  16.609  -3.067  1.00 20.00     0.148 C 
HETATM    6  C8  UNL     1     -36.108  17.325  -5.922  1.00 20.00     0.043 C 
HETATM    7  O11 UNL     1     -32.904  15.538  -3.731  1.00 20.00    -0.378 OA
ENDROOT
BRANCH   5   8
HETATM    8  C3  UNL     1     -32.570  17.401  -2.305  1.00 20.00     0.007 C 
HETATM    9  C4  UNL     1     -32.713  17.972  -1.093  1.00 20.00    -0.089 C 
HETATM   10  C9  UNL     1     -31.590  18.743  -0.458  1.00 20.00     0.042 C 
HETATM   11  C10 UNL     1     -33.973  17.895  -0.278  1.00 20.00     0.042 C 
ENDBRANCH   5   8
TORSDOF 1
ENDMDL
MODEL 3
REMARK VINA RESULT:      -4.0     11.010     12.229
REMARK  1 active torsions:
REMARK  status: ('A' for Active; 'I' for Inactive)
REMARK    1  A    between atoms: C3_3  and  C7_7 
ROOT
HETATM    1  C1  UNL     1     -33.700   7.555   6.180  1.00 20.00     0.001 C 
HETATM    2  C2  UNL     1     -34.006   6.470   5.449  1.00 20.00    -0.083 C 
HETATM    3  C5  UNL     1     -32.857   8.671   5.640  1.00 20.00     0.196 C 
HETATM    4  C6  UNL     1     -33.532   6.358   4.023  1.00 20.00     0.069 C 
HETATM    5  C7  UNL     1     -33.058   7.712   3.479  1.00 20.00     0.148 C 
HETATM    6  C8  UNL     1     -34.814   5.331   5.989  1.00 20.00     0.043 C 
HETATM    7  O11 UNL     1     -32.177   8.312   4.433  1.00 20.00    -0.378 OA
ENDROOT
BRANCH   5   8
HETATM    8  C3  UNL     1     -32.319   7.558   2.191  1.00 20.00     0.007 C 
HETATM    9  C4  UNL     1     -32.268   8.425   1.161  1.00 20.00    -0.089 C 
HETATM   10  C9  UNL     1     -31.472   8.118  -0.077  1.00 20.00     0.042 C 
HETATM   11  C10 UNL     1     -32.979   9.748   1.148  1.00 20.00     0.042 C 
ENDBRANCH   5   8
TORSDOF 1
ENDMDL
MODEL 4
REMARK VINA RESULT:      -3.9      1.129      4.666
REMARK  1 active torsions:
REMARK  status: ('A' for Active; 'I' for Inactive)
REMARK    1  A    between atoms: C3_3  and  C7_7 
ROOT
HETATM    1  C1  UNL     1     -33.229  18.886   1.189  1.00 20.00     0.001 C 
HETATM    2  C2  UNL     1     -32.211  18.621   0.354  1.00 20.00    -0.083 C 
HETATM    3  C5  UNL     1     -34.648  18.981   0.715  1.00 20.00     0.196 C 
HETATM    4  C6  UNL     1     -32.475  18.368  -1.107  1.00 20.00     0.069 C 
HETATM    5  C7  UNL     1     -33.960  18.083  -1.371  1.00 20.00     0.148 C 
HETATM    6  C8  UNL     1     -30.785  18.563   0.808  1.00 20.00     0.043 C 
HETATM    7  O11 UNL     1     -34.747  19.078  -0.710  1.00 20.00    -0.378 OA
ENDROOT
BRANCH   5   8
HETATM    8  C3  UNL     1     -34.277  18.127  -2.829  1.00 20.00     0.007 C 
HETATM    9  C4  UNL     1     -34.066  17.164  -3.747  1.00 20.00    -0.089 C 
HETATM   10  C9  UNL     1     -34.446  17.366  -5.188  1.00 20.00     0.042 C 
HETATM   11  C10 UNL     1     -33.452  15.829  -3.432  1.00 20.00     0.042 C 
ENDBRANCH   5   8
TORSDOF 1
ENDMDL
MODEL 5
REMARK VINA RESULT:      -3.9     11.284     12.857
REMARK  1 active torsions:
REMARK  status: ('A' for Active; 'I' for Inactive)
REMARK    1  A    between atoms: C3_3  and  C7_7 
ROOT
HETATM    1  C1  UNL     1     -42.323  14.260   8.688  1.00 20.00     0.001 C 
HETATM    2  C2  UNL     1     -41.248  14.890   8.188  1.00 20.00    -0.083 C 
HETATM    3  C5  UNL     1     -42.898  13.030   8.052  1.00 20.00     0.196 C 
HETATM    4  C6  UNL     1     -40.550  14.348   6.968  1.00 20.00     0.069 C 
HETATM    5  C7  UNL     1     -40.967  12.899   6.678  1.00 20.00     0.148 C 
HETATM    6  C8  UNL     1     -40.688  16.142   8.791  1.00 20.00     0.043 C 
HETATM    7  O11 UNL     1     -42.394  12.809   6.730  1.00 20.00    -0.378 OA
ENDROOT
BRANCH   5   8
HETATM    8  C3  UNL     1     -40.519  12.459   5.323  1.00 20.00     0.007 C 
HETATM    9  C4  UNL     1     -39.280  12.091   4.945  1.00 20.00    -0.089 C 
HETATM   10  C9  UNL     1     -38.990  11.671   3.530  1.00 20.00     0.042 C 
HETATM   11  C10 UNL     1     -38.098  12.062   5.872  1.00 20.00     0.042 C 
ENDBRANCH   5   8
TORSDOF 1
ENDMDL
MODEL 6
REMARK VINA RESULT:      -3.8      1.305      4.719
REMARK  1 active torsions:
REMARK  status: ('A' for Active; 'I' for Inactive)
REMARK    1  A    between atoms: C3_3  and  C7_7 
ROOT
HETATM    1  C1  UNL     1     -34.074  19.022  -1.029  1.00 20.00     0.001 C 
HETATM    2  C2  UNL     1     -32.949  18.399  -1.417  1.00 20.00    -0.083 C 
HETATM    3  C5  UNL     1     -35.317  19.023  -1.866  1.00 20.00     0.196 C 
HETATM    4  C6  UNL     1     -32.915  17.634  -2.714  1.00 20.00     0.069 C 
HETATM    5  C7  UNL     1     -34.329  17.367  -3.248  1.00 20.00     0.148 C 
HETATM    6  C8  UNL     1     -31.688  18.424  -0.609  1.00 20.00     0.043 C 
HETATM    7  O11 UNL     1     -35.077  18.585  -3.208  1.00 20.00    -0.378 OA
ENDROOT
BRANCH   5   8
HETATM    8  C3  UNL     1     -34.300  16.881  -4.660  1.00 20.00     0.007 C 
HETATM    9  C4  UNL     1     -34.170  15.612  -5.092  1.00 20.00    -0.089 C 
HETATM   10  C9  UNL     1     -34.160  15.287  -6.560  1.00 20.00     0.042 C 
HETATM   11  C10 UNL     1     -34.028  14.429  -4.177  1.00 20.00     0.042 C 
ENDBRANCH   5   8
TORSDOF 1
ENDMDL
MODEL 7
REMARK VINA RESULT:      -3.8     11.148     12.236
REMARK  1 active torsions:
REMARK  status: ('A' for Active; 'I' for Inactive)
REMARK    1  A    between atoms: C3_3  and  C7_7 
ROOT
HETATM    1  C1  UNL     1     -41.257  13.380   4.776  1.00 20.00     0.001 C 
HETATM    2  C2  UNL     1     -40.210  12.730   5.310  1.00 20.00    -0.083 C 
HETATM    3  C5  UNL     1     -42.091  14.341   5.568  1.00 20.00     0.196 C 
HETATM    4  C6  UNL     1     -39.812  12.980   6.742  1.00 20.00     0.069 C 
HETATM    5  C7  UNL     1     -40.462  14.257   7.292  1.00 20.00     0.148 C 
HETATM    6  C8  UNL     1     -39.393  11.738   4.541  1.00 20.00     0.043 C 
HETATM    7  O11 UNL     1     -41.857  14.239   6.977  1.00 20.00    -0.378 OA
ENDROOT
BRANCH   5   8
HETATM    8  C3  UNL     1     -40.317  14.352   8.775  1.00 20.00     0.007 C 
HETATM    9  C4  UNL     1     -40.493  15.438   9.552  1.00 20.00    -0.089 C 
HETATM   10  C9  UNL     1     -40.307  15.367  11.043  1.00 20.00     0.042 C 
HETATM   11  C10 UNL     1     -40.884  16.789   9.024  1.00 20.00     0.042 C 
ENDBRANCH   5   8
TORSDOF 1
ENDMDL
MODEL 8
REMARK VINA RESULT:      -3.5     11.323     13.365
REMARK  1 active torsions:
REMARK  status: ('A' for Active; 'I' for Inactive)
REMARK    1  A    between atoms: C3_3  and  C7_7 
ROOT
HETATM    1  C1  UNL     1     -41.078  16.776   9.484  1.00 20.00     0.001 C 
HETATM    2  C2  UNL     1     -40.833  15.609  10.103  1.00 20.00    -0.083 C 
HETATM    3  C5  UNL     1     -40.971  16.932   7.997  1.00 20.00     0.196 C 
HETATM    4  C6  UNL     1     -40.472  14.386   9.299  1.00 20.00     0.069 C 
HETATM    5  C7  UNL     1     -40.803  14.572   7.812  1.00 20.00     0.148 C 
HETATM    6  C8  UNL     1     -40.897  15.451  11.590  1.00 20.00     0.043 C 
HETATM    7  O11 UNL     1     -40.291  15.834   7.377  1.00 20.00    -0.378 OA
ENDROOT
BRANCH   5   8
HETATM    8  C3  UNL     1     -40.185  13.502   6.974  1.00 20.00     0.007 C 
HETATM    9  C4  UNL     1     -40.525  13.134   5.724  1.00 20.00    -0.089 C 
HETATM   10  C9  UNL     1     -39.797  12.027   5.013  1.00 20.00     0.042 C 
HETATM   11  C10 UNL     1     -41.632  13.776   4.938  1.00 20.00     0.042 C 
ENDBRANCH   5   8
TORSDOF 1
ENDMDL
MODEL 9
REMARK VINA RESULT:      -3.4     24.340     25.181
REMARK  1 active torsions:
REMARK  status: ('A' for Active; 'I' for Inactive)
REMARK    1  A    between atoms: C3_3  and  C7_7 
ROOT
HETATM    1  C1  UNL     1     -28.648  -1.740  10.370  1.00 20.00     0.001 C 
HETATM    2  C2  UNL     1     -28.445  -3.068  10.398  1.00 20.00    -0.083 C 
HETATM    3  C5  UNL     1     -27.535  -0.756  10.569  1.00 20.00     0.196 C 
HETATM    4  C6  UNL     1     -27.057  -3.619  10.597  1.00 20.00     0.069 C 
HETATM    5  C7  UNL     1     -25.986  -2.544  10.369  1.00 20.00     0.148 C 
HETATM    6  C8  UNL     1     -29.555  -4.061  10.241  1.00 20.00     0.043 C 
HETATM    7  O11 UNL     1     -26.350  -1.366  11.094  1.00 20.00    -0.378 OA
ENDROOT
BRANCH   5   8
HETATM    8  C3  UNL     1     -24.645  -2.993  10.847  1.00 20.00     0.007 C 
HETATM    9  C4  UNL     1     -23.582  -3.351  10.101  1.00 20.00    -0.089 C 
HETATM   10  C9  UNL     1     -22.292  -3.783  10.742  1.00 20.00     0.042 C 
HETATM   11  C10 UNL     1     -23.577  -3.350   8.599  1.00 20.00     0.042 C 
ENDBRANCH   5   8
TORSDOF 1
ENDMDL
