MODEL 1
REMARK VINA RESULT:      -4.7      0.000      0.000
REMARK  0 active torsions:
REMARK  status: ('A' for Active; 'I' for Inactive)
ROOT
HETATM    1  C1  UNL     1     -31.046  18.517   0.007  1.00 20.00     0.047 C 
HETATM    2  C2  UNL     1     -31.678  18.410  -1.168  1.00 20.00    -0.014 C 
HETATM    3  C3  UNL     1     -31.812  18.598   1.272  1.00 20.00     0.149 C 
HETATM    4  C4  UNL     1     -33.318  18.501   1.207  1.00 20.00     0.084 C 
HETATM    5  C5  UNL     1     -33.846  19.062  -0.107  1.00 20.00     0.021 C 
HETATM    6  C6  UNL     1     -33.746  17.205  -4.050  1.00 20.00     0.000 C 
HETATM    7  C7  UNL     1     -33.301  16.340  -2.877  1.00 20.00     0.001 C 
HETATM    8  C8  UNL     1     -33.215  18.628  -3.931  1.00 20.00     0.001 C 
HETATM    9  C9  UNL     1     -33.697  16.963  -1.537  1.00 20.00     0.013 C 
HETATM   10  C10 UNL     1     -33.585  19.263  -2.589  1.00 20.00     0.013 C 
HETATM   11  C11 UNL     1     -33.187  18.415  -1.353  1.00 20.00    -0.022 C 
HETATM   12  O12 UNL     1     -31.215  18.681   2.343  1.00 20.00    -0.293 OA
ENDROOT
TORSDOF 0
ENDMDL
MODEL 2
REMARK VINA RESULT:      -4.7      2.595      4.658
REMARK  0 active torsions:
REMARK  status: ('A' for Active; 'I' for Inactive)
ROOT
HETATM    1  C1  UNL     1     -33.675  16.077  -3.080  1.00 20.00     0.047 C 
HETATM    2  C2  UNL     1     -33.498  16.755  -1.940  1.00 20.00    -0.014 C 
HETATM    3  C3  UNL     1     -33.986  16.790  -4.341  1.00 20.00     0.149 C 
HETATM    4  C4  UNL     1     -34.043  18.299  -4.318  1.00 20.00     0.084 C 
HETATM    5  C5  UNL     1     -34.498  18.808  -2.957  1.00 20.00     0.021 C 
HETATM    6  C6  UNL     1     -32.188  19.028   0.734  1.00 20.00     0.000 C 
HETATM    7  C7  UNL     1     -31.425  18.637  -0.526  1.00 20.00     0.001 C 
HETATM    8  C8  UNL     1     -33.550  18.349   0.799  1.00 20.00     0.001 C 
HETATM    9  C9  UNL     1     -32.241  18.923  -1.788  1.00 20.00     0.013 C 
HETATM   10  C10 UNL     1     -34.375  18.608  -0.463  1.00 20.00     0.013 C 
HETATM   11  C11 UNL     1     -33.641  18.260  -1.785  1.00 20.00    -0.022 C 
HETATM   12  O12 UNL     1     -34.131  16.153  -5.383  1.00 20.00    -0.293 OA
ENDROOT
TORSDOF 0
ENDMDL
MODEL 3
REMARK VINA RESULT:      -4.3      0.938      2.216
REMARK  0 active torsions:
REMARK  status: ('A' for Active; 'I' for Inactive)
ROOT
HETATM    1  C1  UNL     1     -33.950  18.277   0.528  1.00 20.00     0.047 C 
HETATM    2  C2  UNL     1     -34.039  17.902  -0.754  1.00 20.00    -0.014 C 
HETATM    3  C3  UNL     1     -32.712  18.906   1.045  1.00 20.00     0.149 C 
HETATM    4  C4  UNL     1     -31.579  19.163   0.080  1.00 20.00     0.084 C 
HETATM    5  C5  UNL     1     -31.565  18.126  -1.035  1.00 20.00     0.021 C 
HETATM    6  C6  UNL     1     -34.205  17.872  -4.496  1.00 20.00     0.000 C 
HETATM    7  C7  UNL     1     -34.334  19.119  -3.630  1.00 20.00     0.001 C 
HETATM    8  C8  UNL     1     -34.034  16.616  -3.651  1.00 20.00     0.001 C 
HETATM    9  C9  UNL     1     -33.151  19.261  -2.670  1.00 20.00     0.013 C 
HETATM   10  C10 UNL     1     -32.867  16.745  -2.670  1.00 20.00     0.013 C 
HETATM   11  C11 UNL     1     -32.922  18.014  -1.779  1.00 20.00    -0.022 C 
HETATM   12  O12 UNL     1     -32.652  19.258   2.221  1.00 20.00    -0.293 OA
ENDROOT
TORSDOF 0
ENDMDL
MODEL 4
REMARK VINA RESULT:      -4.2      2.560      4.605
REMARK  0 active torsions:
REMARK  status: ('A' for Active; 'I' for Inactive)
ROOT
HETATM    1  C1  UNL     1     -33.520  19.217  -3.725  1.00 20.00     0.047 C 
HETATM    2  C2  UNL     1     -33.014  19.263  -2.487  1.00 20.00    -0.014 C 
HETATM    3  C3  UNL     1     -34.046  17.948  -4.278  1.00 20.00     0.149 C 
HETATM    4  C4  UNL     1     -34.047  16.724  -3.394  1.00 20.00     0.084 C 
HETATM    5  C5  UNL     1     -32.895  16.767  -2.399  1.00 20.00     0.021 C 
HETATM    6  C6  UNL     1     -32.573  19.160   1.232  1.00 20.00     0.000 C 
HETATM    7  C7  UNL     1     -33.917  19.184   0.515  1.00 20.00     0.001 C 
HETATM    8  C8  UNL     1     -31.411  19.219   0.247  1.00 20.00     0.001 C 
HETATM    9  C9  UNL     1     -34.022  18.066  -0.523  1.00 20.00     0.013 C 
HETATM   10  C10 UNL     1     -31.507  18.119  -0.812  1.00 20.00     0.013 C 
HETATM   11  C11 UNL     1     -32.867  18.069  -1.557  1.00 20.00    -0.022 C 
HETATM   12  O12 UNL     1     -34.521  17.926  -5.412  1.00 20.00    -0.293 OA
ENDROOT
TORSDOF 0
ENDMDL
MODEL 5
REMARK VINA RESULT:      -3.9      4.221      6.565
REMARK  0 active torsions:
REMARK  status: ('A' for Active; 'I' for Inactive)
ROOT
HETATM    1  C1  UNL     1     -36.445  15.328  -5.762  1.00 20.00     0.047 C 
HETATM    2  C2  UNL     1     -35.942  16.128  -4.814  1.00 20.00    -0.014 C 
HETATM    3  C3  UNL     1     -35.740  15.153  -7.053  1.00 20.00     0.149 C 
HETATM    4  C4  UNL     1     -34.417  15.853  -7.251  1.00 20.00     0.084 C 
HETATM    5  C5  UNL     1     -34.363  17.153  -6.460  1.00 20.00     0.021 C 
HETATM    6  C6  UNL     1     -33.776  17.660  -2.169  1.00 20.00     0.000 C 
HETATM    7  C7  UNL     1     -33.611  16.249  -2.718  1.00 20.00     0.001 C 
HETATM    8  C8  UNL     1     -34.963  18.374  -2.804  1.00 20.00     0.001 C 
HETATM    9  C9  UNL     1     -33.499  16.248  -4.244  1.00 20.00     0.013 C 
HETATM   10  C10 UNL     1     -34.879  18.369  -4.332  1.00 20.00     0.013 C 
HETATM   11  C11 UNL     1     -34.678  16.962  -4.953  1.00 20.00    -0.022 C 
HETATM   12  O12 UNL     1     -36.209  14.403  -7.908  1.00 20.00    -0.293 OA
ENDROOT
TORSDOF 0
ENDMDL
MODEL 6
REMARK VINA RESULT:      -3.8     24.140     25.284
REMARK  0 active torsions:
REMARK  status: ('A' for Active; 'I' for Inactive)
ROOT
HETATM    1  C1  UNL     1     -28.463  -1.896  10.215  1.00 20.00     0.047 C 
HETATM    2  C2  UNL     1     -27.154  -2.178  10.231  1.00 20.00    -0.014 C 
HETATM    3  C3  UNL     1     -29.374  -2.488  11.222  1.00 20.00     0.149 C 
HETATM    4  C4  UNL     1     -28.783  -3.372  12.295  1.00 20.00     0.084 C 
HETATM    5  C5  UNL     1     -27.545  -4.097  11.785  1.00 20.00     0.021 C 
HETATM    6  C6  UNL     1     -23.543  -2.475  11.182  1.00 20.00     0.000 C 
HETATM    7  C7  UNL     1     -24.552  -1.564  11.870  1.00 20.00     0.001 C 
HETATM    8  C8  UNL     1     -24.173  -3.236  10.022  1.00 20.00     0.001 C 
HETATM    9  C9  UNL     1     -25.787  -2.340  12.331  1.00 20.00     0.013 C 
HETATM   10  C10 UNL     1     -25.422  -4.004  10.458  1.00 20.00     0.013 C 
HETATM   11  C11 UNL     1     -26.477  -3.138  11.196  1.00 20.00    -0.022 C 
HETATM   12  O12 UNL     1     -30.570  -2.207  11.202  1.00 20.00    -0.293 OA
ENDROOT
TORSDOF 0
ENDMDL
MODEL 7
REMARK VINA RESULT:      -3.8      2.673      4.350
REMARK  0 active torsions:
REMARK  status: ('A' for Active; 'I' for Inactive)
ROOT
HETATM    1  C1  UNL     1     -33.332  16.268  -2.966  1.00 20.00     0.047 C 
HETATM    2  C2  UNL     1     -33.739  16.032  -4.219  1.00 20.00    -0.014 C 
HETATM    3  C3  UNL     1     -33.848  17.434  -2.212  1.00 20.00     0.149 C 
HETATM    4  C4  UNL     1     -34.883  18.315  -2.870  1.00 20.00     0.084 C 
HETATM    5  C5  UNL     1     -34.702  18.334  -4.382  1.00 20.00     0.021 C 
HETATM    6  C6  UNL     1     -35.788  15.236  -7.252  1.00 20.00     0.000 C 
HETATM    7  C7  UNL     1     -36.244  15.024  -5.814  1.00 20.00     0.001 C 
HETATM    8  C8  UNL     1     -34.368  15.785  -7.316  1.00 20.00     0.001 C 
HETATM    9  C9  UNL     1     -36.114  16.305  -4.988  1.00 20.00     0.013 C 
HETATM   10  C10 UNL     1     -34.211  17.057  -6.480  1.00 20.00     0.013 C 
HETATM   11  C11 UNL     1     -34.690  16.916  -5.011  1.00 20.00    -0.022 C 
HETATM   12  O12 UNL     1     -33.475  17.627  -1.056  1.00 20.00    -0.293 OA
ENDROOT
TORSDOF 0
ENDMDL
MODEL 8
REMARK VINA RESULT:      -3.8     23.874     25.036
REMARK  0 active torsions:
REMARK  status: ('A' for Active; 'I' for Inactive)
ROOT
HETATM    1  C1  UNL     1     -28.374  -3.499  12.315  1.00 20.00     0.047 C 
HETATM    2  C2  UNL     1     -27.141  -2.984  12.251  1.00 20.00    -0.014 C 
HETATM    3  C3  UNL     1     -29.391  -3.150  11.295  1.00 20.00     0.149 C 
HETATM    4  C4  UNL     1     -28.985  -2.247  10.155  1.00 20.00     0.084 C 
HETATM    5  C5  UNL     1     -27.896  -1.275  10.588  1.00 20.00     0.021 C 
HETATM    6  C6  UNL     1     -23.657  -2.097  11.196  1.00 20.00     0.000 C 
HETATM    7  C7  UNL     1     -24.490  -3.219  10.591  1.00 20.00     0.001 C 
HETATM    8  C8  UNL     1     -24.403  -1.388  12.321  1.00 20.00     0.001 C 
HETATM    9  C9  UNL     1     -25.852  -2.715  10.112  1.00 20.00     0.013 C 
HETATM   10  C10 UNL     1     -25.777  -0.891  11.867  1.00 20.00     0.013 C 
HETATM   11  C11 UNL     1     -26.663  -1.982  11.211  1.00 20.00    -0.022 C 
HETATM   12  O12 UNL     1     -30.515  -3.643  11.361  1.00 20.00    -0.293 OA
ENDROOT
TORSDOF 0
ENDMDL
MODEL 9
REMARK VINA RESULT:      -3.7      3.639      5.774
REMARK  0 active torsions:
REMARK  status: ('A' for Active; 'I' for Inactive)
ROOT
HETATM    1  C1  UNL     1     -36.734  17.533  -4.611  1.00 20.00     0.047 C 
HETATM    2  C2  UNL     1     -35.640  17.961  -3.969  1.00 20.00    -0.014 C 
HETATM    3  C3  UNL     1     -36.635  16.480  -5.648  1.00 20.00     0.149 C 
HETATM    4  C4  UNL     1     -35.284  15.864  -5.922  1.00 20.00     0.084 C 
HETATM    5  C5  UNL     1     -34.165  16.865  -5.664  1.00 20.00     0.021 C 
HETATM    6  C6  UNL     1     -32.577  18.184  -1.824  1.00 20.00     0.000 C 
HETATM    7  C7  UNL     1     -33.581  17.039  -1.790  1.00 20.00     0.001 C 
HETATM    8  C8  UNL     1     -32.987  19.261  -2.821  1.00 20.00     0.001 C 
HETATM    9  C9  UNL     1     -33.802  16.443  -3.182  1.00 20.00     0.013 C 
HETATM   10  C10 UNL     1     -33.231  18.682  -4.216  1.00 20.00     0.013 C 
HETATM   11  C11 UNL     1     -34.221  17.489  -4.245  1.00 20.00    -0.022 C 
HETATM   12  O12 UNL     1     -37.652  16.088  -6.218  1.00 20.00    -0.293 OA
ENDROOT
TORSDOF 0
ENDMDL
