MODEL 1
REMARK VINA RESULT:      -4.2      0.000      0.000
REMARK  2 active torsions:
REMARK  status: ('A' for Active; 'I' for Inactive)
REMARK    1  A    between atoms: C3_3  and  C8_8 
REMARK    2  A    between atoms: C4_4  and  C7_7 
ROOT
HETATM    1  C5  UNL     1     -41.346  13.654   5.096  1.00 20.00     0.040 C 
HETATM    2  C6  UNL     1     -42.405  14.181   6.037  1.00 20.00     0.045 C 
HETATM    3  C7  UNL     1     -40.868  12.415   5.835  1.00 20.00     0.151 C 
HETATM    4  C8  UNL     1     -41.803  13.886   7.410  1.00 20.00     0.075 C 
HETATM    5  C10 UNL     1     -42.873  13.606   8.460  1.00 20.00     0.050 C 
HETATM    6  O11 UNL     1     -41.002  12.698   7.240  1.00 20.00    -0.367 OA
ENDROOT
BRANCH   3   7
HETATM    7  C4  UNL     1     -39.457  12.056   5.524  1.00 20.00    -0.065 C 
HETATM    8  C2  UNL     1     -38.493  12.093   6.457  1.00 20.00     0.016 C 
HETATM    9  C9  UNL     1     -39.174  11.651   4.108  1.00 20.00     0.045 C 
ENDBRANCH   3   7
BRANCH   4  10
HETATM   10  C3  UNL     1     -40.900  14.986   7.885  1.00 20.00     0.000 C 
HETATM   11  C1  UNL     1     -40.179  14.930   9.011  1.00 20.00     0.010 C 
ENDBRANCH   4  10
TORSDOF 2
ENDMDL
MODEL 2
REMARK VINA RESULT:      -4.0      9.272     10.329
REMARK  2 active torsions:
REMARK  status: ('A' for Active; 'I' for Inactive)
REMARK    1  A    between atoms: C3_3  and  C8_8 
REMARK    2  A    between atoms: C4_4  and  C7_7 
ROOT
HETATM    1  C5  UNL     1     -33.442   6.977   6.323  1.00 20.00     0.040 C 
HETATM    2  C6  UNL     1     -34.605   6.020   6.188  1.00 20.00     0.045 C 
HETATM    3  C7  UNL     1     -33.693   7.930   5.165  1.00 20.00     0.151 C 
HETATM    4  C8  UNL     1     -34.750   5.890   4.672  1.00 20.00     0.075 C 
HETATM    5  C10 UNL     1     -36.195   5.641   4.252  1.00 20.00     0.050 C 
HETATM    6  O11 UNL     1     -34.323   7.157   4.127  1.00 20.00    -0.367 OA
ENDROOT
BRANCH   3   7
HETATM    7  C4  UNL     1     -32.448   8.556   4.643  1.00 20.00    -0.065 C 
HETATM    8  C2  UNL     1     -31.868   9.600   5.255  1.00 20.00     0.016 C 
HETATM    9  C9  UNL     1     -31.879   7.954   3.393  1.00 20.00     0.045 C 
ENDBRANCH   3   7
BRANCH   4  10
HETATM   10  C3  UNL     1     -33.863   4.822   4.103  1.00 20.00     0.000 C 
HETATM   11  C1  UNL     1     -33.195   4.939   2.949  1.00 20.00     0.010 C 
ENDBRANCH   4  10
TORSDOF 2
ENDMDL
MODEL 3
REMARK VINA RESULT:      -3.8     13.019     14.205
REMARK  2 active torsions:
REMARK  status: ('A' for Active; 'I' for Inactive)
REMARK    1  A    between atoms: C3_3  and  C8_8 
REMARK    2  A    between atoms: C4_4  and  C7_7 
ROOT
HETATM    1  C5  UNL     1     -33.157  15.922  -3.639  1.00 20.00     0.040 C 
HETATM    2  C6  UNL     1     -33.880  14.674  -4.094  1.00 20.00     0.045 C 
HETATM    3  C7  UNL     1     -34.218  16.989  -3.857  1.00 20.00     0.151 C 
HETATM    4  C8  UNL     1     -34.696  15.182  -5.282  1.00 20.00     0.075 C 
HETATM    5  C10 UNL     1     -36.006  14.418  -5.448  1.00 20.00     0.050 C 
HETATM    6  O11 UNL     1     -35.001  16.562  -4.988  1.00 20.00    -0.367 OA
ENDROOT
BRANCH   3   7
HETATM    7  C4  UNL     1     -33.646  18.337  -4.120  1.00 20.00    -0.065 C 
HETATM    8  C2  UNL     1     -32.887  18.974  -3.216  1.00 20.00     0.016 C 
HETATM    9  C9  UNL     1     -33.968  18.944  -5.453  1.00 20.00     0.045 C 
ENDBRANCH   3   7
BRANCH   4  10
HETATM   10  C3  UNL     1     -33.920  15.146  -6.565  1.00 20.00     0.000 C 
HETATM   11  C1  UNL     1     -34.210  15.892  -7.638  1.00 20.00     0.010 C 
ENDBRANCH   4  10
TORSDOF 2
ENDMDL
MODEL 4
REMARK VINA RESULT:      -3.8     11.440     12.819
REMARK  2 active torsions:
REMARK  status: ('A' for Active; 'I' for Inactive)
REMARK    1  A    between atoms: C3_3  and  C8_8 
REMARK    2  A    between atoms: C4_4  and  C7_7 
ROOT
HETATM    1  C5  UNL     1     -34.435  18.713  -0.683  1.00 20.00     0.040 C 
HETATM    2  C6  UNL     1     -34.841  18.506  -2.125  1.00 20.00     0.045 C 
HETATM    3  C7  UNL     1     -33.026  19.263  -0.837  1.00 20.00     0.151 C 
HETATM    4  C8  UNL     1     -33.540  18.026  -2.767  1.00 20.00     0.075 C 
HETATM    5  C10 UNL     1     -33.430  18.448  -4.229  1.00 20.00     0.050 C 
HETATM    6  O11 UNL     1     -32.478  18.659  -2.023  1.00 20.00    -0.367 OA
ENDROOT
BRANCH   3   7
HETATM    7  C4  UNL     1     -32.152  18.966   0.331  1.00 20.00    -0.065 C 
HETATM    8  C2  UNL     1     -30.918  18.461   0.183  1.00 20.00     0.016 C 
HETATM    9  C9  UNL     1     -32.731  19.263   1.682  1.00 20.00     0.045 C 
ENDBRANCH   3   7
BRANCH   4  10
HETATM   10  C3  UNL     1     -33.361  16.541  -2.652  1.00 20.00     0.000 C 
HETATM   11  C1  UNL     1     -33.399  15.699  -3.691  1.00 20.00     0.010 C 
ENDBRANCH   4  10
TORSDOF 2
ENDMDL
MODEL 5
REMARK VINA RESULT:      -3.5     12.379     13.666
REMARK  2 active torsions:
REMARK  status: ('A' for Active; 'I' for Inactive)
REMARK    1  A    between atoms: C3_3  and  C8_8 
REMARK    2  A    between atoms: C4_4  and  C7_7 
ROOT
HETATM    1  C5  UNL     1     -35.531  18.142  -3.670  1.00 20.00     0.040 C 
HETATM    2  C6  UNL     1     -36.263  18.428  -4.961  1.00 20.00     0.045 C 
HETATM    3  C7  UNL     1     -34.185  17.654  -4.181  1.00 20.00     0.151 C 
HETATM    4  C8  UNL     1     -35.779  17.300  -5.871  1.00 20.00     0.075 C 
HETATM    5  C10 UNL     1     -35.728  17.724  -7.335  1.00 20.00     0.050 C 
HETATM    6  O11 UNL     1     -34.439  16.991  -5.434  1.00 20.00    -0.367 OA
ENDROOT
BRANCH   3   7
HETATM    7  C4  UNL     1     -33.507  16.719  -3.243  1.00 20.00    -0.065 C 
HETATM    8  C2  UNL     1     -33.344  17.011  -1.944  1.00 20.00     0.016 C 
HETATM    9  C9  UNL     1     -33.016  15.430  -3.833  1.00 20.00     0.045 C 
ENDBRANCH   3   7
BRANCH   4  10
HETATM   10  C3  UNL     1     -36.608  16.058  -5.730  1.00 20.00     0.000 C 
HETATM   11  C1  UNL     1     -36.110  14.816  -5.770  1.00 20.00     0.010 C 
ENDBRANCH   4  10
TORSDOF 2
ENDMDL
MODEL 6
REMARK VINA RESULT:      -3.4     12.571     13.503
REMARK  2 active torsions:
REMARK  status: ('A' for Active; 'I' for Inactive)
REMARK    1  A    between atoms: C3_3  and  C8_8 
REMARK    2  A    between atoms: C4_4  and  C7_7 
ROOT
HETATM    1  C5  UNL     1     -33.851  15.355  -3.692  1.00 20.00     0.040 C 
HETATM    2  C6  UNL     1     -33.208  16.636  -3.212  1.00 20.00     0.045 C 
HETATM    3  C7  UNL     1     -34.103  15.669  -5.158  1.00 20.00     0.151 C 
HETATM    4  C8  UNL     1     -33.979  17.703  -3.988  1.00 20.00     0.075 C 
HETATM    5  C10 UNL     1     -33.122  18.927  -4.290  1.00 20.00     0.050 C 
HETATM    6  O11 UNL     1     -34.356  17.084  -5.237  1.00 20.00    -0.367 OA
ENDROOT
BRANCH   3   7
HETATM    7  C4  UNL     1     -35.254  14.918  -5.727  1.00 20.00    -0.065 C 
HETATM    8  C2  UNL     1     -35.696  15.134  -6.976  1.00 20.00     0.016 C 
HETATM    9  C9  UNL     1     -35.895  13.906  -4.825  1.00 20.00     0.045 C 
ENDBRANCH   3   7
BRANCH   4  10
HETATM   10  C3  UNL     1     -35.236  18.123  -3.285  1.00 20.00     0.000 C 
HETATM   11  C1  UNL     1     -36.393  18.376  -3.907  1.00 20.00     0.010 C 
ENDBRANCH   4  10
TORSDOF 2
ENDMDL
MODEL 7
REMARK VINA RESULT:      -3.4     20.373     22.731
REMARK  2 active torsions:
REMARK  status: ('A' for Active; 'I' for Inactive)
REMARK    1  A    between atoms: C3_3  and  C8_8 
REMARK    2  A    between atoms: C4_4  and  C7_7 
ROOT
HETATM    1  C5  UNL     1     -25.393  -1.014  11.878  1.00 20.00     0.040 C 
HETATM    2  C6  UNL     1     -24.128  -1.707  12.332  1.00 20.00     0.045 C 
HETATM    3  C7  UNL     1     -26.326  -2.194  11.656  1.00 20.00     0.151 C 
HETATM    4  C8  UNL     1     -24.115  -2.968  11.469  1.00 20.00     0.075 C 
HETATM    5  C10 UNL     1     -23.452  -4.143  12.178  1.00 20.00     0.050 C 
HETATM    6  O11 UNL     1     -25.500  -3.294  11.231  1.00 20.00    -0.367 OA
ENDROOT
BRANCH   3   7
HETATM    7  C4  UNL     1     -27.374  -1.926  10.635  1.00 20.00    -0.065 C 
HETATM    8  C2  UNL     1     -28.075  -2.915  10.060  1.00 20.00     0.016 C 
HETATM    9  C9  UNL     1     -27.603  -0.485  10.284  1.00 20.00     0.045 C 
ENDBRANCH   3   7
BRANCH   4  10
HETATM   10  C3  UNL     1     -23.460  -2.741  10.138  1.00 20.00     0.000 C 
HETATM   11  C1  UNL     1     -23.921  -3.235   8.983  1.00 20.00     0.010 C 
ENDBRANCH   4  10
TORSDOF 2
ENDMDL
MODEL 8
REMARK VINA RESULT:      -3.4      1.084      2.031
REMARK  2 active torsions:
REMARK  status: ('A' for Active; 'I' for Inactive)
REMARK    1  A    between atoms: C3_3  and  C8_8 
REMARK    2  A    between atoms: C4_4  and  C7_7 
ROOT
HETATM    1  C5  UNL     1     -42.441  13.752   7.060  1.00 20.00     0.040 C 
HETATM    2  C6  UNL     1     -42.384  14.342   8.451  1.00 20.00     0.045 C 
HETATM    3  C7  UNL     1     -41.204  12.868   7.051  1.00 20.00     0.151 C 
HETATM    4  C8  UNL     1     -40.885  14.551   8.659  1.00 20.00     0.075 C 
HETATM    5  C10 UNL     1     -40.482  14.408  10.123  1.00 20.00     0.050 C 
HETATM    6  O11 UNL     1     -40.234  13.511   7.898  1.00 20.00    -0.367 OA
ENDROOT
BRANCH   3   7
HETATM    7  C4  UNL     1     -40.635  12.673   5.690  1.00 20.00    -0.065 C 
HETATM    8  C2  UNL     1     -39.686  11.757   5.441  1.00 20.00     0.016 C 
HETATM    9  C9  UNL     1     -41.182  13.559   4.610  1.00 20.00     0.045 C 
ENDBRANCH   3   7
BRANCH   4  10
HETATM   10  C3  UNL     1     -40.414  15.873   8.128  1.00 20.00     0.000 C 
HETATM   11  C1  UNL     1     -41.061  17.029   8.318  1.00 20.00     0.010 C 
ENDBRANCH   4  10
TORSDOF 2
ENDMDL
MODEL 9
REMARK VINA RESULT:      -3.3      1.232      4.058
REMARK  2 active torsions:
REMARK  status: ('A' for Active; 'I' for Inactive)
REMARK    1  A    between atoms: C3_3  and  C8_8 
REMARK    2  A    between atoms: C4_4  and  C7_7 
ROOT
HETATM    1  C5  UNL     1     -42.810  13.042   8.110  1.00 20.00     0.040 C 
HETATM    2  C6  UNL     1     -42.916  12.828   6.617  1.00 20.00     0.045 C 
HETATM    3  C7  UNL     1     -42.072  14.370   8.177  1.00 20.00     0.151 C 
HETATM    4  C8  UNL     1     -41.579  13.367   6.111  1.00 20.00     0.075 C 
HETATM    5  C10 UNL     1     -41.690  13.960   4.711  1.00 20.00     0.050 C 
HETATM    6  O11 UNL     1     -41.206  14.416   7.028  1.00 20.00    -0.367 OA
ENDROOT
BRANCH   3   7
HETATM    7  C4  UNL     1     -41.270  14.531   9.421  1.00 20.00    -0.065 C 
HETATM    8  C2  UNL     1     -40.110  15.205   9.435  1.00 20.00     0.016 C 
HETATM    9  C9  UNL     1     -41.833  13.896  10.657  1.00 20.00     0.045 C 
ENDBRANCH   3   7
BRANCH   4  10
HETATM   10  C3  UNL     1     -40.498  12.326   6.138  1.00 20.00     0.000 C 
HETATM   11  C1  UNL     1     -39.799  11.944   5.062  1.00 20.00     0.010 C 
ENDBRANCH   4  10
TORSDOF 2
ENDMDL
