MODEL 1
REMARK VINA RESULT:      -4.3      0.000      0.000
REMARK  2 active torsions:
REMARK  status: ('A' for Active; 'I' for Inactive)
REMARK    1  A    between atoms: C1_1  and  C2_2 
REMARK    2  A    between atoms: C2_2  and  C3_3 
ROOT
HETATM    1  C3  UNL     1     -34.590   5.741   4.905  1.00 20.00     0.393 C 
HETATM    2  F5  UNL     1     -33.818   5.549   3.815  1.00 20.00    -0.171 F 
HETATM    3  F6  UNL     1     -34.618   4.577   5.593  1.00 20.00    -0.171 F 
HETATM    4  F7  UNL     1     -35.848   5.998   4.490  1.00 20.00    -0.171 F 
ENDROOT
BRANCH   1   5
HETATM    5  C2  UNL     1     -34.056   6.853   5.775  1.00 20.00     0.186 C 
BRANCH   5   6
HETATM    6  C1  UNL     1     -33.504   8.011   4.983  1.00 20.00     0.239 C 
HETATM    7  O4  UNL     1     -32.314   8.204   4.760  1.00 20.00    -0.307 OA
ENDBRANCH   5   6
ENDBRANCH   1   5
TORSDOF 2
ENDMDL
MODEL 2
REMARK VINA RESULT:      -4.3      0.051      1.430
REMARK  2 active torsions:
REMARK  status: ('A' for Active; 'I' for Inactive)
REMARK    1  A    between atoms: C1_1  and  C2_2 
REMARK    2  A    between atoms: C2_2  and  C3_3 
ROOT
HETATM    1  C3  UNL     1     -34.581   5.712   4.864  1.00 20.00     0.393 C 
HETATM    2  F5  UNL     1     -34.618   4.543   5.536  1.00 20.00    -0.171 F 
HETATM    3  F6  UNL     1     -35.836   5.971   4.430  1.00 20.00    -0.171 F 
HETATM    4  F7  UNL     1     -33.801   5.548   3.775  1.00 20.00    -0.171 F 
ENDROOT
BRANCH   1   5
HETATM    5  C2  UNL     1     -34.084   6.839   5.737  1.00 20.00     0.186 C 
BRANCH   5   6
HETATM    6  C1  UNL     1     -33.520   7.994   4.949  1.00 20.00     0.239 C 
HETATM    7  O4  UNL     1     -32.327   8.186   4.745  1.00 20.00    -0.307 OA
ENDBRANCH   5   6
ENDBRANCH   1   5
TORSDOF 2
ENDMDL
MODEL 3
REMARK VINA RESULT:      -4.3      0.118      1.418
REMARK  2 active torsions:
REMARK  status: ('A' for Active; 'I' for Inactive)
REMARK    1  A    between atoms: C1_1  and  C2_2 
REMARK    2  A    between atoms: C2_2  and  C3_3 
ROOT
HETATM    1  C3  UNL     1     -34.633   5.733   4.895  1.00 20.00     0.393 C 
HETATM    2  F5  UNL     1     -35.880   5.997   4.453  1.00 20.00    -0.171 F 
HETATM    3  F6  UNL     1     -33.868   5.462   3.813  1.00 20.00    -0.171 F 
HETATM    4  F7  UNL     1     -34.680   4.615   5.649  1.00 20.00    -0.171 F 
ENDROOT
BRANCH   1   5
HETATM    5  C2  UNL     1     -34.059   6.897   5.665  1.00 20.00     0.186 C 
BRANCH   5   6
HETATM    6  C1  UNL     1     -33.465   7.960   4.776  1.00 20.00     0.239 C 
HETATM    7  O4  UNL     1     -32.291   8.314   4.797  1.00 20.00    -0.307 OA
ENDBRANCH   5   6
ENDBRANCH   1   5
TORSDOF 2
ENDMDL
MODEL 4
REMARK VINA RESULT:      -4.2      2.691      3.230
REMARK  2 active torsions:
REMARK  status: ('A' for Active; 'I' for Inactive)
REMARK    1  A    between atoms: C1_1  and  C2_2 
REMARK    2  A    between atoms: C2_2  and  C3_3 
ROOT
HETATM    1  C3  UNL     1     -33.482   7.540   5.478  1.00 20.00     0.393 C 
HETATM    2  F5  UNL     1     -34.080   8.716   5.763  1.00 20.00    -0.171 F 
HETATM    3  F6  UNL     1     -33.235   6.915   6.651  1.00 20.00    -0.171 F 
HETATM    4  F7  UNL     1     -32.291   7.802   4.899  1.00 20.00    -0.171 F 
ENDROOT
BRANCH   1   5
HETATM    5  C2  UNL     1     -34.348   6.676   4.595  1.00 20.00     0.186 C 
BRANCH   5   6
HETATM    6  C1  UNL     1     -34.645   5.325   5.196  1.00 20.00     0.239 C 
HETATM    7  O4  UNL     1     -34.336   4.252   4.690  1.00 20.00    -0.307 OA
ENDBRANCH   5   6
ENDBRANCH   1   5
TORSDOF 2
ENDMDL
MODEL 5
REMARK VINA RESULT:      -4.2      2.718      3.252
REMARK  2 active torsions:
REMARK  status: ('A' for Active; 'I' for Inactive)
REMARK    1  A    between atoms: C1_1  and  C2_2 
REMARK    2  A    between atoms: C2_2  and  C3_3 
ROOT
HETATM    1  C3  UNL     1     -33.435   7.599   5.473  1.00 20.00     0.393 C 
HETATM    2  F5  UNL     1     -33.191   6.953   6.631  1.00 20.00    -0.171 F 
HETATM    3  F6  UNL     1     -32.240   7.891   4.910  1.00 20.00    -0.171 F 
HETATM    4  F7  UNL     1     -34.044   8.769   5.762  1.00 20.00    -0.171 F 
ENDROOT
BRANCH   1   5
HETATM    5  C2  UNL     1     -34.267   6.760   4.533  1.00 20.00     0.186 C 
BRANCH   5   6
HETATM    6  C1  UNL     1     -34.740   5.469   5.154  1.00 20.00     0.239 C 
HETATM    7  O4  UNL     1     -34.438   4.350   4.757  1.00 20.00    -0.307 OA
ENDBRANCH   5   6
ENDBRANCH   1   5
TORSDOF 2
ENDMDL
MODEL 6
REMARK VINA RESULT:      -4.2      2.618      3.174
REMARK  2 active torsions:
REMARK  status: ('A' for Active; 'I' for Inactive)
REMARK    1  A    between atoms: C1_1  and  C2_2 
REMARK    2  A    between atoms: C2_2  and  C3_3 
ROOT
HETATM    1  C3  UNL     1     -33.592   7.401   5.440  1.00 20.00     0.393 C 
HETATM    2  F5  UNL     1     -32.558   7.412   4.572  1.00 20.00    -0.171 F 
HETATM    3  F6  UNL     1     -34.001   8.680   5.601  1.00 20.00    -0.171 F 
HETATM    4  F7  UNL     1     -33.136   6.967   6.634  1.00 20.00    -0.171 F 
ENDROOT
BRANCH   1   5
HETATM    5  C2  UNL     1     -34.728   6.545   4.936  1.00 20.00     0.186 C 
BRANCH   5   6
HETATM    6  C1  UNL     1     -34.585   5.090   5.309  1.00 20.00     0.239 C 
HETATM    7  O4  UNL     1     -34.224   4.204   4.542  1.00 20.00    -0.307 OA
ENDBRANCH   5   6
ENDBRANCH   1   5
TORSDOF 2
ENDMDL
MODEL 7
REMARK VINA RESULT:      -4.1      2.473      3.138
REMARK  2 active torsions:
REMARK  status: ('A' for Active; 'I' for Inactive)
REMARK    1  A    between atoms: C1_1  and  C2_2 
REMARK    2  A    between atoms: C2_2  and  C3_3 
ROOT
HETATM    1  C3  UNL     1     -33.364   7.595   4.830  1.00 20.00     0.393 C 
HETATM    2  F5  UNL     1     -32.794   6.882   3.837  1.00 20.00    -0.171 F 
HETATM    3  F6  UNL     1     -34.277   8.418   4.267  1.00 20.00    -0.171 F 
HETATM    4  F7  UNL     1     -32.413   8.369   5.394  1.00 20.00    -0.171 F 
ENDROOT
BRANCH   1   5
HETATM    5  C2  UNL     1     -34.024   6.698   5.849  1.00 20.00     0.186 C 
BRANCH   5   6
HETATM    6  C1  UNL     1     -34.976   5.703   5.233  1.00 20.00     0.239 C 
HETATM    7  O4  UNL     1     -34.666   4.577   4.860  1.00 20.00    -0.307 OA
ENDBRANCH   5   6
ENDBRANCH   1   5
TORSDOF 2
ENDMDL
MODEL 8
REMARK VINA RESULT:      -4.1      2.636      3.187
REMARK  2 active torsions:
REMARK  status: ('A' for Active; 'I' for Inactive)
REMARK    1  A    between atoms: C1_1  and  C2_2 
REMARK    2  A    between atoms: C2_2  and  C3_3 
ROOT
HETATM    1  C3  UNL     1     -33.670   7.838   5.352  1.00 20.00     0.393 C 
HETATM    2  F5  UNL     1     -34.096   8.961   5.966  1.00 20.00    -0.171 F 
HETATM    3  F6  UNL     1     -32.319   7.887   5.306  1.00 20.00    -0.171 F 
HETATM    4  F7  UNL     1     -34.120   7.856   4.079  1.00 20.00    -0.171 F 
ENDROOT
BRANCH   1   5
HETATM    5  C2  UNL     1     -34.126   6.599   6.083  1.00 20.00     0.186 C 
BRANCH   5   6
HETATM    6  C1  UNL     1     -34.957   5.677   5.226  1.00 20.00     0.239 C 
HETATM    7  O4  UNL     1     -34.613   4.557   4.866  1.00 20.00    -0.307 OA
ENDBRANCH   5   6
ENDBRANCH   1   5
TORSDOF 2
ENDMDL
MODEL 9
REMARK VINA RESULT:      -4.1      1.454      2.013
REMARK  2 active torsions:
REMARK  status: ('A' for Active; 'I' for Inactive)
REMARK    1  A    between atoms: C1_1  and  C2_2 
REMARK    2  A    between atoms: C2_2  and  C3_3 
ROOT
HETATM    1  C3  UNL     1     -34.375   6.264   6.022  1.00 20.00     0.393 C 
HETATM    2  F5  UNL     1     -34.617   7.239   6.924  1.00 20.00    -0.171 F 
HETATM    3  F6  UNL     1     -35.570   5.761   5.637  1.00 20.00    -0.171 F 
HETATM    4  F7  UNL     1     -33.698   5.275   6.642  1.00 20.00    -0.171 F 
ENDROOT
BRANCH   1   5
HETATM    5  C2  UNL     1     -33.617   6.790   4.828  1.00 20.00     0.186 C 
BRANCH   5   6
HETATM    6  C1  UNL     1     -33.113   8.199   5.019  1.00 20.00     0.239 C 
HETATM    7  O4  UNL     1     -32.040   8.621   4.602  1.00 20.00    -0.307 OA
ENDBRANCH   5   6
ENDBRANCH   1   5
TORSDOF 2
ENDMDL
