MODEL 1
REMARK VINA RESULT:      -3.9      0.000      0.000
REMARK  3 active torsions:
REMARK  status: ('A' for Active; 'I' for Inactive)
REMARK    1  A    between atoms: C5_5  and  C7_7 
REMARK    2  A    between atoms: C5_5  and  C8_8 
REMARK    3  A    between atoms: C6_6  and  C8_8 
ROOT
HETATM    1  C3  UNL     1     -31.788   8.817   4.781  1.00 20.00     0.016 C 
HETATM    2  C4  UNL     1     -32.129   7.101   2.995  1.00 20.00     0.016 C 
HETATM    3  C8  UNL     1     -32.749   8.346   3.671  1.00 20.00    -0.035 C 
ENDROOT
BRANCH   3   4
HETATM    4  C5  UNL     1     -34.105   7.893   4.303  1.00 20.00     0.013 C 
BRANCH   4   5
HETATM    5  C7  UNL     1     -34.106   6.547   5.068  1.00 20.00    -0.022 C 
HETATM    6  C1  UNL     1     -34.230   6.758   6.581  1.00 20.00     0.009 C 
HETATM    7  C2  UNL     1     -35.270   5.670   4.594  1.00 20.00     0.009 C 
ENDBRANCH   4   5
ENDBRANCH   3   4
BRANCH   3   8
HETATM    8  C6  UNL     1     -32.980   9.465   2.630  1.00 20.00     0.123 C 
HETATM    9 CL9  UNL     1     -32.534   9.020   0.960  1.00 20.00    -0.130 Cl
ENDBRANCH   3   8
TORSDOF 3
ENDMDL
MODEL 2
REMARK VINA RESULT:      -3.8      1.710      3.847
REMARK  3 active torsions:
REMARK  status: ('A' for Active; 'I' for Inactive)
REMARK    1  A    between atoms: C5_5  and  C7_7 
REMARK    2  A    between atoms: C5_5  and  C8_8 
REMARK    3  A    between atoms: C6_6  and  C8_8 
ROOT
HETATM    1  C3  UNL     1     -34.419   6.042   6.408  1.00 20.00     0.016 C 
HETATM    2  C4  UNL     1     -35.816   5.803   4.347  1.00 20.00     0.016 C 
HETATM    3  C8  UNL     1     -34.388   6.091   4.867  1.00 20.00    -0.035 C 
ENDROOT
BRANCH   3   4
HETATM    4  C5  UNL     1     -34.014   7.533   4.392  1.00 20.00     0.013 C 
BRANCH   4   5
HETATM    5  C7  UNL     1     -32.507   7.850   4.239  1.00 20.00    -0.022 C 
HETATM    6  C1  UNL     1     -32.123   8.075   2.773  1.00 20.00     0.009 C 
HETATM    7  C2  UNL     1     -32.147   9.105   5.042  1.00 20.00     0.009 C 
ENDBRANCH   4   5
ENDBRANCH   3   4
BRANCH   3   8
HETATM    8  C6  UNL     1     -33.390   5.054   4.302  1.00 20.00     0.123 C 
HETATM    9 CL9  UNL     1     -33.363   4.954   2.520  1.00 20.00    -0.130 Cl
ENDBRANCH   3   8
TORSDOF 3
ENDMDL
MODEL 3
REMARK VINA RESULT:      -3.8      1.179      1.934
REMARK  3 active torsions:
REMARK  status: ('A' for Active; 'I' for Inactive)
REMARK    1  A    between atoms: C5_5  and  C7_7 
REMARK    2  A    between atoms: C5_5  and  C8_8 
REMARK    3  A    between atoms: C6_6  and  C8_8 
ROOT
HETATM    1  C3  UNL     1     -32.947   9.225   2.533  1.00 20.00     0.016 C 
HETATM    2  C4  UNL     1     -32.022   9.111   4.854  1.00 20.00     0.016 C 
HETATM    3  C8  UNL     1     -32.727   8.296   3.745  1.00 20.00    -0.035 C 
ENDROOT
BRANCH   3   4
HETATM    4  C5  UNL     1     -34.109   7.845   4.321  1.00 20.00     0.013 C 
BRANCH   4   5
HETATM    5  C7  UNL     1     -34.127   6.543   5.158  1.00 20.00    -0.022 C 
HETATM    6  C1  UNL     1     -34.243   6.836   6.657  1.00 20.00     0.009 C 
HETATM    7  C2  UNL     1     -35.306   5.660   4.735  1.00 20.00     0.009 C 
ENDBRANCH   4   5
ENDBRANCH   3   4
BRANCH   3   8
HETATM    8  C6  UNL     1     -31.873   7.069   3.352  1.00 20.00     0.123 C 
HETATM    9 CL9  UNL     1     -32.739   5.855   2.370  1.00 20.00    -0.130 Cl
ENDBRANCH   3   8
TORSDOF 3
ENDMDL
MODEL 4
REMARK VINA RESULT:      -3.6      2.412      4.261
REMARK  3 active torsions:
REMARK  status: ('A' for Active; 'I' for Inactive)
REMARK    1  A    between atoms: C5_5  and  C7_7 
REMARK    2  A    between atoms: C5_5  and  C8_8 
REMARK    3  A    between atoms: C6_6  and  C8_8 
ROOT
HETATM    1  C3  UNL     1     -36.009   5.791   4.153  1.00 20.00     0.016 C 
HETATM    2  C4  UNL     1     -33.666   5.013   3.753  1.00 20.00     0.016 C 
HETATM    3  C8  UNL     1     -34.539   5.987   4.577  1.00 20.00    -0.035 C 
ENDROOT
BRANCH   3   4
HETATM    4  C5  UNL     1     -34.074   7.434   4.214  1.00 20.00     0.013 C 
BRANCH   4   5
HETATM    5  C7  UNL     1     -32.553   7.656   4.031  1.00 20.00    -0.022 C 
HETATM    6  C1  UNL     1     -32.181   7.830   2.555  1.00 20.00     0.009 C 
HETATM    7  C2  UNL     1     -32.103   8.900   4.804  1.00 20.00     0.009 C 
ENDBRANCH   4   5
ENDBRANCH   3   4
BRANCH   3   8
HETATM    8  C6  UNL     1     -34.363   5.721   6.090  1.00 20.00     0.123 C 
HETATM    9 CL9  UNL     1     -34.334   7.194   7.097  1.00 20.00    -0.130 Cl
ENDBRANCH   3   8
TORSDOF 3
ENDMDL
MODEL 5
REMARK VINA RESULT:      -3.4      8.975      9.840
REMARK  3 active torsions:
REMARK  status: ('A' for Active; 'I' for Inactive)
REMARK    1  A    between atoms: C5_5  and  C7_7 
REMARK    2  A    between atoms: C5_5  and  C8_8 
REMARK    3  A    between atoms: C6_6  and  C8_8 
ROOT
HETATM    1  C3  UNL     1     -41.926  14.014   4.740  1.00 20.00     0.016 C 
HETATM    2  C4  UNL     1     -42.794  13.030   6.869  1.00 20.00     0.016 C 
HETATM    3  C8  UNL     1     -41.517  13.503   6.137  1.00 20.00    -0.035 C 
ENDROOT
BRANCH   3   4
HETATM    4  C5  UNL     1     -40.588  12.254   5.990  1.00 20.00     0.013 C 
BRANCH   4   5
HETATM    5  C7  UNL     1     -39.265  12.453   5.212  1.00 20.00    -0.022 C 
HETATM    6  C1  UNL     1     -38.044  12.157   6.088  1.00 20.00     0.009 C 
HETATM    7  C2  UNL     1     -39.229  11.531   3.988  1.00 20.00     0.009 C 
ENDBRANCH   4   5
ENDBRANCH   3   4
BRANCH   3   8
HETATM    8  C6  UNL     1     -40.812  14.615   6.947  1.00 20.00     0.123 C 
HETATM    9 CL9  UNL     1     -40.205  14.091   8.541  1.00 20.00    -0.130 Cl
ENDBRANCH   3   8
TORSDOF 3
ENDMDL
MODEL 6
REMARK VINA RESULT:      -3.4     11.104     12.173
REMARK  3 active torsions:
REMARK  status: ('A' for Active; 'I' for Inactive)
REMARK    1  A    between atoms: C5_5  and  C7_7 
REMARK    2  A    between atoms: C5_5  and  C8_8 
REMARK    3  A    between atoms: C6_6  and  C8_8 
ROOT
HETATM    1  C3  UNL     1     -35.273  18.530  -2.839  1.00 20.00     0.016 C 
HETATM    2  C4  UNL     1     -33.010  18.987  -3.802  1.00 20.00     0.016 C 
HETATM    3  C8  UNL     1     -33.918  17.888  -3.202  1.00 20.00    -0.035 C 
ENDROOT
BRANCH   3   4
HETATM    4  C5  UNL     1     -33.213  17.375  -1.904  1.00 20.00     0.013 C 
BRANCH   4   5
HETATM    5  C7  UNL     1     -32.926  18.423  -0.802  1.00 20.00    -0.022 C 
HETATM    6  C1  UNL     1     -33.735  18.142   0.469  1.00 20.00     0.009 C 
HETATM    7  C2  UNL     1     -31.435  18.424  -0.448  1.00 20.00     0.009 C 
ENDBRANCH   4   5
ENDBRANCH   3   4
BRANCH   3   8
HETATM    8  C6  UNL     1     -34.108  16.734  -4.212  1.00 20.00     0.123 C 
HETATM    9 CL9  UNL     1     -33.033  15.336  -3.941  1.00 20.00    -0.130 Cl
ENDBRANCH   3   8
TORSDOF 3
ENDMDL
MODEL 7
REMARK VINA RESULT:      -3.3      9.371     10.164
REMARK  3 active torsions:
REMARK  status: ('A' for Active; 'I' for Inactive)
REMARK    1  A    between atoms: C5_5  and  C7_7 
REMARK    2  A    between atoms: C5_5  and  C8_8 
REMARK    3  A    between atoms: C6_6  and  C8_8 
ROOT
HETATM    1  C3  UNL     1     -40.993  14.711   6.925  1.00 20.00     0.016 C 
HETATM    2  C4  UNL     1     -42.088  14.195   4.737  1.00 20.00     0.016 C 
HETATM    3  C8  UNL     1     -41.822  13.657   6.162  1.00 20.00    -0.035 C 
ENDROOT
BRANCH   3   4
HETATM    4  C5  UNL     1     -40.989  12.344   6.005  1.00 20.00     0.013 C 
BRANCH   4   5
HETATM    5  C7  UNL     1     -39.527  12.495   5.518  1.00 20.00    -0.022 C 
HETATM    6  C1  UNL     1     -38.526  12.056   6.592  1.00 20.00     0.009 C 
HETATM    7  C2  UNL     1     -39.300  11.654   4.257  1.00 20.00     0.009 C 
ENDBRANCH   4   5
ENDBRANCH   3   4
BRANCH   3   8
HETATM    8  C6  UNL     1     -43.156  13.374   6.889  1.00 20.00     0.123 C 
HETATM    9 CL9  UNL     1     -43.417  11.657   7.302  1.00 20.00    -0.130 Cl
ENDBRANCH   3   8
TORSDOF 3
ENDMDL
MODEL 8
REMARK VINA RESULT:      -3.3      9.469     10.309
REMARK  3 active torsions:
REMARK  status: ('A' for Active; 'I' for Inactive)
REMARK    1  A    between atoms: C5_5  and  C7_7 
REMARK    2  A    between atoms: C5_5  and  C8_8 
REMARK    3  A    between atoms: C6_6  and  C8_8 
ROOT
HETATM    1  C3  UNL     1     -42.238  12.523   6.844  1.00 20.00     0.016 C 
HETATM    2  C4  UNL     1     -41.379  13.624   4.769  1.00 20.00     0.016 C 
HETATM    3  C8  UNL     1     -40.960  12.973   6.108  1.00 20.00    -0.035 C 
ENDROOT
BRANCH   3   4
HETATM    4  C5  UNL     1     -40.231  14.076   6.942  1.00 20.00     0.013 C 
BRANCH   4   5
HETATM    5  C7  UNL     1     -41.052  14.768   8.056  1.00 20.00    -0.022 C 
HETATM    6  C1  UNL     1     -40.278  14.821   9.378  1.00 20.00     0.009 C 
HETATM    7  C2  UNL     1     -41.413  16.197   7.638  1.00 20.00     0.009 C 
ENDBRANCH   4   5
ENDBRANCH   3   4
BRANCH   3   8
HETATM    8  C6  UNL     1     -40.020  11.772   5.852  1.00 20.00     0.123 C 
HETATM    9 CL9  UNL     1     -39.217  11.793   4.259  1.00 20.00    -0.130 Cl
ENDBRANCH   3   8
TORSDOF 3
ENDMDL
MODEL 9
REMARK VINA RESULT:      -3.2      2.172      3.838
REMARK  3 active torsions:
REMARK  status: ('A' for Active; 'I' for Inactive)
REMARK    1  A    between atoms: C5_5  and  C7_7 
REMARK    2  A    between atoms: C5_5  and  C8_8 
REMARK    3  A    between atoms: C6_6  and  C8_8 
ROOT
HETATM    1  C3  UNL     1     -35.595   6.181   4.351  1.00 20.00     0.016 C 
HETATM    2  C4  UNL     1     -34.496   5.074   6.306  1.00 20.00     0.016 C 
HETATM    3  C8  UNL     1     -34.360   6.218   5.274  1.00 20.00    -0.035 C 
ENDROOT
BRANCH   3   4
HETATM    4  C5  UNL     1     -33.069   5.929   4.441  1.00 20.00     0.013 C 
BRANCH   4   5
HETATM    5  C7  UNL     1     -33.178   6.084   2.905  1.00 20.00    -0.022 C 
HETATM    6  C1  UNL     1     -32.210   7.147   2.375  1.00 20.00     0.009 C 
HETATM    7  C2  UNL     1     -32.872   4.750   2.216  1.00 20.00     0.009 C 
ENDBRANCH   4   5
ENDBRANCH   3   4
BRANCH   3   8
HETATM    8  C6  UNL     1     -34.251   7.582   5.993  1.00 20.00     0.123 C 
HETATM    9 CL9  UNL     1     -33.023   8.680   5.305  1.00 20.00    -0.130 Cl
ENDBRANCH   3   8
TORSDOF 3
ENDMDL
