MODEL 1
REMARK VINA RESULT:      -5.0      0.000      0.000
REMARK  2 active torsions:
REMARK  status: ('A' for Active; 'I' for Inactive)
REMARK    1  A    between atoms: C1_1  and  C2_2 
REMARK    2  A    between atoms: C1_1  and  C3_3 
ROOT
HETATM    1  C1  UNL     1     -33.770   6.716   4.347  1.00 20.00     0.188 C 
ENDROOT
BRANCH   1   2
HETATM    2  C2  UNL     1     -33.167   7.670   5.357  1.00 20.00     0.361 C 
HETATM    3  F4  UNL     1     -34.037   8.688   5.586  1.00 20.00    -0.214 F 
HETATM    4  F5  UNL     1     -32.041   8.230   4.852  1.00 20.00    -0.214 F 
ENDBRANCH   1   2
BRANCH   1   5
HETATM    5  C3  UNL     1     -34.760   5.763   4.978  1.00 20.00     0.392 C 
HETATM    6  F6  UNL     1     -34.392   4.477   4.795  1.00 20.00    -0.171 F 
HETATM    7  F7  UNL     1     -34.874   5.981   6.305  1.00 20.00    -0.171 F 
HETATM    8  F8  UNL     1     -35.984   5.921   4.429  1.00 20.00    -0.171 F 
ENDBRANCH   1   5
TORSDOF 2
ENDMDL
MODEL 2
REMARK VINA RESULT:      -5.0      0.008      1.336
REMARK  2 active torsions:
REMARK  status: ('A' for Active; 'I' for Inactive)
REMARK    1  A    between atoms: C1_1  and  C2_2 
REMARK    2  A    between atoms: C1_1  and  C3_3 
ROOT
HETATM    1  C1  UNL     1     -33.767   6.712   4.346  1.00 20.00     0.188 C 
ENDROOT
BRANCH   1   2
HETATM    2  C2  UNL     1     -33.166   7.668   5.356  1.00 20.00     0.361 C 
HETATM    3  F4  UNL     1     -34.037   8.684   5.584  1.00 20.00    -0.214 F 
HETATM    4  F5  UNL     1     -32.040   8.230   4.851  1.00 20.00    -0.214 F 
ENDBRANCH   1   2
BRANCH   1   5
HETATM    5  C3  UNL     1     -34.769   5.772   4.974  1.00 20.00     0.392 C 
HETATM    6  F6  UNL     1     -34.876   5.980   6.304  1.00 20.00    -0.171 F 
HETATM    7  F7  UNL     1     -35.995   5.923   4.428  1.00 20.00    -0.171 F 
HETATM    8  F8  UNL     1     -34.393   4.487   4.790  1.00 20.00    -0.171 F 
ENDBRANCH   1   5
TORSDOF 2
ENDMDL
MODEL 3
REMARK VINA RESULT:      -5.0      0.011      1.336
REMARK  2 active torsions:
REMARK  status: ('A' for Active; 'I' for Inactive)
REMARK    1  A    between atoms: C1_1  and  C2_2 
REMARK    2  A    between atoms: C1_1  and  C3_3 
ROOT
HETATM    1  C1  UNL     1     -33.759   6.710   4.348  1.00 20.00     0.188 C 
ENDROOT
BRANCH   1   2
HETATM    2  C2  UNL     1     -33.167   7.670   5.359  1.00 20.00     0.361 C 
HETATM    3  F4  UNL     1     -34.042   8.686   5.577  1.00 20.00    -0.214 F 
HETATM    4  F5  UNL     1     -32.039   8.232   4.860  1.00 20.00    -0.214 F 
ENDBRANCH   1   2
BRANCH   1   5
HETATM    5  C3  UNL     1     -34.761   5.766   4.973  1.00 20.00     0.392 C 
HETATM    6  F6  UNL     1     -35.990   5.925   4.435  1.00 20.00    -0.171 F 
HETATM    7  F7  UNL     1     -34.395   4.478   4.806  1.00 20.00    -0.171 F 
HETATM    8  F8  UNL     1     -34.863   5.996   6.300  1.00 20.00    -0.171 F 
ENDBRANCH   1   5
TORSDOF 2
ENDMDL
MODEL 4
REMARK VINA RESULT:      -4.9      0.900      1.921
REMARK  2 active torsions:
REMARK  status: ('A' for Active; 'I' for Inactive)
REMARK    1  A    between atoms: C1_1  and  C2_2 
REMARK    2  A    between atoms: C1_1  and  C3_3 
ROOT
HETATM    1  C1  UNL     1     -34.092   6.720   5.669  1.00 20.00     0.188 C 
ENDROOT
BRANCH   1   2
HETATM    2  C2  UNL     1     -33.584   7.957   4.957  1.00 20.00     0.361 C 
HETATM    3  F4  UNL     1     -32.230   7.904   4.878  1.00 20.00    -0.214 F 
HETATM    4  F5  UNL     1     -33.886   9.065   5.678  1.00 20.00    -0.214 F 
ENDBRANCH   1   2
BRANCH   1   5
HETATM    5  C3  UNL     1     -34.603   5.674   4.705  1.00 20.00     0.392 C 
HETATM    6  F6  UNL     1     -35.883   5.915   4.348  1.00 20.00    -0.171 F 
HETATM    7  F7  UNL     1     -33.856   5.634   3.581  1.00 20.00    -0.171 F 
HETATM    8  F8  UNL     1     -34.560   4.448   5.271  1.00 20.00    -0.171 F 
ENDBRANCH   1   5
TORSDOF 2
ENDMDL
MODEL 5
REMARK VINA RESULT:      -4.9      0.748      3.434
REMARK  2 active torsions:
REMARK  status: ('A' for Active; 'I' for Inactive)
REMARK    1  A    between atoms: C1_1  and  C2_2 
REMARK    2  A    between atoms: C1_1  and  C3_3 
ROOT
HETATM    1  C1  UNL     1     -33.852   6.696   4.373  1.00 20.00     0.188 C 
ENDROOT
BRANCH   1   2
HETATM    2  C2  UNL     1     -34.921   5.800   4.965  1.00 20.00     0.361 C 
HETATM    3  F4  UNL     1     -34.548   4.503   4.822  1.00 20.00    -0.214 F 
HETATM    4  F5  UNL     1     -36.081   5.947   4.279  1.00 20.00    -0.214 F 
ENDBRANCH   1   2
BRANCH   1   5
HETATM    5  C3  UNL     1     -33.277   7.652   5.392  1.00 20.00     0.392 C 
HETATM    6  F6  UNL     1     -32.079   8.134   4.995  1.00 20.00    -0.171 F 
HETATM    7  F7  UNL     1     -34.101   8.701   5.602  1.00 20.00    -0.171 F 
HETATM    8  F8  UNL     1     -33.094   7.028   6.576  1.00 20.00    -0.171 F 
ENDBRANCH   1   5
TORSDOF 2
ENDMDL
MODEL 6
REMARK VINA RESULT:      -4.9      1.094      3.358
REMARK  2 active torsions:
REMARK  status: ('A' for Active; 'I' for Inactive)
REMARK    1  A    between atoms: C1_1  and  C2_2 
REMARK    2  A    between atoms: C1_1  and  C3_3 
ROOT
HETATM    1  C1  UNL     1     -33.885   7.036   5.955  1.00 20.00     0.188 C 
ENDROOT
BRANCH   1   2
HETATM    2  C2  UNL     1     -34.539   5.745   5.504  1.00 20.00     0.361 C 
HETATM    3  F4  UNL     1     -35.596   6.036   4.703  1.00 20.00    -0.214 F 
HETATM    4  F5  UNL     1     -35.035   5.078   6.574  1.00 20.00    -0.214 F 
ENDBRANCH   1   2
BRANCH   1   5
HETATM    5  C3  UNL     1     -33.241   7.782   4.809  1.00 20.00     0.392 C 
HETATM    6  F6  UNL     1     -32.229   8.566   5.238  1.00 20.00    -0.171 F 
HETATM    7  F7  UNL     1     -32.748   6.932   3.883  1.00 20.00    -0.171 F 
HETATM    8  F8  UNL     1     -34.144   8.579   4.197  1.00 20.00    -0.171 F 
ENDBRANCH   1   5
TORSDOF 2
ENDMDL
MODEL 7
REMARK VINA RESULT:      -4.9      1.097      3.366
REMARK  2 active torsions:
REMARK  status: ('A' for Active; 'I' for Inactive)
REMARK    1  A    between atoms: C1_1  and  C2_2 
REMARK    2  A    between atoms: C1_1  and  C3_3 
ROOT
HETATM    1  C1  UNL     1     -33.878   7.036   5.956  1.00 20.00     0.188 C 
ENDROOT
BRANCH   1   2
HETATM    2  C2  UNL     1     -34.537   5.749   5.503  1.00 20.00     0.361 C 
HETATM    3  F4  UNL     1     -35.598   6.045   4.710  1.00 20.00    -0.214 F 
HETATM    4  F5  UNL     1     -35.028   5.077   6.573  1.00 20.00    -0.214 F 
ENDBRANCH   1   2
BRANCH   1   5
HETATM    5  C3  UNL     1     -33.247   7.791   4.810  1.00 20.00     0.392 C 
HETATM    6  F6  UNL     1     -34.144   8.586   4.188  1.00 20.00    -0.171 F 
HETATM    7  F7  UNL     1     -32.226   8.565   5.233  1.00 20.00    -0.171 F 
HETATM    8  F8  UNL     1     -32.757   6.931   3.890  1.00 20.00    -0.171 F 
ENDBRANCH   1   5
TORSDOF 2
ENDMDL
MODEL 8
REMARK VINA RESULT:      -4.9      1.092      3.351
REMARK  2 active torsions:
REMARK  status: ('A' for Active; 'I' for Inactive)
REMARK    1  A    between atoms: C1_1  and  C2_2 
REMARK    2  A    between atoms: C1_1  and  C3_3 
ROOT
HETATM    1  C1  UNL     1     -33.860   7.036   5.971  1.00 20.00     0.188 C 
ENDROOT
BRANCH   1   2
HETATM    2  C2  UNL     1     -34.526   5.748   5.531  1.00 20.00     0.361 C 
HETATM    3  F4  UNL     1     -35.570   6.041   4.714  1.00 20.00    -0.214 F 
HETATM    4  F5  UNL     1     -35.043   5.102   6.605  1.00 20.00    -0.214 F 
ENDBRANCH   1   2
BRANCH   1   5
HETATM    5  C3  UNL     1     -33.245   7.788   4.814  1.00 20.00     0.392 C 
HETATM    6  F6  UNL     1     -32.749   6.943   3.884  1.00 20.00    -0.171 F 
HETATM    7  F7  UNL     1     -34.149   8.589   4.211  1.00 20.00    -0.171 F 
HETATM    8  F8  UNL     1     -32.228   8.567   5.243  1.00 20.00    -0.171 F 
ENDBRANCH   1   5
TORSDOF 2
ENDMDL
MODEL 9
REMARK VINA RESULT:      -4.8      1.405      3.437
REMARK  2 active torsions:
REMARK  status: ('A' for Active; 'I' for Inactive)
REMARK    1  A    between atoms: C1_1  and  C2_2 
REMARK    2  A    between atoms: C1_1  and  C3_3 
ROOT
HETATM    1  C1  UNL     1     -33.732   8.001   4.919  1.00 20.00     0.188 C 
ENDROOT
BRANCH   1   2
HETATM    2  C2  UNL     1     -34.157   6.613   5.353  1.00 20.00     0.361 C 
HETATM    3  F4  UNL     1     -35.237   6.228   4.626  1.00 20.00    -0.214 F 
HETATM    4  F5  UNL     1     -34.550   6.632   6.650  1.00 20.00    -0.214 F 
ENDBRANCH   1   2
BRANCH   1   5
HETATM    5  C3  UNL     1     -32.620   7.966   3.896  1.00 20.00     0.392 C 
HETATM    6  F6  UNL     1     -32.813   8.886   2.927  1.00 20.00    -0.171 F 
HETATM    7  F7  UNL     1     -31.419   8.202   4.465  1.00 20.00    -0.171 F 
HETATM    8  F8  UNL     1     -32.562   6.753   3.302  1.00 20.00    -0.171 F 
ENDBRANCH   1   5
TORSDOF 2
ENDMDL
