MODEL 1
REMARK VINA RESULT:      -4.0      0.000      0.000
REMARK  3 active torsions:
REMARK  status: ('A' for Active; 'I' for Inactive)
REMARK    1  A    between atoms: C1_1  and  C10_10 
REMARK    2  A    between atoms: C2_2  and  C8_8 
REMARK    3  A    between atoms: C9_9  and  C10_10 
ROOT
HETATM    1  C1  UNL     1     -33.490  17.015  -1.790  1.00 20.00    -0.016 C 
HETATM    2  C2  UNL     1     -33.412  16.790  -3.119  1.00 20.00    -0.087 C 
HETATM    3  C3  UNL     1     -33.340  17.968  -4.064  1.00 20.00     0.043 C 
ENDROOT
BRANCH   1   4
HETATM    4  C10 UNL     1     -33.521  18.313  -0.983  1.00 20.00    -0.030 C 
HETATM    5  C6  UNL     1     -34.668  19.216  -1.482  1.00 20.00     0.019 C 
HETATM    6  C7  UNL     1     -33.855  17.950   0.487  1.00 20.00     0.019 C 
BRANCH   4   7
HETATM    7  C9  UNL     1     -32.187  19.108  -1.006  1.00 20.00     0.008 C 
HETATM    8  C5  UNL     1     -31.084  18.563  -0.104  1.00 20.00     0.006 C 
ENDBRANCH   4   7
ENDBRANCH   1   4
BRANCH   2   9
HETATM    9  C8  UNL     1     -33.340  15.443  -3.800  1.00 20.00     0.029 C 
HETATM   10  C4  UNL     1     -34.395  15.265  -4.885  1.00 20.00     0.010 C 
ENDBRANCH   2   9
TORSDOF 3
ENDMDL
MODEL 2
REMARK VINA RESULT:      -3.9      1.010      4.547
REMARK  3 active torsions:
REMARK  status: ('A' for Active; 'I' for Inactive)
REMARK    1  A    between atoms: C1_1  and  C10_10 
REMARK    2  A    between atoms: C2_2  and  C8_8 
REMARK    3  A    between atoms: C9_9  and  C10_10 
ROOT
HETATM    1  C1  UNL     1     -32.275  18.655  -1.420  1.00 20.00    -0.016 C 
HETATM    2  C2  UNL     1     -32.204  18.766  -0.076  1.00 20.00    -0.087 C 
HETATM    3  C3  UNL     1     -33.379  18.323   0.765  1.00 20.00     0.043 C 
ENDROOT
BRANCH   1   4
HETATM    4  C10 UNL     1     -33.383  18.133  -2.334  1.00 20.00    -0.030 C 
HETATM    5  C6  UNL     1     -34.729  18.789  -1.960  1.00 20.00     0.019 C 
HETATM    6  C7  UNL     1     -33.060  18.588  -3.781  1.00 20.00     0.019 C 
BRANCH   4   7
HETATM    7  C9  UNL     1     -33.540  16.587  -2.325  1.00 20.00     0.008 C 
HETATM    8  C5  UNL     1     -33.190  15.886  -3.634  1.00 20.00     0.006 C 
ENDBRANCH   4   7
ENDBRANCH   1   4
BRANCH   2   9
HETATM    9  C8  UNL     1     -31.020  19.261   0.723  1.00 20.00     0.029 C 
HETATM   10  C4  UNL     1     -30.583  18.286   1.808  1.00 20.00     0.010 C 
ENDBRANCH   2   9
TORSDOF 3
ENDMDL
MODEL 3
REMARK VINA RESULT:      -3.9     12.101     13.447
REMARK  3 active torsions:
REMARK  status: ('A' for Active; 'I' for Inactive)
REMARK    1  A    between atoms: C1_1  and  C10_10 
REMARK    2  A    between atoms: C2_2  and  C8_8 
REMARK    3  A    between atoms: C9_9  and  C10_10 
ROOT
HETATM    1  C1  UNL     1     -33.618   6.810   4.440  1.00 20.00    -0.016 C 
HETATM    2  C2  UNL     1     -33.351   7.828   5.287  1.00 20.00    -0.087 C 
HETATM    3  C3  UNL     1     -33.903   7.781   6.693  1.00 20.00     0.043 C 
ENDROOT
BRANCH   1   4
HETATM    4  C10 UNL     1     -34.423   5.524   4.624  1.00 20.00    -0.030 C 
HETATM    5  C6  UNL     1     -34.418   5.108   6.110  1.00 20.00     0.019 C 
HETATM    6  C7  UNL     1     -35.898   5.829   4.258  1.00 20.00     0.019 C 
BRANCH   4   7
HETATM    7  C9  UNL     1     -33.931   4.337   3.752  1.00 20.00     0.008 C 
HETATM    8  C5  UNL     1     -32.972   4.705   2.624  1.00 20.00     0.006 C 
ENDBRANCH   4   7
ENDBRANCH   1   4
BRANCH   2   9
HETATM    9  C8  UNL     1     -32.493   9.037   4.996  1.00 20.00     0.029 C 
HETATM   10  C4  UNL     1     -32.303   9.291   3.507  1.00 20.00     0.010 C 
ENDBRANCH   2   9
TORSDOF 3
ENDMDL
MODEL 4
REMARK VINA RESULT:      -3.9     11.271     12.308
REMARK  3 active torsions:
REMARK  status: ('A' for Active; 'I' for Inactive)
REMARK    1  A    between atoms: C1_1  and  C10_10 
REMARK    2  A    between atoms: C2_2  and  C8_8 
REMARK    3  A    between atoms: C9_9  and  C10_10 
ROOT
HETATM    1  C1  UNL     1     -33.525   7.325   4.430  1.00 20.00    -0.016 C 
HETATM    2  C2  UNL     1     -33.832   6.057   4.083  1.00 20.00    -0.087 C 
HETATM    3  C3  UNL     1     -33.162   5.440   2.877  1.00 20.00     0.043 C 
ENDROOT
BRANCH   1   4
HETATM    4  C10 UNL     1     -32.567   8.342   3.809  1.00 20.00    -0.030 C 
HETATM    5  C6  UNL     1     -32.113   9.359   4.876  1.00 20.00     0.019 C 
HETATM    6  C7  UNL     1     -31.294   7.581   3.358  1.00 20.00     0.019 C 
BRANCH   4   7
HETATM    7  C9  UNL     1     -33.151   9.099   2.585  1.00 20.00     0.008 C 
HETATM    8  C5  UNL     1     -32.465   8.819   1.252  1.00 20.00     0.006 C 
ENDBRANCH   4   7
ENDBRANCH   1   4
BRANCH   2   9
HETATM    9  C8  UNL     1     -34.772   5.127   4.815  1.00 20.00     0.029 C 
HETATM   10  C4  UNL     1     -34.746   5.318   6.325  1.00 20.00     0.010 C 
ENDBRANCH   2   9
TORSDOF 3
ENDMDL
MODEL 5
REMARK VINA RESULT:      -3.8     11.554     12.589
REMARK  3 active torsions:
REMARK  status: ('A' for Active; 'I' for Inactive)
REMARK    1  A    between atoms: C1_1  and  C10_10 
REMARK    2  A    between atoms: C2_2  and  C8_8 
REMARK    3  A    between atoms: C9_9  and  C10_10 
ROOT
HETATM    1  C1  UNL     1     -33.271   6.360   3.221  1.00 20.00    -0.016 C 
HETATM    2  C2  UNL     1     -32.635   7.530   2.999  1.00 20.00    -0.087 C 
HETATM    3  C3  UNL     1     -32.581   8.561   4.102  1.00 20.00     0.043 C 
ENDROOT
BRANCH   1   4
HETATM    4  C10 UNL     1     -34.002   5.822   4.451  1.00 20.00    -0.030 C 
HETATM    5  C6  UNL     1     -35.506   6.152   4.357  1.00 20.00     0.019 C 
HETATM    6  C7  UNL     1     -33.889   4.276   4.433  1.00 20.00     0.019 C 
BRANCH   4   7
HETATM    7  C9  UNL     1     -33.440   6.344   5.802  1.00 20.00     0.008 C 
HETATM    8  C5  UNL     1     -34.484   6.844   6.796  1.00 20.00     0.006 C 
ENDBRANCH   4   7
ENDBRANCH   1   4
BRANCH   2   9
HETATM    9  C8  UNL     1     -31.902   7.929   1.739  1.00 20.00     0.029 C 
HETATM   10  C4  UNL     1     -32.612   9.025   0.956  1.00 20.00     0.010 C 
ENDBRANCH   2   9
TORSDOF 3
ENDMDL
MODEL 6
REMARK VINA RESULT:      -3.8      0.858      1.255
REMARK  3 active torsions:
REMARK  status: ('A' for Active; 'I' for Inactive)
REMARK    1  A    between atoms: C1_1  and  C10_10 
REMARK    2  A    between atoms: C2_2  and  C8_8 
REMARK    3  A    between atoms: C9_9  and  C10_10 
ROOT
HETATM    1  C1  UNL     1     -33.263  16.842  -2.275  1.00 20.00    -0.016 C 
HETATM    2  C2  UNL     1     -33.621  16.430  -3.509  1.00 20.00    -0.087 C 
HETATM    3  C3  UNL     1     -34.179  17.435  -4.490  1.00 20.00     0.043 C 
ENDROOT
BRANCH   1   4
HETATM    4  C10 UNL     1     -33.308  18.221  -1.615  1.00 20.00    -0.030 C 
HETATM    5  C6  UNL     1     -32.595  19.257  -2.509  1.00 20.00     0.019 C 
HETATM    6  C7  UNL     1     -34.792  18.659  -1.532  1.00 20.00     0.019 C 
BRANCH   4   7
HETATM    7  C9  UNL     1     -32.699  18.262  -0.187  1.00 20.00     0.008 C 
HETATM    8  C5  UNL     1     -31.205  18.565  -0.120  1.00 20.00     0.006 C 
ENDBRANCH   4   7
ENDBRANCH   1   4
BRANCH   2   9
HETATM    9  C8  UNL     1     -33.482  15.031  -4.065  1.00 20.00     0.029 C 
HETATM   10  C4  UNL     1     -33.927  14.918  -5.517  1.00 20.00     0.010 C 
ENDBRANCH   2   9
TORSDOF 3
ENDMDL
MODEL 7
REMARK VINA RESULT:      -3.6     10.614     12.142
REMARK  3 active torsions:
REMARK  status: ('A' for Active; 'I' for Inactive)
REMARK    1  A    between atoms: C1_1  and  C10_10 
REMARK    2  A    between atoms: C2_2  and  C8_8 
REMARK    3  A    between atoms: C9_9  and  C10_10 
ROOT
HETATM    1  C1  UNL     1     -40.035  13.584   7.364  1.00 20.00    -0.016 C 
HETATM    2  C2  UNL     1     -40.019  12.999   6.147  1.00 20.00    -0.087 C 
HETATM    3  C3  UNL     1     -41.117  13.321   5.159  1.00 20.00     0.043 C 
ENDROOT
BRANCH   1   4
HETATM    4  C10 UNL     1     -41.008  14.579   7.996  1.00 20.00    -0.030 C 
HETATM    5  C6  UNL     1     -42.312  13.858   8.399  1.00 20.00     0.019 C 
HETATM    6  C7  UNL     1     -40.370  15.099   9.309  1.00 20.00     0.019 C 
BRANCH   4   7
HETATM    7  C9  UNL     1     -41.347  15.797   7.093  1.00 20.00     0.008 C 
HETATM    8  C5  UNL     1     -40.681  17.111   7.489  1.00 20.00     0.006 C 
ENDBRANCH   4   7
ENDBRANCH   1   4
BRANCH   2   9
HETATM    9  C8  UNL     1     -38.963  12.056   5.617  1.00 20.00     0.029 C 
HETATM   10  C4  UNL     1     -39.159  11.705   4.148  1.00 20.00     0.010 C 
ENDBRANCH   2   9
TORSDOF 3
ENDMDL
MODEL 8
REMARK VINA RESULT:      -3.5      1.872      5.523
REMARK  3 active torsions:
REMARK  status: ('A' for Active; 'I' for Inactive)
REMARK    1  A    between atoms: C1_1  and  C10_10 
REMARK    2  A    between atoms: C2_2  and  C8_8 
REMARK    3  A    between atoms: C9_9  and  C10_10 
ROOT
HETATM    1  C1  UNL     1     -34.858  16.548  -4.842  1.00 20.00    -0.016 C 
HETATM    2  C2  UNL     1     -33.778  16.347  -4.057  1.00 20.00    -0.087 C 
HETATM    3  C3  UNL     1     -33.019  15.044  -4.166  1.00 20.00     0.043 C 
ENDROOT
BRANCH   1   4
HETATM    4  C10 UNL     1     -35.520  15.664  -5.899  1.00 20.00    -0.030 C 
HETATM    5  C6  UNL     1     -35.999  14.346  -5.258  1.00 20.00     0.019 C 
HETATM    6  C7  UNL     1     -36.792  16.396  -6.401  1.00 20.00     0.019 C 
BRANCH   4   7
HETATM    7  C9  UNL     1     -34.615  15.348  -7.121  1.00 20.00     0.008 C 
HETATM    8  C5  UNL     1     -34.144  16.560  -7.918  1.00 20.00     0.006 C 
ENDBRANCH   4   7
ENDBRANCH   1   4
BRANCH   2   9
HETATM    9  C8  UNL     1     -33.186  17.329  -3.072  1.00 20.00     0.029 C 
HETATM   10  C4  UNL     1     -33.603  17.056  -1.633  1.00 20.00     0.010 C 
ENDBRANCH   2   9
TORSDOF 3
ENDMDL
MODEL 9
REMARK VINA RESULT:      -3.5     10.910     12.712
REMARK  3 active torsions:
REMARK  status: ('A' for Active; 'I' for Inactive)
REMARK    1  A    between atoms: C1_1  and  C10_10 
REMARK    2  A    between atoms: C2_2  and  C8_8 
REMARK    3  A    between atoms: C9_9  and  C10_10 
ROOT
HETATM    1  C1  UNL     1     -40.382  13.632   7.216  1.00 20.00    -0.016 C 
HETATM    2  C2  UNL     1     -40.712  13.250   5.964  1.00 20.00    -0.087 C 
HETATM    3  C3  UNL     1     -41.825  13.973   5.240  1.00 20.00     0.043 C 
ENDROOT
BRANCH   1   4
HETATM    4  C10 UNL     1     -40.943  14.729   8.121  1.00 20.00    -0.030 C 
HETATM    5  C6  UNL     1     -40.249  14.683   9.497  1.00 20.00     0.019 C 
HETATM    6  C7  UNL     1     -40.580  16.098   7.491  1.00 20.00     0.019 C 
BRANCH   4   7
HETATM    7  C9  UNL     1     -42.483  14.666   8.314  1.00 20.00     0.008 C 
HETATM    8  C5  UNL     1     -43.016  13.367   8.910  1.00 20.00     0.006 C 
ENDBRANCH   4   7
ENDBRANCH   1   4
BRANCH   2   9
HETATM    9  C8  UNL     1     -40.042  12.168   5.148  1.00 20.00     0.029 C 
HETATM   10  C4  UNL     1     -38.545  12.066   5.407  1.00 20.00     0.010 C 
ENDBRANCH   2   9
TORSDOF 3
ENDMDL
