MODEL 1
REMARK VINA RESULT:      -3.8      0.000      0.000
REMARK  2 active torsions:
REMARK  status: ('A' for Active; 'I' for Inactive)
REMARK    1  A    between atoms: C3_3  and  C8_8 
REMARK    2  A    between atoms: C4_4  and  C7_7 
ROOT
HETATM    1  C5  UNL     1     -32.911  15.529  -3.810  1.00 20.00     0.040 C 
HETATM    2  C6  UNL     1     -34.097  14.703  -4.252  1.00 20.00     0.045 C 
HETATM    3  C7  UNL     1     -33.407  16.955  -3.989  1.00 20.00     0.151 C 
HETATM    4  C8  UNL     1     -34.709  15.557  -5.364  1.00 20.00     0.075 C 
HETATM    5  C10 UNL     1     -34.097  15.238  -6.731  1.00 20.00     0.050 C 
HETATM    6  O11 UNL     1     -34.381  16.924  -5.046  1.00 20.00    -0.367 OA
ENDROOT
BRANCH   3   7
HETATM    7  C4  UNL     1     -34.058  17.520  -2.769  1.00 20.00    -0.065 C 
HETATM    8  C2  UNL     1     -33.632  17.216  -1.534  1.00 20.00     0.016 C 
HETATM    9  C9  UNL     1     -35.214  18.446  -3.004  1.00 20.00     0.045 C 
ENDBRANCH   3   7
BRANCH   4  10
HETATM   10  C3  UNL     1     -36.200  15.428  -5.405  1.00 20.00     0.000 C 
HETATM   11  C1  UNL     1     -37.032  16.441  -5.671  1.00 20.00     0.010 C 
ENDBRANCH   4  10
TORSDOF 2
ENDMDL
MODEL 2
REMARK VINA RESULT:      -3.6     11.597     12.789
REMARK  2 active torsions:
REMARK  status: ('A' for Active; 'I' for Inactive)
REMARK    1  A    between atoms: C3_3  and  C8_8 
REMARK    2  A    between atoms: C4_4  and  C7_7 
ROOT
HETATM    1  C5  UNL     1     -32.811   8.681   5.320  1.00 20.00     0.040 C 
HETATM    2  C6  UNL     1     -31.810   8.098   4.348  1.00 20.00     0.045 C 
HETATM    3  C7  UNL     1     -34.091   7.938   4.974  1.00 20.00     0.151 C 
HETATM    4  C8  UNL     1     -32.661   7.830   3.106  1.00 20.00     0.075 C 
HETATM    5  C10 UNL     1     -32.715   9.046   2.177  1.00 20.00     0.050 C 
HETATM    6  O11 UNL     1     -34.000   7.585   3.583  1.00 20.00    -0.367 OA
ENDROOT
BRANCH   3   7
HETATM    7  C4  UNL     1     -34.287   6.685   5.763  1.00 20.00    -0.065 C 
HETATM    8  C2  UNL     1     -33.718   6.508   6.964  1.00 20.00     0.016 C 
HETATM    9  C9  UNL     1     -35.159   5.638   5.135  1.00 20.00     0.045 C 
ENDBRANCH   3   7
BRANCH   4  10
HETATM   10  C3  UNL     1     -32.196   6.614   2.367  1.00 20.00     0.000 C 
HETATM   11  C1  UNL     1     -32.787   5.417   2.448  1.00 20.00     0.010 C 
ENDBRANCH   4  10
TORSDOF 2
ENDMDL
MODEL 3
REMARK VINA RESULT:      -3.5      1.158      4.064
REMARK  2 active torsions:
REMARK  status: ('A' for Active; 'I' for Inactive)
REMARK    1  A    between atoms: C3_3  and  C8_8 
REMARK    2  A    between atoms: C4_4  and  C7_7 
ROOT
HETATM    1  C5  UNL     1     -35.145  17.861  -4.810  1.00 20.00     0.040 C 
HETATM    2  C6  UNL     1     -35.171  18.105  -3.318  1.00 20.00     0.045 C 
HETATM    3  C7  UNL     1     -34.117  16.751  -4.953  1.00 20.00     0.151 C 
HETATM    4  C8  UNL     1     -33.720  17.848  -2.908  1.00 20.00     0.075 C 
HETATM    5  C10 UNL     1     -32.866  19.115  -3.007  1.00 20.00     0.050 C 
HETATM    6  O11 UNL     1     -33.198  16.895  -3.856  1.00 20.00    -0.367 OA
ENDROOT
BRANCH   3   7
HETATM    7  C4  UNL     1     -34.705  15.379  -4.895  1.00 20.00    -0.065 C 
HETATM    8  C2  UNL     1     -34.131  14.391  -4.193  1.00 20.00     0.016 C 
HETATM    9  C9  UNL     1     -35.974  15.171  -5.666  1.00 20.00     0.045 C 
ENDBRANCH   3   7
BRANCH   4  10
HETATM   10  C3  UNL     1     -33.628  17.249  -1.539  1.00 20.00     0.000 C 
HETATM   11  C1  UNL     1     -33.623  17.963  -0.408  1.00 20.00     0.010 C 
ENDBRANCH   4  10
TORSDOF 2
ENDMDL
MODEL 4
REMARK VINA RESULT:      -3.5     11.626     13.012
REMARK  2 active torsions:
REMARK  status: ('A' for Active; 'I' for Inactive)
REMARK    1  A    between atoms: C3_3  and  C8_8 
REMARK    2  A    between atoms: C4_4  and  C7_7 
ROOT
HETATM    1  C5  UNL     1     -32.805   8.960   4.140  1.00 20.00     0.040 C 
HETATM    2  C6  UNL     1     -34.173   8.488   4.580  1.00 20.00     0.045 C 
HETATM    3  C7  UNL     1     -32.109   7.665   3.753  1.00 20.00     0.151 C 
HETATM    4  C8  UNL     1     -33.874   7.131   5.218  1.00 20.00     0.075 C 
HETATM    5  C10 UNL     1     -33.543   7.261   6.707  1.00 20.00     0.050 C 
HETATM    6  O11 UNL     1     -32.699   6.625   4.552  1.00 20.00    -0.367 OA
ENDROOT
BRANCH   3   7
HETATM    7  C4  UNL     1     -32.276   7.302   2.314  1.00 20.00    -0.065 C 
HETATM    8  C2  UNL     1     -32.073   8.192   1.331  1.00 20.00     0.016 C 
HETATM    9  C9  UNL     1     -32.683   5.887   2.031  1.00 20.00     0.045 C 
ENDBRANCH   3   7
BRANCH   4  10
HETATM   10  C3  UNL     1     -34.992   6.158   5.003  1.00 20.00     0.000 C 
HETATM   11  C1  UNL     1     -34.824   4.835   4.904  1.00 20.00     0.010 C 
ENDBRANCH   4  10
TORSDOF 2
ENDMDL
MODEL 5
REMARK VINA RESULT:      -3.5     12.368     13.843
REMARK  2 active torsions:
REMARK  status: ('A' for Active; 'I' for Inactive)
REMARK    1  A    between atoms: C3_3  and  C8_8 
REMARK    2  A    between atoms: C4_4  and  C7_7 
ROOT
HETATM    1  C5  UNL     1     -34.529   5.945   6.192  1.00 20.00     0.040 C 
HETATM    2  C6  UNL     1     -33.354   6.870   6.417  1.00 20.00     0.045 C 
HETATM    3  C7  UNL     1     -34.660   5.928   4.678  1.00 20.00     0.151 C 
HETATM    4  C8  UNL     1     -33.501   7.885   5.283  1.00 20.00     0.075 C 
HETATM    5  C10 UNL     1     -34.388   9.067   5.685  1.00 20.00     0.050 C 
HETATM    6  O11 UNL     1     -34.161   7.191   4.205  1.00 20.00    -0.367 OA
ENDROOT
BRANCH   3   7
HETATM    7  C4  UNL     1     -33.877   4.839   4.022  1.00 20.00    -0.065 C 
HETATM    8  C2  UNL     1     -33.706   3.641   4.601  1.00 20.00     0.016 C 
HETATM    9  C9  UNL     1     -33.294   5.161   2.678  1.00 20.00     0.045 C 
ENDBRANCH   3   7
BRANCH   4  10
HETATM   10  C3  UNL     1     -32.170   8.362   4.789  1.00 20.00     0.000 C 
HETATM   11  C1  UNL     1     -31.719   8.165   3.546  1.00 20.00     0.010 C 
ENDBRANCH   4  10
TORSDOF 2
ENDMDL
MODEL 6
REMARK VINA RESULT:      -3.4      1.854      3.352
REMARK  2 active torsions:
REMARK  status: ('A' for Active; 'I' for Inactive)
REMARK    1  A    between atoms: C3_3  and  C8_8 
REMARK    2  A    between atoms: C4_4  and  C7_7 
ROOT
HETATM    1  C5  UNL     1     -34.935  15.994  -7.386  1.00 20.00     0.040 C 
HETATM    2  C6  UNL     1     -34.016  15.124  -6.557  1.00 20.00     0.045 C 
HETATM    3  C7  UNL     1     -35.369  17.064  -6.397  1.00 20.00     0.151 C 
HETATM    4  C8  UNL     1     -34.650  15.189  -5.167  1.00 20.00     0.075 C 
HETATM    5  C10 UNL     1     -35.707  14.099  -4.970  1.00 20.00     0.050 C 
HETATM    6  O11 UNL     1     -35.319  16.464  -5.091  1.00 20.00    -0.367 OA
ENDROOT
BRANCH   3   7
HETATM    7  C4  UNL     1     -34.486  18.268  -6.393  1.00 20.00    -0.065 C 
HETATM    8  C2  UNL     1     -34.238  18.963  -5.273  1.00 20.00     0.016 C 
HETATM    9  C9  UNL     1     -33.891  18.656  -7.715  1.00 20.00     0.045 C 
ENDBRANCH   3   7
BRANCH   4  10
HETATM   10  C3  UNL     1     -33.618  15.133  -4.084  1.00 20.00     0.000 C 
HETATM   11  C1  UNL     1     -33.406  16.116  -3.201  1.00 20.00     0.010 C 
ENDBRANCH   4  10
TORSDOF 2
ENDMDL
MODEL 7
REMARK VINA RESULT:      -3.2     11.887     13.494
REMARK  2 active torsions:
REMARK  status: ('A' for Active; 'I' for Inactive)
REMARK    1  A    between atoms: C3_3  and  C8_8 
REMARK    2  A    between atoms: C4_4  and  C7_7 
ROOT
HETATM    1  C5  UNL     1     -42.145  12.540   6.612  1.00 20.00     0.040 C 
HETATM    2  C6  UNL     1     -41.887  13.460   7.784  1.00 20.00     0.045 C 
HETATM    3  C7  UNL     1     -41.131  13.012   5.582  1.00 20.00     0.151 C 
HETATM    4  C8  UNL     1     -41.493  14.772   7.104  1.00 20.00     0.075 C 
HETATM    5  C10 UNL     1     -42.712  15.649   6.805  1.00 20.00     0.050 C 
HETATM    6  O11 UNL     1     -40.897  14.407   5.842  1.00 20.00    -0.367 OA
ENDROOT
BRANCH   3   7
HETATM    7  C4  UNL     1     -39.824  12.295   5.657  1.00 20.00    -0.065 C 
HETATM    8  C2  UNL     1     -39.157  12.157   6.813  1.00 20.00     0.016 C 
HETATM    9  C9  UNL     1     -39.300  11.738   4.367  1.00 20.00     0.045 C 
ENDBRANCH   3   7
BRANCH   4  10
HETATM   10  C3  UNL     1     -40.476  15.527   7.903  1.00 20.00     0.000 C 
HETATM   11  C1  UNL     1     -40.100  15.193   9.142  1.00 20.00     0.010 C 
ENDBRANCH   4  10
TORSDOF 2
ENDMDL
MODEL 8
REMARK VINA RESULT:      -3.2     12.926     14.222
REMARK  2 active torsions:
REMARK  status: ('A' for Active; 'I' for Inactive)
REMARK    1  A    between atoms: C3_3  and  C8_8 
REMARK    2  A    between atoms: C4_4  and  C7_7 
ROOT
HETATM    1  C5  UNL     1     -43.287  15.017   7.202  1.00 20.00     0.040 C 
HETATM    2  C6  UNL     1     -42.737  14.095   6.137  1.00 20.00     0.045 C 
HETATM    3  C7  UNL     1     -42.384  14.734   8.391  1.00 20.00     0.151 C 
HETATM    4  C8  UNL     1     -42.277  12.880   6.944  1.00 20.00     0.075 C 
HETATM    5  C10 UNL     1     -43.399  11.854   7.121  1.00 20.00     0.050 C 
HETATM    6  O11 UNL     1     -41.930  13.377   8.253  1.00 20.00    -0.367 OA
ENDROOT
BRANCH   3   7
HETATM    7  C4  UNL     1     -41.187  15.625   8.458  1.00 20.00    -0.065 C 
HETATM    8  C2  UNL     1     -40.070  15.263   9.107  1.00 20.00     0.016 C 
HETATM    9  C9  UNL     1     -41.305  16.946   7.758  1.00 20.00     0.045 C 
ENDBRANCH   3   7
BRANCH   4  10
HETATM   10  C3  UNL     1     -41.062  12.244   6.345  1.00 20.00     0.000 C 
HETATM   11  C1  UNL     1     -39.988  12.924   5.930  1.00 20.00     0.010 C 
ENDBRANCH   4  10
TORSDOF 2
ENDMDL
MODEL 9
REMARK VINA RESULT:      -3.1     12.867     14.434
REMARK  2 active torsions:
REMARK  status: ('A' for Active; 'I' for Inactive)
REMARK    1  A    between atoms: C3_3  and  C8_8 
REMARK    2  A    between atoms: C4_4  and  C7_7 
ROOT
HETATM    1  C5  UNL     1     -42.907  15.054   6.937  1.00 20.00     0.040 C 
HETATM    2  C6  UNL     1     -42.433  15.369   8.338  1.00 20.00     0.045 C 
HETATM    3  C7  UNL     1     -41.701  14.365   6.320  1.00 20.00     0.151 C 
HETATM    4  C8  UNL     1     -40.945  15.660   8.135  1.00 20.00     0.075 C 
HETATM    5  C10 UNL     1     -40.690  17.136   7.817  1.00 20.00     0.050 C 
HETATM    6  O11 UNL     1     -40.540  14.889   6.985  1.00 20.00    -0.367 OA
ENDROOT
BRANCH   3   7
HETATM    7  C4  UNL     1     -41.708  12.881   6.488  1.00 20.00    -0.065 C 
HETATM    8  C2  UNL     1     -42.770  12.229   6.986  1.00 20.00     0.016 C 
HETATM    9  C9  UNL     1     -40.461  12.162   6.069  1.00 20.00     0.045 C 
ENDBRANCH   3   7
BRANCH   4  10
HETATM   10  C3  UNL     1     -40.128  15.218   9.309  1.00 20.00     0.000 C 
HETATM   11  C1  UNL     1     -40.588  14.431  10.287  1.00 20.00     0.010 C 
ENDBRANCH   4  10
TORSDOF 2
ENDMDL
