MODEL 1
REMARK VINA RESULT:      -6.9      0.000      0.000
REMARK  0 active torsions:
REMARK  status: ('A' for Active; 'I' for Inactive)
ROOT
HETATM    1  C1  UNL     1     -32.274   7.273   2.812  1.00 20.00    -0.030 C 
HETATM    2  C2  UNL     1     -32.354   8.365   3.593  1.00 20.00    -0.030 C 
HETATM    3  C3  UNL     1     -34.784   5.343   6.248  1.00 20.00    -0.030 C 
HETATM    4  C4  UNL     1     -34.569   5.007   4.965  1.00 20.00    -0.025 C 
HETATM    5  C5  UNL     1     -32.958   5.962   3.134  1.00 20.00     0.035 C 
HETATM    6  C6  UNL     1     -33.085   8.393   4.917  1.00 20.00     0.032 C 
HETATM    7  C7  UNL     1     -34.333   6.748   6.540  1.00 20.00     0.032 C 
HETATM    8  C8  UNL     1     -34.013   6.174   4.217  1.00 20.00     0.016 C 
HETATM    9  C9  UNL     1     -33.383   6.969   5.370  1.00 20.00     0.000 C 
ENDROOT
TORSDOF 0
ENDMDL
MODEL 2
REMARK VINA RESULT:      -6.8      0.148      2.050
REMARK  0 active torsions:
REMARK  status: ('A' for Active; 'I' for Inactive)
ROOT
HETATM    1  C1  UNL     1     -32.403   8.488   3.642  1.00 20.00    -0.030 C 
HETATM    2  C2  UNL     1     -32.269   7.437   2.812  1.00 20.00    -0.030 C 
HETATM    3  C3  UNL     1     -34.917   5.449   6.146  1.00 20.00    -0.030 C 
HETATM    4  C4  UNL     1     -34.310   6.609   6.446  1.00 20.00    -0.025 C 
HETATM    5  C5  UNL     1     -33.125   8.418   4.970  1.00 20.00     0.035 C 
HETATM    6  C6  UNL     1     -32.877   6.079   3.080  1.00 20.00     0.032 C 
HETATM    7  C7  UNL     1     -34.473   4.916   4.812  1.00 20.00     0.032 C 
HETATM    8  C8  UNL     1     -33.325   6.962   5.381  1.00 20.00     0.016 C 
HETATM    9  C9  UNL     1     -33.914   6.190   4.191  1.00 20.00     0.000 C 
ENDROOT
TORSDOF 0
ENDMDL
MODEL 3
REMARK VINA RESULT:      -6.6      0.602      3.194
REMARK  0 active torsions:
REMARK  status: ('A' for Active; 'I' for Inactive)
ROOT
HETATM    1  C1  UNL     1     -34.708   4.919   4.950  1.00 20.00    -0.030 C 
HETATM    2  C2  UNL     1     -34.689   5.548   6.140  1.00 20.00    -0.030 C 
HETATM    3  C3  UNL     1     -32.276   8.667   3.585  1.00 20.00    -0.030 C 
HETATM    4  C4  UNL     1     -32.432   7.436   3.073  1.00 20.00    -0.025 C 
HETATM    5  C5  UNL     1     -33.999   5.438   3.718  1.00 20.00     0.035 C 
HETATM    6  C6  UNL     1     -34.011   6.880   6.370  1.00 20.00     0.032 C 
HETATM    7  C7  UNL     1     -32.778   8.752   5.001  1.00 20.00     0.032 C 
HETATM    8  C8  UNL     1     -32.993   6.518   4.110  1.00 20.00     0.016 C 
HETATM    9  C9  UNL     1     -33.690   7.531   5.030  1.00 20.00     0.000 C 
ENDROOT
TORSDOF 0
ENDMDL
MODEL 4
REMARK VINA RESULT:      -6.6      0.623      3.739
REMARK  0 active torsions:
REMARK  status: ('A' for Active; 'I' for Inactive)
ROOT
HETATM    1  C1  UNL     1     -34.706   5.655   6.270  1.00 20.00    -0.030 C 
HETATM    2  C2  UNL     1     -34.797   5.001   5.097  1.00 20.00    -0.030 C 
HETATM    3  C3  UNL     1     -32.022   8.558   3.781  1.00 20.00    -0.030 C 
HETATM    4  C4  UNL     1     -32.682   8.685   4.943  1.00 20.00    -0.025 C 
HETATM    5  C5  UNL     1     -33.970   6.965   6.443  1.00 20.00     0.035 C 
HETATM    6  C6  UNL     1     -34.119   5.467   3.828  1.00 20.00     0.032 C 
HETATM    7  C7  UNL     1     -32.452   7.330   3.025  1.00 20.00     0.032 C 
HETATM    8  C8  UNL     1     -33.694   7.594   5.079  1.00 20.00     0.016 C 
HETATM    9  C9  UNL     1     -33.079   6.529   4.160  1.00 20.00     0.000 C 
ENDROOT
TORSDOF 0
ENDMDL
MODEL 5
REMARK VINA RESULT:      -6.5      0.641      3.750
REMARK  0 active torsions:
REMARK  status: ('A' for Active; 'I' for Inactive)
ROOT
HETATM    1  C1  UNL     1     -34.448   6.400   6.607  1.00 20.00    -0.030 C 
HETATM    2  C2  UNL     1     -34.887   5.329   5.920  1.00 20.00    -0.030 C 
HETATM    3  C3  UNL     1     -32.157   7.283   2.632  1.00 20.00    -0.030 C 
HETATM    4  C4  UNL     1     -32.500   8.043   3.685  1.00 20.00    -0.025 C 
HETATM    5  C5  UNL     1     -33.559   7.469   6.011  1.00 20.00     0.035 C 
HETATM    6  C6  UNL     1     -34.492   5.035   4.490  1.00 20.00     0.032 C 
HETATM    7  C7  UNL     1     -32.883   5.966   2.635  1.00 20.00     0.032 C 
HETATM    8  C8  UNL     1     -33.557   7.359   4.488  1.00 20.00     0.016 C 
HETATM    9  C9  UNL     1     -33.297   5.896   4.100  1.00 20.00     0.000 C 
ENDROOT
TORSDOF 0
ENDMDL
MODEL 6
REMARK VINA RESULT:      -6.4      0.663      3.211
REMARK  0 active torsions:
REMARK  status: ('A' for Active; 'I' for Inactive)
ROOT
HETATM    1  C1  UNL     1     -34.955   5.328   5.818  1.00 20.00    -0.030 C 
HETATM    2  C2  UNL     1     -34.541   6.357   6.580  1.00 20.00    -0.030 C 
HETATM    3  C3  UNL     1     -32.287   7.399   2.590  1.00 20.00    -0.030 C 
HETATM    4  C4  UNL     1     -32.779   6.156   2.717  1.00 20.00    -0.025 C 
HETATM    5  C5  UNL     1     -34.479   5.091   4.401  1.00 20.00     0.035 C 
HETATM    6  C6  UNL     1     -33.599   7.434   6.088  1.00 20.00     0.032 C 
HETATM    7  C7  UNL     1     -32.414   8.183   3.868  1.00 20.00     0.032 C 
HETATM    8  C8  UNL     1     -33.232   5.926   4.122  1.00 20.00     0.016 C 
HETATM    9  C9  UNL     1     -33.496   7.371   4.569  1.00 20.00     0.000 C 
ENDROOT
TORSDOF 0
ENDMDL
MODEL 7
REMARK VINA RESULT:      -5.8      0.772      2.213
REMARK  0 active torsions:
REMARK  status: ('A' for Active; 'I' for Inactive)
ROOT
HETATM    1  C1  UNL     1     -32.704   9.095   5.142  1.00 20.00    -0.030 C 
HETATM    2  C2  UNL     1     -32.258   8.562   3.989  1.00 20.00    -0.030 C 
HETATM    3  C3  UNL     1     -34.976   5.026   5.472  1.00 20.00    -0.030 C 
HETATM    4  C4  UNL     1     -34.641   5.968   6.368  1.00 20.00    -0.025 C 
HETATM    5  C5  UNL     1     -33.593   8.356   6.118  1.00 20.00     0.035 C 
HETATM    6  C6  UNL     1     -32.645   7.183   3.503  1.00 20.00     0.032 C 
HETATM    7  C7  UNL     1     -34.246   5.211   4.169  1.00 20.00     0.032 C 
HETATM    8  C8  UNL     1     -33.586   6.862   5.802  1.00 20.00     0.016 C 
HETATM    9  C9  UNL     1     -33.840   6.674   4.300  1.00 20.00     0.000 C 
ENDROOT
TORSDOF 0
ENDMDL
MODEL 8
REMARK VINA RESULT:      -4.2     15.437     15.863
REMARK  0 active torsions:
REMARK  status: ('A' for Active; 'I' for Inactive)
ROOT
HETATM    1  C1  UNL     1     -23.917  19.228   8.337  1.00 20.00    -0.030 C 
HETATM    2  C2  UNL     1     -22.806  18.489   8.511  1.00 20.00    -0.030 C 
HETATM    3  C3  UNL     1     -25.223  17.146  12.310  1.00 20.00    -0.030 C 
HETATM    4  C4  UNL     1     -25.633  18.256  11.676  1.00 20.00    -0.025 C 
HETATM    5  C5  UNL     1     -25.061  19.263   9.326  1.00 20.00     0.035 C 
HETATM    6  C6  UNL     1     -22.598  17.557   9.683  1.00 20.00     0.032 C 
HETATM    7  C7  UNL     1     -23.922  16.633  11.755  1.00 20.00     0.032 C 
HETATM    8  C8  UNL     1     -24.618  18.670  10.661  1.00 20.00     0.016 C 
HETATM    9  C9  UNL     1     -23.924  17.326  10.398  1.00 20.00     0.000 C 
ENDROOT
TORSDOF 0
ENDMDL
MODEL 9
REMARK VINA RESULT:      -4.2     15.173     16.066
REMARK  0 active torsions:
REMARK  status: ('A' for Active; 'I' for Inactive)
ROOT
HETATM    1  C1  UNL     1     -25.407  16.990  12.321  1.00 20.00    -0.030 C 
HETATM    2  C2  UNL     1     -25.903  18.234  12.189  1.00 20.00    -0.030 C 
HETATM    3  C3  UNL     1     -22.842  18.243   8.623  1.00 20.00    -0.030 C 
HETATM    4  C4  UNL     1     -22.711  17.280   9.549  1.00 20.00    -0.025 C 
HETATM    5  C5  UNL     1     -24.293  16.438  11.460  1.00 20.00     0.035 C 
HETATM    6  C6  UNL     1     -25.448  19.205  11.121  1.00 20.00     0.032 C 
HETATM    7  C7  UNL     1     -23.875  19.263   9.020  1.00 20.00     0.032 C 
HETATM    8  C8  UNL     1     -23.590  17.573  10.721  1.00 20.00     0.016 C 
HETATM    9  C9  UNL     1     -24.652  18.461  10.056  1.00 20.00     0.000 C 
ENDROOT
TORSDOF 0
ENDMDL
