MODEL 1
REMARK VINA RESULT:      -5.2      0.000      0.000
REMARK  1 active torsions:
REMARK  status: ('A' for Active; 'I' for Inactive)
REMARK    1  A    between atoms: C2_2  and  C3_3 
ROOT
HETATM    1  C1  UNL     1     -32.938   7.337   4.296  1.00 20.00     0.147 C 
HETATM    2  C2  UNL     1     -33.798   7.068   5.444  1.00 20.00     0.425 C 
HETATM    3  N4  UNL     1     -32.255   7.552   3.383  1.00 20.00    -0.191 NA
HETATM    4  F5  UNL     1     -34.561   8.164   5.688  1.00 20.00    -0.179 F 
HETATM    5  F6  UNL     1     -33.022   6.879   6.541  1.00 20.00    -0.179 F 
ENDROOT
BRANCH   2   6
HETATM    6  C3  UNL     1     -34.692   5.872   5.253  1.00 20.00     0.469 C 
HETATM    7  F7  UNL     1     -35.136   5.417   6.446  1.00 20.00    -0.164 F 
HETATM    8  F8  UNL     1     -35.773   6.177   4.503  1.00 20.00    -0.164 F 
HETATM    9  F9  UNL     1     -34.038   4.858   4.646  1.00 20.00    -0.164 F 
ENDBRANCH   2   6
TORSDOF 1
ENDMDL
MODEL 2
REMARK VINA RESULT:      -5.2      0.172      1.273
REMARK  1 active torsions:
REMARK  status: ('A' for Active; 'I' for Inactive)
REMARK    1  A    between atoms: C2_2  and  C3_3 
ROOT
HETATM    1  C1  UNL     1     -32.925   7.233   4.119  1.00 20.00     0.147 C 
HETATM    2  C2  UNL     1     -33.797   7.083   5.279  1.00 20.00     0.425 C 
HETATM    3  N4  UNL     1     -32.232   7.354   3.197  1.00 20.00    -0.191 NA
HETATM    4  F5  UNL     1     -34.545   8.207   5.417  1.00 20.00    -0.179 F 
HETATM    5  F6  UNL     1     -33.032   6.983   6.396  1.00 20.00    -0.179 F 
ENDROOT
BRANCH   2   6
HETATM    6  C3  UNL     1     -34.707   5.887   5.191  1.00 20.00     0.469 C 
HETATM    7  F7  UNL     1     -34.073   4.851   4.599  1.00 20.00    -0.164 F 
HETATM    8  F8  UNL     1     -35.105   5.477   6.415  1.00 20.00    -0.164 F 
HETATM    9  F9  UNL     1     -35.813   6.159   4.465  1.00 20.00    -0.164 F 
ENDBRANCH   2   6
TORSDOF 1
ENDMDL
MODEL 3
REMARK VINA RESULT:      -5.1      1.311      2.702
REMARK  1 active torsions:
REMARK  status: ('A' for Active; 'I' for Inactive)
REMARK    1  A    between atoms: C2_2  and  C3_3 
ROOT
HETATM    1  C1  UNL     1     -33.683   5.495   3.673  1.00 20.00     0.147 C 
HETATM    2  C2  UNL     1     -34.501   5.825   4.836  1.00 20.00     0.425 C 
HETATM    3  N4  UNL     1     -33.033   5.232   2.750  1.00 20.00    -0.191 NA
HETATM    4  F5  UNL     1     -34.468   4.785   5.707  1.00 20.00    -0.179 F 
HETATM    5  F6  UNL     1     -35.792   5.963   4.441  1.00 20.00    -0.179 F 
ENDROOT
BRANCH   2   6
HETATM    6  C3  UNL     1     -34.059   7.080   5.540  1.00 20.00     0.469 C 
HETATM    7  F7  UNL     1     -34.613   7.153   6.771  1.00 20.00    -0.164 F 
HETATM    8  F8  UNL     1     -32.718   7.115   5.692  1.00 20.00    -0.164 F 
HETATM    9  F9  UNL     1     -34.429   8.186   4.859  1.00 20.00    -0.164 F 
ENDBRANCH   2   6
TORSDOF 1
ENDMDL
MODEL 4
REMARK VINA RESULT:      -5.1      0.946      2.354
REMARK  1 active torsions:
REMARK  status: ('A' for Active; 'I' for Inactive)
REMARK    1  A    between atoms: C2_2  and  C3_3 
ROOT
HETATM    1  C1  UNL     1     -33.460   6.771   4.240  1.00 20.00     0.147 C 
HETATM    2  C2  UNL     1     -34.409   5.822   4.812  1.00 20.00     0.425 C 
HETATM    3  N4  UNL     1     -32.704   7.524   3.784  1.00 20.00    -0.191 NA
HETATM    4  F5  UNL     1     -34.085   4.570   4.399  1.00 20.00    -0.179 F 
HETATM    5  F6  UNL     1     -35.647   6.086   4.322  1.00 20.00    -0.179 F 
ENDROOT
BRANCH   2   6
HETATM    6  C3  UNL     1     -34.453   5.854   6.317  1.00 20.00     0.469 C 
HETATM    7  F7  UNL     1     -33.368   5.238   6.836  1.00 20.00    -0.164 F 
HETATM    8  F8  UNL     1     -34.466   7.122   6.783  1.00 20.00    -0.164 F 
HETATM    9  F9  UNL     1     -35.549   5.226   6.793  1.00 20.00    -0.164 F 
ENDBRANCH   2   6
TORSDOF 1
ENDMDL
MODEL 5
REMARK VINA RESULT:      -5.1      0.946      2.441
REMARK  1 active torsions:
REMARK  status: ('A' for Active; 'I' for Inactive)
REMARK    1  A    between atoms: C2_2  and  C3_3 
ROOT
HETATM    1  C1  UNL     1     -33.461   6.839   4.263  1.00 20.00     0.147 C 
HETATM    2  C2  UNL     1     -34.396   5.861   4.809  1.00 20.00     0.425 C 
HETATM    3  N4  UNL     1     -32.717   7.616   3.827  1.00 20.00    -0.191 NA
HETATM    4  F5  UNL     1     -34.049   4.626   4.368  1.00 20.00    -0.179 F 
HETATM    5  F6  UNL     1     -35.636   6.117   4.321  1.00 20.00    -0.179 F 
ENDROOT
BRANCH   2   6
HETATM    6  C3  UNL     1     -34.444   5.858   6.314  1.00 20.00     0.469 C 
HETATM    7  F7  UNL     1     -35.534   5.189   6.752  1.00 20.00    -0.164 F 
HETATM    8  F8  UNL     1     -33.355   5.257   6.842  1.00 20.00    -0.164 F 
HETATM    9  F9  UNL     1     -34.506   7.112   6.810  1.00 20.00    -0.164 F 
ENDBRANCH   2   6
TORSDOF 1
ENDMDL
MODEL 6
REMARK VINA RESULT:      -5.0      1.436      2.171
REMARK  1 active torsions:
REMARK  status: ('A' for Active; 'I' for Inactive)
REMARK    1  A    between atoms: C2_2  and  C3_3 
ROOT
HETATM    1  C1  UNL     1     -33.739   5.638   3.763  1.00 20.00     0.147 C 
HETATM    2  C2  UNL     1     -34.566   6.358   4.726  1.00 20.00     0.425 C 
HETATM    3  N4  UNL     1     -33.083   5.065   2.997  1.00 20.00    -0.191 NA
HETATM    4  F5  UNL     1     -35.871   6.079   4.481  1.00 20.00    -0.179 F 
HETATM    5  F6  UNL     1     -34.408   7.692   4.531  1.00 20.00    -0.179 F 
ENDROOT
BRANCH   2   6
HETATM    6  C3  UNL     1     -34.245   6.022   6.158  1.00 20.00     0.469 C 
HETATM    7  F7  UNL     1     -33.157   6.709   6.573  1.00 20.00    -0.164 F 
HETATM    8  F8  UNL     1     -35.268   6.339   6.981  1.00 20.00    -0.164 F 
HETATM    9  F9  UNL     1     -33.982   4.706   6.310  1.00 20.00    -0.164 F 
ENDBRANCH   2   6
TORSDOF 1
ENDMDL
MODEL 7
REMARK VINA RESULT:      -4.9      2.198      3.211
REMARK  1 active torsions:
REMARK  status: ('A' for Active; 'I' for Inactive)
REMARK    1  A    between atoms: C2_2  and  C3_3 
ROOT
HETATM    1  C1  UNL     1     -34.398   6.409   4.783  1.00 20.00     0.147 C 
HETATM    2  C2  UNL     1     -33.493   7.529   5.021  1.00 20.00     0.425 C 
HETATM    3  N4  UNL     1     -35.117   5.518   4.596  1.00 20.00    -0.191 NA
HETATM    4  F5  UNL     1     -32.793   7.296   6.160  1.00 20.00    -0.179 F 
HETATM    5  F6  UNL     1     -34.227   8.650   5.237  1.00 20.00    -0.179 F 
ENDROOT
BRANCH   2   6
HETATM    6  C3  UNL     1     -32.534   7.773   3.887  1.00 20.00     0.469 C 
HETATM    7  F7  UNL     1     -32.435   6.675   3.105  1.00 20.00    -0.164 F 
HETATM    8  F8  UNL     1     -32.943   8.796   3.105  1.00 20.00    -0.164 F 
HETATM    9  F9  UNL     1     -31.297   8.067   4.341  1.00 20.00    -0.164 F 
ENDBRANCH   2   6
TORSDOF 1
ENDMDL
MODEL 8
REMARK VINA RESULT:      -4.7      1.760      2.730
REMARK  1 active torsions:
REMARK  status: ('A' for Active; 'I' for Inactive)
REMARK    1  A    between atoms: C2_2  and  C3_3 
ROOT
HETATM    1  C1  UNL     1     -32.726   6.529   3.220  1.00 20.00     0.147 C 
HETATM    2  C2  UNL     1     -32.693   7.760   4.002  1.00 20.00     0.425 C 
HETATM    3  N4  UNL     1     -32.753   5.551   2.597  1.00 20.00    -0.191 NA
HETATM    4  F5  UNL     1     -33.074   8.795   3.211  1.00 20.00    -0.179 F 
HETATM    5  F6  UNL     1     -31.413   8.008   4.380  1.00 20.00    -0.179 F 
ENDROOT
BRANCH   2   6
HETATM    6  C3  UNL     1     -33.573   7.716   5.223  1.00 20.00     0.469 C 
HETATM    7  F7  UNL     1     -34.686   6.988   4.980  1.00 20.00    -0.164 F 
HETATM    8  F8  UNL     1     -32.935   7.151   6.271  1.00 20.00    -0.164 F 
HETATM    9  F9  UNL     1     -33.966   8.954   5.594  1.00 20.00    -0.164 F 
ENDBRANCH   2   6
TORSDOF 1
ENDMDL
MODEL 9
REMARK VINA RESULT:      -4.3      2.101      3.220
REMARK  1 active torsions:
REMARK  status: ('A' for Active; 'I' for Inactive)
REMARK    1  A    between atoms: C2_2  and  C3_3 
ROOT
HETATM    1  C1  UNL     1     -34.472   5.498   5.804  1.00 20.00     0.147 C 
HETATM    2  C2  UNL     1     -34.285   6.100   4.488  1.00 20.00     0.425 C 
HETATM    3  N4  UNL     1     -34.622   5.019   6.850  1.00 20.00    -0.191 NA
HETATM    4  F5  UNL     1     -35.499   6.422   3.974  1.00 20.00    -0.179 F 
HETATM    5  F6  UNL     1     -33.739   5.177   3.655  1.00 20.00    -0.179 F 
ENDROOT
BRANCH   2   6
HETATM    6  C3  UNL     1     -33.412   7.327   4.511  1.00 20.00     0.469 C 
HETATM    7  F7  UNL     1     -32.850   7.486   5.730  1.00 20.00    -0.164 F 
HETATM    8  F8  UNL     1     -32.412   7.239   3.607  1.00 20.00    -0.164 F 
HETATM    9  F9  UNL     1     -34.122   8.443   4.238  1.00 20.00    -0.164 F 
ENDBRANCH   2   6
TORSDOF 1
ENDMDL
