MODEL 1
REMARK VINA RESULT:      -4.6      0.000      0.000
REMARK  2 active torsions:
REMARK  status: ('A' for Active; 'I' for Inactive)
REMARK    1  A    between atoms: C1_1  and  C2_2 
REMARK    2  A    between atoms: C1_1  and  C3_3 
ROOT
HETATM    1  C3  UNL     1     -34.677   5.566   4.805  1.00 20.00     0.321 C 
HETATM    2  F4  UNL     1     -35.927   5.834   4.343  1.00 20.00    -0.188 F 
HETATM    3  F5  UNL     1     -34.324   4.365   4.281  1.00 20.00    -0.188 F 
HETATM    4 CL7  UNL     1     -34.726   5.454   6.571  1.00 20.00    -0.048 Cl
ENDROOT
BRANCH   1   5
HETATM    5  C1  UNL     1     -33.727   6.645   4.300  1.00 20.00     0.112 C 
BRANCH   5   6
HETATM    6  C2  UNL     1     -33.399   7.704   5.346  1.00 20.00     0.122 C 
HETATM    7 CL6  UNL     1     -32.236   8.881   4.688  1.00 20.00    -0.130 Cl
ENDBRANCH   5   6
ENDBRANCH   1   5
TORSDOF 2
ENDMDL
MODEL 2
REMARK VINA RESULT:      -4.5      1.515      1.847
REMARK  2 active torsions:
REMARK  status: ('A' for Active; 'I' for Inactive)
REMARK    1  A    between atoms: C1_1  and  C2_2 
REMARK    2  A    between atoms: C1_1  and  C3_3 
ROOT
HETATM    1  C3  UNL     1     -34.581   5.716   4.853  1.00 20.00     0.321 C 
HETATM    2  F4  UNL     1     -34.733   4.611   5.631  1.00 20.00    -0.188 F 
HETATM    3  F5  UNL     1     -35.827   6.070   4.444  1.00 20.00    -0.188 F 
HETATM    4 CL7  UNL     1     -33.588   5.301   3.449  1.00 20.00    -0.048 Cl
ENDROOT
BRANCH   1   5
HETATM    5  C1  UNL     1     -33.984   6.832   5.700  1.00 20.00     0.112 C 
BRANCH   5   6
HETATM    6  C2  UNL     1     -33.782   8.134   4.934  1.00 20.00     0.122 C 
HETATM    7 CL6  UNL     1     -32.082   8.296   4.431  1.00 20.00    -0.130 Cl
ENDBRANCH   5   6
ENDBRANCH   1   5
TORSDOF 2
ENDMDL
MODEL 3
REMARK VINA RESULT:      -4.4      1.879      2.261
REMARK  2 active torsions:
REMARK  status: ('A' for Active; 'I' for Inactive)
REMARK    1  A    between atoms: C1_1  and  C2_2 
REMARK    2  A    between atoms: C1_1  and  C3_3 
ROOT
HETATM    1  C3  UNL     1     -34.407   5.933   6.196  1.00 20.00     0.321 C 
HETATM    2  F4  UNL     1     -33.697   4.939   6.792  1.00 20.00    -0.188 F 
HETATM    3  F5  UNL     1     -35.472   6.179   7.000  1.00 20.00    -0.188 F 
HETATM    4 CL7  UNL     1     -34.971   5.373   4.615  1.00 20.00    -0.048 Cl
ENDROOT
BRANCH   1   5
HETATM    5  C1  UNL     1     -33.531   7.177   6.112  1.00 20.00     0.112 C 
BRANCH   5   6
HETATM    6  C2  UNL     1     -33.671   7.931   4.795  1.00 20.00     0.122 C 
HETATM    7 CL6  UNL     1     -32.177   7.784   3.837  1.00 20.00    -0.130 Cl
ENDBRANCH   5   6
ENDBRANCH   1   5
TORSDOF 2
ENDMDL
MODEL 4
REMARK VINA RESULT:      -4.4      2.963      3.663
REMARK  2 active torsions:
REMARK  status: ('A' for Active; 'I' for Inactive)
REMARK    1  A    between atoms: C1_1  and  C2_2 
REMARK    2  A    between atoms: C1_1  and  C3_3 
ROOT
HETATM    1  C3  UNL     1     -32.655   7.942   3.840  1.00 20.00     0.321 C 
HETATM    2  F4  UNL     1     -32.798   8.949   2.938  1.00 20.00    -0.188 F 
HETATM    3  F5  UNL     1     -31.472   8.157   4.470  1.00 20.00    -0.188 F 
HETATM    4 CL7  UNL     1     -32.597   6.398   2.975  1.00 20.00    -0.048 Cl
ENDROOT
BRANCH   1   5
HETATM    5  C1  UNL     1     -33.794   8.021   4.847  1.00 20.00     0.112 C 
BRANCH   5   6
HETATM    6  C2  UNL     1     -33.603   7.108   6.053  1.00 20.00     0.122 C 
HETATM    7 CL6  UNL     1     -34.741   5.741   5.978  1.00 20.00    -0.130 Cl
ENDBRANCH   5   6
ENDBRANCH   1   5
TORSDOF 2
ENDMDL
MODEL 5
REMARK VINA RESULT:      -4.4      2.376      3.034
REMARK  2 active torsions:
REMARK  status: ('A' for Active; 'I' for Inactive)
REMARK    1  A    between atoms: C1_1  and  C2_2 
REMARK    2  A    between atoms: C1_1  and  C3_3 
ROOT
HETATM    1  C3  UNL     1     -33.967   6.719   6.085  1.00 20.00     0.321 C 
HETATM    2  F4  UNL     1     -34.704   7.346   7.040  1.00 20.00    -0.188 F 
HETATM    3  F5  UNL     1     -33.204   5.801   6.730  1.00 20.00    -0.188 F 
HETATM    4 CL7  UNL     1     -32.925   7.907   5.289  1.00 20.00    -0.048 Cl
ENDROOT
BRANCH   1   5
HETATM    5  C1  UNL     1     -34.913   6.013   5.122  1.00 20.00     0.112 C 
BRANCH   5   6
HETATM    6  C2  UNL     1     -34.308   4.774   4.474  1.00 20.00     0.122 C 
HETATM    7 CL6  UNL     1     -33.311   5.234   3.073  1.00 20.00    -0.130 Cl
ENDBRANCH   5   6
ENDBRANCH   1   5
TORSDOF 2
ENDMDL
MODEL 6
REMARK VINA RESULT:      -4.3      2.452      3.596
REMARK  2 active torsions:
REMARK  status: ('A' for Active; 'I' for Inactive)
REMARK    1  A    between atoms: C1_1  and  C2_2 
REMARK    2  A    between atoms: C1_1  and  C3_3 
ROOT
HETATM    1  C3  UNL     1     -33.180   7.991   4.801  1.00 20.00     0.321 C 
HETATM    2  F4  UNL     1     -34.426   8.337   4.382  1.00 20.00    -0.188 F 
HETATM    3  F5  UNL     1     -32.577   9.139   5.201  1.00 20.00    -0.188 F 
HETATM    4 CL7  UNL     1     -32.287   7.291   3.443  1.00 20.00    -0.048 Cl
ENDROOT
BRANCH   1   5
HETATM    5  C1  UNL     1     -33.308   7.041   5.985  1.00 20.00     0.112 C 
BRANCH   5   6
HETATM    6  C2  UNL     1     -34.606   6.242   5.985  1.00 20.00     0.122 C 
HETATM    7 CL6  UNL     1     -34.515   4.917   4.800  1.00 20.00    -0.130 Cl
ENDBRANCH   5   6
ENDBRANCH   1   5
TORSDOF 2
ENDMDL
MODEL 7
REMARK VINA RESULT:      -4.1      2.508      3.846
REMARK  2 active torsions:
REMARK  status: ('A' for Active; 'I' for Inactive)
REMARK    1  A    between atoms: C1_1  and  C2_2 
REMARK    2  A    between atoms: C1_1  and  C3_3 
ROOT
HETATM    1  C3  UNL     1     -32.507   7.886   3.709  1.00 20.00     0.321 C 
HETATM    2  F4  UNL     1     -31.370   8.172   4.397  1.00 20.00    -0.188 F 
HETATM    3  F5  UNL     1     -32.316   6.667   3.143  1.00 20.00    -0.188 F 
HETATM    4 CL7  UNL     1     -32.736   9.102   2.443  1.00 20.00    -0.048 Cl
ENDROOT
BRANCH   1   5
HETATM    5  C1  UNL     1     -33.669   7.819   4.691  1.00 20.00     0.112 C 
BRANCH   5   6
HETATM    6  C2  UNL     1     -34.305   6.437   4.785  1.00 20.00     0.122 C 
HETATM    7 CL6  UNL     1     -34.470   5.948   6.489  1.00 20.00    -0.130 Cl
ENDBRANCH   5   6
ENDBRANCH   1   5
TORSDOF 2
ENDMDL
MODEL 8
REMARK VINA RESULT:      -3.9      1.580      1.813
REMARK  2 active torsions:
REMARK  status: ('A' for Active; 'I' for Inactive)
REMARK    1  A    between atoms: C1_1  and  C2_2 
REMARK    2  A    between atoms: C1_1  and  C3_3 
ROOT
HETATM    1  C3  UNL     1     -34.752   6.019   5.666  1.00 20.00     0.321 C 
HETATM    2  F4  UNL     1     -35.577   5.827   6.729  1.00 20.00    -0.188 F 
HETATM    3  F5  UNL     1     -35.519   6.541   4.675  1.00 20.00    -0.188 F 
HETATM    4 CL7  UNL     1     -34.099   4.456   5.153  1.00 20.00    -0.048 Cl
ENDROOT
BRANCH   1   5
HETATM    5  C1  UNL     1     -33.672   7.019   6.058  1.00 20.00     0.112 C 
BRANCH   5   6
HETATM    6  C2  UNL     1     -33.454   8.115   5.021  1.00 20.00     0.122 C 
HETATM    7 CL6  UNL     1     -32.470   7.499   3.671  1.00 20.00    -0.130 Cl
ENDBRANCH   5   6
ENDBRANCH   1   5
TORSDOF 2
ENDMDL
MODEL 9
REMARK VINA RESULT:      -3.9      2.537      2.985
REMARK  2 active torsions:
REMARK  status: ('A' for Active; 'I' for Inactive)
REMARK    1  A    between atoms: C1_1  and  C2_2 
REMARK    2  A    between atoms: C1_1  and  C3_3 
ROOT
HETATM    1  C3  UNL     1     -33.647   7.979   5.167  1.00 20.00     0.321 C 
HETATM    2  F4  UNL     1     -33.857   9.175   5.779  1.00 20.00    -0.188 F 
HETATM    3  F5  UNL     1     -34.628   7.847   4.238  1.00 20.00    -0.188 F 
HETATM    4 CL7  UNL     1     -33.785   6.685   6.367  1.00 20.00    -0.048 Cl
ENDROOT
BRANCH   1   5
HETATM    5  C1  UNL     1     -32.289   8.014   4.478  1.00 20.00     0.112 C 
BRANCH   5   6
HETATM    6  C2  UNL     1     -32.341   7.596   3.013  1.00 20.00     0.122 C 
HETATM    7 CL6  UNL     1     -32.721   5.862   2.878  1.00 20.00    -0.130 Cl
ENDBRANCH   5   6
ENDBRANCH   1   5
TORSDOF 2
ENDMDL
