MODEL 1
REMARK VINA RESULT:      -4.5      0.000      0.000
REMARK  0 active torsions:
REMARK  status: ('A' for Active; 'I' for Inactive)
ROOT
HETATM    1  C1  UNL     1     -33.457  18.155  -3.220  1.00 20.00     0.000 C 
HETATM    2  C2  UNL     1     -33.518  16.717  -2.711  1.00 20.00     0.000 C 
HETATM    3  C3  UNL     1     -33.721  18.383  -4.702  1.00 20.00     0.000 C 
HETATM    4  C4  UNL     1     -32.954  15.659  -3.659  1.00 20.00     0.001 C 
HETATM    5  C5  UNL     1     -35.125  18.067  -5.201  1.00 20.00     0.001 C 
HETATM    6  C6  UNL     1     -34.024  14.802  -4.340  1.00 20.00     0.012 C 
HETATM    7  C7  UNL     1     -35.696  16.656  -5.022  1.00 20.00     0.012 C 
HETATM    8  C8  UNL     1     -34.090  15.632  -6.779  1.00 20.00     0.038 C 
HETATM    9  C9  UNL     1     -35.165  15.536  -7.845  1.00 20.00     0.168 C 
HETATM   10  C10 UNL     1     -35.853  14.342  -5.977  1.00 20.00     0.177 C 
HETATM   11  C11 UNL     1     -34.864  15.424  -5.480  1.00 20.00    -0.017 C 
HETATM   12  O12 UNL     1     -36.182  14.667  -7.335  1.00 20.00    -0.390 OA
ENDROOT
TORSDOF 0
ENDMDL
MODEL 2
REMARK VINA RESULT:      -3.7      0.848      2.540
REMARK  0 active torsions:
REMARK  status: ('A' for Active; 'I' for Inactive)
ROOT
HETATM    1  C1  UNL     1     -33.001  17.950  -2.514  1.00 20.00     0.000 C 
HETATM    2  C2  UNL     1     -33.018  18.769  -3.802  1.00 20.00     0.000 C 
HETATM    3  C3  UNL     1     -33.845  16.683  -2.482  1.00 20.00     0.000 C 
HETATM    4  C4  UNL     1     -34.368  18.848  -4.515  1.00 20.00     0.001 C 
HETATM    5  C5  UNL     1     -33.427  15.561  -3.422  1.00 20.00     0.001 C 
HETATM    6  C6  UNL     1     -34.449  18.004  -5.788  1.00 20.00     0.012 C 
HETATM    7  C7  UNL     1     -33.357  15.820  -4.931  1.00 20.00     0.012 C 
HETATM    8  C8  UNL     1     -35.933  15.992  -5.162  1.00 20.00     0.038 C 
HETATM    9  C9  UNL     1     -36.065  14.611  -5.774  1.00 20.00     0.168 C 
HETATM   10  C10 UNL     1     -34.633  15.880  -7.089  1.00 20.00     0.177 C 
HETATM   11  C11 UNL     1     -34.570  16.467  -5.659  1.00 20.00    -0.017 C 
HETATM   12  O12 UNL     1     -35.319  14.623  -6.995  1.00 20.00    -0.390 OA
ENDROOT
TORSDOF 0
ENDMDL
MODEL 3
REMARK VINA RESULT:      -3.6     24.595     26.274
REMARK  0 active torsions:
REMARK  status: ('A' for Active; 'I' for Inactive)
ROOT
HETATM    1  C1  UNL     1     -23.707  -3.702  11.594  1.00 20.00     0.000 C 
HETATM    2  C2  UNL     1     -23.597  -2.188  11.433  1.00 20.00     0.000 C 
HETATM    3  C3  UNL     1     -25.096  -4.278  11.835  1.00 20.00     0.000 C 
HETATM    4  C4  UNL     1     -24.516  -1.361  12.332  1.00 20.00     0.001 C 
HETATM    5  C5  UNL     1     -26.099  -4.138  10.698  1.00 20.00     0.001 C 
HETATM    6  C6  UNL     1     -25.697  -0.725  11.596  1.00 20.00     0.012 C 
HETATM    7  C7  UNL     1     -26.457  -2.745  10.168  1.00 20.00     0.012 C 
HETATM    8  C8  UNL     1     -27.752  -2.104  12.318  1.00 20.00     0.038 C 
HETATM    9  C9  UNL     1     -29.111  -2.298  11.672  1.00 20.00     0.168 C 
HETATM   10  C10 UNL     1     -27.916  -0.726  10.450  1.00 20.00     0.177 C 
HETATM   11  C11 UNL     1     -26.878  -1.625  11.162  1.00 20.00    -0.017 C 
HETATM   12  O12 UNL     1     -29.191  -1.370  10.584  1.00 20.00    -0.390 OA
ENDROOT
TORSDOF 0
ENDMDL
MODEL 4
REMARK VINA RESULT:      -3.5      1.683      3.339
REMARK  0 active torsions:
REMARK  status: ('A' for Active; 'I' for Inactive)
ROOT
HETATM    1  C1  UNL     1     -33.788  14.338  -4.243  1.00 20.00     0.000 C 
HETATM    2  C2  UNL     1     -32.996  15.597  -3.901  1.00 20.00     0.000 C 
HETATM    3  C3  UNL     1     -35.156  14.527  -4.884  1.00 20.00     0.000 C 
HETATM    4  C4  UNL     1     -33.821  16.773  -3.378  1.00 20.00     0.001 C 
HETATM    5  C5  UNL     1     -35.177  15.145  -6.276  1.00 20.00     0.001 C 
HETATM    6  C6  UNL     1     -33.992  17.910  -4.389  1.00 20.00     0.012 C 
HETATM    7  C7  UNL     1     -34.561  16.529  -6.502  1.00 20.00     0.012 C 
HETATM    8  C8  UNL     1     -36.438  17.735  -5.182  1.00 20.00     0.038 C 
HETATM    9  C9  UNL     1     -37.127  18.238  -6.436  1.00 20.00     0.168 C 
HETATM   10  C10 UNL     1     -34.936  19.008  -6.423  1.00 20.00     0.177 C 
HETATM   11  C11 UNL     1     -34.963  17.713  -5.576  1.00 20.00    -0.017 C 
HETATM   12  O12 UNL     1     -36.190  19.081  -7.116  1.00 20.00    -0.390 OA
ENDROOT
TORSDOF 0
ENDMDL
MODEL 5
REMARK VINA RESULT:      -3.5     13.504     14.665
REMARK  0 active torsions:
REMARK  status: ('A' for Active; 'I' for Inactive)
ROOT
HETATM    1  C1  UNL     1     -41.738  14.869  10.079  1.00 20.00     0.000 C 
HETATM    2  C2  UNL     1     -43.129  14.680   9.480  1.00 20.00     0.000 C 
HETATM    3  C3  UNL     1     -40.552  14.382   9.258  1.00 20.00     0.000 C 
HETATM    4  C4  UNL     1     -43.342  13.377   8.709  1.00 20.00     0.001 C 
HETATM    5  C5  UNL     1     -40.289  15.104   7.944  1.00 20.00     0.001 C 
HETATM    6  C6  UNL     1     -43.395  13.556   7.190  1.00 20.00     0.012 C 
HETATM    7  C7  UNL     1     -41.381  15.149   6.870  1.00 20.00     0.012 C 
HETATM    8  C8  UNL     1     -41.151  12.625   6.329  1.00 20.00     0.038 C 
HETATM    9  C9  UNL     1     -40.386  12.873   5.044  1.00 20.00     0.168 C 
HETATM   10  C10 UNL     1     -42.431  13.967   4.923  1.00 20.00     0.177 C 
HETATM   11  C11 UNL     1     -42.080  13.832   6.424  1.00 20.00    -0.017 C 
HETATM   12  O12 UNL     1     -41.248  13.628   4.185  1.00 20.00    -0.390 OA
ENDROOT
TORSDOF 0
ENDMDL
MODEL 6
REMARK VINA RESULT:      -3.4     24.726     26.328
REMARK  0 active torsions:
REMARK  status: ('A' for Active; 'I' for Inactive)
ROOT
HETATM    1  C1  UNL     1     -23.489  -3.439  11.886  1.00 20.00     0.000 C 
HETATM    2  C2  UNL     1     -24.590  -4.487  12.038  1.00 20.00     0.000 C 
HETATM    3  C3  UNL     1     -23.867  -2.121  11.225  1.00 20.00     0.000 C 
HETATM    4  C4  UNL     1     -25.573  -4.583  10.871  1.00 20.00     0.001 C 
HETATM    5  C5  UNL     1     -24.859  -1.242  11.975  1.00 20.00     0.001 C 
HETATM    6  C6  UNL     1     -26.954  -3.996  11.173  1.00 20.00     0.012 C 
HETATM    7  C7  UNL     1     -26.245  -1.792  12.329  1.00 20.00     0.012 C 
HETATM    8  C8  UNL     1     -27.036  -1.778   9.861  1.00 20.00     0.038 C 
HETATM    9  C9  UNL     1     -27.886  -0.535  10.041  1.00 20.00     0.168 C 
HETATM   10  C10 UNL     1     -28.599  -2.154  11.544  1.00 20.00     0.177 C 
HETATM   11  C11 UNL     1     -27.116  -2.459  11.225  1.00 20.00    -0.017 C 
HETATM   12  O12 UNL     1     -28.880  -0.848  11.022  1.00 20.00    -0.390 OA
ENDROOT
TORSDOF 0
ENDMDL
MODEL 7
REMARK VINA RESULT:      -3.4     25.232     26.665
REMARK  0 active torsions:
REMARK  status: ('A' for Active; 'I' for Inactive)
ROOT
HETATM    1  C1  UNL     1     -28.820  -1.732  10.977  1.00 20.00     0.000 C 
HETATM    2  C2  UNL     1     -27.956  -0.940  11.954  1.00 20.00     0.000 C 
HETATM    3  C3  UNL     1     -28.116  -2.745  10.084  1.00 20.00     0.000 C 
HETATM    4  C4  UNL     1     -26.581  -0.525  11.430  1.00 20.00     0.001 C 
HETATM    5  C5  UNL     1     -27.478  -3.940  10.780  1.00 20.00     0.001 C 
HETATM    6  C6  UNL     1     -25.421  -1.327  12.025  1.00 20.00     0.012 C 
HETATM    7  C7  UNL     1     -26.409  -3.713  11.853  1.00 20.00     0.012 C 
HETATM    8  C8  UNL     1     -24.653  -2.897  10.131  1.00 20.00     0.038 C 
HETATM    9  C9  UNL     1     -23.881  -4.202  10.157  1.00 20.00     0.168 C 
HETATM   10  C10 UNL     1     -23.971  -3.340  12.311  1.00 20.00     0.177 C 
HETATM   11  C11 UNL     1     -25.199  -2.782  11.551  1.00 20.00    -0.017 C 
HETATM   12  O12 UNL     1     -23.414  -4.383  11.499  1.00 20.00    -0.390 OA
ENDROOT
TORSDOF 0
ENDMDL
MODEL 8
REMARK VINA RESULT:      -3.3      1.752      3.384
REMARK  0 active torsions:
REMARK  status: ('A' for Active; 'I' for Inactive)
ROOT
HETATM    1  C1  UNL     1     -33.652  17.801  -0.936  1.00 20.00     0.000 C 
HETATM    2  C2  UNL     1     -34.355  19.087  -1.362  1.00 20.00     0.000 C 
HETATM    3  C3  UNL     1     -33.669  16.638  -1.919  1.00 20.00     0.000 C 
HETATM    4  C4  UNL     1     -35.651  18.900  -2.151  1.00 20.00     0.001 C 
HETATM    5  C5  UNL     1     -32.914  16.840  -3.226  1.00 20.00     0.001 C 
HETATM    6  C6  UNL     1     -35.521  19.216  -3.643  1.00 20.00     0.012 C 
HETATM    7  C7  UNL     1     -33.293  18.001  -4.151  1.00 20.00     0.012 C 
HETATM    8  C8  UNL     1     -35.552  16.921  -4.816  1.00 20.00     0.038 C 
HETATM    9  C9  UNL     1     -35.049  16.480  -6.177  1.00 20.00     0.168 C 
HETATM   10  C10 UNL     1     -34.802  18.782  -5.995  1.00 20.00     0.177 C 
HETATM   11  C11 UNL     1     -34.780  18.211  -4.557  1.00 20.00    -0.017 C 
HETATM   12  O12 UNL     1     -34.682  17.667  -6.890  1.00 20.00    -0.390 OA
ENDROOT
TORSDOF 0
ENDMDL
MODEL 9
REMARK VINA RESULT:      -3.2      1.791      3.228
REMARK  0 active torsions:
REMARK  status: ('A' for Active; 'I' for Inactive)
ROOT
HETATM    1  C1  UNL     1     -35.631  18.993  -6.935  1.00 20.00     0.000 C 
HETATM    2  C2  UNL     1     -34.314  18.389  -7.414  1.00 20.00     0.000 C 
HETATM    3  C3  UNL     1     -36.585  18.078  -6.179  1.00 20.00     0.000 C 
HETATM    4  C4  UNL     1     -34.395  16.948  -7.918  1.00 20.00     0.001 C 
HETATM    5  C5  UNL     1     -36.110  17.567  -4.825  1.00 20.00     0.001 C 
HETATM    6  C6  UNL     1     -33.795  15.920  -6.956  1.00 20.00     0.012 C 
HETATM    7  C7  UNL     1     -34.808  16.765  -4.730  1.00 20.00     0.012 C 
HETATM    8  C8  UNL     1     -35.823  14.705  -5.929  1.00 20.00     0.038 C 
HETATM    9  C9  UNL     1     -35.977  13.913  -4.645  1.00 20.00     0.168 C 
HETATM   10  C10 UNL     1     -33.745  14.500  -4.902  1.00 20.00     0.177 C 
HETATM   11  C11 UNL     1     -34.579  15.550  -5.675  1.00 20.00    -0.017 C 
HETATM   12  O12 UNL     1     -34.664  13.744  -4.100  1.00 20.00    -0.390 OA
ENDROOT
TORSDOF 0
ENDMDL
