MODEL 1
REMARK VINA RESULT:      -3.5      0.000      0.000
REMARK  1 active torsions:
REMARK  status: ('A' for Active; 'I' for Inactive)
REMARK    1  A    between atoms: C4_4  and  O5_5 
ROOT
HETATM    1  C1  UNL     1     -34.426   5.877   6.371  1.00 20.00     0.014 C 
HETATM    2  C2  UNL     1     -34.063   6.893   5.847  1.00 20.00    -0.091 C 
HETATM    3  C4  UNL     1     -33.622   8.134   5.208  1.00 20.00     0.259 C 
ENDROOT
BRANCH   3   4
HETATM    4  O5  UNL     1     -32.292   7.999   4.726  1.00 20.00    -0.384 OA
HETATM    5  C3  UNL     1     -32.268   7.544   3.381  1.00 20.00     0.202 C 
ENDBRANCH   3   4
TORSDOF 1
ENDMDL
MODEL 2
REMARK VINA RESULT:      -3.4      1.251      1.447
REMARK  1 active torsions:
REMARK  status: ('A' for Active; 'I' for Inactive)
REMARK    1  A    between atoms: C4_4  and  O5_5 
ROOT
HETATM    1  C1  UNL     1     -34.799   5.048   4.977  1.00 20.00     0.014 C 
HETATM    2  C2  UNL     1     -34.410   6.016   5.570  1.00 20.00    -0.091 C 
HETATM    3  C4  UNL     1     -33.935   7.194   6.297  1.00 20.00     0.259 C 
ENDROOT
BRANCH   3   4
HETATM    4  O5  UNL     1     -33.730   8.280   5.403  1.00 20.00    -0.384 OA
HETATM    5  C3  UNL     1     -32.547   8.107   4.635  1.00 20.00     0.202 C 
ENDBRANCH   3   4
TORSDOF 1
ENDMDL
MODEL 3
REMARK VINA RESULT:      -3.4      1.884      2.899
REMARK  1 active torsions:
REMARK  status: ('A' for Active; 'I' for Inactive)
REMARK    1  A    between atoms: C4_4  and  O5_5 
ROOT
HETATM    1  C1  UNL     1     -32.711   8.376   4.810  1.00 20.00     0.014 C 
HETATM    2  C2  UNL     1     -33.362   7.610   5.464  1.00 20.00    -0.091 C 
HETATM    3  C4  UNL     1     -34.154   6.676   6.265  1.00 20.00     0.259 C 
ENDROOT
BRANCH   3   4
HETATM    4  O5  UNL     1     -35.094   5.993   5.446  1.00 20.00    -0.384 OA
HETATM    5  C3  UNL     1     -34.477   4.957   4.696  1.00 20.00     0.202 C 
ENDBRANCH   3   4
TORSDOF 1
ENDMDL
MODEL 4
REMARK VINA RESULT:      -3.2      2.244      2.586
REMARK  1 active torsions:
REMARK  status: ('A' for Active; 'I' for Inactive)
REMARK    1  A    between atoms: C4_4  and  O5_5 
ROOT
HETATM    1  C1  UNL     1     -33.961   7.080   6.411  1.00 20.00     0.014 C 
HETATM    2  C2  UNL     1     -34.427   6.266   5.664  1.00 20.00    -0.091 C 
HETATM    3  C4  UNL     1     -34.998   5.273   4.752  1.00 20.00     0.259 C 
ENDROOT
BRANCH   3   4
HETATM    4  O5  UNL     1     -33.966   4.554   4.091  1.00 20.00    -0.384 OA
HETATM    5  C3  UNL     1     -33.293   5.365   3.138  1.00 20.00     0.202 C 
ENDBRANCH   3   4
TORSDOF 1
ENDMDL
MODEL 5
REMARK VINA RESULT:      -3.2      1.184      2.958
REMARK  1 active torsions:
REMARK  status: ('A' for Active; 'I' for Inactive)
REMARK    1  A    between atoms: C4_4  and  O5_5 
ROOT
HETATM    1  C1  UNL     1     -32.178   7.560   3.300  1.00 20.00     0.014 C 
HETATM    2  C2  UNL     1     -32.873   7.722   4.264  1.00 20.00    -0.091 C 
HETATM    3  C4  UNL     1     -33.721   7.923   5.440  1.00 20.00     0.259 C 
ENDROOT
BRANCH   3   4
HETATM    4  O5  UNL     1     -33.524   6.875   6.379  1.00 20.00    -0.384 OA
HETATM    5  C3  UNL     1     -34.526   5.874   6.263  1.00 20.00     0.202 C 
ENDBRANCH   3   4
TORSDOF 1
ENDMDL
MODEL 6
REMARK VINA RESULT:      -3.1      2.357      3.316
REMARK  1 active torsions:
REMARK  status: ('A' for Active; 'I' for Inactive)
REMARK    1  A    between atoms: C4_4  and  O5_5 
ROOT
HETATM    1  C1  UNL     1     -33.063   5.371   2.933  1.00 20.00     0.014 C 
HETATM    2  C2  UNL     1     -33.904   5.343   3.788  1.00 20.00    -0.091 C 
HETATM    3  C4  UNL     1     -34.932   5.310   4.829  1.00 20.00     0.259 C 
ENDROOT
BRANCH   3   4
HETATM    4  O5  UNL     1     -34.348   5.503   6.110  1.00 20.00    -0.384 OA
HETATM    5  C3  UNL     1     -34.006   6.864   6.328  1.00 20.00     0.202 C 
ENDBRANCH   3   4
TORSDOF 1
ENDMDL
MODEL 7
REMARK VINA RESULT:      -2.9      1.377      2.775
REMARK  1 active torsions:
REMARK  status: ('A' for Active; 'I' for Inactive)
REMARK    1  A    between atoms: C4_4  and  O5_5 
ROOT
HETATM    1  C1  UNL     1     -32.917   5.353   2.652  1.00 20.00     0.014 C 
HETATM    2  C2  UNL     1     -32.709   6.423   3.152  1.00 20.00    -0.091 C 
HETATM    3  C4  UNL     1     -32.451   7.729   3.761  1.00 20.00     0.259 C 
ENDROOT
BRANCH   3   4
HETATM    4  O5  UNL     1     -33.559   8.134   4.555  1.00 20.00    -0.384 OA
HETATM    5  C3  UNL     1     -33.681   7.337   5.725  1.00 20.00     0.202 C 
ENDBRANCH   3   4
TORSDOF 1
ENDMDL
MODEL 8
REMARK VINA RESULT:      -2.8     12.207     12.680
REMARK  1 active torsions:
REMARK  status: ('A' for Active; 'I' for Inactive)
REMARK    1  A    between atoms: C4_4  and  O5_5 
ROOT
HETATM    1  C1  UNL     1     -33.441  16.978  -1.904  1.00 20.00     0.014 C 
HETATM    2  C2  UNL     1     -32.792  17.920  -1.541  1.00 20.00    -0.091 C 
HETATM    3  C4  UNL     1     -32.003  19.071  -1.100  1.00 20.00     0.259 C 
ENDROOT
BRANCH   3   4
HETATM    4  O5  UNL     1     -30.782  18.641  -0.514  1.00 20.00    -0.384 OA
HETATM    5  C3  UNL     1     -30.895  18.515   0.896  1.00 20.00     0.202 C 
ENDBRANCH   3   4
TORSDOF 1
ENDMDL
MODEL 9
REMARK VINA RESULT:      -2.7      8.235      8.970
REMARK  1 active torsions:
REMARK  status: ('A' for Active; 'I' for Inactive)
REMARK    1  A    between atoms: C4_4  and  O5_5 
ROOT
HETATM    1  C1  UNL     1     -38.956  11.646   4.129  1.00 20.00     0.014 C 
HETATM    2  C2  UNL     1     -39.738  11.938   4.992  1.00 20.00    -0.091 C 
HETATM    3  C4  UNL     1     -40.693  12.293   6.042  1.00 20.00     0.259 C 
ENDROOT
BRANCH   3   4
HETATM    4  O5  UNL     1     -40.013  12.798   7.183  1.00 20.00    -0.384 OA
HETATM    5  C3  UNL     1     -40.533  14.057   7.586  1.00 20.00     0.202 C 
ENDBRANCH   3   4
TORSDOF 1
ENDMDL
