MODEL 1
REMARK VINA RESULT:      -5.0      0.000      0.000
REMARK  2 active torsions:
REMARK  status: ('A' for Active; 'I' for Inactive)
REMARK    1  A    between atoms: C1_1  and  C2_2 
REMARK    2  A    between atoms: C2_2  and  C3_3 
ROOT
HETATM    1  C2  UNL     1     -34.479   5.627   4.749  1.00 20.00     0.391 C 
HETATM    2  F5  UNL     1     -35.758   5.970   4.440  1.00 20.00    -0.188 F 
HETATM    3  F6  UNL     1     -34.382   4.285   4.553  1.00 20.00    -0.188 F 
ENDROOT
BRANCH   1   4
HETATM    4  C1  UNL     1     -33.497   6.356   3.878  1.00 20.00     0.319 C 
HETATM    5  O4  UNL     1     -32.926   5.839   2.923  1.00 20.00    -0.300 OA
ENDBRANCH   1   4
BRANCH   1   6
HETATM    6  C3  UNL     1     -34.233   5.923   6.206  1.00 20.00     0.461 C 
HETATM    7  F7  UNL     1     -35.372   6.294   6.830  1.00 20.00    -0.165 F 
HETATM    8  F8  UNL     1     -33.755   4.831   6.840  1.00 20.00    -0.165 F 
HETATM    9  F9  UNL     1     -33.332   6.915   6.362  1.00 20.00    -0.165 F 
ENDBRANCH   1   6
TORSDOF 2
ENDMDL
MODEL 2
REMARK VINA RESULT:      -5.0      0.042      1.261
REMARK  2 active torsions:
REMARK  status: ('A' for Active; 'I' for Inactive)
REMARK    1  A    between atoms: C1_1  and  C2_2 
REMARK    2  A    between atoms: C2_2  and  C3_3 
ROOT
HETATM    1  C2  UNL     1     -34.493   5.624   4.772  1.00 20.00     0.391 C 
HETATM    2  F5  UNL     1     -35.784   5.940   4.486  1.00 20.00    -0.188 F 
HETATM    3  F6  UNL     1     -34.366   4.288   4.557  1.00 20.00    -0.188 F 
ENDROOT
BRANCH   1   4
HETATM    4  C1  UNL     1     -33.542   6.388   3.896  1.00 20.00     0.319 C 
HETATM    5  O4  UNL     1     -32.905   5.875   2.981  1.00 20.00    -0.300 OA
ENDBRANCH   1   4
BRANCH   1   6
HETATM    6  C3  UNL     1     -34.233   5.908   6.229  1.00 20.00     0.461 C 
HETATM    7  F7  UNL     1     -33.743   4.820   6.861  1.00 20.00    -0.165 F 
HETATM    8  F8  UNL     1     -33.330   6.903   6.365  1.00 20.00    -0.165 F 
HETATM    9  F9  UNL     1     -35.360   6.288   6.866  1.00 20.00    -0.165 F 
ENDBRANCH   1   6
TORSDOF 2
ENDMDL
MODEL 3
REMARK VINA RESULT:      -5.0      0.030      1.258
REMARK  2 active torsions:
REMARK  status: ('A' for Active; 'I' for Inactive)
REMARK    1  A    between atoms: C1_1  and  C2_2 
REMARK    2  A    between atoms: C2_2  and  C3_3 
ROOT
HETATM    1  C2  UNL     1     -34.499   5.624   4.756  1.00 20.00     0.391 C 
HETATM    2  F5  UNL     1     -35.787   5.949   4.465  1.00 20.00    -0.188 F 
HETATM    3  F6  UNL     1     -34.384   4.286   4.549  1.00 20.00    -0.188 F 
ENDROOT
BRANCH   1   4
HETATM    4  C1  UNL     1     -33.540   6.375   3.878  1.00 20.00     0.319 C 
HETATM    5  O4  UNL     1     -32.901   5.851   2.971  1.00 20.00    -0.300 OA
ENDBRANCH   1   4
BRANCH   1   6
HETATM    6  C3  UNL     1     -34.240   5.915   6.212  1.00 20.00     0.461 C 
HETATM    7  F7  UNL     1     -33.347   6.917   6.360  1.00 20.00    -0.165 F 
HETATM    8  F8  UNL     1     -35.380   6.286   6.833  1.00 20.00    -0.165 F 
HETATM    9  F9  UNL     1     -33.758   4.830   6.853  1.00 20.00    -0.165 F 
ENDBRANCH   1   6
TORSDOF 2
ENDMDL
MODEL 4
REMARK VINA RESULT:      -4.9      1.174      2.473
REMARK  2 active torsions:
REMARK  status: ('A' for Active; 'I' for Inactive)
REMARK    1  A    between atoms: C1_1  and  C2_2 
REMARK    2  A    between atoms: C2_2  and  C3_3 
ROOT
HETATM    1  C2  UNL     1     -33.808   6.921   4.833  1.00 20.00     0.391 C 
HETATM    2  F5  UNL     1     -33.108   7.112   5.983  1.00 20.00    -0.188 F 
HETATM    3  F6  UNL     1     -34.517   8.060   4.620  1.00 20.00    -0.188 F 
ENDROOT
BRANCH   1   4
HETATM    4  C1  UNL     1     -32.887   6.651   3.677  1.00 20.00     0.319 C 
HETATM    5  O4  UNL     1     -32.106   7.484   3.227  1.00 20.00    -0.300 OA
ENDBRANCH   1   4
BRANCH   1   6
HETATM    6  C3  UNL     1     -34.771   5.779   5.034  1.00 20.00     0.461 C 
HETATM    7  F7  UNL     1     -35.081   5.622   6.339  1.00 20.00    -0.165 F 
HETATM    8  F8  UNL     1     -35.922   6.004   4.364  1.00 20.00    -0.165 F 
HETATM    9  F9  UNL     1     -34.257   4.615   4.585  1.00 20.00    -0.165 F 
ENDBRANCH   1   6
TORSDOF 2
ENDMDL
MODEL 5
REMARK VINA RESULT:      -4.9      1.180      2.343
REMARK  2 active torsions:
REMARK  status: ('A' for Active; 'I' for Inactive)
REMARK    1  A    between atoms: C1_1  and  C2_2 
REMARK    2  A    between atoms: C2_2  and  C3_3 
ROOT
HETATM    1  C2  UNL     1     -33.799   6.940   4.832  1.00 20.00     0.391 C 
HETATM    2  F5  UNL     1     -33.097   7.137   5.979  1.00 20.00    -0.188 F 
HETATM    3  F6  UNL     1     -34.507   8.079   4.613  1.00 20.00    -0.188 F 
ENDROOT
BRANCH   1   4
HETATM    4  C1  UNL     1     -32.881   6.662   3.676  1.00 20.00     0.319 C 
HETATM    5  O4  UNL     1     -32.106   7.493   3.214  1.00 20.00    -0.300 OA
ENDBRANCH   1   4
BRANCH   1   6
HETATM    6  C3  UNL     1     -34.764   5.801   5.041  1.00 20.00     0.461 C 
HETATM    7  F7  UNL     1     -35.919   6.007   4.372  1.00 20.00    -0.165 F 
HETATM    8  F8  UNL     1     -34.235   4.641   4.598  1.00 20.00    -0.165 F 
HETATM    9  F9  UNL     1     -35.064   5.642   6.347  1.00 20.00    -0.165 F 
ENDBRANCH   1   6
TORSDOF 2
ENDMDL
MODEL 6
REMARK VINA RESULT:      -4.8      1.522      2.867
REMARK  2 active torsions:
REMARK  status: ('A' for Active; 'I' for Inactive)
REMARK    1  A    between atoms: C1_1  and  C2_2 
REMARK    2  A    between atoms: C2_2  and  C3_3 
ROOT
HETATM    1  C2  UNL     1     -34.258   6.025   6.055  1.00 20.00     0.391 C 
HETATM    2  F5  UNL     1     -33.616   5.036   6.732  1.00 20.00    -0.188 F 
HETATM    3  F6  UNL     1     -35.407   6.275   6.735  1.00 20.00    -0.188 F 
ENDROOT
BRANCH   1   4
HETATM    4  C1  UNL     1     -33.414   7.265   5.979  1.00 20.00     0.319 C 
HETATM    5  O4  UNL     1     -33.830   8.342   5.564  1.00 20.00    -0.300 OA
ENDBRANCH   1   4
BRANCH   1   6
HETATM    6  C3  UNL     1     -34.608   5.524   4.677  1.00 20.00     0.461 C 
HETATM    7  F7  UNL     1     -35.858   5.893   4.324  1.00 20.00    -0.165 F 
HETATM    8  F8  UNL     1     -33.757   6.028   3.758  1.00 20.00    -0.165 F 
HETATM    9  F9  UNL     1     -34.536   4.178   4.609  1.00 20.00    -0.165 F 
ENDBRANCH   1   6
TORSDOF 2
ENDMDL
MODEL 7
REMARK VINA RESULT:      -4.8      1.548      1.988
REMARK  2 active torsions:
REMARK  status: ('A' for Active; 'I' for Inactive)
REMARK    1  A    between atoms: C1_1  and  C2_2 
REMARK    2  A    between atoms: C2_2  and  C3_3 
ROOT
HETATM    1  C2  UNL     1     -34.700   6.051   5.073  1.00 20.00     0.391 C 
HETATM    2  F5  UNL     1     -35.834   6.558   4.520  1.00 20.00    -0.188 F 
HETATM    3  F6  UNL     1     -35.061   5.511   6.266  1.00 20.00    -0.188 F 
ENDROOT
BRANCH   1   4
HETATM    4  C1  UNL     1     -34.087   5.004   4.187  1.00 20.00     0.319 C 
HETATM    5  O4  UNL     1     -33.997   3.822   4.501  1.00 20.00    -0.300 OA
ENDBRANCH   1   4
BRANCH   1   6
HETATM    6  C3  UNL     1     -33.733   7.180   5.324  1.00 20.00     0.461 C 
HETATM    7  F7  UNL     1     -34.358   8.377   5.289  1.00 20.00    -0.165 F 
HETATM    8  F8  UNL     1     -33.158   7.052   6.539  1.00 20.00    -0.165 F 
HETATM    9  F9  UNL     1     -32.747   7.198   4.403  1.00 20.00    -0.165 F 
ENDBRANCH   1   6
TORSDOF 2
ENDMDL
MODEL 8
REMARK VINA RESULT:      -4.7      1.680      2.445
REMARK  2 active torsions:
REMARK  status: ('A' for Active; 'I' for Inactive)
REMARK    1  A    between atoms: C1_1  and  C2_2 
REMARK    2  A    between atoms: C2_2  and  C3_3 
ROOT
HETATM    1  C2  UNL     1     -34.586   6.044   4.950  1.00 20.00     0.391 C 
HETATM    2  F5  UNL     1     -35.821   6.441   4.546  1.00 20.00    -0.188 F 
HETATM    3  F6  UNL     1     -34.711   5.652   6.245  1.00 20.00    -0.188 F 
ENDROOT
BRANCH   1   4
HETATM    4  C1  UNL     1     -34.079   4.909   4.105  1.00 20.00     0.319 C 
HETATM    5  O4  UNL     1     -33.958   3.761   4.519  1.00 20.00    -0.300 OA
ENDBRANCH   1   4
BRANCH   1   6
HETATM    6  C3  UNL     1     -33.650   7.223   4.887  1.00 20.00     0.461 C 
HETATM    7  F7  UNL     1     -32.699   7.046   3.944  1.00 20.00    -0.165 F 
HETATM    8  F8  UNL     1     -34.326   8.352   4.581  1.00 20.00    -0.165 F 
HETATM    9  F9  UNL     1     -33.030   7.424   6.069  1.00 20.00    -0.165 F 
ENDBRANCH   1   6
TORSDOF 2
ENDMDL
MODEL 9
REMARK VINA RESULT:      -4.6      2.478      3.530
REMARK  2 active torsions:
REMARK  status: ('A' for Active; 'I' for Inactive)
REMARK    1  A    between atoms: C1_1  and  C2_2 
REMARK    2  A    between atoms: C2_2  and  C3_3 
ROOT
HETATM    1  C2  UNL     1     -33.561   7.511   5.137  1.00 20.00     0.391 C 
HETATM    2  F5  UNL     1     -34.206   8.668   5.443  1.00 20.00    -0.188 F 
HETATM    3  F6  UNL     1     -32.839   7.170   6.237  1.00 20.00    -0.188 F 
ENDROOT
BRANCH   1   4
HETATM    4  C1  UNL     1     -34.537   6.422   4.793  1.00 20.00     0.319 C 
HETATM    5  O4  UNL     1     -34.865   5.536   5.576  1.00 20.00    -0.300 OA
ENDBRANCH   1   4
BRANCH   1   6
HETATM    6  C3  UNL     1     -32.613   7.767   3.994  1.00 20.00     0.461 C 
HETATM    7  F7  UNL     1     -32.464   6.668   3.224  1.00 20.00    -0.165 F 
HETATM    8  F8  UNL     1     -33.078   8.760   3.205  1.00 20.00    -0.165 F 
HETATM    9  F9  UNL     1     -31.393   8.133   4.438  1.00 20.00    -0.165 F 
ENDBRANCH   1   6
TORSDOF 2
ENDMDL
