MODEL 1
REMARK VINA RESULT:      -3.2      0.000      0.000
REMARK  0 active torsions:
REMARK  status: ('A' for Active; 'I' for Inactive)
ROOT
HETATM    1  C1  UNL     1     -33.630   5.095   3.757  1.00 20.00     0.044 C 
HETATM    2  C2  UNL     1     -34.501   5.281   6.119  1.00 20.00     0.044 C 
HETATM    3  C3  UNL     1     -34.434   5.932   4.743  1.00 20.00     0.087 C 
HETATM    4 CL4  UNL     1     -36.083   6.193   4.115  1.00 20.00    -0.107 Cl
HETATM    5 BR5  UNL     1     -33.569   7.683   4.925  1.00 20.00    -0.069 Br
ENDROOT
TORSDOF 0
ENDMDL
MODEL 2
REMARK VINA RESULT:      -3.1      1.492      2.012
REMARK  0 active torsions:
REMARK  status: ('A' for Active; 'I' for Inactive)
ROOT
HETATM    1  C1  UNL     1     -34.319   5.063   6.010  1.00 20.00     0.044 C 
HETATM    2  C2  UNL     1     -35.777   6.146   4.257  1.00 20.00     0.044 C 
HETATM    3  C3  UNL     1     -34.354   5.915   4.748  1.00 20.00     0.087 C 
HETATM    4 CL4  UNL     1     -33.389   5.137   3.464  1.00 20.00    -0.107 Cl
HETATM    5 BR5  UNL     1     -33.543   7.655   5.148  1.00 20.00    -0.069 Br
ENDROOT
TORSDOF 0
ENDMDL
MODEL 3
REMARK VINA RESULT:      -3.1      1.518      2.092
REMARK  0 active torsions:
REMARK  status: ('A' for Active; 'I' for Inactive)
ROOT
HETATM    1  C1  UNL     1     -35.788   6.137   4.253  1.00 20.00     0.044 C 
HETATM    2  C2  UNL     1     -33.539   5.140   3.687  1.00 20.00     0.044 C 
HETATM    3  C3  UNL     1     -34.344   5.944   4.699  1.00 20.00     0.087 C 
HETATM    4 CL4  UNL     1     -34.303   5.135   6.288  1.00 20.00    -0.107 Cl
HETATM    5 BR5  UNL     1     -33.511   7.710   4.894  1.00 20.00    -0.069 Br
ENDROOT
TORSDOF 0
ENDMDL
MODEL 4
REMARK VINA RESULT:      -2.9      1.502      1.978
REMARK  0 active torsions:
REMARK  status: ('A' for Active; 'I' for Inactive)
ROOT
HETATM    1  C1  UNL     1     -34.378   5.040   5.897  1.00 20.00     0.044 C 
HETATM    2  C2  UNL     1     -33.835   7.377   5.113  1.00 20.00     0.044 C 
HETATM    3  C3  UNL     1     -34.387   6.012   4.725  1.00 20.00     0.087 C 
HETATM    4 CL4  UNL     1     -36.046   6.186   4.093  1.00 20.00    -0.107 Cl
HETATM    5 BR5  UNL     1     -33.266   5.273   3.294  1.00 20.00    -0.069 Br
ENDROOT
TORSDOF 0
ENDMDL
MODEL 5
REMARK VINA RESULT:      -2.9      2.122      2.477
REMARK  0 active torsions:
REMARK  status: ('A' for Active; 'I' for Inactive)
ROOT
HETATM    1  C1  UNL     1     -33.772   7.448   5.092  1.00 20.00     0.044 C 
HETATM    2  C2  UNL     1     -35.761   6.138   4.258  1.00 20.00     0.044 C 
HETATM    3  C3  UNL     1     -34.322   6.069   4.751  1.00 20.00     0.087 C 
HETATM    4 CL4  UNL     1     -34.220   5.005   6.179  1.00 20.00    -0.107 Cl
HETATM    5 BR5  UNL     1     -33.215   5.290   3.332  1.00 20.00    -0.069 Br
ENDROOT
TORSDOF 0
ENDMDL
MODEL 6
REMARK VINA RESULT:      -2.8      2.121      2.484
REMARK  0 active torsions:
REMARK  status: ('A' for Active; 'I' for Inactive)
ROOT
HETATM    1  C1  UNL     1     -35.799   6.213   4.164  1.00 20.00     0.044 C 
HETATM    2  C2  UNL     1     -33.745   7.566   4.734  1.00 20.00     0.044 C 
HETATM    3  C3  UNL     1     -34.342   6.170   4.605  1.00 20.00     0.087 C 
HETATM    4 CL4  UNL     1     -33.386   5.207   3.447  1.00 20.00    -0.107 Cl
HETATM    5 BR5  UNL     1     -34.246   5.289   6.354  1.00 20.00    -0.069 Br
ENDROOT
TORSDOF 0
ENDMDL
MODEL 7
REMARK VINA RESULT:      -2.8      1.981      2.155
REMARK  0 active torsions:
REMARK  status: ('A' for Active; 'I' for Inactive)
ROOT
HETATM    1  C1  UNL     1     -35.802   6.152   4.232  1.00 20.00     0.044 C 
HETATM    2  C2  UNL     1     -34.318   5.096   5.979  1.00 20.00     0.044 C 
HETATM    3  C3  UNL     1     -34.383   6.020   4.771  1.00 20.00     0.087 C 
HETATM    4 CL4  UNL     1     -33.746   7.630   5.203  1.00 20.00    -0.107 Cl
HETATM    5 BR5  UNL     1     -33.246   5.277   3.356  1.00 20.00    -0.069 Br
ENDROOT
TORSDOF 0
ENDMDL
MODEL 8
REMARK VINA RESULT:      -2.8      1.514      2.104
REMARK  0 active torsions:
REMARK  status: ('A' for Active; 'I' for Inactive)
ROOT
HETATM    1  C1  UNL     1     -33.752   7.524   4.682  1.00 20.00     0.044 C 
HETATM    2  C2  UNL     1     -33.570   5.233   3.638  1.00 20.00     0.044 C 
HETATM    3  C3  UNL     1     -34.354   6.128   4.588  1.00 20.00     0.087 C 
HETATM    4 CL4  UNL     1     -36.054   6.235   4.057  1.00 20.00    -0.107 Cl
HETATM    5 BR5  UNL     1     -34.326   5.317   6.374  1.00 20.00    -0.069 Br
ENDROOT
TORSDOF 0
ENDMDL
MODEL 9
REMARK VINA RESULT:      -2.8      1.971      2.140
REMARK  0 active torsions:
REMARK  status: ('A' for Active; 'I' for Inactive)
ROOT
HETATM    1  C1  UNL     1     -33.552   5.268   3.697  1.00 20.00     0.044 C 
HETATM    2  C2  UNL     1     -35.865   6.169   4.154  1.00 20.00     0.044 C 
HETATM    3  C3  UNL     1     -34.411   6.140   4.604  1.00 20.00     0.087 C 
HETATM    4 CL4  UNL     1     -33.756   7.799   4.649  1.00 20.00    -0.107 Cl
HETATM    5 BR5  UNL     1     -34.336   5.408   6.423  1.00 20.00    -0.069 Br
ENDROOT
TORSDOF 0
ENDMDL
