MODEL 1
REMARK VINA RESULT:      -6.0      0.000      0.000
REMARK  2 active torsions:
REMARK  status: ('A' for Active; 'I' for Inactive)
REMARK    1  A    between atoms: C1_1  and  C3_3 
REMARK    2  A    between atoms: C2_2  and  C4_4 
ROOT
HETATM    1  C1  UNL     1     -34.020   6.585   4.722  1.00 20.00     0.017 C 
HETATM    2  C2  UNL     1     -33.240   7.464   4.476  1.00 20.00     0.017 C 
ENDROOT
BRANCH   1   3
HETATM    3  C3  UNL     1     -34.961   5.520   5.017  1.00 20.00     0.459 C 
HETATM    4  F5  UNL     1     -35.158   5.408   6.350  1.00 20.00    -0.159 F 
HETATM    5  F6  UNL     1     -36.157   5.758   4.436  1.00 20.00    -0.159 F 
HETATM    6  F7  UNL     1     -34.503   4.333   4.560  1.00 20.00    -0.159 F 
ENDBRANCH   1   3
BRANCH   2   7
HETATM    7  C4  UNL     1     -32.298   8.529   4.179  1.00 20.00     0.459 C 
HETATM    8  F8  UNL     1     -32.641   9.171   3.041  1.00 20.00    -0.159 F 
HETATM    9  F9  UNL     1     -31.050   8.036   4.022  1.00 20.00    -0.159 F 
HETATM   10  F10 UNL     1     -32.267   9.437   5.180  1.00 20.00    -0.159 F 
ENDBRANCH   2   7
TORSDOF 2
ENDMDL
MODEL 2
REMARK VINA RESULT:      -6.0      0.011      4.580
REMARK  2 active torsions:
REMARK  status: ('A' for Active; 'I' for Inactive)
REMARK    1  A    between atoms: C1_1  and  C3_3 
REMARK    2  A    between atoms: C2_2  and  C4_4 
ROOT
HETATM    1  C1  UNL     1     -33.236   7.463   4.486  1.00 20.00     0.017 C 
HETATM    2  C2  UNL     1     -34.016   6.583   4.728  1.00 20.00     0.017 C 
ENDROOT
BRANCH   1   3
HETATM    3  C3  UNL     1     -32.291   8.525   4.192  1.00 20.00     0.459 C 
HETATM    4  F5  UNL     1     -31.043   8.030   4.039  1.00 20.00    -0.159 F 
HETATM    5  F6  UNL     1     -32.629   9.168   3.052  1.00 20.00    -0.159 F 
HETATM    6  F7  UNL     1     -32.262   9.434   5.192  1.00 20.00    -0.159 F 
ENDBRANCH   1   3
BRANCH   2   7
HETATM    7  C4  UNL     1     -34.960   5.520   5.021  1.00 20.00     0.459 C 
HETATM    8  F8  UNL     1     -36.155   5.763   4.440  1.00 20.00    -0.159 F 
HETATM    9  F9  UNL     1     -35.158   5.405   6.353  1.00 20.00    -0.159 F 
HETATM   10  F10 UNL     1     -34.506   4.333   4.562  1.00 20.00    -0.159 F 
ENDBRANCH   2   7
TORSDOF 2
ENDMDL
MODEL 3
REMARK VINA RESULT:      -6.0      0.037      1.699
REMARK  2 active torsions:
REMARK  status: ('A' for Active; 'I' for Inactive)
REMARK    1  A    between atoms: C1_1  and  C3_3 
REMARK    2  A    between atoms: C2_2  and  C4_4 
ROOT
HETATM    1  C1  UNL     1     -34.011   6.573   4.726  1.00 20.00     0.017 C 
HETATM    2  C2  UNL     1     -33.225   7.449   4.493  1.00 20.00     0.017 C 
ENDROOT
BRANCH   1   3
HETATM    3  C3  UNL     1     -34.961   5.511   5.007  1.00 20.00     0.459 C 
HETATM    4  F5  UNL     1     -34.508   4.325   4.544  1.00 20.00    -0.159 F 
HETATM    5  F6  UNL     1     -35.167   5.389   6.337  1.00 20.00    -0.159 F 
HETATM    6  F7  UNL     1     -36.152   5.763   4.420  1.00 20.00    -0.159 F 
ENDBRANCH   1   3
BRANCH   2   7
HETATM    7  C4  UNL     1     -32.274   8.510   4.211  1.00 20.00     0.459 C 
HETATM    8  F8  UNL     1     -31.024   8.013   4.081  1.00 20.00    -0.159 F 
HETATM    9  F9  UNL     1     -32.261   9.422   5.207  1.00 20.00    -0.159 F 
HETATM   10  F10 UNL     1     -32.591   9.148   3.063  1.00 20.00    -0.159 F 
ENDBRANCH   2   7
TORSDOF 2
ENDMDL
MODEL 4
REMARK VINA RESULT:      -6.0      0.036      4.580
REMARK  2 active torsions:
REMARK  status: ('A' for Active; 'I' for Inactive)
REMARK    1  A    between atoms: C1_1  and  C3_3 
REMARK    2  A    between atoms: C2_2  and  C4_4 
ROOT
HETATM    1  C1  UNL     1     -33.227   7.450   4.490  1.00 20.00     0.017 C 
HETATM    2  C2  UNL     1     -34.012   6.572   4.721  1.00 20.00     0.017 C 
ENDROOT
BRANCH   1   3
HETATM    3  C3  UNL     1     -32.276   8.510   4.208  1.00 20.00     0.459 C 
HETATM    4  F5  UNL     1     -31.026   8.013   4.077  1.00 20.00    -0.159 F 
HETATM    5  F6  UNL     1     -32.593   9.151   3.062  1.00 20.00    -0.159 F 
HETATM    6  F7  UNL     1     -32.262   9.422   5.207  1.00 20.00    -0.159 F 
ENDBRANCH   1   3
BRANCH   2   7
HETATM    7  C4  UNL     1     -34.962   5.511   5.002  1.00 20.00     0.459 C 
HETATM    8  F8  UNL     1     -34.510   4.325   4.537  1.00 20.00    -0.159 F 
HETATM    9  F9  UNL     1     -36.154   5.763   4.417  1.00 20.00    -0.159 F 
HETATM   10  F10 UNL     1     -35.168   5.388   6.332  1.00 20.00    -0.159 F 
ENDBRANCH   2   7
TORSDOF 2
ENDMDL
MODEL 5
REMARK VINA RESULT:      -6.0      0.037      4.580
REMARK  2 active torsions:
REMARK  status: ('A' for Active; 'I' for Inactive)
REMARK    1  A    between atoms: C1_1  and  C3_3 
REMARK    2  A    between atoms: C2_2  and  C4_4 
ROOT
HETATM    1  C1  UNL     1     -33.226   7.450   4.491  1.00 20.00     0.017 C 
HETATM    2  C2  UNL     1     -34.011   6.572   4.722  1.00 20.00     0.017 C 
ENDROOT
BRANCH   1   3
HETATM    3  C3  UNL     1     -32.274   8.510   4.210  1.00 20.00     0.459 C 
HETATM    4  F5  UNL     1     -32.592   9.150   3.062  1.00 20.00    -0.159 F 
HETATM    5  F6  UNL     1     -32.261   9.423   5.207  1.00 20.00    -0.159 F 
HETATM    6  F7  UNL     1     -31.024   8.013   4.081  1.00 20.00    -0.159 F 
ENDBRANCH   1   3
BRANCH   2   7
HETATM    7  C4  UNL     1     -34.961   5.510   5.002  1.00 20.00     0.459 C 
HETATM    8  F8  UNL     1     -34.508   4.325   4.538  1.00 20.00    -0.159 F 
HETATM    9  F9  UNL     1     -36.152   5.763   4.416  1.00 20.00    -0.159 F 
HETATM   10  F10 UNL     1     -35.168   5.388   6.332  1.00 20.00    -0.159 F 
ENDBRANCH   2   7
TORSDOF 2
ENDMDL
MODEL 6
REMARK VINA RESULT:      -4.4     11.571     12.268
REMARK  2 active torsions:
REMARK  status: ('A' for Active; 'I' for Inactive)
REMARK    1  A    between atoms: C1_1  and  C3_3 
REMARK    2  A    between atoms: C2_2  and  C4_4 
ROOT
HETATM    1  C1  UNL     1     -33.397  16.277  -2.843  1.00 20.00     0.017 C 
HETATM    2  C2  UNL     1     -33.378  17.040  -1.916  1.00 20.00     0.017 C 
ENDROOT
BRANCH   1   3
HETATM    3  C3  UNL     1     -33.421  15.353  -3.963  1.00 20.00     0.459 C 
HETATM    4  F5  UNL     1     -32.181  14.885  -4.227  1.00 20.00    -0.159 F 
HETATM    5  F6  UNL     1     -34.219  14.295  -3.697  1.00 20.00    -0.159 F 
HETATM    6  F7  UNL     1     -33.887  15.959  -5.077  1.00 20.00    -0.159 F 
ENDBRANCH   1   3
BRANCH   2   7
HETATM    7  C4  UNL     1     -33.355  17.963  -0.796  1.00 20.00     0.459 C 
HETATM    8  F8  UNL     1     -34.038  17.459   0.256  1.00 20.00    -0.159 F 
HETATM    9  F9  UNL     1     -33.917  19.144  -1.133  1.00 20.00    -0.159 F 
HETATM   10  F10 UNL     1     -32.087  18.201  -0.395  1.00 20.00    -0.159 F 
ENDBRANCH   2   7
TORSDOF 2
ENDMDL
MODEL 7
REMARK VINA RESULT:      -4.4     11.562     12.273
REMARK  2 active torsions:
REMARK  status: ('A' for Active; 'I' for Inactive)
REMARK    1  A    between atoms: C1_1  and  C3_3 
REMARK    2  A    between atoms: C2_2  and  C4_4 
ROOT
HETATM    1  C1  UNL     1     -33.407  16.276  -2.831  1.00 20.00     0.017 C 
HETATM    2  C2  UNL     1     -33.390  17.037  -1.902  1.00 20.00     0.017 C 
ENDROOT
BRANCH   1   3
HETATM    3  C3  UNL     1     -33.429  15.354  -3.952  1.00 20.00     0.459 C 
HETATM    4  F5  UNL     1     -33.899  15.961  -5.065  1.00 20.00    -0.159 F 
HETATM    5  F6  UNL     1     -32.188  14.892  -4.221  1.00 20.00    -0.159 F 
HETATM    6  F7  UNL     1     -34.223  14.293  -3.687  1.00 20.00    -0.159 F 
ENDBRANCH   1   3
BRANCH   2   7
HETATM    7  C4  UNL     1     -33.368  17.957  -0.779  1.00 20.00     0.459 C 
HETATM    8  F8  UNL     1     -34.050  17.450   0.271  1.00 20.00    -0.159 F 
HETATM    9  F9  UNL     1     -33.932  19.138  -1.114  1.00 20.00    -0.159 F 
HETATM   10  F10 UNL     1     -32.100  18.198  -0.379  1.00 20.00    -0.159 F 
ENDBRANCH   2   7
TORSDOF 2
ENDMDL
MODEL 8
REMARK VINA RESULT:      -4.4     11.572     12.497
REMARK  2 active torsions:
REMARK  status: ('A' for Active; 'I' for Inactive)
REMARK    1  A    between atoms: C1_1  and  C3_3 
REMARK    2  A    between atoms: C2_2  and  C4_4 
ROOT
HETATM    1  C1  UNL     1     -33.382  17.049  -1.911  1.00 20.00     0.017 C 
HETATM    2  C2  UNL     1     -33.402  16.285  -2.837  1.00 20.00     0.017 C 
ENDROOT
BRANCH   1   3
HETATM    3  C3  UNL     1     -33.355  17.972  -0.791  1.00 20.00     0.459 C 
HETATM    4  F5  UNL     1     -32.086  18.201  -0.387  1.00 20.00    -0.159 F 
HETATM    5  F6  UNL     1     -33.906  19.159  -1.131  1.00 20.00    -0.159 F 
HETATM    6  F7  UNL     1     -34.046  17.475   0.259  1.00 20.00    -0.159 F 
ENDBRANCH   1   3
BRANCH   2   7
HETATM    7  C4  UNL     1     -33.428  15.360  -3.957  1.00 20.00     0.459 C 
HETATM    8  F8  UNL     1     -32.188  14.896  -4.225  1.00 20.00    -0.159 F 
HETATM    9  F9  UNL     1     -33.899  15.965  -5.069  1.00 20.00    -0.159 F 
HETATM   10  F10 UNL     1     -34.223  14.301  -3.688  1.00 20.00    -0.159 F 
ENDBRANCH   2   7
TORSDOF 2
ENDMDL
MODEL 9
REMARK VINA RESULT:      -4.1      8.657      9.603
REMARK  2 active torsions:
REMARK  status: ('A' for Active; 'I' for Inactive)
REMARK    1  A    between atoms: C1_1  and  C3_3 
REMARK    2  A    between atoms: C2_2  and  C4_4 
ROOT
HETATM    1  C1  UNL     1     -40.133  12.184   5.246  1.00 20.00     0.017 C 
HETATM    2  C2  UNL     1     -40.957  12.595   6.016  1.00 20.00     0.017 C 
ENDROOT
BRANCH   1   3
HETATM    3  C3  UNL     1     -39.137  11.686   4.315  1.00 20.00     0.459 C 
HETATM    4  F5  UNL     1     -39.305  10.363   4.093  1.00 20.00    -0.159 F 
HETATM    5  F6  UNL     1     -39.225  12.324   3.127  1.00 20.00    -0.159 F 
HETATM    6  F7  UNL     1     -37.888  11.874   4.799  1.00 20.00    -0.159 F 
ENDBRANCH   1   3
BRANCH   2   7
HETATM    7  C4  UNL     1     -41.954  13.092   6.948  1.00 20.00     0.459 C 
HETATM    8  F8  UNL     1     -41.366  13.638   8.035  1.00 20.00    -0.159 F 
HETATM    9  F9  UNL     1     -42.762  12.094   7.366  1.00 20.00    -0.159 F 
HETATM   10  F10 UNL     1     -42.725  14.039   6.368  1.00 20.00    -0.159 F 
ENDBRANCH   2   7
TORSDOF 2
ENDMDL
