MODEL 1
REMARK VINA RESULT:      -3.9      0.000      0.000
REMARK  0 active torsions:
REMARK  status: ('A' for Active; 'I' for Inactive)
ROOT
HETATM    1  C1  UNL     1     -35.486   5.912   4.461  1.00 20.00     0.009 A 
HETATM    2  C2  UNL     1     -34.359   4.952   4.712  1.00 20.00     0.009 A 
HETATM    3  C3  UNL     1     -34.208   6.405   5.098  1.00 20.00    -0.048 A 
HETATM    4  C4  UNL     1     -33.292   7.264   4.269  1.00 20.00     0.015 C 
HETATM    5  C5  UNL     1     -34.238   6.753   6.561  1.00 20.00     0.015 C 
ENDROOT
TORSDOF 0
ENDMDL
MODEL 2
REMARK VINA RESULT:      -3.9      0.057      1.862
REMARK  0 active torsions:
REMARK  status: ('A' for Active; 'I' for Inactive)
ROOT
HETATM    1  C1  UNL     1     -34.363   4.948   4.637  1.00 20.00     0.009 A 
HETATM    2  C2  UNL     1     -35.502   5.907   4.440  1.00 20.00     0.009 A 
HETATM    3  C3  UNL     1     -34.222   6.383   5.085  1.00 20.00    -0.048 A 
HETATM    4  C4  UNL     1     -34.240   6.667   6.563  1.00 20.00     0.015 C 
HETATM    5  C5  UNL     1     -33.323   7.287   4.287  1.00 20.00     0.015 C 
ENDROOT
TORSDOF 0
ENDMDL
MODEL 3
REMARK VINA RESULT:      -3.4      0.693      2.319
REMARK  0 active torsions:
REMARK  status: ('A' for Active; 'I' for Inactive)
ROOT
HETATM    1  C1  UNL     1     -34.010   8.126   4.754  1.00 20.00     0.009 A 
HETATM    2  C2  UNL     1     -33.010   7.098   4.306  1.00 20.00     0.009 A 
HETATM    3  C3  UNL     1     -34.207   6.675   5.125  1.00 20.00    -0.048 A 
HETATM    4  C4  UNL     1     -33.975   6.275   6.558  1.00 20.00     0.015 C 
HETATM    5  C5  UNL     1     -35.302   5.911   4.433  1.00 20.00     0.015 C 
ENDROOT
TORSDOF 0
ENDMDL
MODEL 4
REMARK VINA RESULT:      -3.4      0.656      2.207
REMARK  0 active torsions:
REMARK  status: ('A' for Active; 'I' for Inactive)
ROOT
HETATM    1  C1  UNL     1     -32.981   7.175   4.290  1.00 20.00     0.009 A 
HETATM    2  C2  UNL     1     -34.033   8.178   4.669  1.00 20.00     0.009 A 
HETATM    3  C3  UNL     1     -34.161   6.745   5.128  1.00 20.00    -0.048 A 
HETATM    4  C4  UNL     1     -35.213   5.886   4.478  1.00 20.00     0.015 C 
HETATM    5  C5  UNL     1     -33.922   6.446   6.583  1.00 20.00     0.015 C 
ENDROOT
TORSDOF 0
ENDMDL
MODEL 5
REMARK VINA RESULT:      -3.4      1.076      2.113
REMARK  0 active torsions:
REMARK  status: ('A' for Active; 'I' for Inactive)
ROOT
HETATM    1  C1  UNL     1     -34.506   5.310   6.176  1.00 20.00     0.009 A 
HETATM    2  C2  UNL     1     -34.096   6.727   5.895  1.00 20.00     0.009 A 
HETATM    3  C3  UNL     1     -34.582   5.848   4.767  1.00 20.00    -0.048 A 
HETATM    4  C4  UNL     1     -33.569   5.356   3.768  1.00 20.00     0.015 C 
HETATM    5  C5  UNL     1     -35.943   6.127   4.190  1.00 20.00     0.015 C 
ENDROOT
TORSDOF 0
ENDMDL
MODEL 6
REMARK VINA RESULT:      -3.4      1.031      2.343
REMARK  0 active torsions:
REMARK  status: ('A' for Active; 'I' for Inactive)
ROOT
HETATM    1  C1  UNL     1     -33.844   6.616   5.816  1.00 20.00     0.009 A 
HETATM    2  C2  UNL     1     -34.668   5.548   6.476  1.00 20.00     0.009 A 
HETATM    3  C3  UNL     1     -34.601   5.620   4.969  1.00 20.00    -0.048 A 
HETATM    4  C4  UNL     1     -35.819   6.105   4.230  1.00 20.00     0.015 C 
HETATM    5  C5  UNL     1     -33.811   4.563   4.246  1.00 20.00     0.015 C 
ENDROOT
TORSDOF 0
ENDMDL
MODEL 7
REMARK VINA RESULT:      -3.3      0.969      2.235
REMARK  0 active torsions:
REMARK  status: ('A' for Active; 'I' for Inactive)
ROOT
HETATM    1  C1  UNL     1     -33.472   6.953   6.169  1.00 20.00     0.009 A 
HETATM    2  C2  UNL     1     -34.101   8.064   5.377  1.00 20.00     0.009 A 
HETATM    3  C3  UNL     1     -34.015   6.676   4.787  1.00 20.00    -0.048 A 
HETATM    4  C4  UNL     1     -33.029   6.442   3.675  1.00 20.00     0.015 C 
HETATM    5  C5  UNL     1     -35.285   5.878   4.674  1.00 20.00     0.015 C 
ENDROOT
TORSDOF 0
ENDMDL
MODEL 8
REMARK VINA RESULT:      -3.1      1.739      2.447
REMARK  0 active torsions:
REMARK  status: ('A' for Active; 'I' for Inactive)
ROOT
HETATM    1  C1  UNL     1     -34.391   7.812   4.952  1.00 20.00     0.009 A 
HETATM    2  C2  UNL     1     -33.399   7.063   5.795  1.00 20.00     0.009 A 
HETATM    3  C3  UNL     1     -32.926   7.835   4.586  1.00 20.00    -0.048 A 
HETATM    4  C4  UNL     1     -32.487   7.055   3.377  1.00 20.00     0.015 C 
HETATM    5  C5  UNL     1     -32.160   9.109   4.819  1.00 20.00     0.015 C 
ENDROOT
TORSDOF 0
ENDMDL
MODEL 9
REMARK VINA RESULT:      -3.1      1.738      2.759
REMARK  0 active torsions:
REMARK  status: ('A' for Active; 'I' for Inactive)
ROOT
HETATM    1  C1  UNL     1     -33.365   7.039   5.788  1.00 20.00     0.009 A 
HETATM    2  C2  UNL     1     -34.374   7.787   4.964  1.00 20.00     0.009 A 
HETATM    3  C3  UNL     1     -32.912   7.833   4.586  1.00 20.00    -0.048 A 
HETATM    4  C4  UNL     1     -32.161   9.115   4.828  1.00 20.00     0.015 C 
HETATM    5  C5  UNL     1     -32.475   7.075   3.362  1.00 20.00     0.015 C 
ENDROOT
TORSDOF 0
ENDMDL
