MODEL 1
REMARK VINA RESULT:      -5.1      0.000      0.000
REMARK  3 active torsions:
REMARK  status: ('A' for Active; 'I' for Inactive)
REMARK    1  A    between atoms: C1_1  and  C3_3 
REMARK    2  A    between atoms: C1_1  and  O4_4 
REMARK    3  A    between atoms: C2_2  and  O4_4 
ROOT
HETATM    1  C1  UNL     1     -33.685   7.747   4.697  1.00 20.00     0.291 C 
ENDROOT
BRANCH   1   2
HETATM    2  C3  UNL     1     -32.515   7.936   3.765  1.00 20.00     0.408 C 
HETATM    3  F7  UNL     1     -32.279   6.805   3.064  1.00 20.00    -0.169 F 
HETATM    4  F8  UNL     1     -31.391   8.239   4.448  1.00 20.00    -0.169 F 
HETATM    5  F9  UNL     1     -32.749   8.927   2.880  1.00 20.00    -0.169 F 
ENDBRANCH   1   2
BRANCH   1   6
HETATM    6  O4  UNL     1     -33.962   6.360   4.817  1.00 20.00    -0.324 OA
BRANCH   6   7
HETATM    7  C2  UNL     1     -34.639   6.041   6.025  1.00 20.00     0.500 C 
HETATM    8  F5  UNL     1     -34.065   4.952   6.590  1.00 20.00    -0.185 F 
HETATM    9  F6  UNL     1     -34.522   7.073   6.894  1.00 20.00    -0.185 F 
ENDBRANCH   6   7
ENDBRANCH   1   6
TORSDOF 3
ENDMDL
MODEL 2
REMARK VINA RESULT:      -5.1      1.513      3.877
REMARK  3 active torsions:
REMARK  status: ('A' for Active; 'I' for Inactive)
REMARK    1  A    between atoms: C1_1  and  C3_3 
REMARK    2  A    between atoms: C1_1  and  O4_4 
REMARK    3  A    between atoms: C2_2  and  O4_4 
ROOT
HETATM    1  C1  UNL     1     -33.941   6.918   5.201  1.00 20.00     0.291 C 
ENDROOT
BRANCH   1   2
HETATM    2  C3  UNL     1     -34.774   5.664   5.131  1.00 20.00     0.408 C 
HETATM    3  F7  UNL     1     -35.919   5.892   4.452  1.00 20.00    -0.169 F 
HETATM    4  F8  UNL     1     -35.106   5.228   6.365  1.00 20.00    -0.169 F 
HETATM    5  F9  UNL     1     -34.112   4.671   4.500  1.00 20.00    -0.169 F 
ENDBRANCH   1   2
BRANCH   1   6
HETATM    6  O4  UNL     1     -33.141   7.009   4.032  1.00 20.00    -0.324 OA
BRANCH   6   7
HETATM    7  C2  UNL     1     -32.327   8.173   4.016  1.00 20.00     0.500 C 
HETATM    8  F5  UNL     1     -32.679   8.957   2.969  1.00 20.00    -0.185 F 
HETATM    9  F6  UNL     1     -32.528   8.881   5.153  1.00 20.00    -0.185 F 
ENDBRANCH   6   7
ENDBRANCH   1   6
TORSDOF 3
ENDMDL
MODEL 3
REMARK VINA RESULT:      -5.0      1.605      3.824
REMARK  3 active torsions:
REMARK  status: ('A' for Active; 'I' for Inactive)
REMARK    1  A    between atoms: C1_1  and  C3_3 
REMARK    2  A    between atoms: C1_1  and  O4_4 
REMARK    3  A    between atoms: C2_2  and  O4_4 
ROOT
HETATM    1  C1  UNL     1     -33.989   6.936   5.655  1.00 20.00     0.291 C 
ENDROOT
BRANCH   1   2
HETATM    2  C3  UNL     1     -34.693   5.717   5.117  1.00 20.00     0.408 C 
HETATM    3  F7  UNL     1     -33.924   5.091   4.199  1.00 20.00    -0.169 F 
HETATM    4  F8  UNL     1     -35.858   6.048   4.521  1.00 20.00    -0.169 F 
HETATM    5  F9  UNL     1     -34.961   4.832   6.100  1.00 20.00    -0.169 F 
ENDBRANCH   1   2
BRANCH   1   6
HETATM    6  O4  UNL     1     -33.762   7.847   4.591  1.00 20.00    -0.324 OA
BRANCH   6   7
HETATM    7  C2  UNL     1     -32.382   8.122   4.392  1.00 20.00     0.500 C 
HETATM    8  F5  UNL     1     -31.974   7.566   3.227  1.00 20.00    -0.185 F 
HETATM    9  F6  UNL     1     -32.196   9.461   4.303  1.00 20.00    -0.185 F 
ENDBRANCH   6   7
ENDBRANCH   1   6
TORSDOF 3
ENDMDL
MODEL 4
REMARK VINA RESULT:      -5.0      1.563      3.759
REMARK  3 active torsions:
REMARK  status: ('A' for Active; 'I' for Inactive)
REMARK    1  A    between atoms: C1_1  and  C3_3 
REMARK    2  A    between atoms: C1_1  and  O4_4 
REMARK    3  A    between atoms: C2_2  and  O4_4 
ROOT
HETATM    1  C1  UNL     1     -33.976   6.933   5.662  1.00 20.00     0.291 C 
ENDROOT
BRANCH   1   2
HETATM    2  C3  UNL     1     -34.701   5.703   5.180  1.00 20.00     0.408 C 
HETATM    3  F7  UNL     1     -35.012   4.897   6.219  1.00 20.00    -0.169 F 
HETATM    4  F8  UNL     1     -33.940   4.992   4.322  1.00 20.00    -0.169 F 
HETATM    5  F9  UNL     1     -35.851   6.027   4.553  1.00 20.00    -0.169 F 
ENDBRANCH   1   2
BRANCH   1   6
HETATM    6  O4  UNL     1     -33.768   7.808   4.564  1.00 20.00    -0.324 OA
BRANCH   6   7
HETATM    7  C2  UNL     1     -32.393   8.078   4.334  1.00 20.00     0.500 C 
HETATM    8  F5  UNL     1     -32.016   7.527   3.155  1.00 20.00    -0.185 F 
HETATM    9  F6  UNL     1     -32.202   9.416   4.249  1.00 20.00    -0.185 F 
ENDBRANCH   6   7
ENDBRANCH   1   6
TORSDOF 3
ENDMDL
MODEL 5
REMARK VINA RESULT:      -5.0      0.916      1.716
REMARK  3 active torsions:
REMARK  status: ('A' for Active; 'I' for Inactive)
REMARK    1  A    between atoms: C1_1  and  C3_3 
REMARK    2  A    between atoms: C1_1  and  O4_4 
REMARK    3  A    between atoms: C2_2  and  O4_4 
ROOT
HETATM    1  C1  UNL     1     -33.633   8.058   5.075  1.00 20.00     0.291 C 
ENDROOT
BRANCH   1   2
HETATM    2  C3  UNL     1     -32.628   7.935   3.957  1.00 20.00     0.408 C 
HETATM    3  F7  UNL     1     -32.868   8.858   3.000  1.00 20.00    -0.169 F 
HETATM    4  F8  UNL     1     -32.687   6.717   3.379  1.00 20.00    -0.169 F 
HETATM    5  F9  UNL     1     -31.370   8.127   4.406  1.00 20.00    -0.169 F 
ENDBRANCH   1   2
BRANCH   1   6
HETATM    6  O4  UNL     1     -33.358   7.069   6.055  1.00 20.00    -0.324 OA
BRANCH   6   7
HETATM    7  C2  UNL     1     -34.477   6.234   6.316  1.00 20.00     0.500 C 
HETATM    8  F5  UNL     1     -35.203   6.084   5.183  1.00 20.00    -0.185 F 
HETATM    9  F6  UNL     1     -34.046   5.008   6.701  1.00 20.00    -0.185 F 
ENDBRANCH   6   7
ENDBRANCH   1   6
TORSDOF 3
ENDMDL
MODEL 6
REMARK VINA RESULT:      -5.0      0.911      1.698
REMARK  3 active torsions:
REMARK  status: ('A' for Active; 'I' for Inactive)
REMARK    1  A    between atoms: C1_1  and  C3_3 
REMARK    2  A    between atoms: C1_1  and  O4_4 
REMARK    3  A    between atoms: C2_2  and  O4_4 
ROOT
HETATM    1  C1  UNL     1     -33.638   8.062   5.052  1.00 20.00     0.291 C 
ENDROOT
BRANCH   1   2
HETATM    2  C3  UNL     1     -32.622   7.953   3.944  1.00 20.00     0.408 C 
HETATM    3  F7  UNL     1     -31.375   8.155   4.422  1.00 20.00    -0.169 F 
HETATM    4  F8  UNL     1     -32.848   8.872   2.982  1.00 20.00    -0.169 F 
HETATM    5  F9  UNL     1     -32.650   6.731   3.372  1.00 20.00    -0.169 F 
ENDBRANCH   1   2
BRANCH   1   6
HETATM    6  O4  UNL     1     -33.350   7.087   6.042  1.00 20.00    -0.324 OA
BRANCH   6   7
HETATM    7  C2  UNL     1     -34.464   6.251   6.325  1.00 20.00     0.500 C 
HETATM    8  F5  UNL     1     -35.194   6.074   5.197  1.00 20.00    -0.185 F 
HETATM    9  F6  UNL     1     -34.025   5.036   6.734  1.00 20.00    -0.185 F 
ENDBRANCH   6   7
ENDBRANCH   1   6
TORSDOF 3
ENDMDL
MODEL 7
REMARK VINA RESULT:      -4.8      1.459      3.860
REMARK  3 active torsions:
REMARK  status: ('A' for Active; 'I' for Inactive)
REMARK    1  A    between atoms: C1_1  and  C3_3 
REMARK    2  A    between atoms: C1_1  and  O4_4 
REMARK    3  A    between atoms: C2_2  and  O4_4 
ROOT
HETATM    1  C1  UNL     1     -33.641   6.816   5.438  1.00 20.00     0.291 C 
ENDROOT
BRANCH   1   2
HETATM    2  C3  UNL     1     -34.677   5.725   5.349  1.00 20.00     0.408 C 
HETATM    3  F7  UNL     1     -35.282   5.546   6.544  1.00 20.00    -0.169 F 
HETATM    4  F8  UNL     1     -34.118   4.550   4.990  1.00 20.00    -0.169 F 
HETATM    5  F9  UNL     1     -35.632   6.029   4.446  1.00 20.00    -0.169 F 
ENDBRANCH   1   2
BRANCH   1   6
HETATM    6  O4  UNL     1     -33.597   7.515   4.204  1.00 20.00    -0.324 OA
BRANCH   6   7
HETATM    7  C2  UNL     1     -32.439   7.204   3.441  1.00 20.00     0.500 C 
HETATM    8  F5  UNL     1     -32.564   5.961   2.916  1.00 20.00    -0.185 F 
HETATM    9  F6  UNL     1     -32.323   8.081   2.416  1.00 20.00    -0.185 F 
ENDBRANCH   6   7
ENDBRANCH   1   6
TORSDOF 3
ENDMDL
MODEL 8
REMARK VINA RESULT:      -4.5      2.143      3.016
REMARK  3 active torsions:
REMARK  status: ('A' for Active; 'I' for Inactive)
REMARK    1  A    between atoms: C1_1  and  C3_3 
REMARK    2  A    between atoms: C1_1  and  O4_4 
REMARK    3  A    between atoms: C2_2  and  O4_4 
ROOT
HETATM    1  C1  UNL     1     -31.975   7.617   3.678  1.00 20.00     0.291 C 
ENDROOT
BRANCH   1   2
HETATM    2  C3  UNL     1     -32.832   8.226   4.759  1.00 20.00     0.408 C 
HETATM    3  F7  UNL     1     -32.335   9.423   5.140  1.00 20.00    -0.169 F 
HETATM    4  F8  UNL     1     -32.878   7.433   5.850  1.00 20.00    -0.169 F 
HETATM    5  F9  UNL     1     -34.096   8.423   4.329  1.00 20.00    -0.169 F 
ENDBRANCH   1   2
BRANCH   1   6
HETATM    6  O4  UNL     1     -32.804   6.890   2.784  1.00 20.00    -0.324 OA
BRANCH   6   7
HETATM    7  C2  UNL     1     -32.984   5.538   3.183  1.00 20.00     0.500 C 
HETATM    8  F5  UNL     1     -34.227   5.380   3.698  1.00 20.00    -0.185 F 
HETATM    9  F6  UNL     1     -32.873   4.729   2.102  1.00 20.00    -0.185 F 
ENDBRANCH   6   7
ENDBRANCH   1   6
TORSDOF 3
ENDMDL
MODEL 9
REMARK VINA RESULT:      -4.3      1.638      2.461
REMARK  3 active torsions:
REMARK  status: ('A' for Active; 'I' for Inactive)
REMARK    1  A    between atoms: C1_1  and  C3_3 
REMARK    2  A    between atoms: C1_1  and  O4_4 
REMARK    3  A    between atoms: C2_2  and  O4_4 
ROOT
HETATM    1  C1  UNL     1     -34.181   5.246   4.103  1.00 20.00     0.291 C 
ENDROOT
BRANCH   1   2
HETATM    2  C3  UNL     1     -33.164   5.530   3.027  1.00 20.00     0.408 C 
HETATM    3  F7  UNL     1     -32.490   6.668   3.301  1.00 20.00    -0.169 F 
HETATM    4  F8  UNL     1     -33.756   5.681   1.824  1.00 20.00    -0.169 F 
HETATM    5  F9  UNL     1     -32.263   4.530   2.930  1.00 20.00    -0.169 F 
ENDBRANCH   1   2
BRANCH   1   6
HETATM    6  O4  UNL     1     -34.482   6.453   4.786  1.00 20.00    -0.324 OA
BRANCH   6   7
HETATM    7  C2  UNL     1     -34.379   6.322   6.197  1.00 20.00     0.500 C 
HETATM    8  F5  UNL     1     -34.266   5.011   6.522  1.00 20.00    -0.185 F 
HETATM    9  F6  UNL     1     -33.265   6.957   6.631  1.00 20.00    -0.185 F 
ENDBRANCH   6   7
ENDBRANCH   1   6
TORSDOF 3
ENDMDL
