MODEL 1
REMARK VINA RESULT:      -4.8      0.000      0.000
REMARK  5 active torsions:
REMARK  status: ('A' for Active; 'I' for Inactive)
REMARK    1  A    between atoms: C3_3  and  C7_7 
REMARK    2  A    between atoms: C4_4  and  C8_8 
REMARK    3  A    between atoms: C7_7  and  C9_9 
REMARK    4  A    between atoms: C8_8  and  C10_10 
REMARK    5  A    between atoms: C9_9  and  C10_10 
ROOT
HETATM    1  C1  UNL     1     -32.333   8.393   2.497  1.00 20.00    -0.111 C 
HETATM    2  C3  UNL     1     -32.470   8.404   3.690  1.00 20.00    -0.107 C 
HETATM    3  C5  UNL     1     -32.165   8.381   1.045  1.00 20.00     0.112 C 
ENDROOT
BRANCH   2   4
HETATM    4  C7  UNL     1     -32.638   8.416   5.150  1.00 20.00     0.094 C 
BRANCH   4   5
HETATM    5  C9  UNL     1     -34.068   8.075   5.571  1.00 20.00     0.013 C 
BRANCH   5   6
HETATM    6  C10 UNL     1     -34.145   6.813   6.443  1.00 20.00     0.013 C 
BRANCH   6   7
HETATM    7  C8  UNL     1     -34.824   5.641   5.728  1.00 20.00     0.094 C 
BRANCH   7   8
HETATM    8  C4  UNL     1     -34.162   5.306   4.459  1.00 20.00    -0.107 C 
HETATM    9  C2  UNL     1     -33.622   5.032   3.423  1.00 20.00    -0.111 C 
HETATM   10  C6  UNL     1     -32.963   4.697   2.161  1.00 20.00     0.112 C 
ENDBRANCH   7   8
ENDBRANCH   6   7
ENDBRANCH   5   6
ENDBRANCH   4   5
ENDBRANCH   2   4
TORSDOF 5
ENDMDL
MODEL 2
REMARK VINA RESULT:      -4.8      0.072      3.412
REMARK  5 active torsions:
REMARK  status: ('A' for Active; 'I' for Inactive)
REMARK    1  A    between atoms: C3_3  and  C7_7 
REMARK    2  A    between atoms: C4_4  and  C8_8 
REMARK    3  A    between atoms: C7_7  and  C9_9 
REMARK    4  A    between atoms: C8_8  and  C10_10 
REMARK    5  A    between atoms: C9_9  and  C10_10 
ROOT
HETATM    1  C1  UNL     1     -33.623   5.044   3.410  1.00 20.00    -0.111 C 
HETATM    2  C3  UNL     1     -34.145   5.330   4.453  1.00 20.00    -0.107 C 
HETATM    3  C5  UNL     1     -32.988   4.698   2.140  1.00 20.00     0.112 C 
ENDROOT
BRANCH   2   4
HETATM    4  C7  UNL     1     -34.784   5.679   5.729  1.00 20.00     0.094 C 
BRANCH   4   5
HETATM    5  C9  UNL     1     -34.096   6.860   6.417  1.00 20.00     0.013 C 
BRANCH   5   6
HETATM    6  C10 UNL     1     -34.043   8.114   5.532  1.00 20.00     0.013 C 
BRANCH   6   7
HETATM    7  C8  UNL     1     -32.621   8.466   5.091  1.00 20.00     0.094 C 
BRANCH   7   8
HETATM    8  C4  UNL     1     -32.476   8.466   3.628  1.00 20.00    -0.107 C 
HETATM    9  C2  UNL     1     -32.358   8.465   2.433  1.00 20.00    -0.111 C 
HETATM   10  C6  UNL     1     -32.215   8.466   0.978  1.00 20.00     0.112 C 
ENDBRANCH   7   8
ENDBRANCH   6   7
ENDBRANCH   5   6
ENDBRANCH   4   5
ENDBRANCH   2   4
TORSDOF 5
ENDMDL
MODEL 3
REMARK VINA RESULT:      -4.6      0.937      3.100
REMARK  5 active torsions:
REMARK  status: ('A' for Active; 'I' for Inactive)
REMARK    1  A    between atoms: C3_3  and  C7_7 
REMARK    2  A    between atoms: C4_4  and  C8_8 
REMARK    3  A    between atoms: C7_7  and  C9_9 
REMARK    4  A    between atoms: C8_8  and  C10_10 
REMARK    5  A    between atoms: C9_9  and  C10_10 
ROOT
HETATM    1  C1  UNL     1     -32.607   6.597   2.321  1.00 20.00    -0.111 C 
HETATM    2  C3  UNL     1     -33.086   5.691   2.945  1.00 20.00    -0.107 C 
HETATM    3  C5  UNL     1     -32.025   7.700   1.558  1.00 20.00     0.112 C 
ENDROOT
BRANCH   2   4
HETATM    4  C7  UNL     1     -33.673   4.583   3.711  1.00 20.00     0.094 C 
BRANCH   4   5
HETATM    5  C9  UNL     1     -34.841   5.038   4.587  1.00 20.00     0.013 C 
BRANCH   5   6
HETATM    6  C10 UNL     1     -34.486   5.073   6.081  1.00 20.00     0.013 C 
BRANCH   6   7
HETATM    7  C8  UNL     1     -34.618   6.471   6.688  1.00 20.00     0.094 C 
BRANCH   7   8
HETATM    8  C4  UNL     1     -33.757   7.454   6.014  1.00 20.00    -0.107 C 
HETATM    9  C2  UNL     1     -33.054   8.257   5.465  1.00 20.00    -0.111 C 
HETATM   10  C6  UNL     1     -32.196   9.233   4.795  1.00 20.00     0.112 C 
ENDBRANCH   7   8
ENDBRANCH   6   7
ENDBRANCH   5   6
ENDBRANCH   4   5
ENDBRANCH   2   4
TORSDOF 5
ENDMDL
MODEL 4
REMARK VINA RESULT:      -4.6      0.930      2.914
REMARK  5 active torsions:
REMARK  status: ('A' for Active; 'I' for Inactive)
REMARK    1  A    between atoms: C3_3  and  C7_7 
REMARK    2  A    between atoms: C4_4  and  C8_8 
REMARK    3  A    between atoms: C7_7  and  C9_9 
REMARK    4  A    between atoms: C8_8  and  C10_10 
REMARK    5  A    between atoms: C9_9  and  C10_10 
ROOT
HETATM    1  C1  UNL     1     -33.044   8.242   5.479  1.00 20.00    -0.111 C 
HETATM    2  C3  UNL     1     -33.750   7.434   6.018  1.00 20.00    -0.107 C 
HETATM    3  C5  UNL     1     -32.184   9.223   4.820  1.00 20.00     0.112 C 
ENDROOT
BRANCH   2   4
HETATM    4  C7  UNL     1     -34.615   6.447   6.678  1.00 20.00     0.094 C 
BRANCH   4   5
HETATM    5  C9  UNL     1     -34.482   5.054   6.059  1.00 20.00     0.013 C 
BRANCH   5   6
HETATM    6  C10 UNL     1     -34.822   5.035   4.561  1.00 20.00     0.013 C 
BRANCH   6   7
HETATM    7  C8  UNL     1     -33.641   4.599   3.692  1.00 20.00     0.094 C 
BRANCH   7   8
HETATM    8  C4  UNL     1     -33.069   5.717   2.928  1.00 20.00    -0.107 C 
HETATM    9  C2  UNL     1     -32.601   6.630   2.305  1.00 20.00    -0.111 C 
HETATM   10  C6  UNL     1     -32.034   7.742   1.544  1.00 20.00     0.112 C 
ENDBRANCH   7   8
ENDBRANCH   6   7
ENDBRANCH   5   6
ENDBRANCH   4   5
ENDBRANCH   2   4
TORSDOF 5
ENDMDL
MODEL 5
REMARK VINA RESULT:      -4.2      0.996      3.704
REMARK  5 active torsions:
REMARK  status: ('A' for Active; 'I' for Inactive)
REMARK    1  A    between atoms: C3_3  and  C7_7 
REMARK    2  A    between atoms: C4_4  and  C8_8 
REMARK    3  A    between atoms: C7_7  and  C9_9 
REMARK    4  A    between atoms: C8_8  and  C10_10 
REMARK    5  A    between atoms: C9_9  and  C10_10 
ROOT
HETATM    1  C1  UNL     1     -34.283   6.420   6.245  1.00 20.00    -0.111 C 
HETATM    2  C3  UNL     1     -33.874   7.486   5.876  1.00 20.00    -0.107 C 
HETATM    3  C5  UNL     1     -34.782   5.122   6.696  1.00 20.00     0.112 C 
ENDROOT
BRANCH   2   4
HETATM    4  C7  UNL     1     -33.374   8.792   5.424  1.00 20.00     0.094 C 
BRANCH   4   5
HETATM    5  C9  UNL     1     -32.174   8.659   4.484  1.00 20.00     0.013 C 
BRANCH   5   6
HETATM    6  C10 UNL     1     -32.557   8.826   3.006  1.00 20.00     0.013 C 
BRANCH   6   7
HETATM    7  C8  UNL     1     -32.109   7.645   2.142  1.00 20.00     0.094 C 
BRANCH   7   8
HETATM    8  C4  UNL     1     -32.652   6.366   2.622  1.00 20.00    -0.107 C 
HETATM    9  C2  UNL     1     -33.095   5.322   3.014  1.00 20.00    -0.111 C 
HETATM   10  C6  UNL     1     -33.634   4.050   3.493  1.00 20.00     0.112 C 
ENDBRANCH   7   8
ENDBRANCH   6   7
ENDBRANCH   5   6
ENDBRANCH   4   5
ENDBRANCH   2   4
TORSDOF 5
ENDMDL
MODEL 6
REMARK VINA RESULT:      -4.2      0.997      3.540
REMARK  5 active torsions:
REMARK  status: ('A' for Active; 'I' for Inactive)
REMARK    1  A    between atoms: C3_3  and  C7_7 
REMARK    2  A    between atoms: C4_4  and  C8_8 
REMARK    3  A    between atoms: C7_7  and  C9_9 
REMARK    4  A    between atoms: C8_8  and  C10_10 
REMARK    5  A    between atoms: C9_9  and  C10_10 
ROOT
HETATM    1  C1  UNL     1     -33.074   5.346   2.996  1.00 20.00    -0.111 C 
HETATM    2  C3  UNL     1     -32.639   6.396   2.608  1.00 20.00    -0.107 C 
HETATM    3  C5  UNL     1     -33.604   4.069   3.470  1.00 20.00     0.112 C 
ENDROOT
BRANCH   2   4
HETATM    4  C7  UNL     1     -32.107   7.680   2.132  1.00 20.00     0.094 C 
BRANCH   4   5
HETATM    5  C9  UNL     1     -32.536   8.850   3.021  1.00 20.00     0.013 C 
BRANCH   5   6
HETATM    6  C10 UNL     1     -32.168   8.641   4.497  1.00 20.00     0.013 C 
BRANCH   6   7
HETATM    7  C8  UNL     1     -33.373   8.772   5.431  1.00 20.00     0.094 C 
BRANCH   7   8
HETATM    8  C4  UNL     1     -33.874   7.466   5.880  1.00 20.00    -0.107 C 
HETATM    9  C2  UNL     1     -34.285   6.399   6.246  1.00 20.00    -0.111 C 
HETATM   10  C6  UNL     1     -34.783   5.098   6.692  1.00 20.00     0.112 C 
ENDBRANCH   7   8
ENDBRANCH   6   7
ENDBRANCH   5   6
ENDBRANCH   4   5
ENDBRANCH   2   4
TORSDOF 5
ENDMDL
MODEL 7
REMARK VINA RESULT:      -4.2     11.686     12.287
REMARK  5 active torsions:
REMARK  status: ('A' for Active; 'I' for Inactive)
REMARK    1  A    between atoms: C3_3  and  C7_7 
REMARK    2  A    between atoms: C4_4  and  C8_8 
REMARK    3  A    between atoms: C7_7  and  C9_9 
REMARK    4  A    between atoms: C8_8  and  C10_10 
REMARK    5  A    between atoms: C9_9  and  C10_10 
ROOT
HETATM    1  C1  UNL     1     -29.308  18.575   3.021  1.00 20.00    -0.111 C 
HETATM    2  C3  UNL     1     -30.282  18.533   2.322  1.00 20.00    -0.107 C 
HETATM    3  C5  UNL     1     -28.121  18.623   3.874  1.00 20.00     0.112 C 
ENDROOT
BRANCH   2   4
HETATM    4  C7  UNL     1     -31.475  18.483   1.465  1.00 20.00     0.094 C 
BRANCH   4   5
HETATM    5  C9  UNL     1     -31.119  18.475  -0.023  1.00 20.00     0.013 C 
BRANCH   5   6
HETATM    6  C10 UNL     1     -32.299  18.880  -0.918  1.00 20.00     0.013 C 
BRANCH   6   7
HETATM    7  C8  UNL     1     -33.447  17.868  -0.878  1.00 20.00     0.094 C 
BRANCH   7   8
HETATM    8  C4  UNL     1     -33.420  16.950  -2.026  1.00 20.00    -0.107 C 
HETATM    9  C2  UNL     1     -33.399  16.202  -2.964  1.00 20.00    -0.111 C 
HETATM   10  C6  UNL     1     -33.371  15.288  -4.105  1.00 20.00     0.112 C 
ENDBRANCH   7   8
ENDBRANCH   6   7
ENDBRANCH   5   6
ENDBRANCH   4   5
ENDBRANCH   2   4
TORSDOF 5
ENDMDL
MODEL 8
REMARK VINA RESULT:      -4.1     11.496     12.169
REMARK  5 active torsions:
REMARK  status: ('A' for Active; 'I' for Inactive)
REMARK    1  A    between atoms: C3_3  and  C7_7 
REMARK    2  A    between atoms: C4_4  and  C8_8 
REMARK    3  A    between atoms: C7_7  and  C9_9 
REMARK    4  A    between atoms: C8_8  and  C10_10 
REMARK    5  A    between atoms: C9_9  and  C10_10 
ROOT
HETATM    1  C1  UNL     1     -29.991  18.763   2.500  1.00 20.00    -0.111 C 
HETATM    2  C3  UNL     1     -30.625  18.643   1.488  1.00 20.00    -0.107 C 
HETATM    3  C5  UNL     1     -29.222  18.909   3.734  1.00 20.00     0.112 C 
ENDROOT
BRANCH   2   4
HETATM    4  C7  UNL     1     -31.400  18.495   0.248  1.00 20.00     0.094 C 
BRANCH   4   5
HETATM    5  C9  UNL     1     -32.907  18.456   0.508  1.00 20.00     0.013 C 
BRANCH   5   6
HETATM    6  C10 UNL     1     -33.686  17.758  -0.616  1.00 20.00     0.013 C 
BRANCH   6   7
HETATM    7  C8  UNL     1     -32.965  17.824  -1.965  1.00 20.00     0.094 C 
BRANCH   7   8
HETATM    8  C4  UNL     1     -33.266  16.662  -2.814  1.00 20.00    -0.107 C 
HETATM    9  C2  UNL     1     -33.511  15.714  -3.508  1.00 20.00    -0.111 C 
HETATM   10  C6  UNL     1     -33.809  14.558  -4.351  1.00 20.00     0.112 C 
ENDBRANCH   7   8
ENDBRANCH   6   7
ENDBRANCH   5   6
ENDBRANCH   4   5
ENDBRANCH   2   4
TORSDOF 5
ENDMDL
MODEL 9
REMARK VINA RESULT:      -3.5     11.957     12.601
REMARK  5 active torsions:
REMARK  status: ('A' for Active; 'I' for Inactive)
REMARK    1  A    between atoms: C3_3  and  C7_7 
REMARK    2  A    between atoms: C4_4  and  C8_8 
REMARK    3  A    between atoms: C7_7  and  C9_9 
REMARK    4  A    between atoms: C8_8  and  C10_10 
REMARK    5  A    between atoms: C9_9  and  C10_10 
ROOT
HETATM    1  C1  UNL     1     -33.959  15.632  -4.394  1.00 20.00    -0.111 C 
HETATM    2  C3  UNL     1     -33.464  16.207  -3.464  1.00 20.00    -0.107 C 
HETATM    3  C5  UNL     1     -34.559  14.931  -5.528  1.00 20.00     0.112 C 
ENDROOT
BRANCH   2   4
HETATM    4  C7  UNL     1     -32.860  16.910  -2.324  1.00 20.00     0.094 C 
BRANCH   4   5
HETATM    5  C9  UNL     1     -33.901  17.647  -1.480  1.00 20.00     0.013 C 
BRANCH   5   6
HETATM    6  C10 UNL     1     -33.324  18.187  -0.163  1.00 20.00     0.013 C 
BRANCH   6   7
HETATM    7  C8  UNL     1     -31.993  18.917  -0.356  1.00 20.00     0.094 C 
BRANCH   7   8
HETATM    8  C4  UNL     1     -31.140  18.845   0.839  1.00 20.00    -0.107 C 
HETATM    9  C2  UNL     1     -30.445  18.787   1.816  1.00 20.00    -0.111 C 
HETATM   10  C6  UNL     1     -29.596  18.713   3.004  1.00 20.00     0.112 C 
ENDBRANCH   7   8
ENDBRANCH   6   7
ENDBRANCH   5   6
ENDBRANCH   4   5
ENDBRANCH   2   4
TORSDOF 5
ENDMDL
