MODEL 1
REMARK VINA RESULT:      -3.8      0.000      0.000
REMARK  2 active torsions:
REMARK  status: ('A' for Active; 'I' for Inactive)
REMARK    1  A    between atoms: C7_7  and  O9_9 
REMARK    2  A    between atoms: C8_8  and  O9_9 
ROOT
HETATM    1  O9  UNL     1     -23.128  17.053  10.033  1.00 20.00    -0.371 OA
ENDROOT
BRANCH   1   2
HETATM    2  C7  UNL     1     -23.787  17.485  11.225  1.00 20.00     0.051 C 
HETATM    3  C1  UNL     1     -24.854  18.511  10.846  1.00 20.00     0.045 C 
HETATM    4  C2  UNL     1     -24.427  16.256  11.868  1.00 20.00     0.045 C 
HETATM    5  C3  UNL     1     -22.747  18.100  12.160  1.00 20.00     0.045 C 
ENDBRANCH   1   2
BRANCH   1   6
HETATM    6  C8  UNL     1     -22.429  18.122   9.417  1.00 20.00     0.051 C 
HETATM    7  C4  UNL     1     -21.304  18.571  10.348  1.00 20.00     0.045 C 
HETATM    8  C5  UNL     1     -21.859  17.598   8.099  1.00 20.00     0.045 C 
HETATM    9  C6  UNL     1     -23.412  19.263   9.161  1.00 20.00     0.045 C 
ENDBRANCH   1   6
TORSDOF 2
ENDMDL
MODEL 2
REMARK VINA RESULT:      -3.7      0.044      1.454
REMARK  2 active torsions:
REMARK  status: ('A' for Active; 'I' for Inactive)
REMARK    1  A    between atoms: C7_7  and  O9_9 
REMARK    2  A    between atoms: C8_8  and  O9_9 
ROOT
HETATM    1  O9  UNL     1     -23.131  17.045   9.994  1.00 20.00    -0.371 OA
ENDROOT
BRANCH   1   2
HETATM    2  C7  UNL     1     -23.799  17.473  11.183  1.00 20.00     0.051 C 
HETATM    3  C1  UNL     1     -24.851  18.513  10.801  1.00 20.00     0.045 C 
HETATM    4  C2  UNL     1     -24.458  16.245  11.807  1.00 20.00     0.045 C 
HETATM    5  C3  UNL     1     -22.763  18.069  12.135  1.00 20.00     0.045 C 
ENDBRANCH   1   2
BRANCH   1   6
HETATM    6  C8  UNL     1     -22.434  18.118   9.381  1.00 20.00     0.051 C 
HETATM    7  C4  UNL     1     -23.418  19.262   9.138  1.00 20.00     0.045 C 
HETATM    8  C5  UNL     1     -21.329  18.556  10.341  1.00 20.00     0.045 C 
HETATM    9  C6  UNL     1     -21.839  17.623   8.065  1.00 20.00     0.045 C 
ENDBRANCH   1   6
TORSDOF 2
ENDMDL
MODEL 3
REMARK VINA RESULT:      -3.6      0.057      2.053
REMARK  2 active torsions:
REMARK  status: ('A' for Active; 'I' for Inactive)
REMARK    1  A    between atoms: C7_7  and  O9_9 
REMARK    2  A    between atoms: C8_8  and  O9_9 
ROOT
HETATM    1  O9  UNL     1     -23.161  17.046  10.059  1.00 20.00    -0.371 OA
ENDROOT
BRANCH   1   2
HETATM    2  C7  UNL     1     -23.786  17.474  11.271  1.00 20.00     0.051 C 
HETATM    3  C1  UNL     1     -22.726  18.117  12.164  1.00 20.00     0.045 C 
HETATM    4  C2  UNL     1     -24.864  18.490  10.898  1.00 20.00     0.045 C 
HETATM    5  C3  UNL     1     -24.409  16.257  11.952  1.00 20.00     0.045 C 
ENDBRANCH   1   2
BRANCH   1   6
HETATM    6  C8  UNL     1     -22.436  18.105   9.453  1.00 20.00     0.051 C 
HETATM    7  C4  UNL     1     -21.881  17.613   8.117  1.00 20.00     0.045 C 
HETATM    8  C5  UNL     1     -23.409  19.263   9.238  1.00 20.00     0.045 C 
HETATM    9  C6  UNL     1     -21.306  18.520  10.393  1.00 20.00     0.045 C 
ENDBRANCH   1   6
TORSDOF 2
ENDMDL
MODEL 4
REMARK VINA RESULT:      -3.3     15.354     16.609
REMARK  2 active torsions:
REMARK  status: ('A' for Active; 'I' for Inactive)
REMARK    1  A    between atoms: C7_7  and  O9_9 
REMARK    2  A    between atoms: C8_8  and  O9_9 
ROOT
HETATM    1  O9  UNL     1     -33.368   6.472   4.285  1.00 20.00    -0.371 OA
ENDROOT
BRANCH   1   2
HETATM    2  C7  UNL     1     -34.373   5.579   4.769  1.00 20.00     0.051 C 
HETATM    3  C1  UNL     1     -35.726   6.022   4.213  1.00 20.00     0.045 C 
HETATM    4  C2  UNL     1     -34.021   4.178   4.275  1.00 20.00     0.045 C 
HETATM    5  C3  UNL     1     -34.369   5.627   6.297  1.00 20.00     0.045 C 
ENDBRANCH   1   2
BRANCH   1   6
HETATM    6  C8  UNL     1     -33.389   7.701   4.991  1.00 20.00     0.051 C 
HETATM    7  C4  UNL     1     -33.406   7.402   6.490  1.00 20.00     0.045 C 
HETATM    8  C5  UNL     1     -32.124   8.470   4.612  1.00 20.00     0.045 C 
HETATM    9  C6  UNL     1     -34.636   8.480   4.577  1.00 20.00     0.045 C 
ENDBRANCH   1   6
TORSDOF 2
ENDMDL
MODEL 5
REMARK VINA RESULT:      -3.3     15.371     16.808
REMARK  2 active torsions:
REMARK  status: ('A' for Active; 'I' for Inactive)
REMARK    1  A    between atoms: C7_7  and  O9_9 
REMARK    2  A    between atoms: C8_8  and  O9_9 
ROOT
HETATM    1  O9  UNL     1     -33.365   6.436   4.289  1.00 20.00    -0.371 OA
ENDROOT
BRANCH   1   2
HETATM    2  C7  UNL     1     -33.401   7.689   4.975  1.00 20.00     0.051 C 
HETATM    3  C1  UNL     1     -33.445   7.420   6.478  1.00 20.00     0.045 C 
HETATM    4  C2  UNL     1     -32.134   8.455   4.601  1.00 20.00     0.045 C 
HETATM    5  C3  UNL     1     -34.644   8.455   4.522  1.00 20.00     0.045 C 
ENDBRANCH   1   2
BRANCH   1   6
HETATM    6  C8  UNL     1     -34.364   5.555   4.776  1.00 20.00     0.051 C 
HETATM    7  C4  UNL     1     -35.717   5.996   4.220  1.00 20.00     0.045 C 
HETATM    8  C5  UNL     1     -34.014   4.150   4.288  1.00 20.00     0.045 C 
HETATM    9  C6  UNL     1     -34.358   5.609   6.303  1.00 20.00     0.045 C 
ENDBRANCH   1   6
TORSDOF 2
ENDMDL
MODEL 6
REMARK VINA RESULT:      -3.3     23.807     24.839
REMARK  2 active torsions:
REMARK  status: ('A' for Active; 'I' for Inactive)
REMARK    1  A    between atoms: C7_7  and  O9_9 
REMARK    2  A    between atoms: C8_8  and  O9_9 
ROOT
HETATM    1  O9  UNL     1     -42.930   6.722  -0.880  1.00 20.00    -0.371 OA
ENDROOT
BRANCH   1   2
HETATM    2  C7  UNL     1     -42.560   7.719   0.074  1.00 20.00     0.051 C 
HETATM    3  C1  UNL     1     -41.078   8.041  -0.110  1.00 20.00     0.045 C 
HETATM    4  C2  UNL     1     -43.416   8.955  -0.197  1.00 20.00     0.045 C 
HETATM    5  C3  UNL     1     -42.830   7.176   1.476  1.00 20.00     0.045 C 
ENDBRANCH   1   2
BRANCH   1   6
HETATM    6  C8  UNL     1     -42.287   5.487  -0.607  1.00 20.00     0.051 C 
HETATM    7  C4  UNL     1     -42.828   4.936   0.711  1.00 20.00     0.045 C 
HETATM    8  C5  UNL     1     -42.611   4.537  -1.760  1.00 20.00     0.045 C 
HETATM    9  C6  UNL     1     -40.782   5.732  -0.519  1.00 20.00     0.045 C 
ENDBRANCH   1   6
TORSDOF 2
ENDMDL
MODEL 7
REMARK VINA RESULT:      -3.3     15.340     16.623
REMARK  2 active torsions:
REMARK  status: ('A' for Active; 'I' for Inactive)
REMARK    1  A    between atoms: C7_7  and  O9_9 
REMARK    2  A    between atoms: C8_8  and  O9_9 
ROOT
HETATM    1  O9  UNL     1     -33.448   6.527   4.225  1.00 20.00    -0.371 OA
ENDROOT
BRANCH   1   2
HETATM    2  C7  UNL     1     -34.420   5.628   4.762  1.00 20.00     0.051 C 
HETATM    3  C1  UNL     1     -35.789   5.997   4.194  1.00 20.00     0.045 C 
HETATM    4  C2  UNL     1     -34.024   4.215   4.337  1.00 20.00     0.045 C 
HETATM    5  C3  UNL     1     -34.409   5.753   6.285  1.00 20.00     0.045 C 
ENDBRANCH   1   2
BRANCH   1   6
HETATM    6  C8  UNL     1     -33.370   7.717   4.992  1.00 20.00     0.051 C 
HETATM    7  C4  UNL     1     -32.090   8.460   4.612  1.00 20.00     0.045 C 
HETATM    8  C5  UNL     1     -34.600   8.560   4.657  1.00 20.00     0.045 C 
HETATM    9  C6  UNL     1     -33.363   7.343   6.473  1.00 20.00     0.045 C 
ENDBRANCH   1   6
TORSDOF 2
ENDMDL
MODEL 8
REMARK VINA RESULT:      -3.3     23.804     24.827
REMARK  2 active torsions:
REMARK  status: ('A' for Active; 'I' for Inactive)
REMARK    1  A    between atoms: C7_7  and  O9_9 
REMARK    2  A    between atoms: C8_8  and  O9_9 
ROOT
HETATM    1  O9  UNL     1     -42.923   6.755  -0.888  1.00 20.00    -0.371 OA
ENDROOT
BRANCH   1   2
HETATM    2  C7  UNL     1     -42.290   5.505  -0.607  1.00 20.00     0.051 C 
HETATM    3  C1  UNL     1     -42.838   4.970   0.715  1.00 20.00     0.045 C 
HETATM    4  C2  UNL     1     -42.624   4.553  -1.753  1.00 20.00     0.045 C 
HETATM    5  C3  UNL     1     -40.782   5.733  -0.520  1.00 20.00     0.045 C 
ENDBRANCH   1   2
BRANCH   1   6
HETATM    6  C8  UNL     1     -42.566   7.739   0.070  1.00 20.00     0.051 C 
HETATM    7  C4  UNL     1     -41.081   8.059  -0.090  1.00 20.00     0.045 C 
HETATM    8  C5  UNL     1     -43.416   8.978  -0.207  1.00 20.00     0.045 C 
HETATM    9  C6  UNL     1     -42.857   7.188   1.464  1.00 20.00     0.045 C 
ENDBRANCH   1   6
TORSDOF 2
ENDMDL
MODEL 9
REMARK VINA RESULT:      -3.2     23.801     24.807
REMARK  2 active torsions:
REMARK  status: ('A' for Active; 'I' for Inactive)
REMARK    1  A    between atoms: C7_7  and  O9_9 
REMARK    2  A    between atoms: C8_8  and  O9_9 
ROOT
HETATM    1  O9  UNL     1     -42.919   6.759  -0.896  1.00 20.00    -0.371 OA
ENDROOT
BRANCH   1   2
HETATM    2  C7  UNL     1     -42.285   5.511  -0.609  1.00 20.00     0.051 C 
HETATM    3  C1  UNL     1     -42.832   4.981   0.715  1.00 20.00     0.045 C 
HETATM    4  C2  UNL     1     -42.617   4.553  -1.751  1.00 20.00     0.045 C 
HETATM    5  C3  UNL     1     -40.777   5.741  -0.523  1.00 20.00     0.045 C 
ENDBRANCH   1   2
BRANCH   1   6
HETATM    6  C8  UNL     1     -42.573   7.744   0.064  1.00 20.00     0.051 C 
HETATM    7  C4  UNL     1     -42.844   7.182   1.459  1.00 20.00     0.045 C 
HETATM    8  C5  UNL     1     -41.088   8.055  -0.111  1.00 20.00     0.045 C 
HETATM    9  C6  UNL     1     -43.417   8.991  -0.193  1.00 20.00     0.045 C 
ENDBRANCH   1   6
TORSDOF 2
ENDMDL
