MODEL 1
REMARK VINA RESULT:      -4.1      0.000      0.000
REMARK  2 active torsions:
REMARK  status: ('A' for Active; 'I' for Inactive)
REMARK    1  A    between atoms: C1_1  and  C3_3 
REMARK    2  A    between atoms: C2_2  and  C3_3 
ROOT
HETATM    1  C3  UNL     1     -33.941   6.865   4.760  1.00 20.00     0.187 C 
HETATM    2 BR7  UNL     1     -32.532   7.846   3.817  1.00 20.00    -0.077 Br
ENDROOT
BRANCH   1   3
HETATM    3  C1  UNL     1     -33.985   5.484   4.102  1.00 20.00     0.190 C 
HETATM    4  O4  UNL     1     -34.686   4.628   4.715  1.00 20.00    -0.647 OA
HETATM    5  O5  UNL     1     -33.312   5.349   3.042  1.00 20.00    -0.647 OA
ENDBRANCH   1   3
BRANCH   1   6
HETATM    6  C2  UNL     1     -33.661   6.905   6.249  1.00 20.00     0.248 C 
HETATM    7  F6  UNL     1     -34.824   6.844   6.951  1.00 20.00    -0.254 F 
ENDBRANCH   1   6
TORSDOF 2
ENDMDL
MODEL 2
REMARK VINA RESULT:      -3.8      2.798      3.089
REMARK  2 active torsions:
REMARK  status: ('A' for Active; 'I' for Inactive)
REMARK    1  A    between atoms: C1_1  and  C3_3 
REMARK    2  A    between atoms: C2_2  and  C3_3 
ROOT
HETATM    1  C3  UNL     1     -34.118   6.452   4.415  1.00 20.00     0.187 C 
HETATM    2 BR7  UNL     1     -34.422   5.998   6.296  1.00 20.00    -0.077 Br
ENDROOT
BRANCH   1   3
HETATM    3  C1  UNL     1     -33.112   7.605   4.432  1.00 20.00     0.190 C 
HETATM    4  O4  UNL     1     -33.366   8.516   5.272  1.00 20.00    -0.647 OA
HETATM    5  O5  UNL     1     -32.161   7.529   3.605  1.00 20.00    -0.647 OA
ENDBRANCH   1   3
BRANCH   1   6
HETATM    6  C2  UNL     1     -33.711   5.200   3.662  1.00 20.00     0.248 C 
HETATM    7  F6  UNL     1     -34.023   4.091   4.385  1.00 20.00    -0.254 F 
ENDBRANCH   1   6
TORSDOF 2
ENDMDL
MODEL 3
REMARK VINA RESULT:      -3.8      2.787      3.250
REMARK  2 active torsions:
REMARK  status: ('A' for Active; 'I' for Inactive)
REMARK    1  A    between atoms: C1_1  and  C3_3 
REMARK    2  A    between atoms: C2_2  and  C3_3 
ROOT
HETATM    1  C3  UNL     1     -34.134   6.435   4.415  1.00 20.00     0.187 C 
HETATM    2 BR7  UNL     1     -34.433   5.985   6.298  1.00 20.00    -0.077 Br
ENDROOT
BRANCH   1   3
HETATM    3  C1  UNL     1     -33.133   7.592   4.427  1.00 20.00     0.190 C 
HETATM    4  O4  UNL     1     -32.201   7.494   3.578  1.00 20.00    -0.647 OA
HETATM    5  O5  UNL     1     -33.337   8.498   5.283  1.00 20.00    -0.647 OA
ENDBRANCH   1   3
BRANCH   1   6
HETATM    6  C2  UNL     1     -33.724   5.182   3.666  1.00 20.00     0.248 C 
HETATM    7  F6  UNL     1     -34.028   4.074   4.393  1.00 20.00    -0.254 F 
ENDBRANCH   1   6
TORSDOF 2
ENDMDL
MODEL 4
REMARK VINA RESULT:      -3.8      1.741      2.081
REMARK  2 active torsions:
REMARK  status: ('A' for Active; 'I' for Inactive)
REMARK    1  A    between atoms: C1_1  and  C3_3 
REMARK    2  A    between atoms: C2_2  and  C3_3 
ROOT
HETATM    1  C3  UNL     1     -33.999   6.603   4.388  1.00 20.00     0.187 C 
HETATM    2 BR7  UNL     1     -33.005   5.725   2.947  1.00 20.00    -0.077 Br
ENDROOT
BRANCH   1   3
HETATM    3  C1  UNL     1     -34.489   5.471   5.293  1.00 20.00     0.190 C 
HETATM    4  O4  UNL     1     -34.540   4.335   4.739  1.00 20.00    -0.647 OA
HETATM    5  O5  UNL     1     -34.800   5.794   6.473  1.00 20.00    -0.647 OA
ENDBRANCH   1   3
BRANCH   1   6
HETATM    6  C2  UNL     1     -33.117   7.658   5.027  1.00 20.00     0.248 C 
HETATM    7  F6  UNL     1     -33.876   8.675   5.516  1.00 20.00    -0.254 F 
ENDBRANCH   1   6
TORSDOF 2
ENDMDL
MODEL 5
REMARK VINA RESULT:      -3.8      1.752      1.941
REMARK  2 active torsions:
REMARK  status: ('A' for Active; 'I' for Inactive)
REMARK    1  A    between atoms: C1_1  and  C3_3 
REMARK    2  A    between atoms: C2_2  and  C3_3 
ROOT
HETATM    1  C3  UNL     1     -33.983   6.660   4.404  1.00 20.00     0.187 C 
HETATM    2 BR7  UNL     1     -32.991   5.772   2.967  1.00 20.00    -0.077 Br
ENDROOT
BRANCH   1   3
HETATM    3  C1  UNL     1     -34.500   5.531   5.298  1.00 20.00     0.190 C 
HETATM    4  O4  UNL     1     -34.755   5.875   6.489  1.00 20.00    -0.647 OA
HETATM    5  O5  UNL     1     -34.599   4.393   4.761  1.00 20.00    -0.647 OA
ENDBRANCH   1   3
BRANCH   1   6
HETATM    6  C2  UNL     1     -33.090   7.696   5.056  1.00 20.00     0.248 C 
HETATM    7  F6  UNL     1     -33.832   8.740   5.513  1.00 20.00    -0.254 F 
ENDBRANCH   1   6
TORSDOF 2
ENDMDL
MODEL 6
REMARK VINA RESULT:      -3.7      1.761      2.036
REMARK  2 active torsions:
REMARK  status: ('A' for Active; 'I' for Inactive)
REMARK    1  A    between atoms: C1_1  and  C3_3 
REMARK    2  A    between atoms: C2_2  and  C3_3 
ROOT
HETATM    1  C3  UNL     1     -34.175   6.189   4.332  1.00 20.00     0.187 C 
HETATM    2 BR7  UNL     1     -33.618   7.492   5.684  1.00 20.00    -0.077 Br
ENDROOT
BRANCH   1   3
HETATM    3  C1  UNL     1     -33.032   6.143   3.316  1.00 20.00     0.190 C 
HETATM    4  O4  UNL     1     -32.949   5.064   2.661  1.00 20.00    -0.647 OA
HETATM    5  O5  UNL     1     -32.297   7.168   3.256  1.00 20.00    -0.647 OA
ENDBRANCH   1   3
BRANCH   1   6
HETATM    6  C2  UNL     1     -34.534   4.886   5.019  1.00 20.00     0.248 C 
HETATM    7  F6  UNL     1     -34.864   5.111   6.319  1.00 20.00    -0.254 F 
ENDBRANCH   1   6
TORSDOF 2
ENDMDL
MODEL 7
REMARK VINA RESULT:      -3.6      3.114      3.597
REMARK  2 active torsions:
REMARK  status: ('A' for Active; 'I' for Inactive)
REMARK    1  A    between atoms: C1_1  and  C3_3 
REMARK    2  A    between atoms: C2_2  and  C3_3 
ROOT
HETATM    1  C3  UNL     1     -33.840   6.697   4.163  1.00 20.00     0.187 C 
HETATM    2 BR7  UNL     1     -34.613   5.066   4.923  1.00 20.00    -0.077 Br
ENDROOT
BRANCH   1   3
HETATM    3  C1  UNL     1     -33.434   7.553   5.364  1.00 20.00     0.190 C 
HETATM    4  O4  UNL     1     -32.553   8.427   5.118  1.00 20.00    -0.647 OA
HETATM    5  O5  UNL     1     -34.004   7.285   6.458  1.00 20.00    -0.647 OA
ENDBRANCH   1   3
BRANCH   1   6
HETATM    6  C2  UNL     1     -32.741   6.318   3.189  1.00 20.00     0.248 C 
HETATM    7  F6  UNL     1     -33.018   5.120   2.607  1.00 20.00    -0.254 F 
ENDBRANCH   1   6
TORSDOF 2
ENDMDL
MODEL 8
REMARK VINA RESULT:      -3.4      2.322      2.547
REMARK  2 active torsions:
REMARK  status: ('A' for Active; 'I' for Inactive)
REMARK    1  A    between atoms: C1_1  and  C3_3 
REMARK    2  A    between atoms: C2_2  and  C3_3 
ROOT
HETATM    1  C3  UNL     1     -33.237   6.858   4.548  1.00 20.00     0.187 C 
HETATM    2 BR7  UNL     1     -34.866   5.799   4.796  1.00 20.00    -0.077 Br
ENDROOT
BRANCH   1   3
HETATM    3  C1  UNL     1     -32.758   6.542   3.130  1.00 20.00     0.190 C 
HETATM    4  O4  UNL     1     -32.991   5.360   2.743  1.00 20.00    -0.647 OA
HETATM    5  O5  UNL     1     -32.175   7.479   2.516  1.00 20.00    -0.647 OA
ENDBRANCH   1   3
BRANCH   1   6
HETATM    6  C2  UNL     1     -33.537   8.310   4.862  1.00 20.00     0.248 C 
HETATM    7  F6  UNL     1     -32.399   8.963   5.218  1.00 20.00    -0.254 F 
ENDBRANCH   1   6
TORSDOF 2
ENDMDL
MODEL 9
REMARK VINA RESULT:      -3.4      2.338      2.761
REMARK  2 active torsions:
REMARK  status: ('A' for Active; 'I' for Inactive)
REMARK    1  A    between atoms: C1_1  and  C3_3 
REMARK    2  A    between atoms: C2_2  and  C3_3 
ROOT
HETATM    1  C3  UNL     1     -33.558   6.176   4.527  1.00 20.00     0.187 C 
HETATM    2 BR7  UNL     1     -33.050   5.404   2.800  1.00 20.00    -0.077 Br
ENDROOT
BRANCH   1   3
HETATM    3  C1  UNL     1     -33.197   7.660   4.431  1.00 20.00     0.190 C 
HETATM    4  O4  UNL     1     -32.438   7.959   3.465  1.00 20.00    -0.647 OA
HETATM    5  O5  UNL     1     -33.678   8.410   5.327  1.00 20.00    -0.647 OA
ENDBRANCH   1   3
BRANCH   1   6
HETATM    6  C2  UNL     1     -35.009   5.841   4.811  1.00 20.00     0.248 C 
HETATM    7  F6  UNL     1     -35.176   5.538   6.127  1.00 20.00    -0.254 F 
ENDBRANCH   1   6
TORSDOF 2
ENDMDL
