MODEL 1
REMARK VINA RESULT:      -3.5      0.000      0.000
REMARK  4 active torsions:
REMARK  status: ('A' for Active; 'I' for Inactive)
REMARK    1  A    between atoms: C2_2  and  C5_5 
REMARK    2  A    between atoms: C2_2  and  C6_6 
REMARK    3  A    between atoms: C5_5  and  O7_7 
REMARK    4  A    between atoms: C6_6  and  S8_8 
ROOT
HETATM    1  C1  UNL     1     -32.462   6.621   3.074  1.00 20.00    -0.025 C 
HETATM    2  C2  UNL     1     -33.056   7.528   3.875  1.00 20.00    -0.051 C 
HETATM    3  C3  UNL     1     -32.953   5.255   2.717  1.00 20.00     0.036 C 
ENDROOT
BRANCH   2   4
HETATM    4  C5  UNL     1     -32.402   8.872   4.097  1.00 20.00     0.198 C 
BRANCH   4   5
HETATM    5  O7  UNL     1     -31.649   8.842   5.303  1.00 20.00    -0.397 OA
HETATM    6  H20 UNL     1     -31.992   8.101   5.828  1.00 20.00     0.209 HD
ENDBRANCH   4   5
ENDBRANCH   2   4
BRANCH   2   7
HETATM    7  C6  UNL     1     -34.351   7.288   4.611  1.00 20.00     0.109 C 
BRANCH   7   8
HETATM    8  S8  UNL     1     -34.033   6.736   6.310  1.00 20.00    -0.169 SA
HETATM    9  C4  UNL     1     -34.538   5.010   6.124  1.00 20.00     0.090 C 
ENDBRANCH   7   8
ENDBRANCH   2   7
TORSDOF 4
ENDMDL
MODEL 2
REMARK VINA RESULT:      -3.4     12.029     13.259
REMARK  4 active torsions:
REMARK  status: ('A' for Active; 'I' for Inactive)
REMARK    1  A    between atoms: C2_2  and  C5_5 
REMARK    2  A    between atoms: C2_2  and  C6_6 
REMARK    3  A    between atoms: C5_5  and  O7_7 
REMARK    4  A    between atoms: C6_6  and  S8_8 
ROOT
HETATM    1  C1  UNL     1     -33.349  16.314  -2.896  1.00 20.00    -0.025 C 
HETATM    2  C2  UNL     1     -33.948  15.869  -4.018  1.00 20.00    -0.051 C 
HETATM    3  C3  UNL     1     -33.093  17.732  -2.496  1.00 20.00     0.036 C 
ENDROOT
BRANCH   2   4
HETATM    4  C5  UNL     1     -34.129  14.383  -4.230  1.00 20.00     0.198 C 
BRANCH   4   5
HETATM    5  O7  UNL     1     -32.880  13.794  -4.567  1.00 20.00    -0.397 OA
HETATM    6  H20 UNL     1     -32.868  13.696  -5.532  1.00 20.00     0.209 HD
ENDBRANCH   4   5
ENDBRANCH   2   4
BRANCH   2   7
HETATM    7  C6  UNL     1     -34.444  16.764  -5.126  1.00 20.00     0.109 C 
BRANCH   7   8
HETATM    8  S8  UNL     1     -35.376  15.810  -6.356  1.00 20.00    -0.169 SA
HETATM    9  C4  UNL     1     -34.116  15.746  -7.650  1.00 20.00     0.090 C 
ENDBRANCH   7   8
ENDBRANCH   2   7
TORSDOF 4
ENDMDL
MODEL 3
REMARK VINA RESULT:      -3.4     12.293     13.119
REMARK  4 active torsions:
REMARK  status: ('A' for Active; 'I' for Inactive)
REMARK    1  A    between atoms: C2_2  and  C5_5 
REMARK    2  A    between atoms: C2_2  and  C6_6 
REMARK    3  A    between atoms: C5_5  and  O7_7 
REMARK    4  A    between atoms: C6_6  and  S8_8 
ROOT
HETATM    1  C1  UNL     1     -33.378  16.442  -2.455  1.00 20.00    -0.025 C 
HETATM    2  C2  UNL     1     -33.730  16.193  -3.732  1.00 20.00    -0.051 C 
HETATM    3  C3  UNL     1     -33.635  17.682  -1.660  1.00 20.00     0.036 C 
ENDROOT
BRANCH   2   4
HETATM    4  C5  UNL     1     -33.391  14.859  -4.355  1.00 20.00     0.198 C 
BRANCH   4   5
HETATM    5  O7  UNL     1     -31.983  14.753  -4.517  1.00 20.00    -0.397 OA
HETATM    6  H20 UNL     1     -31.679  15.597  -4.885  1.00 20.00     0.209 HD
ENDBRANCH   4   5
ENDBRANCH   2   4
BRANCH   2   7
HETATM    7  C6  UNL     1     -34.435  17.184  -4.625  1.00 20.00     0.109 C 
BRANCH   7   8
HETATM    8  S8  UNL     1     -34.965  16.395  -6.170  1.00 20.00    -0.169 SA
HETATM    9  C4  UNL     1     -36.697  16.111  -5.740  1.00 20.00     0.090 C 
ENDBRANCH   7   8
ENDBRANCH   2   7
TORSDOF 4
ENDMDL
MODEL 4
REMARK VINA RESULT:      -3.4     12.573     13.703
REMARK  4 active torsions:
REMARK  status: ('A' for Active; 'I' for Inactive)
REMARK    1  A    between atoms: C2_2  and  C5_5 
REMARK    2  A    between atoms: C2_2  and  C6_6 
REMARK    3  A    between atoms: C5_5  and  O7_7 
REMARK    4  A    between atoms: C6_6  and  S8_8 
ROOT
HETATM    1  C1  UNL     1     -33.361  16.065  -3.181  1.00 20.00    -0.025 C 
HETATM    2  C2  UNL     1     -34.067  16.074  -4.329  1.00 20.00    -0.051 C 
HETATM    3  C3  UNL     1     -33.448  17.033  -2.045  1.00 20.00     0.036 C 
ENDROOT
BRANCH   2   4
HETATM    4  C5  UNL     1     -33.843  14.986  -5.354  1.00 20.00     0.198 C 
BRANCH   4   5
HETATM    5  O7  UNL     1     -33.231  13.864  -4.731  1.00 20.00    -0.397 OA
HETATM    6  H20 UNL     1     -32.675  14.211  -4.015  1.00 20.00     0.209 HD
ENDBRANCH   4   5
ENDBRANCH   2   4
BRANCH   2   7
HETATM    7  C6  UNL     1     -35.076  17.134  -4.694  1.00 20.00     0.109 C 
BRANCH   7   8
HETATM    8  S8  UNL     1     -34.259  18.570  -5.445  1.00 20.00    -0.169 SA
HETATM    9  C4  UNL     1     -34.596  18.187  -7.179  1.00 20.00     0.090 C 
ENDBRANCH   7   8
ENDBRANCH   2   7
TORSDOF 4
ENDMDL
MODEL 5
REMARK VINA RESULT:      -3.2     12.683     13.602
REMARK  4 active torsions:
REMARK  status: ('A' for Active; 'I' for Inactive)
REMARK    1  A    between atoms: C2_2  and  C5_5 
REMARK    2  A    between atoms: C2_2  and  C6_6 
REMARK    3  A    between atoms: C5_5  and  O7_7 
REMARK    4  A    between atoms: C6_6  and  S8_8 
ROOT
HETATM    1  C1  UNL     1     -33.554  15.784  -3.509  1.00 20.00    -0.025 C 
HETATM    2  C2  UNL     1     -34.139  15.997  -4.705  1.00 20.00    -0.051 C 
HETATM    3  C3  UNL     1     -33.254  16.790  -2.445  1.00 20.00     0.036 C 
ENDROOT
BRANCH   2   4
HETATM    4  C5  UNL     1     -34.373  14.833  -5.641  1.00 20.00     0.198 C 
BRANCH   4   5
HETATM    5  O7  UNL     1     -33.315  14.765  -6.588  1.00 20.00    -0.397 OA
HETATM    6  H20 UNL     1     -33.702  14.964  -7.455  1.00 20.00     0.209 HD
ENDBRANCH   4   5
ENDBRANCH   2   4
BRANCH   2   7
HETATM    7  C6  UNL     1     -34.567  17.353  -5.208  1.00 20.00     0.109 C 
BRANCH   7   8
HETATM    8  S8  UNL     1     -36.361  17.566  -5.037  1.00 20.00    -0.169 SA
HETATM    9  C4  UNL     1     -36.361  18.621  -3.570  1.00 20.00     0.090 C 
ENDBRANCH   7   8
ENDBRANCH   2   7
TORSDOF 4
ENDMDL
MODEL 6
REMARK VINA RESULT:      -3.2      9.753     10.733
REMARK  4 active torsions:
REMARK  status: ('A' for Active; 'I' for Inactive)
REMARK    1  A    between atoms: C2_2  and  C5_5 
REMARK    2  A    between atoms: C2_2  and  C6_6 
REMARK    3  A    between atoms: C5_5  and  O7_7 
REMARK    4  A    between atoms: C6_6  and  S8_8 
ROOT
HETATM    1  C1  UNL     1     -40.364  12.057   5.831  1.00 20.00    -0.025 C 
HETATM    2  C2  UNL     1     -41.081  13.021   6.442  1.00 20.00    -0.051 C 
HETATM    3  C3  UNL     1     -38.905  12.070   5.505  1.00 20.00     0.036 C 
ENDROOT
BRANCH   2   4
HETATM    4  C5  UNL     1     -42.555  12.807   6.700  1.00 20.00     0.198 C 
BRANCH   4   5
HETATM    5  O7  UNL     1     -42.748  11.557   7.349  1.00 20.00    -0.397 OA
HETATM    6  H20 UNL     1     -42.063  11.488   8.032  1.00 20.00     0.209 HD
ENDBRANCH   4   5
ENDBRANCH   2   4
BRANCH   2   7
HETATM    7  C6  UNL     1     -40.516  14.350   6.879  1.00 20.00     0.109 C 
BRANCH   7   8
HETATM    8  S8  UNL     1     -40.457  14.461   8.689  1.00 20.00    -0.169 SA
HETATM    9  C4  UNL     1     -40.674  16.247   8.851  1.00 20.00     0.090 C 
ENDBRANCH   7   8
ENDBRANCH   2   7
TORSDOF 4
ENDMDL
MODEL 7
REMARK VINA RESULT:      -3.2      2.338      3.365
REMARK  4 active torsions:
REMARK  status: ('A' for Active; 'I' for Inactive)
REMARK    1  A    between atoms: C2_2  and  C5_5 
REMARK    2  A    between atoms: C2_2  and  C6_6 
REMARK    3  A    between atoms: C5_5  and  O7_7 
REMARK    4  A    between atoms: C6_6  and  S8_8 
ROOT
HETATM    1  C1  UNL     1     -33.034   7.965   5.132  1.00 20.00    -0.025 C 
HETATM    2  C2  UNL     1     -33.971   7.016   5.326  1.00 20.00    -0.051 C 
HETATM    3  C3  UNL     1     -32.525   8.497   3.831  1.00 20.00     0.036 C 
ENDROOT
BRANCH   2   4
HETATM    4  C5  UNL     1     -34.363   6.628   6.733  1.00 20.00     0.198 C 
BRANCH   4   5
HETATM    5  O7  UNL     1     -35.151   5.445   6.699  1.00 20.00    -0.397 OA
HETATM    6  H20 UNL     1     -34.551   4.716   6.475  1.00 20.00     0.209 HD
ENDBRANCH   4   5
ENDBRANCH   2   4
BRANCH   2   7
HETATM    7  C6  UNL     1     -34.663   6.269   4.213  1.00 20.00     0.109 C 
BRANCH   7   8
HETATM    8  S8  UNL     1     -33.853   4.675   3.906  1.00 20.00    -0.169 SA
HETATM    9  C4  UNL     1     -32.858   5.157   2.476  1.00 20.00     0.090 C 
ENDBRANCH   7   8
ENDBRANCH   2   7
TORSDOF 4
ENDMDL
MODEL 8
REMARK VINA RESULT:      -3.1     15.245     15.896
REMARK  4 active torsions:
REMARK  status: ('A' for Active; 'I' for Inactive)
REMARK    1  A    between atoms: C2_2  and  C5_5 
REMARK    2  A    between atoms: C2_2  and  C6_6 
REMARK    3  A    between atoms: C5_5  and  O7_7 
REMARK    4  A    between atoms: C6_6  and  S8_8 
ROOT
HETATM    1  C1  UNL     1     -24.676  17.388  10.998  1.00 20.00    -0.025 C 
HETATM    2  C2  UNL     1     -23.927  17.947  10.027  1.00 20.00    -0.051 C 
HETATM    3  C3  UNL     1     -24.352  16.186  11.825  1.00 20.00     0.036 C 
ENDROOT
BRANCH   2   4
HETATM    4  C5  UNL     1     -24.428  19.182   9.314  1.00 20.00     0.198 C 
BRANCH   4   5
HETATM    5  O7  UNL     1     -25.849  19.200   9.333  1.00 20.00    -0.397 OA
HETATM    6  H20 UNL     1     -26.112  19.680  10.134  1.00 20.00     0.209 HD
ENDBRANCH   4   5
ENDBRANCH   2   4
BRANCH   2   7
HETATM    7  C6  UNL     1     -22.598  17.404   9.563  1.00 20.00     0.109 C 
BRANCH   7   8
HETATM    8  S8  UNL     1     -21.533  18.742   8.956  1.00 20.00    -0.169 SA
HETATM    9  C4  UNL     1     -21.293  18.141   7.269  1.00 20.00     0.090 C 
ENDBRANCH   7   8
ENDBRANCH   2   7
TORSDOF 4
ENDMDL
MODEL 9
REMARK VINA RESULT:      -3.1      2.412      3.494
REMARK  4 active torsions:
REMARK  status: ('A' for Active; 'I' for Inactive)
REMARK    1  A    between atoms: C2_2  and  C5_5 
REMARK    2  A    between atoms: C2_2  and  C6_6 
REMARK    3  A    between atoms: C5_5  and  O7_7 
REMARK    4  A    between atoms: C6_6  and  S8_8 
ROOT
HETATM    1  C1  UNL     1     -33.667   5.270   4.058  1.00 20.00    -0.025 C 
HETATM    2  C2  UNL     1     -34.053   6.263   4.883  1.00 20.00    -0.051 C 
HETATM    3  C3  UNL     1     -33.147   5.391   2.661  1.00 20.00     0.036 C 
ENDROOT
BRANCH   2   4
HETATM    4  C5  UNL     1     -34.535   5.933   6.277  1.00 20.00     0.198 C 
BRANCH   4   5
HETATM    5  O7  UNL     1     -35.267   4.715   6.251  1.00 20.00    -0.397 OA
HETATM    6  H20 UNL     1     -34.670   4.022   6.575  1.00 20.00     0.209 HD
ENDBRANCH   4   5
ENDBRANCH   2   4
BRANCH   2   7
HETATM    7  C6  UNL     1     -34.068   7.723   4.503  1.00 20.00     0.109 C 
BRANCH   7   8
HETATM    8  S8  UNL     1     -32.384   8.397   4.472  1.00 20.00    -0.169 SA
HETATM    9  C4  UNL     1     -32.349   8.941   2.749  1.00 20.00     0.090 C 
ENDBRANCH   7   8
ENDBRANCH   2   7
TORSDOF 4
ENDMDL
