MODEL 1
REMARK VINA RESULT:      -4.7      0.000      0.000
REMARK  2 active torsions:
REMARK  status: ('A' for Active; 'I' for Inactive)
REMARK    1  A    between atoms: C1_1  and  C2_2 
REMARK    2  A    between atoms: C2_2  and  C3_3 
ROOT
HETATM    1  C2  UNL     1     -34.342   6.446   4.848  1.00 20.00     0.203 C 
HETATM    2 CL8  UNL     1     -33.202   7.702   4.270  1.00 20.00    -0.115 Cl
ENDROOT
BRANCH   1   3
HETATM    3  C1  UNL     1     -34.175   5.155   4.049  1.00 20.00     0.143 C 
HETATM    4 CL7  UNL     1     -32.987   5.336   2.732  1.00 20.00    -0.129 Cl
ENDBRANCH   1   3
BRANCH   1   5
HETATM    5  C3  UNL     1     -34.102   6.210   6.329  1.00 20.00     0.405 C 
HETATM    6  F4  UNL     1     -33.973   4.897   6.614  1.00 20.00    -0.169 F 
HETATM    7  F5  UNL     1     -32.974   6.832   6.737  1.00 20.00    -0.169 F 
HETATM    8  F6  UNL     1     -35.119   6.699   7.073  1.00 20.00    -0.169 F 
ENDBRANCH   1   5
TORSDOF 2
ENDMDL
MODEL 2
REMARK VINA RESULT:      -4.7      1.669      2.724
REMARK  2 active torsions:
REMARK  status: ('A' for Active; 'I' for Inactive)
REMARK    1  A    between atoms: C1_1  and  C2_2 
REMARK    2  A    between atoms: C2_2  and  C3_3 
ROOT
HETATM    1  C2  UNL     1     -33.544   6.392   4.633  1.00 20.00     0.203 C 
HETATM    2 CL8  UNL     1     -32.970   5.967   2.990  1.00 20.00    -0.115 Cl
ENDROOT
BRANCH   1   3
HETATM    3  C1  UNL     1     -33.828   7.890   4.736  1.00 20.00     0.143 C 
HETATM    4 CL7  UNL     1     -32.327   8.847   4.829  1.00 20.00    -0.129 Cl
ENDBRANCH   1   3
BRANCH   1   5
HETATM    5  C3  UNL     1     -34.786   5.576   4.946  1.00 20.00     0.405 C 
HETATM    6  F4  UNL     1     -35.870   6.036   4.287  1.00 20.00    -0.169 F 
HETATM    7  F5  UNL     1     -34.610   4.282   4.594  1.00 20.00    -0.169 F 
HETATM    8  F6  UNL     1     -35.064   5.595   6.268  1.00 20.00    -0.169 F 
ENDBRANCH   1   5
TORSDOF 2
ENDMDL
MODEL 3
REMARK VINA RESULT:      -4.7      1.664      2.789
REMARK  2 active torsions:
REMARK  status: ('A' for Active; 'I' for Inactive)
REMARK    1  A    between atoms: C1_1  and  C2_2 
REMARK    2  A    between atoms: C2_2  and  C3_3 
ROOT
HETATM    1  C2  UNL     1     -33.534   6.390   4.638  1.00 20.00     0.203 C 
HETATM    2 CL8  UNL     1     -32.973   5.969   2.990  1.00 20.00    -0.115 Cl
ENDROOT
BRANCH   1   3
HETATM    3  C1  UNL     1     -33.827   7.886   4.745  1.00 20.00     0.143 C 
HETATM    4 CL7  UNL     1     -32.331   8.853   4.830  1.00 20.00    -0.129 Cl
ENDBRANCH   1   3
BRANCH   1   5
HETATM    5  C3  UNL     1     -34.766   5.565   4.963  1.00 20.00     0.405 C 
HETATM    6  F4  UNL     1     -35.052   5.586   6.283  1.00 20.00    -0.169 F 
HETATM    7  F5  UNL     1     -35.847   6.037   4.302  1.00 20.00    -0.169 F 
HETATM    8  F6  UNL     1     -34.604   4.276   4.594  1.00 20.00    -0.169 F 
ENDBRANCH   1   5
TORSDOF 2
ENDMDL
MODEL 4
REMARK VINA RESULT:      -4.6      2.764      3.582
REMARK  2 active torsions:
REMARK  status: ('A' for Active; 'I' for Inactive)
REMARK    1  A    between atoms: C1_1  and  C2_2 
REMARK    2  A    between atoms: C2_2  and  C3_3 
ROOT
HETATM    1  C2  UNL     1     -33.683   7.358   4.467  1.00 20.00     0.203 C 
HETATM    2 CL8  UNL     1     -33.508   5.806   3.589  1.00 20.00    -0.115 Cl
ENDROOT
BRANCH   1   3
HETATM    3  C1  UNL     1     -33.743   7.123   5.975  1.00 20.00     0.143 C 
HETATM    4 CL7  UNL     1     -34.612   5.620   6.380  1.00 20.00    -0.129 Cl
ENDBRANCH   1   3
BRANCH   1   5
HETATM    5  C3  UNL     1     -32.521   8.264   4.099  1.00 20.00     0.405 C 
HETATM    6  F4  UNL     1     -32.148   9.048   5.132  1.00 20.00    -0.169 F 
HETATM    7  F5  UNL     1     -31.445   7.536   3.727  1.00 20.00    -0.169 F 
HETATM    8  F6  UNL     1     -32.837   9.068   3.060  1.00 20.00    -0.169 F 
ENDBRANCH   1   5
TORSDOF 2
ENDMDL
MODEL 5
REMARK VINA RESULT:      -4.6      2.259      2.973
REMARK  2 active torsions:
REMARK  status: ('A' for Active; 'I' for Inactive)
REMARK    1  A    between atoms: C1_1  and  C2_2 
REMARK    2  A    between atoms: C2_2  and  C3_3 
ROOT
HETATM    1  C2  UNL     1     -34.164   7.000   4.942  1.00 20.00     0.203 C 
HETATM    2 CL8  UNL     1     -33.727   6.894   6.676  1.00 20.00    -0.115 Cl
ENDROOT
BRANCH   1   3
HETATM    3  C1  UNL     1     -32.955   7.409   4.103  1.00 20.00     0.143 C 
HETATM    4 CL7  UNL     1     -32.198   8.905   4.710  1.00 20.00    -0.129 Cl
ENDBRANCH   1   3
BRANCH   1   5
HETATM    5  C3  UNL     1     -34.715   5.658   4.492  1.00 20.00     0.405 C 
HETATM    6  F4  UNL     1     -34.636   4.729   5.468  1.00 20.00    -0.169 F 
HETATM    7  F5  UNL     1     -36.014   5.769   4.136  1.00 20.00    -0.169 F 
HETATM    8  F6  UNL     1     -34.045   5.189   3.417  1.00 20.00    -0.169 F 
ENDBRANCH   1   5
TORSDOF 2
ENDMDL
MODEL 6
REMARK VINA RESULT:      -4.6      2.763      3.524
REMARK  2 active torsions:
REMARK  status: ('A' for Active; 'I' for Inactive)
REMARK    1  A    between atoms: C1_1  and  C2_2 
REMARK    2  A    between atoms: C2_2  and  C3_3 
ROOT
HETATM    1  C2  UNL     1     -33.693   7.362   4.480  1.00 20.00     0.203 C 
HETATM    2 CL8  UNL     1     -33.541   5.807   3.603  1.00 20.00    -0.115 Cl
ENDROOT
BRANCH   1   3
HETATM    3  C1  UNL     1     -33.746   7.130   5.989  1.00 20.00     0.143 C 
HETATM    4 CL7  UNL     1     -34.605   5.623   6.401  1.00 20.00    -0.129 Cl
ENDBRANCH   1   3
BRANCH   1   5
HETATM    5  C3  UNL     1     -32.524   8.255   4.102  1.00 20.00     0.405 C 
HETATM    6  F4  UNL     1     -31.445   7.537   3.724  1.00 20.00    -0.169 F 
HETATM    7  F5  UNL     1     -32.854   9.070   3.076  1.00 20.00    -0.169 F 
HETATM    8  F6  UNL     1     -32.156   9.044   5.136  1.00 20.00    -0.169 F 
ENDBRANCH   1   5
TORSDOF 2
ENDMDL
MODEL 7
REMARK VINA RESULT:      -4.6      2.244      2.826
REMARK  2 active torsions:
REMARK  status: ('A' for Active; 'I' for Inactive)
REMARK    1  A    between atoms: C1_1  and  C2_2 
REMARK    2  A    between atoms: C2_2  and  C3_3 
ROOT
HETATM    1  C2  UNL     1     -34.155   6.997   4.937  1.00 20.00     0.203 C 
HETATM    2 CL8  UNL     1     -33.722   6.905   6.673  1.00 20.00    -0.115 Cl
ENDROOT
BRANCH   1   3
HETATM    3  C1  UNL     1     -32.945   7.403   4.098  1.00 20.00     0.143 C 
HETATM    4 CL7  UNL     1     -32.194   8.906   4.696  1.00 20.00    -0.129 Cl
ENDBRANCH   1   3
BRANCH   1   5
HETATM    5  C3  UNL     1     -34.703   5.651   4.496  1.00 20.00     0.405 C 
HETATM    6  F4  UNL     1     -34.012   5.145   3.452  1.00 20.00    -0.169 F 
HETATM    7  F5  UNL     1     -34.638   4.753   5.504  1.00 20.00    -0.169 F 
HETATM    8  F6  UNL     1     -36.000   5.747   4.129  1.00 20.00    -0.169 F 
ENDBRANCH   1   5
TORSDOF 2
ENDMDL
MODEL 8
REMARK VINA RESULT:      -4.6      2.764      3.642
REMARK  2 active torsions:
REMARK  status: ('A' for Active; 'I' for Inactive)
REMARK    1  A    between atoms: C1_1  and  C2_2 
REMARK    2  A    between atoms: C2_2  and  C3_3 
ROOT
HETATM    1  C2  UNL     1     -33.679   7.359   4.463  1.00 20.00     0.203 C 
HETATM    2 CL8  UNL     1     -33.512   5.803   3.590  1.00 20.00    -0.115 Cl
ENDROOT
BRANCH   1   3
HETATM    3  C1  UNL     1     -33.732   7.129   5.973  1.00 20.00     0.143 C 
HETATM    4 CL7  UNL     1     -34.579   5.616   6.387  1.00 20.00    -0.129 Cl
ENDBRANCH   1   3
BRANCH   1   5
HETATM    5  C3  UNL     1     -32.518   8.261   4.086  1.00 20.00     0.405 C 
HETATM    6  F4  UNL     1     -32.826   9.070   3.050  1.00 20.00    -0.169 F 
HETATM    7  F5  UNL     1     -32.163   9.047   5.127  1.00 20.00    -0.169 F 
HETATM    8  F6  UNL     1     -31.430   7.540   3.739  1.00 20.00    -0.169 F 
ENDBRANCH   1   5
TORSDOF 2
ENDMDL
MODEL 9
REMARK VINA RESULT:      -4.4      1.314      1.680
REMARK  2 active torsions:
REMARK  status: ('A' for Active; 'I' for Inactive)
REMARK    1  A    between atoms: C1_1  and  C2_2 
REMARK    2  A    between atoms: C2_2  and  C3_3 
ROOT
HETATM    1  C2  UNL     1     -34.052   6.295   4.851  1.00 20.00     0.203 C 
HETATM    2 CL8  UNL     1     -35.728   5.977   4.303  1.00 20.00    -0.115 Cl
ENDROOT
BRANCH   1   3
HETATM    3  C1  UNL     1     -33.585   7.675   4.394  1.00 20.00     0.143 C 
HETATM    4 CL7  UNL     1     -32.120   7.581   3.381  1.00 20.00    -0.129 Cl
ENDBRANCH   1   3
BRANCH   1   5
HETATM    5  C3  UNL     1     -33.999   6.171   6.364  1.00 20.00     0.405 C 
HETATM    6  F4  UNL     1     -33.868   4.887   6.760  1.00 20.00    -0.169 F 
HETATM    7  F5  UNL     1     -32.953   6.864   6.866  1.00 20.00    -0.169 F 
HETATM    8  F6  UNL     1     -35.118   6.669   6.935  1.00 20.00    -0.169 F 
ENDBRANCH   1   5
TORSDOF 2
ENDMDL
