MODEL 1
REMARK VINA RESULT:      -3.2      0.000      0.000
REMARK  0 active torsions:
REMARK  status: ('A' for Active; 'I' for Inactive)
ROOT
HETATM    1  C1  UNL     1     -26.641  17.340  12.206  1.00 20.00     0.002 C 
HETATM    2  C2  UNL     1     -26.610  18.869  12.249  1.00 20.00     0.002 C 
HETATM    3  C3  UNL     1     -25.183  16.881  12.263  1.00 20.00     0.032 C 
HETATM    4  C4  UNL     1     -25.133  19.263  12.324  1.00 20.00     0.032 C 
HETATM    5  C5  UNL     1     -21.882  18.527  10.758  1.00 20.00     0.086 C 
HETATM    6  C6  UNL     1     -22.630  17.831   9.641  1.00 20.00     0.086 C 
HETATM    7  C7  UNL     1     -24.375  18.070  11.735  1.00 20.00     0.056 C 
HETATM    8  S8  UNL     1     -22.647  18.017  12.314  1.00 20.00    -0.147 SA
HETATM    9  S9  UNL     1     -24.398  18.125   9.897  1.00 20.00    -0.147 SA
ENDROOT
TORSDOF 0
ENDMDL
MODEL 2
REMARK VINA RESULT:      -3.1     15.922     16.771
REMARK  0 active torsions:
REMARK  status: ('A' for Active; 'I' for Inactive)
ROOT
HETATM    1  C1  UNL     1     -31.833  18.644  -0.523  1.00 20.00     0.002 C 
HETATM    2  C2  UNL     1     -33.106  18.241   0.223  1.00 20.00     0.002 C 
HETATM    3  C3  UNL     1     -32.279  19.092  -1.916  1.00 20.00     0.032 C 
HETATM    4  C4  UNL     1     -34.262  18.459  -0.756  1.00 20.00     0.032 C 
HETATM    5  C5  UNL     1     -35.237  17.786  -4.243  1.00 20.00     0.086 C 
HETATM    6  C6  UNL     1     -34.084  16.808  -4.327  1.00 20.00     0.086 C 
HETATM    7  C7  UNL     1     -33.621  18.393  -2.145  1.00 20.00     0.056 C 
HETATM    8  S8  UNL     1     -34.627  19.260  -3.393  1.00 20.00    -0.147 SA
HETATM    9  S9  UNL     1     -33.378  16.647  -2.668  1.00 20.00    -0.147 SA
ENDROOT
TORSDOF 0
ENDMDL
MODEL 3
REMARK VINA RESULT:      -3.0     19.243     20.080
REMARK  0 active torsions:
REMARK  status: ('A' for Active; 'I' for Inactive)
ROOT
HETATM    1  C1  UNL     1     -35.117  15.583  -7.879  1.00 20.00     0.002 C 
HETATM    2  C2  UNL     1     -36.339  15.252  -7.021  1.00 20.00     0.002 C 
HETATM    3  C3  UNL     1     -33.901  15.443  -6.962  1.00 20.00     0.032 C 
HETATM    4  C4  UNL     1     -35.805  14.932  -5.623  1.00 20.00     0.032 C 
HETATM    5  C5  UNL     1     -33.474  16.215  -3.077  1.00 20.00     0.086 C 
HETATM    6  C6  UNL     1     -33.434  17.522  -3.840  1.00 20.00     0.086 C 
HETATM    7  C7  UNL     1     -34.450  15.640  -5.547  1.00 20.00     0.056 C 
HETATM    8  S8  UNL     1     -33.363  14.882  -4.294  1.00 20.00    -0.147 SA
HETATM    9  S9  UNL     1     -34.667  17.425  -5.162  1.00 20.00    -0.147 SA
ENDROOT
TORSDOF 0
ENDMDL
MODEL 4
REMARK VINA RESULT:      -3.0     15.728     16.541
REMARK  0 active torsions:
REMARK  status: ('A' for Active; 'I' for Inactive)
ROOT
HETATM    1  C1  UNL     1     -33.497  18.505   0.491  1.00 20.00     0.002 C 
HETATM    2  C2  UNL     1     -32.362  19.263  -0.200  1.00 20.00     0.002 C 
HETATM    3  C3  UNL     1     -33.926  17.402  -0.478  1.00 20.00     0.032 C 
HETATM    4  C4  UNL     1     -32.162  18.585  -1.558  1.00 20.00     0.032 C 
HETATM    5  C5  UNL     1     -34.065  17.351  -4.459  1.00 20.00     0.086 C 
HETATM    6  C6  UNL     1     -35.263  18.118  -3.941  1.00 20.00     0.086 C 
HETATM    7  C7  UNL     1     -33.499  17.903  -1.860  1.00 20.00     0.056 C 
HETATM    8  S8  UNL     1     -33.302  16.529  -3.041  1.00 20.00    -0.147 SA
HETATM    9  S9  UNL     1     -34.711  19.112  -2.532  1.00 20.00    -0.147 SA
ENDROOT
TORSDOF 0
ENDMDL
MODEL 5
REMARK VINA RESULT:      -2.9     19.636     20.518
REMARK  0 active torsions:
REMARK  status: ('A' for Active; 'I' for Inactive)
ROOT
HETATM    1  C1  UNL     1     -33.293  15.826  -3.853  1.00 20.00     0.002 C 
HETATM    2  C2  UNL     1     -33.715  14.391  -4.172  1.00 20.00     0.002 C 
HETATM    3  C3  UNL     1     -34.440  16.723  -4.320  1.00 20.00     0.032 C 
HETATM    4  C4  UNL     1     -35.097  14.488  -4.823  1.00 20.00     0.032 C 
HETATM    5  C5  UNL     1     -36.925  16.361  -7.414  1.00 20.00     0.086 C 
HETATM    6  C6  UNL     1     -35.592  16.872  -7.918  1.00 20.00     0.086 C 
HETATM    7  C7  UNL     1     -35.166  15.907  -5.393  1.00 20.00     0.056 C 
HETATM    8  S8  UNL     1     -36.888  16.463  -5.609  1.00 20.00    -0.147 SA
HETATM    9  S9  UNL     1     -34.290  16.005  -7.007  1.00 20.00    -0.147 SA
ENDROOT
TORSDOF 0
ENDMDL
MODEL 6
REMARK VINA RESULT:      -2.9     17.096     17.981
REMARK  0 active torsions:
REMARK  status: ('A' for Active; 'I' for Inactive)
ROOT
HETATM    1  C1  UNL     1     -32.885  17.808  -1.153  1.00 20.00     0.002 C 
HETATM    2  C2  UNL     1     -32.432  19.102  -1.832  1.00 20.00     0.002 C 
HETATM    3  C3  UNL     1     -33.652  17.016  -2.213  1.00 20.00     0.032 C 
HETATM    4  C4  UNL     1     -32.950  19.034  -3.270  1.00 20.00     0.032 C 
HETATM    5  C5  UNL     1     -35.993  18.252  -5.191  1.00 20.00     0.086 C 
HETATM    6  C6  UNL     1     -36.774  18.326  -3.895  1.00 20.00     0.086 C 
HETATM    7  C7  UNL     1     -34.135  18.066  -3.217  1.00 20.00     0.056 C 
HETATM    8  S8  UNL     1     -34.477  17.328  -4.849  1.00 20.00    -0.147 SA
HETATM    9  S9  UNL     1     -35.647  18.919  -2.608  1.00 20.00    -0.147 SA
ENDROOT
TORSDOF 0
ENDMDL
MODEL 7
REMARK VINA RESULT:      -2.9     17.462     18.291
REMARK  0 active torsions:
REMARK  status: ('A' for Active; 'I' for Inactive)
ROOT
HETATM    1  C1  UNL     1     -34.269  18.490  -1.233  1.00 20.00     0.002 C 
HETATM    2  C2  UNL     1     -33.252  17.385  -1.526  1.00 20.00     0.002 C 
HETATM    3  C3  UNL     1     -35.213  18.530  -2.436  1.00 20.00     0.032 C 
HETATM    4  C4  UNL     1     -33.626  16.812  -2.894  1.00 20.00     0.032 C 
HETATM    5  C5  UNL     1     -34.522  17.875  -6.304  1.00 20.00     0.086 C 
HETATM    6  C6  UNL     1     -34.031  19.263  -5.951  1.00 20.00     0.086 C 
HETATM    7  C7  UNL     1     -34.407  17.930  -3.590  1.00 20.00     0.056 C 
HETATM    8  S8  UNL     1     -35.493  17.278  -4.901  1.00 20.00    -0.147 SA
HETATM    9  S9  UNL     1     -33.261  19.173  -4.315  1.00 20.00    -0.147 SA
ENDROOT
TORSDOF 0
ENDMDL
MODEL 8
REMARK VINA RESULT:      -2.9     18.920     19.750
REMARK  0 active torsions:
REMARK  status: ('A' for Active; 'I' for Inactive)
ROOT
HETATM    1  C1  UNL     1     -35.869  14.822  -6.590  1.00 20.00     0.002 C 
HETATM    2  C2  UNL     1     -34.754  15.495  -7.392  1.00 20.00     0.002 C 
HETATM    3  C3  UNL     1     -36.104  15.703  -5.362  1.00 20.00     0.032 C 
HETATM    4  C4  UNL     1     -34.363  16.750  -6.609  1.00 20.00     0.032 C 
HETATM    5  C5  UNL     1     -33.557  17.867  -3.193  1.00 20.00     0.086 C 
HETATM    6  C6  UNL     1     -33.415  16.411  -2.801  1.00 20.00     0.086 C 
HETATM    7  C7  UNL     1     -34.790  16.464  -5.166  1.00 20.00     0.056 C 
HETATM    8  S8  UNL     1     -35.039  18.001  -4.220  1.00 20.00    -0.147 SA
HETATM    9  S9  UNL     1     -33.540  15.421  -4.311  1.00 20.00    -0.147 SA
ENDROOT
TORSDOF 0
ENDMDL
MODEL 9
REMARK VINA RESULT:      -2.8     19.672     20.531
REMARK  0 active torsions:
REMARK  status: ('A' for Active; 'I' for Inactive)
ROOT
HETATM    1  C1  UNL     1     -33.645  14.590  -4.511  1.00 20.00     0.002 C 
HETATM    2  C2  UNL     1     -33.773  15.834  -3.630  1.00 20.00     0.002 C 
HETATM    3  C3  UNL     1     -33.909  15.053  -5.944  1.00 20.00     0.032 C 
HETATM    4  C4  UNL     1     -34.113  16.991  -4.572  1.00 20.00     0.032 C 
HETATM    5  C5  UNL     1     -36.360  17.859  -7.358  1.00 20.00     0.086 C 
HETATM    6  C6  UNL     1     -37.173  16.626  -7.025  1.00 20.00     0.086 C 
HETATM    7  C7  UNL     1     -34.744  16.328  -5.799  1.00 20.00     0.056 C 
HETATM    8  S8  UNL     1     -34.616  17.387  -7.278  1.00 20.00    -0.147 SA
HETATM    9  S9  UNL     1     -36.513  15.931  -5.489  1.00 20.00    -0.147 SA
ENDROOT
TORSDOF 0
ENDMDL
