MODEL 1
REMARK VINA RESULT:      -4.1      0.000      0.000
REMARK  0 active torsions:
REMARK  status: ('A' for Active; 'I' for Inactive)
ROOT
HETATM    1  C1  UNL     1     -35.126   5.678   5.120  1.00 20.00     0.050 C 
HETATM    2  C2  UNL     1     -34.235   5.566   6.346  1.00 20.00     0.171 C 
HETATM    3  C3  UNL     1     -34.336   6.603   4.218  1.00 20.00     0.128 C 
HETATM    4  C4  UNL     1     -33.756   7.561   5.252  1.00 20.00     0.235 C 
HETATM    5  O5  UNL     1     -33.460   6.775   6.417  1.00 20.00    -0.369 OA
HETATM    6 CL6  UNL     1     -33.092   5.659   3.343  1.00 20.00    -0.121 Cl
HETATM    7 CL7  UNL     1     -32.337   8.479   4.733  1.00 20.00    -0.094 Cl
ENDROOT
TORSDOF 0
ENDMDL
MODEL 2
REMARK VINA RESULT:      -3.7      2.055      3.219
REMARK  0 active torsions:
REMARK  status: ('A' for Active; 'I' for Inactive)
ROOT
HETATM    1  C1  UNL     1     -33.414   8.371   4.336  1.00 20.00     0.050 C 
HETATM    2  C2  UNL     1     -32.242   7.669   3.671  1.00 20.00     0.171 C 
HETATM    3  C3  UNL     1     -34.168   7.224   4.979  1.00 20.00     0.128 C 
HETATM    4  C4  UNL     1     -33.986   6.149   3.914  1.00 20.00     0.235 C 
HETATM    5  O5  UNL     1     -32.666   6.328   3.375  1.00 20.00    -0.369 OA
HETATM    6 CL6  UNL     1     -33.403   6.815   6.545  1.00 20.00    -0.121 Cl
HETATM    7 CL7  UNL     1     -34.224   4.485   4.460  1.00 20.00    -0.094 Cl
ENDROOT
TORSDOF 0
ENDMDL
MODEL 3
REMARK VINA RESULT:      -3.3     15.408     16.596
REMARK  0 active torsions:
REMARK  status: ('A' for Active; 'I' for Inactive)
ROOT
HETATM    1  C1  UNL     1     -22.792  19.079   9.733  1.00 20.00     0.050 C 
HETATM    2  C2  UNL     1     -22.175  17.806   9.180  1.00 20.00     0.171 C 
HETATM    3  C3  UNL     1     -23.502  18.592  10.979  1.00 20.00     0.128 C 
HETATM    4  C4  UNL     1     -24.011  17.241  10.491  1.00 20.00     0.235 C 
HETATM    5  O5  UNL     1     -22.998  16.712   9.621  1.00 20.00    -0.369 OA
HETATM    6 CL6  UNL     1     -22.325  18.467  12.323  1.00 20.00    -0.121 Cl
HETATM    7 CL7  UNL     1     -24.427  16.078  11.755  1.00 20.00    -0.094 Cl
ENDROOT
TORSDOF 0
ENDMDL
MODEL 4
REMARK VINA RESULT:      -3.3      1.602      2.320
REMARK  0 active torsions:
REMARK  status: ('A' for Active; 'I' for Inactive)
ROOT
HETATM    1  C1  UNL     1     -34.396   6.104   6.184  1.00 20.00     0.050 C 
HETATM    2  C2  UNL     1     -35.212   5.721   4.961  1.00 20.00     0.171 C 
HETATM    3  C3  UNL     1     -33.348   7.033   5.607  1.00 20.00     0.128 C 
HETATM    4  C4  UNL     1     -33.080   6.345   4.274  1.00 20.00     0.235 C 
HETATM    5  O5  UNL     1     -34.340   5.823   3.823  1.00 20.00    -0.369 OA
HETATM    6 CL6  UNL     1     -34.039   8.676   5.437  1.00 20.00    -0.121 Cl
HETATM    7 CL7  UNL     1     -32.333   7.354   3.030  1.00 20.00    -0.094 Cl
ENDROOT
TORSDOF 0
ENDMDL
MODEL 5
REMARK VINA RESULT:      -3.3      9.127      9.787
REMARK  0 active torsions:
REMARK  status: ('A' for Active; 'I' for Inactive)
ROOT
HETATM    1  C1  UNL     1     -40.987   8.316  -0.067  1.00 20.00     0.050 C 
HETATM    2  C2  UNL     1     -42.428   8.368  -0.547  1.00 20.00     0.171 C 
HETATM    3  C3  UNL     1     -40.925   6.987   0.656  1.00 20.00     0.128 C 
HETATM    4  C4  UNL     1     -42.305   6.965   1.303  1.00 20.00     0.235 C 
HETATM    5  O5  UNL     1     -43.206   7.575   0.365  1.00 20.00    -0.369 OA
HETATM    6 CL6  UNL     1     -40.674   5.674  -0.535  1.00 20.00    -0.121 Cl
HETATM    7 CL7  UNL     1     -42.892   5.373   1.798  1.00 20.00    -0.094 Cl
ENDROOT
TORSDOF 0
ENDMDL
MODEL 6
REMARK VINA RESULT:      -3.3     16.312     16.980
REMARK  0 active torsions:
REMARK  status: ('A' for Active; 'I' for Inactive)
ROOT
HETATM    1  C1  UNL     1     -23.547  18.767  12.332  1.00 20.00     0.050 C 
HETATM    2  C2  UNL     1     -22.063  18.442  12.312  1.00 20.00     0.171 C 
HETATM    3  C3  UNL     1     -24.000  18.343  10.950  1.00 20.00     0.128 C 
HETATM    4  C4  UNL     1     -22.789  18.765  10.126  1.00 20.00     0.235 C 
HETATM    5  O5  UNL     1     -21.633  18.516  10.942  1.00 20.00    -0.369 OA
HETATM    6 CL6  UNL     1     -24.292  16.576  10.937  1.00 20.00    -0.121 Cl
HETATM    7 CL7  UNL     1     -22.628  17.984   8.549  1.00 20.00    -0.094 Cl
ENDROOT
TORSDOF 0
ENDMDL
MODEL 7
REMARK VINA RESULT:      -3.2      2.085      3.028
REMARK  0 active torsions:
REMARK  status: ('A' for Active; 'I' for Inactive)
ROOT
HETATM    1  C1  UNL     1     -32.481   8.555   4.812  1.00 20.00     0.050 C 
HETATM    2  C2  UNL     1     -33.914   8.102   5.033  1.00 20.00     0.171 C 
HETATM    3  C3  UNL     1     -32.068   7.768   3.585  1.00 20.00     0.128 C 
HETATM    4  C4  UNL     1     -32.778   6.448   3.858  1.00 20.00     0.235 C 
HETATM    5  O5  UNL     1     -34.027   6.777   4.486  1.00 20.00    -0.369 OA
HETATM    6 CL6  UNL     1     -32.658   8.606   2.117  1.00 20.00    -0.121 Cl
HETATM    7 CL7  UNL     1     -33.034   5.412   2.448  1.00 20.00    -0.094 Cl
ENDROOT
TORSDOF 0
ENDMDL
MODEL 8
REMARK VINA RESULT:      -3.2      2.125      2.414
REMARK  0 active torsions:
REMARK  status: ('A' for Active; 'I' for Inactive)
ROOT
HETATM    1  C1  UNL     1     -33.785   4.596   4.014  1.00 20.00     0.050 C 
HETATM    2  C2  UNL     1     -33.134   5.387   2.892  1.00 20.00     0.171 C 
HETATM    3  C3  UNL     1     -34.391   5.681   4.879  1.00 20.00     0.128 C 
HETATM    4  C4  UNL     1     -33.312   6.752   4.766  1.00 20.00     0.235 C 
HETATM    5  O5  UNL     1     -32.805   6.681   3.424  1.00 20.00    -0.369 OA
HETATM    6 CL6  UNL     1     -35.966   6.180   4.190  1.00 20.00    -0.121 Cl
HETATM    7 CL7  UNL     1     -33.823   8.397   5.162  1.00 20.00    -0.094 Cl
ENDROOT
TORSDOF 0
ENDMDL
MODEL 9
REMARK VINA RESULT:      -3.1     16.423     16.621
REMARK  0 active torsions:
REMARK  status: ('A' for Active; 'I' for Inactive)
ROOT
HETATM    1  C1  UNL     1     -21.542  18.287   9.577  1.00 20.00     0.050 C 
HETATM    2  C2  UNL     1     -21.661  17.838   8.130  1.00 20.00     0.171 C 
HETATM    3  C3  UNL     1     -22.975  18.614   9.943  1.00 20.00     0.128 C 
HETATM    4  C4  UNL     1     -23.456  19.228   8.634  1.00 20.00     0.235 C 
HETATM    5  O5  UNL     1     -22.815  18.494   7.579  1.00 20.00    -0.369 OA
HETATM    6 CL6  UNL     1     -23.835  17.106  10.383  1.00 20.00    -0.121 Cl
HETATM    7 CL7  UNL     1     -25.208  19.262   8.404  1.00 20.00    -0.094 Cl
ENDROOT
TORSDOF 0
ENDMDL
