MODEL 1
REMARK VINA RESULT:      -3.7      0.000      0.000
REMARK  0 active torsions:
REMARK  status: ('A' for Active; 'I' for Inactive)
ROOT
HETATM    1  C1  UNL     1     -33.950   4.820   3.977  1.00 20.00     0.051 C 
HETATM    2  C2  UNL     1     -33.900   7.223   4.717  1.00 20.00     0.051 C 
HETATM    3  C3  UNL     1     -34.645   5.431   6.315  1.00 20.00     0.051 C 
HETATM    4  C4  UNL     1     -34.601   5.879   4.860  1.00 20.00     0.092 C 
HETATM    5  F5  UNL     1     -35.890   6.037   4.435  1.00 20.00    -0.244 F 
ENDROOT
TORSDOF 0
ENDMDL
MODEL 2
REMARK VINA RESULT:      -3.7      0.027      1.947
REMARK  0 active torsions:
REMARK  status: ('A' for Active; 'I' for Inactive)
ROOT
HETATM    1  C1  UNL     1     -34.675   5.415   6.306  1.00 20.00     0.051 C 
HETATM    2  C2  UNL     1     -33.951   4.804   3.977  1.00 20.00     0.051 C 
HETATM    3  C3  UNL     1     -33.910   7.206   4.715  1.00 20.00     0.051 C 
HETATM    4  C4  UNL     1     -34.613   5.861   4.850  1.00 20.00     0.092 C 
HETATM    5  F5  UNL     1     -35.896   6.017   4.410  1.00 20.00    -0.244 F 
ENDROOT
TORSDOF 0
ENDMDL
MODEL 3
REMARK VINA RESULT:      -3.7      0.057      1.970
REMARK  0 active torsions:
REMARK  status: ('A' for Active; 'I' for Inactive)
ROOT
HETATM    1  C1  UNL     1     -33.879   7.251   4.788  1.00 20.00     0.051 C 
HETATM    2  C2  UNL     1     -34.649   5.397   6.302  1.00 20.00     0.051 C 
HETATM    3  C3  UNL     1     -33.933   4.882   3.948  1.00 20.00     0.051 C 
HETATM    4  C4  UNL     1     -34.589   5.905   4.868  1.00 20.00     0.092 C 
HETATM    5  F5  UNL     1     -35.872   6.086   4.439  1.00 20.00    -0.244 F 
ENDROOT
TORSDOF 0
ENDMDL
MODEL 4
REMARK VINA RESULT:      -3.2      1.280      2.175
REMARK  0 active torsions:
REMARK  status: ('A' for Active; 'I' for Inactive)
ROOT
HETATM    1  C1  UNL     1     -35.806   6.063   4.247  1.00 20.00     0.051 C 
HETATM    2  C2  UNL     1     -34.482   5.380   6.273  1.00 20.00     0.051 C 
HETATM    3  C3  UNL     1     -33.665   7.255   4.811  1.00 20.00     0.051 C 
HETATM    4  C4  UNL     1     -34.415   5.928   4.854  1.00 20.00     0.092 C 
HETATM    5  F5  UNL     1     -33.716   5.033   4.096  1.00 20.00    -0.244 F 
ENDROOT
TORSDOF 0
ENDMDL
MODEL 5
REMARK VINA RESULT:      -3.2      1.280      1.887
REMARK  0 active torsions:
REMARK  status: ('A' for Active; 'I' for Inactive)
ROOT
HETATM    1  C1  UNL     1     -34.475   5.372   6.262  1.00 20.00     0.051 C 
HETATM    2  C2  UNL     1     -33.678   7.264   4.809  1.00 20.00     0.051 C 
HETATM    3  C3  UNL     1     -35.809   6.055   4.242  1.00 20.00     0.051 C 
HETATM    4  C4  UNL     1     -34.414   5.931   4.845  1.00 20.00     0.092 C 
HETATM    5  F5  UNL     1     -33.709   5.047   4.080  1.00 20.00    -0.244 F 
ENDROOT
TORSDOF 0
ENDMDL
MODEL 6
REMARK VINA RESULT:      -3.2      1.292      1.908
REMARK  0 active torsions:
REMARK  status: ('A' for Active; 'I' for Inactive)
ROOT
HETATM    1  C1  UNL     1     -33.706   7.308   4.893  1.00 20.00     0.051 C 
HETATM    2  C2  UNL     1     -35.797   6.065   4.257  1.00 20.00     0.051 C 
HETATM    3  C3  UNL     1     -34.473   5.350   6.271  1.00 20.00     0.051 C 
HETATM    4  C4  UNL     1     -34.409   5.956   4.874  1.00 20.00     0.092 C 
HETATM    5  F5  UNL     1     -33.672   5.116   4.090  1.00 20.00    -0.244 F 
ENDROOT
TORSDOF 0
ENDMDL
MODEL 7
REMARK VINA RESULT:      -3.1      1.974      2.258
REMARK  0 active torsions:
REMARK  status: ('A' for Active; 'I' for Inactive)
ROOT
HETATM    1  C1  UNL     1     -32.940   6.676   3.639  1.00 20.00     0.051 C 
HETATM    2  C2  UNL     1     -32.278   8.768   4.867  1.00 20.00     0.051 C 
HETATM    3  C3  UNL     1     -33.720   7.048   6.000  1.00 20.00     0.051 C 
HETATM    4  C4  UNL     1     -33.358   7.711   4.676  1.00 20.00     0.092 C 
HETATM    5  F5  UNL     1     -34.476   8.340   4.208  1.00 20.00    -0.244 F 
ENDROOT
TORSDOF 0
ENDMDL
MODEL 8
REMARK VINA RESULT:      -3.1      1.893      2.857
REMARK  0 active torsions:
REMARK  status: ('A' for Active; 'I' for Inactive)
ROOT
HETATM    1  C1  UNL     1     -33.762   7.033   6.098  1.00 20.00     0.051 C 
HETATM    2  C2  UNL     1     -33.121   6.527   3.719  1.00 20.00     0.051 C 
HETATM    3  C3  UNL     1     -32.294   8.628   4.824  1.00 20.00     0.051 C 
HETATM    4  C4  UNL     1     -33.434   7.622   4.731  1.00 20.00     0.092 C 
HETATM    5  F5  UNL     1     -34.541   8.289   4.290  1.00 20.00    -0.244 F 
ENDROOT
TORSDOF 0
ENDMDL
MODEL 9
REMARK VINA RESULT:      -2.8      8.051      8.409
REMARK  0 active torsions:
REMARK  status: ('A' for Active; 'I' for Inactive)
ROOT
HETATM    1  C1  UNL     1     -41.613   8.277  -0.504  1.00 20.00     0.051 C 
HETATM    2  C2  UNL     1     -40.827   5.894  -0.335  1.00 20.00     0.051 C 
HETATM    3  C3  UNL     1     -42.541   6.770   1.282  1.00 20.00     0.051 C 
HETATM    4  C4  UNL     1     -41.322   7.112   0.435  1.00 20.00     0.092 C 
HETATM    5  F5  UNL     1     -40.324   7.500   1.282  1.00 20.00    -0.244 F 
ENDROOT
TORSDOF 0
ENDMDL
