MODEL 1
REMARK VINA RESULT:      -4.5      0.000      0.000
REMARK  3 active torsions:
REMARK  status: ('A' for Active; 'I' for Inactive)
REMARK    1  A    between atoms: C1_1  and  C5_5 
REMARK    2  A    between atoms: C2_2  and  C6_6 
REMARK    3  A    between atoms: C6_6  and  C7_7 
ROOT
HETATM    1  C1  UNL     1     -33.516   7.115   6.238  1.00 20.00     0.150 A 
HETATM    2  C2  UNL     1     -34.087   5.729   6.065  1.00 20.00     0.151 A 
HETATM    3  O8  UNL     1     -34.772   6.739   6.818  1.00 20.00    -0.376 OA
ENDROOT
BRANCH   2   4
HETATM    4  C6  UNL     1     -34.806   5.275   4.804  1.00 20.00     0.034 C 
BRANCH   4   5
HETATM    5  C7  UNL     1     -33.906   4.405   3.929  1.00 20.00    -0.002 C 
HETATM    6  C4  UNL     1     -33.159   5.238   2.900  1.00 20.00     0.005 C 
ENDBRANCH   4   5
ENDBRANCH   2   4
BRANCH   1   7
HETATM    7  C5  UNL     1     -33.602   8.168   5.192  1.00 20.00     0.030 C 
HETATM    8  C3  UNL     1     -32.276   8.462   4.535  1.00 20.00     0.007 C 
ENDBRANCH   1   7
TORSDOF 3
ENDMDL
MODEL 2
REMARK VINA RESULT:      -4.4      1.817      3.469
REMARK  3 active torsions:
REMARK  status: ('A' for Active; 'I' for Inactive)
REMARK    1  A    between atoms: C1_1  and  C5_5 
REMARK    2  A    between atoms: C2_2  and  C6_6 
REMARK    3  A    between atoms: C6_6  and  C7_7 
ROOT
HETATM    1  C1  UNL     1     -32.128   7.454   3.375  1.00 20.00     0.150 A 
HETATM    2  C2  UNL     1     -32.571   8.057   4.686  1.00 20.00     0.151 A 
HETATM    3  O8  UNL     1     -32.533   8.825   3.476  1.00 20.00    -0.376 OA
ENDROOT
BRANCH   2   4
HETATM    4  C6  UNL     1     -33.961   7.853   5.269  1.00 20.00     0.034 C 
BRANCH   4   5
HETATM    5  C7  UNL     1     -33.950   6.823   6.396  1.00 20.00    -0.002 C 
HETATM    6  C4  UNL     1     -34.677   5.550   5.993  1.00 20.00     0.005 C 
ENDBRANCH   4   5
ENDBRANCH   2   4
BRANCH   1   7
HETATM    7  C5  UNL     1     -33.008   6.604   2.530  1.00 20.00     0.030 C 
HETATM    8  C3  UNL     1     -32.817   5.127   2.771  1.00 20.00     0.007 C 
ENDBRANCH   1   7
TORSDOF 3
ENDMDL
MODEL 3
REMARK VINA RESULT:      -4.4      0.994      2.985
REMARK  3 active torsions:
REMARK  status: ('A' for Active; 'I' for Inactive)
REMARK    1  A    between atoms: C1_1  and  C5_5 
REMARK    2  A    between atoms: C2_2  and  C6_6 
REMARK    3  A    between atoms: C6_6  and  C7_7 
ROOT
HETATM    1  C1  UNL     1     -34.637   6.112   6.277  1.00 20.00     0.150 A 
HETATM    2  C2  UNL     1     -33.987   7.473   6.319  1.00 20.00     0.151 A 
HETATM    3  O8  UNL     1     -33.215   6.266   6.367  1.00 20.00    -0.376 OA
ENDROOT
BRANCH   2   4
HETATM    4  C6  UNL     1     -33.759   8.327   5.081  1.00 20.00     0.034 C 
BRANCH   4   5
HETATM    5  C7  UNL     1     -32.309   8.254   4.610  1.00 20.00    -0.002 C 
HETATM    6  C4  UNL     1     -32.197   7.571   3.257  1.00 20.00     0.005 C 
ENDBRANCH   4   5
ENDBRANCH   2   4
BRANCH   1   7
HETATM    7  C5  UNL     1     -35.117   5.477   5.021  1.00 20.00     0.030 C 
HETATM    8  C3  UNL     1     -34.104   4.547   4.402  1.00 20.00     0.007 C 
ENDBRANCH   1   7
TORSDOF 3
ENDMDL
MODEL 4
REMARK VINA RESULT:      -4.2      0.893      3.138
REMARK  3 active torsions:
REMARK  status: ('A' for Active; 'I' for Inactive)
REMARK    1  A    between atoms: C1_1  and  C5_5 
REMARK    2  A    between atoms: C2_2  and  C6_6 
REMARK    3  A    between atoms: C6_6  and  C7_7 
ROOT
HETATM    1  C1  UNL     1     -34.673   5.079   4.508  1.00 20.00     0.150 A 
HETATM    2  C2  UNL     1     -34.832   6.186   5.521  1.00 20.00     0.151 A 
HETATM    3  O8  UNL     1     -34.827   4.805   5.906  1.00 20.00    -0.376 OA
ENDROOT
BRANCH   2   4
HETATM    4  C6  UNL     1     -33.664   7.001   6.055  1.00 20.00     0.034 C 
BRANCH   4   5
HETATM    5  C7  UNL     1     -33.536   8.337   5.327  1.00 20.00    -0.002 C 
HETATM    6  C4  UNL     1     -32.271   8.393   4.486  1.00 20.00     0.005 C 
ENDBRANCH   4   5
ENDBRANCH   2   4
BRANCH   1   7
HETATM    7  C5  UNL     1     -33.360   4.681   3.935  1.00 20.00     0.030 C 
HETATM    8  C3  UNL     1     -33.075   5.325   2.601  1.00 20.00     0.007 C 
ENDBRANCH   1   7
TORSDOF 3
ENDMDL
MODEL 5
REMARK VINA RESULT:      -4.2      1.457      2.870
REMARK  3 active torsions:
REMARK  status: ('A' for Active; 'I' for Inactive)
REMARK    1  A    between atoms: C1_1  and  C5_5 
REMARK    2  A    between atoms: C2_2  and  C6_6 
REMARK    3  A    between atoms: C6_6  and  C7_7 
ROOT
HETATM    1  C1  UNL     1     -33.931   7.968   5.410  1.00 20.00     0.150 A 
HETATM    2  C2  UNL     1     -33.166   8.317   4.157  1.00 20.00     0.151 A 
HETATM    3  O8  UNL     1     -32.902   8.966   5.408  1.00 20.00    -0.376 OA
ENDROOT
BRANCH   2   4
HETATM    4  C6  UNL     1     -32.019   7.476   3.619  1.00 20.00     0.034 C 
BRANCH   4   5
HETATM    5  C7  UNL     1     -32.445   6.663   2.399  1.00 20.00    -0.002 C 
HETATM    6  C4  UNL     1     -32.975   5.296   2.799  1.00 20.00     0.005 C 
ENDBRANCH   4   5
ENDBRANCH   2   4
BRANCH   1   7
HETATM    7  C5  UNL     1     -33.635   6.769   6.238  1.00 20.00     0.030 C 
HETATM    8  C3  UNL     1     -34.684   5.692   6.118  1.00 20.00     0.007 C 
ENDBRANCH   1   7
TORSDOF 3
ENDMDL
MODEL 6
REMARK VINA RESULT:      -4.1      2.155      3.293
REMARK  3 active torsions:
REMARK  status: ('A' for Active; 'I' for Inactive)
REMARK    1  A    between atoms: C1_1  and  C5_5 
REMARK    2  A    between atoms: C2_2  and  C6_6 
REMARK    3  A    between atoms: C6_6  and  C7_7 
ROOT
HETATM    1  C1  UNL     1     -31.799   7.985   3.820  1.00 20.00     0.150 A 
HETATM    2  C2  UNL     1     -32.623   8.142   5.074  1.00 20.00     0.151 A 
HETATM    3  O8  UNL     1     -32.465   9.214   4.136  1.00 20.00    -0.376 OA
ENDROOT
BRANCH   2   4
HETATM    4  C6  UNL     1     -34.044   7.615   5.207  1.00 20.00     0.034 C 
BRANCH   4   5
HETATM    5  C7  UNL     1     -34.194   6.716   6.433  1.00 20.00    -0.002 C 
HETATM    6  C4  UNL     1     -34.677   5.328   6.048  1.00 20.00     0.005 C 
ENDBRANCH   4   5
ENDBRANCH   2   4
BRANCH   1   7
HETATM    7  C5  UNL     1     -32.297   7.303   2.596  1.00 20.00     0.030 C 
HETATM    8  C3  UNL     1     -32.151   8.139   1.349  1.00 20.00     0.007 C 
ENDBRANCH   1   7
TORSDOF 3
ENDMDL
MODEL 7
REMARK VINA RESULT:      -3.8      2.311      3.671
REMARK  3 active torsions:
REMARK  status: ('A' for Active; 'I' for Inactive)
REMARK    1  A    between atoms: C1_1  and  C5_5 
REMARK    2  A    between atoms: C2_2  and  C6_6 
REMARK    3  A    between atoms: C6_6  and  C7_7 
ROOT
HETATM    1  C1  UNL     1     -33.664   7.993   4.787  1.00 20.00     0.150 A 
HETATM    2  C2  UNL     1     -32.728   8.442   3.691  1.00 20.00     0.151 A 
HETATM    3  O8  UNL     1     -32.259   8.161   5.017  1.00 20.00    -0.376 OA
ENDROOT
BRANCH   2   4
HETATM    4  C6  UNL     1     -32.197   7.507   2.615  1.00 20.00     0.034 C 
BRANCH   4   5
HETATM    5  C7  UNL     1     -32.118   8.204   1.259  1.00 20.00    -0.002 C 
HETATM    6  C4  UNL     1     -32.847   9.538   1.275  1.00 20.00     0.005 C 
ENDBRANCH   4   5
ENDBRANCH   2   4
BRANCH   1   7
HETATM    7  C5  UNL     1     -34.155   6.596   4.919  1.00 20.00     0.030 C 
HETATM    8  C3  UNL     1     -34.437   6.199   6.346  1.00 20.00     0.007 C 
ENDBRANCH   1   7
TORSDOF 3
ENDMDL
MODEL 8
REMARK VINA RESULT:      -3.8      1.179      1.841
REMARK  3 active torsions:
REMARK  status: ('A' for Active; 'I' for Inactive)
REMARK    1  A    between atoms: C1_1  and  C5_5 
REMARK    2  A    between atoms: C2_2  and  C6_6 
REMARK    3  A    between atoms: C6_6  and  C7_7 
ROOT
HETATM    1  C1  UNL     1     -34.862   5.834   5.902  1.00 20.00     0.150 A 
HETATM    2  C2  UNL     1     -34.671   4.812   4.808  1.00 20.00     0.151 A 
HETATM    3  O8  UNL     1     -35.329   6.062   4.566  1.00 20.00    -0.376 OA
ENDROOT
BRANCH   2   4
HETATM    4  C6  UNL     1     -33.359   4.626   4.062  1.00 20.00     0.034 C 
BRANCH   4   5
HETATM    5  C7  UNL     1     -33.362   5.375   2.731  1.00 20.00    -0.002 C 
HETATM    6  C4  UNL     1     -32.353   6.512   2.730  1.00 20.00     0.005 C 
ENDBRANCH   4   5
ENDBRANCH   2   4
BRANCH   1   7
HETATM    7  C5  UNL     1     -33.786   6.756   6.353  1.00 20.00     0.030 C 
HETATM    8  C3  UNL     1     -33.772   8.063   5.600  1.00 20.00     0.007 C 
ENDBRANCH   1   7
TORSDOF 3
ENDMDL
MODEL 9
REMARK VINA RESULT:      -3.7      1.937      3.826
REMARK  3 active torsions:
REMARK  status: ('A' for Active; 'I' for Inactive)
REMARK    1  A    between atoms: C1_1  and  C5_5 
REMARK    2  A    between atoms: C2_2  and  C6_6 
REMARK    3  A    between atoms: C6_6  and  C7_7 
ROOT
HETATM    1  C1  UNL     1     -33.574   5.015   3.843  1.00 20.00     0.150 A 
HETATM    2  C2  UNL     1     -32.581   5.897   3.127  1.00 20.00     0.151 A 
HETATM    3  O8  UNL     1     -33.565   5.136   2.415  1.00 20.00    -0.376 OA
ENDROOT
BRANCH   2   4
HETATM    4  C6  UNL     1     -32.737   7.406   3.015  1.00 20.00     0.034 C 
BRANCH   4   5
HETATM    5  C7  UNL     1     -31.992   8.130   4.134  1.00 20.00    -0.002 C 
HETATM    6  C4  UNL     1     -32.946   8.621   5.210  1.00 20.00     0.005 C 
ENDBRANCH   4   5
ENDBRANCH   2   4
BRANCH   1   7
HETATM    7  C5  UNL     1     -34.798   5.537   4.506  1.00 20.00     0.030 C 
HETATM    8  C3  UNL     1     -34.742   5.448   6.010  1.00 20.00     0.007 C 
ENDBRANCH   1   7
TORSDOF 3
ENDMDL
