MODEL 1
REMARK VINA RESULT:      -3.7      0.000      0.000
REMARK  1 active torsions:
REMARK  status: ('A' for Active; 'I' for Inactive)
REMARK    1  A    between atoms: C4_4  and  C5_5 
ROOT
HETATM    1  C1  UNL     1     -35.844   6.080   4.288  1.00 20.00     0.015 C 
HETATM    2  C2  UNL     1     -34.586   5.490   6.364  1.00 20.00     0.015 C 
HETATM    3  C3  UNL     1     -33.641   7.165   4.750  1.00 20.00     0.015 C 
HETATM    4  C5  UNL     1     -34.438   5.854   4.878  1.00 20.00    -0.039 C 
ENDROOT
BRANCH   4   5
HETATM    5  C4  UNL     1     -33.766   4.711   4.084  1.00 20.00     0.122 C 
HETATM    6 CL6  UNL     1     -32.913   5.249   2.614  1.00 20.00    -0.130 Cl
ENDBRANCH   4   5
TORSDOF 1
ENDMDL
MODEL 2
REMARK VINA RESULT:      -3.7      1.727      2.649
REMARK  1 active torsions:
REMARK  status: ('A' for Active; 'I' for Inactive)
REMARK    1  A    between atoms: C4_4  and  C5_5 
ROOT
HETATM    1  C1  UNL     1     -34.428   5.998   6.375  1.00 20.00     0.015 C 
HETATM    2  C2  UNL     1     -35.799   6.087   4.289  1.00 20.00     0.015 C 
HETATM    3  C3  UNL     1     -33.938   4.416   4.505  1.00 20.00     0.015 C 
HETATM    4  C5  UNL     1     -34.384   5.849   4.842  1.00 20.00    -0.039 C 
ENDROOT
BRANCH   4   5
HETATM    5  C4  UNL     1     -33.384   6.891   4.290  1.00 20.00     0.122 C 
HETATM    6 CL6  UNL     1     -33.307   8.398   5.238  1.00 20.00    -0.130 Cl
ENDBRANCH   4   5
TORSDOF 1
ENDMDL
MODEL 3
REMARK VINA RESULT:      -3.7      1.698      2.367
REMARK  1 active torsions:
REMARK  status: ('A' for Active; 'I' for Inactive)
REMARK    1  A    between atoms: C4_4  and  C5_5 
ROOT
HETATM    1  C1  UNL     1     -33.986   4.421   4.469  1.00 20.00     0.015 C 
HETATM    2  C2  UNL     1     -34.492   5.947   6.382  1.00 20.00     0.015 C 
HETATM    3  C3  UNL     1     -35.816   6.109   4.254  1.00 20.00     0.015 C 
HETATM    4  C5  UNL     1     -34.420   5.851   4.849  1.00 20.00    -0.039 C 
ENDROOT
BRANCH   4   5
HETATM    5  C4  UNL     1     -33.376   6.835   4.273  1.00 20.00     0.122 C 
HETATM    6 CL6  UNL     1     -33.270   8.380   5.153  1.00 20.00    -0.130 Cl
ENDBRANCH   4   5
TORSDOF 1
ENDMDL
MODEL 4
REMARK VINA RESULT:      -3.7      0.083      1.797
REMARK  1 active torsions:
REMARK  status: ('A' for Active; 'I' for Inactive)
REMARK    1  A    between atoms: C4_4  and  C5_5 
ROOT
HETATM    1  C1  UNL     1     -34.448   5.520   6.342  1.00 20.00     0.015 C 
HETATM    2  C2  UNL     1     -33.618   7.184   4.674  1.00 20.00     0.015 C 
HETATM    3  C3  UNL     1     -35.844   6.071   4.345  1.00 20.00     0.015 C 
HETATM    4  C5  UNL     1     -34.402   5.872   4.842  1.00 20.00    -0.039 C 
ENDROOT
BRANCH   4   5
HETATM    5  C4  UNL     1     -33.709   4.706   4.100  1.00 20.00     0.122 C 
HETATM    6 CL6  UNL     1     -32.879   5.190   2.600  1.00 20.00    -0.130 Cl
ENDBRANCH   4   5
TORSDOF 1
ENDMDL
MODEL 5
REMARK VINA RESULT:      -3.6      1.023      2.108
REMARK  1 active torsions:
REMARK  status: ('A' for Active; 'I' for Inactive)
REMARK    1  A    between atoms: C4_4  and  C5_5 
ROOT
HETATM    1  C1  UNL     1     -35.816   6.139   4.395  1.00 20.00     0.015 C 
HETATM    2  C2  UNL     1     -33.667   4.937   3.973  1.00 20.00     0.015 C 
HETATM    3  C3  UNL     1     -34.418   5.390   6.326  1.00 20.00     0.015 C 
HETATM    4  C5  UNL     1     -34.369   5.949   4.893  1.00 20.00    -0.039 C 
ENDROOT
BRANCH   4   5
HETATM    5  C4  UNL     1     -33.667   7.325   4.853  1.00 20.00     0.122 C 
HETATM    6 CL6  UNL     1     -32.454   7.485   3.557  1.00 20.00    -0.130 Cl
ENDBRANCH   4   5
TORSDOF 1
ENDMDL
MODEL 6
REMARK VINA RESULT:      -2.9     16.549     17.448
REMARK  1 active torsions:
REMARK  status: ('A' for Active; 'I' for Inactive)
REMARK    1  A    between atoms: C4_4  and  C5_5 
ROOT
HETATM    1  C1  UNL     1     -22.853  18.250  12.228  1.00 20.00     0.015 C 
HETATM    2  C2  UNL     1     -24.395  16.343  11.755  1.00 20.00     0.015 C 
HETATM    3  C3  UNL     1     -22.993  17.317   9.915  1.00 20.00     0.015 C 
HETATM    4  C5  UNL     1     -23.806  17.641  11.180  1.00 20.00    -0.039 C 
ENDROOT
BRANCH   4   5
HETATM    5  C4  UNL     1     -24.914  18.678  10.884  1.00 20.00     0.122 C 
HETATM    6 CL6  UNL     1     -25.779  19.251  12.332  1.00 20.00    -0.130 Cl
ENDBRANCH   4   5
TORSDOF 1
ENDMDL
MODEL 7
REMARK VINA RESULT:      -2.8     16.659     17.581
REMARK  1 active torsions:
REMARK  status: ('A' for Active; 'I' for Inactive)
REMARK    1  A    between atoms: C4_4  and  C5_5 
ROOT
HETATM    1  C1  UNL     1     -24.357  16.492  11.702  1.00 20.00     0.015 C 
HETATM    2  C2  UNL     1     -22.834  18.401  12.228  1.00 20.00     0.015 C 
HETATM    3  C3  UNL     1     -25.323  18.708  12.332  1.00 20.00     0.015 C 
HETATM    4  C5  UNL     1     -24.173  18.018  11.578  1.00 20.00    -0.039 C 
ENDROOT
BRANCH   4   5
HETATM    5  C4  UNL     1     -24.192  18.380  10.075  1.00 20.00     0.122 C 
HETATM    6 CL6  UNL     1     -22.744  19.259   9.522  1.00 20.00    -0.130 Cl
ENDBRANCH   4   5
TORSDOF 1
ENDMDL
MODEL 8
REMARK VINA RESULT:      -2.8     16.796     17.823
REMARK  1 active torsions:
REMARK  status: ('A' for Active; 'I' for Inactive)
REMARK    1  A    between atoms: C4_4  and  C5_5 
ROOT
HETATM    1  C1  UNL     1     -24.348  16.534  11.177  1.00 20.00     0.015 C 
HETATM    2  C2  UNL     1     -24.725  18.799  10.194  1.00 20.00     0.015 C 
HETATM    3  C3  UNL     1     -22.519  17.640   9.884  1.00 20.00     0.015 C 
HETATM    4  C5  UNL     1     -23.682  17.887  10.861  1.00 20.00    -0.039 C 
ENDROOT
BRANCH   4   5
HETATM    5  C4  UNL     1     -23.177  18.492  12.191  1.00 20.00     0.122 C 
HETATM    6 CL6  UNL     1     -21.402  18.559  12.332  1.00 20.00    -0.130 Cl
ENDBRANCH   4   5
TORSDOF 1
ENDMDL
MODEL 9
REMARK VINA RESULT:      -2.8      8.036      9.066
REMARK  1 active torsions:
REMARK  status: ('A' for Active; 'I' for Inactive)
REMARK    1  A    between atoms: C4_4  and  C5_5 
ROOT
HETATM    1  C1  UNL     1     -43.149   7.138   1.542  1.00 20.00     0.015 C 
HETATM    2  C2  UNL     1     -42.841   5.987  -0.653  1.00 20.00     0.015 C 
HETATM    3  C3  UNL     1     -42.164   4.843   1.477  1.00 20.00     0.015 C 
HETATM    4  C5  UNL     1     -42.230   6.194   0.743  1.00 20.00    -0.039 C 
ENDROOT
BRANCH   4   5
HETATM    5  C4  UNL     1     -40.834   6.851   0.652  1.00 20.00     0.122 C 
HETATM    6 CL6  UNL     1     -40.841   8.476  -0.078  1.00 20.00    -0.130 Cl
ENDBRANCH   4   5
TORSDOF 1
ENDMDL
