MODEL 1
REMARK VINA RESULT:      -4.0      0.000      0.000
REMARK  3 active torsions:
REMARK  status: ('A' for Active; 'I' for Inactive)
REMARK    1  A    between atoms: C1_1  and  C2_2 
REMARK    2  A    between atoms: C4_4  and  C6_6 
REMARK    3  A    between atoms: C6_6  and  O7_7 
ROOT
HETATM    1  C2  UNL     1     -32.948   7.850   4.998  1.00 20.00    -0.002 C 
HETATM    2  C4  UNL     1     -33.970   6.992   5.127  1.00 20.00    -0.001 C 
ENDROOT
BRANCH   1   3
HETATM    3  C1  UNL     1     -32.545   8.415   3.731  1.00 20.00    -0.005 C 
HETATM    4  C3  UNL     1     -32.386   7.683   2.618  1.00 20.00    -0.031 C 
HETATM    5  C5  UNL     1     -31.971   8.256   1.302  1.00 20.00     0.036 C 
ENDBRANCH   1   3
BRANCH   2   6
HETATM    6  C6  UNL     1     -34.395   6.404   6.435  1.00 20.00     0.191 C 
BRANCH   6   7
HETATM    7  O7  UNL     1     -35.096   5.188   6.210  1.00 20.00    -0.397 OA
HETATM    8  H17 UNL     1     -35.985   5.429   5.904  1.00 20.00     0.209 HD
ENDBRANCH   6   7
ENDBRANCH   2   6
TORSDOF 3
ENDMDL
MODEL 2
REMARK VINA RESULT:      -3.8      2.678      4.538
REMARK  3 active torsions:
REMARK  status: ('A' for Active; 'I' for Inactive)
REMARK    1  A    between atoms: C1_1  and  C2_2 
REMARK    2  A    between atoms: C4_4  and  C6_6 
REMARK    3  A    between atoms: C6_6  and  O7_7 
ROOT
HETATM    1  C2  UNL     1     -32.594   8.426   3.755  1.00 20.00    -0.002 C 
HETATM    2  C4  UNL     1     -32.412   7.694   2.646  1.00 20.00    -0.001 C 
ENDROOT
BRANCH   1   3
HETATM    3  C1  UNL     1     -32.985   7.855   5.024  1.00 20.00    -0.005 C 
HETATM    4  C3  UNL     1     -33.966   6.949   5.150  1.00 20.00    -0.031 C 
HETATM    5  C5  UNL     1     -34.379   6.351   6.455  1.00 20.00     0.036 C 
ENDBRANCH   1   3
BRANCH   2   6
HETATM    6  C6  UNL     1     -32.005   8.277   1.330  1.00 20.00     0.191 C 
BRANCH   6   7
HETATM    7  O7  UNL     1     -32.732   9.474   1.090  1.00 20.00    -0.397 OA
HETATM    8  H17 UNL     1     -32.481  10.099   1.789  1.00 20.00     0.209 HD
ENDBRANCH   6   7
ENDBRANCH   2   6
TORSDOF 3
ENDMDL
MODEL 3
REMARK VINA RESULT:      -3.8     11.583     12.046
REMARK  3 active torsions:
REMARK  status: ('A' for Active; 'I' for Inactive)
REMARK    1  A    between atoms: C1_1  and  C2_2 
REMARK    2  A    between atoms: C4_4  and  C6_6 
REMARK    3  A    between atoms: C6_6  and  O7_7 
ROOT
HETATM    1  C2  UNL     1     -33.664  16.308  -2.638  1.00 20.00    -0.002 C 
HETATM    2  C4  UNL     1     -33.149  15.922  -3.814  1.00 20.00    -0.001 C 
ENDROOT
BRANCH   1   3
HETATM    3  C1  UNL     1     -33.072  17.340  -1.816  1.00 20.00    -0.005 C 
HETATM    4  C3  UNL     1     -33.600  17.743  -0.651  1.00 20.00    -0.031 C 
HETATM    5  C5  UNL     1     -32.998  18.807   0.207  1.00 20.00     0.036 C 
ENDBRANCH   1   3
BRANCH   2   6
HETATM    6  C6  UNL     1     -33.757  14.858  -4.672  1.00 20.00     0.191 C 
BRANCH   6   7
HETATM    7  O7  UNL     1     -32.998  13.661  -4.561  1.00 20.00    -0.397 OA
HETATM    8  H17 UNL     1     -33.602  12.928  -4.763  1.00 20.00     0.209 HD
ENDBRANCH   6   7
ENDBRANCH   2   6
TORSDOF 3
ENDMDL
MODEL 4
REMARK VINA RESULT:      -3.6     11.919     12.314
REMARK  3 active torsions:
REMARK  status: ('A' for Active; 'I' for Inactive)
REMARK    1  A    between atoms: C1_1  and  C2_2 
REMARK    2  A    between atoms: C4_4  and  C6_6 
REMARK    3  A    between atoms: C6_6  and  O7_7 
ROOT
HETATM    1  C2  UNL     1     -33.719  17.144  -1.887  1.00 20.00    -0.002 C 
HETATM    2  C4  UNL     1     -32.993  16.517  -2.824  1.00 20.00    -0.001 C 
ENDROOT
BRANCH   1   3
HETATM    3  C1  UNL     1     -33.133  17.944  -0.836  1.00 20.00    -0.005 C 
HETATM    4  C3  UNL     1     -31.845  18.318  -0.830  1.00 20.00    -0.031 C 
HETATM    5  C5  UNL     1     -31.227  19.144   0.250  1.00 20.00     0.036 C 
ENDBRANCH   1   3
BRANCH   2   6
HETATM    6  C6  UNL     1     -33.591  15.690  -3.917  1.00 20.00     0.191 C 
BRANCH   6   7
HETATM    7  O7  UNL     1     -32.560  15.021  -4.632  1.00 20.00    -0.397 OA
HETATM    8  H17 UNL     1     -31.837  15.659  -4.742  1.00 20.00     0.209 HD
ENDBRANCH   6   7
ENDBRANCH   2   6
TORSDOF 3
ENDMDL
MODEL 5
REMARK VINA RESULT:      -3.6     12.043     12.673
REMARK  3 active torsions:
REMARK  status: ('A' for Active; 'I' for Inactive)
REMARK    1  A    between atoms: C1_1  and  C2_2 
REMARK    2  A    between atoms: C4_4  and  C6_6 
REMARK    3  A    between atoms: C6_6  and  O7_7 
ROOT
HETATM    1  C2  UNL     1     -29.918  19.021   2.326  1.00 20.00    -0.002 C 
HETATM    2  C4  UNL     1     -30.931  18.301   1.823  1.00 20.00    -0.001 C 
ENDROOT
BRANCH   1   3
HETATM    3  C1  UNL     1     -29.285  18.719   3.590  1.00 20.00    -0.005 C 
HETATM    4  C3  UNL     1     -27.955  18.659   3.749  1.00 20.00    -0.031 C 
HETATM    5  C5  UNL     1     -27.289  18.349   5.050  1.00 20.00     0.036 C 
ENDBRANCH   1   3
BRANCH   2   6
HETATM    6  C6  UNL     1     -31.589  18.604   0.514  1.00 20.00     0.191 C 
BRANCH   6   7
HETATM    7  O7  UNL     1     -30.608  18.675  -0.511  1.00 20.00    -0.397 OA
HETATM    8  H17 UNL     1     -30.033  19.427  -0.296  1.00 20.00     0.209 HD
ENDBRANCH   6   7
ENDBRANCH   2   6
TORSDOF 3
ENDMDL
MODEL 6
REMARK VINA RESULT:      -3.6     11.981     12.339
REMARK  3 active torsions:
REMARK  status: ('A' for Active; 'I' for Inactive)
REMARK    1  A    between atoms: C1_1  and  C2_2 
REMARK    2  A    between atoms: C4_4  and  C6_6 
REMARK    3  A    between atoms: C6_6  and  O7_7 
ROOT
HETATM    1  C2  UNL     1     -33.219  16.994  -2.057  1.00 20.00    -0.002 C 
HETATM    2  C4  UNL     1     -32.530  18.119  -1.817  1.00 20.00    -0.001 C 
ENDROOT
BRANCH   1   3
HETATM    3  C1  UNL     1     -33.641  16.592  -3.380  1.00 20.00    -0.005 C 
HETATM    4  C3  UNL     1     -33.459  15.355  -3.863  1.00 20.00    -0.031 C 
HETATM    5  C5  UNL     1     -33.891  14.927  -5.228  1.00 20.00     0.036 C 
ENDBRANCH   1   3
BRANCH   2   6
HETATM    6  C6  UNL     1     -32.087  18.541  -0.452  1.00 20.00     0.191 C 
BRANCH   6   7
HETATM    7  O7  UNL     1     -30.676  18.713  -0.438  1.00 20.00    -0.397 OA
HETATM    8  H17 UNL     1     -30.430  18.928   0.476  1.00 20.00     0.209 HD
ENDBRANCH   6   7
ENDBRANCH   2   6
TORSDOF 3
ENDMDL
MODEL 7
REMARK VINA RESULT:      -3.4     11.713     12.045
REMARK  3 active torsions:
REMARK  status: ('A' for Active; 'I' for Inactive)
REMARK    1  A    between atoms: C1_1  and  C2_2 
REMARK    2  A    between atoms: C4_4  and  C6_6 
REMARK    3  A    between atoms: C6_6  and  O7_7 
ROOT
HETATM    1  C2  UNL     1     -32.391  18.422  -0.310  1.00 20.00    -0.002 C 
HETATM    2  C4  UNL     1     -31.162  18.519   0.217  1.00 20.00    -0.001 C 
ENDROOT
BRANCH   1   3
HETATM    3  C1  UNL     1     -32.637  18.005  -1.672  1.00 20.00    -0.005 C 
HETATM    4  C3  UNL     1     -33.342  16.909  -1.988  1.00 20.00    -0.031 C 
HETATM    5  C5  UNL     1     -33.604  16.469  -3.391  1.00 20.00     0.036 C 
ENDBRANCH   1   3
BRANCH   2   6
HETATM    6  C6  UNL     1     -30.899  18.945   1.626  1.00 20.00     0.191 C 
BRANCH   6   7
HETATM    7  O7  UNL     1     -31.844  18.337   2.496  1.00 20.00    -0.397 OA
HETATM    8  H17 UNL     1     -32.690  18.318   2.021  1.00 20.00     0.209 HD
ENDBRANCH   6   7
ENDBRANCH   2   6
TORSDOF 3
ENDMDL
MODEL 8
REMARK VINA RESULT:      -3.4     12.022     12.925
REMARK  3 active torsions:
REMARK  status: ('A' for Active; 'I' for Inactive)
REMARK    1  A    between atoms: C1_1  and  C2_2 
REMARK    2  A    between atoms: C4_4  and  C6_6 
REMARK    3  A    between atoms: C6_6  and  O7_7 
ROOT
HETATM    1  C2  UNL     1     -33.767  15.135  -4.870  1.00 20.00    -0.002 C 
HETATM    2  C4  UNL     1     -34.621  15.821  -5.644  1.00 20.00    -0.001 C 
ENDROOT
BRANCH   1   3
HETATM    3  C1  UNL     1     -33.253  15.642  -3.618  1.00 20.00    -0.005 C 
HETATM    4  C3  UNL     1     -33.625  16.821  -3.096  1.00 20.00    -0.031 C 
HETATM    5  C5  UNL     1     -33.102  17.355  -1.802  1.00 20.00     0.036 C 
ENDBRANCH   1   3
BRANCH   2   6
HETATM    6  C6  UNL     1     -35.160  15.303  -6.939  1.00 20.00     0.191 C 
BRANCH   6   7
HETATM    7  O7  UNL     1     -35.890  14.105  -6.710  1.00 20.00    -0.397 OA
HETATM    8  H17 UNL     1     -36.352  13.896  -7.538  1.00 20.00     0.209 HD
ENDBRANCH   6   7
ENDBRANCH   2   6
TORSDOF 3
ENDMDL
MODEL 9
REMARK VINA RESULT:      -3.3     11.457     11.754
REMARK  3 active torsions:
REMARK  status: ('A' for Active; 'I' for Inactive)
REMARK    1  A    between atoms: C1_1  and  C2_2 
REMARK    2  A    between atoms: C4_4  and  C6_6 
REMARK    3  A    between atoms: C6_6  and  O7_7 
ROOT
HETATM    1  C2  UNL     1     -33.210  17.741  -2.341  1.00 20.00    -0.002 C 
HETATM    2  C4  UNL     1     -33.657  17.387  -1.127  1.00 20.00    -0.001 C 
ENDROOT
BRANCH   1   3
HETATM    3  C1  UNL     1     -33.268  16.868  -3.491  1.00 20.00    -0.005 C 
HETATM    4  C3  UNL     1     -33.613  15.574  -3.413  1.00 20.00    -0.031 C 
HETATM    5  C5  UNL     1     -33.677  14.662  -4.594  1.00 20.00     0.036 C 
ENDBRANCH   1   3
BRANCH   2   6
HETATM    6  C6  UNL     1     -33.604  18.286   0.067  1.00 20.00     0.191 C 
BRANCH   6   7
HETATM    7  O7  UNL     1     -34.317  17.694   1.145  1.00 20.00    -0.397 OA
HETATM    8  H17 UNL     1     -33.665  17.219   1.685  1.00 20.00     0.209 HD
ENDBRANCH   6   7
ENDBRANCH   2   6
TORSDOF 3
ENDMDL
