MODEL 1
REMARK VINA RESULT:      -4.2      0.000      0.000
REMARK  2 active torsions:
REMARK  status: ('A' for Active; 'I' for Inactive)
REMARK    1  A    between atoms: C1_1  and  C3_3 
REMARK    2  A    between atoms: C2_2  and  C5_5 
ROOT
HETATM    1  C1  UNL     1     -32.844   7.983   4.586  1.00 20.00     0.003 C 
HETATM    2  C2  UNL     1     -33.834   7.086   4.695  1.00 20.00     0.049 C 
ENDROOT
BRANCH   1   3
HETATM    3  C3  UNL     1     -32.435   8.539   3.314  1.00 20.00    -0.004 C 
HETATM    4  C4  UNL     1     -32.388   7.823   2.181  1.00 20.00    -0.031 C 
HETATM    5  C6  UNL     1     -31.966   8.385   0.864  1.00 20.00     0.036 C 
ENDBRANCH   1   3
BRANCH   2   6
HETATM    6  C5  UNL     1     -34.275   6.500   5.992  1.00 20.00     0.145 C 
HETATM    7  C7  UNL     1     -34.592   5.029   6.081  1.00 20.00     0.096 C 
HETATM    8  O8  UNL     1     -34.372   7.233   6.976  1.00 20.00    -0.294 OA
ENDBRANCH   2   6
TORSDOF 2
ENDMDL
MODEL 2
REMARK VINA RESULT:      -4.1     12.000     12.621
REMARK  2 active torsions:
REMARK  status: ('A' for Active; 'I' for Inactive)
REMARK    1  A    between atoms: C1_1  and  C3_3 
REMARK    2  A    between atoms: C2_2  and  C5_5 
ROOT
HETATM    1  C1  UNL     1     -30.037  19.160   2.453  1.00 20.00     0.003 C 
HETATM    2  C2  UNL     1     -30.645  18.223   1.711  1.00 20.00     0.049 C 
ENDROOT
BRANCH   1   3
HETATM    3  C3  UNL     1     -29.350  18.850   3.688  1.00 20.00    -0.004 C 
HETATM    4  C4  UNL     1     -28.036  18.584   3.750  1.00 20.00    -0.031 C 
HETATM    5  C6  UNL     1     -27.316  18.262   5.018  1.00 20.00     0.036 C 
ENDBRANCH   1   3
BRANCH   2   6
HETATM    6  C5  UNL     1     -31.358  18.516   0.437  1.00 20.00     0.145 C 
HETATM    7  C7  UNL     1     -32.865  18.530   0.407  1.00 20.00     0.096 C 
HETATM    8  O8  UNL     1     -30.699  18.743  -0.577  1.00 20.00    -0.294 OA
ENDBRANCH   2   6
TORSDOF 2
ENDMDL
MODEL 3
REMARK VINA RESULT:      -4.0     11.836     12.189
REMARK  2 active torsions:
REMARK  status: ('A' for Active; 'I' for Inactive)
REMARK    1  A    between atoms: C1_1  and  C3_3 
REMARK    2  A    between atoms: C2_2  and  C5_5 
ROOT
HETATM    1  C1  UNL     1     -33.195  16.964  -2.025  1.00 20.00     0.003 C 
HETATM    2  C2  UNL     1     -32.437  18.055  -1.853  1.00 20.00     0.049 C 
ENDROOT
BRANCH   1   3
HETATM    3  C3  UNL     1     -33.703  16.564  -3.320  1.00 20.00    -0.004 C 
HETATM    4  C4  UNL     1     -33.403  15.390  -3.895  1.00 20.00    -0.031 C 
HETATM    5  C6  UNL     1     -33.920  14.968  -5.231  1.00 20.00     0.036 C 
ENDBRANCH   1   3
BRANCH   2   6
HETATM    6  C5  UNL     1     -31.901  18.487  -0.532  1.00 20.00     0.145 C 
HETATM    7  C7  UNL     1     -32.823  18.583   0.656  1.00 20.00     0.096 C 
HETATM    8  O8  UNL     1     -30.705  18.760  -0.433  1.00 20.00    -0.294 OA
ENDBRANCH   2   6
TORSDOF 2
ENDMDL
MODEL 4
REMARK VINA RESULT:      -3.9     11.645     12.192
REMARK  2 active torsions:
REMARK  status: ('A' for Active; 'I' for Inactive)
REMARK    1  A    between atoms: C1_1  and  C3_3 
REMARK    2  A    between atoms: C2_2  and  C5_5 
ROOT
HETATM    1  C1  UNL     1     -33.698  16.466  -2.670  1.00 20.00     0.003 C 
HETATM    2  C2  UNL     1     -33.137  15.791  -3.683  1.00 20.00     0.049 C 
ENDROOT
BRANCH   1   3
HETATM    3  C3  UNL     1     -32.958  17.403  -1.854  1.00 20.00    -0.004 C 
HETATM    4  C4  UNL     1     -33.397  17.850  -0.668  1.00 20.00    -0.031 C 
HETATM    5  C6  UNL     1     -32.642  18.818   0.182  1.00 20.00     0.036 C 
ENDBRANCH   1   3
BRANCH   2   6
HETATM    6  C5  UNL     1     -33.877  14.822  -4.538  1.00 20.00     0.145 C 
HETATM    7  C7  UNL     1     -34.014  15.079  -6.017  1.00 20.00     0.096 C 
HETATM    8  O8  UNL     1     -34.368  13.820  -4.018  1.00 20.00    -0.294 OA
ENDBRANCH   2   6
TORSDOF 2
ENDMDL
MODEL 5
REMARK VINA RESULT:      -3.9      1.375      1.435
REMARK  2 active torsions:
REMARK  status: ('A' for Active; 'I' for Inactive)
REMARK    1  A    between atoms: C1_1  and  C3_3 
REMARK    2  A    between atoms: C2_2  and  C5_5 
ROOT
HETATM    1  C1  UNL     1     -32.998   7.428   4.238  1.00 20.00     0.003 C 
HETATM    2  C2  UNL     1     -33.933   6.481   4.080  1.00 20.00     0.049 C 
ENDROOT
BRANCH   1   3
HETATM    3  C3  UNL     1     -32.528   8.248   3.142  1.00 20.00    -0.004 C 
HETATM    4  C4  UNL     1     -32.449   7.809   1.878  1.00 20.00    -0.031 C 
HETATM    5  C6  UNL     1     -31.965   8.646   0.739  1.00 20.00     0.036 C 
ENDBRANCH   1   3
BRANCH   2   6
HETATM    6  C5  UNL     1     -34.433   5.624   5.191  1.00 20.00     0.145 C 
HETATM    7  C7  UNL     1     -34.535   6.187   6.585  1.00 20.00     0.096 C 
HETATM    8  O8  UNL     1     -34.759   4.462   4.948  1.00 20.00    -0.294 OA
ENDBRANCH   2   6
TORSDOF 2
ENDMDL
MODEL 6
REMARK VINA RESULT:      -3.8     11.884     12.494
REMARK  2 active torsions:
REMARK  status: ('A' for Active; 'I' for Inactive)
REMARK    1  A    between atoms: C1_1  and  C3_3 
REMARK    2  A    between atoms: C2_2  and  C5_5 
ROOT
HETATM    1  C1  UNL     1     -32.951  17.843  -2.080  1.00 20.00     0.003 C 
HETATM    2  C2  UNL     1     -33.333  16.605  -2.424  1.00 20.00     0.049 C 
ENDROOT
BRANCH   1   3
HETATM    3  C3  UNL     1     -32.574  18.194  -0.728  1.00 20.00    -0.004 C 
HETATM    4  C4  UNL     1     -31.315  18.479  -0.367  1.00 20.00    -0.031 C 
HETATM    5  C6  UNL     1     -30.915  18.841   1.025  1.00 20.00     0.036 C 
ENDBRANCH   1   3
BRANCH   2   6
HETATM    6  C5  UNL     1     -33.723  16.218  -3.809  1.00 20.00     0.145 C 
HETATM    7  C7  UNL     1     -33.559  14.791  -4.264  1.00 20.00     0.096 C 
HETATM    8  O8  UNL     1     -34.178  17.078  -4.563  1.00 20.00    -0.294 OA
ENDBRANCH   2   6
TORSDOF 2
ENDMDL
MODEL 7
REMARK VINA RESULT:      -3.8     11.851     12.427
REMARK  2 active torsions:
REMARK  status: ('A' for Active; 'I' for Inactive)
REMARK    1  A    between atoms: C1_1  and  C3_3 
REMARK    2  A    between atoms: C2_2  and  C5_5 
ROOT
HETATM    1  C1  UNL     1     -31.707  18.447  -0.627  1.00 20.00     0.003 C 
HETATM    2  C2  UNL     1     -33.034  18.278  -0.568  1.00 20.00     0.049 C 
ENDROOT
BRANCH   1   3
HETATM    3  C3  UNL     1     -30.934  18.938   0.494  1.00 20.00    -0.004 C 
HETATM    4  C4  UNL     1     -30.746  18.234   1.620  1.00 20.00    -0.031 C 
HETATM    5  C6  UNL     1     -29.952  18.730   2.784  1.00 20.00     0.036 C 
ENDBRANCH   1   3
BRANCH   2   6
HETATM    6  C5  UNL     1     -33.852  17.774  -1.707  1.00 20.00     0.145 C 
HETATM    7  C7  UNL     1     -33.362  16.605  -2.522  1.00 20.00     0.096 C 
HETATM    8  O8  UNL     1     -34.922  18.325  -1.963  1.00 20.00    -0.294 OA
ENDBRANCH   2   6
TORSDOF 2
ENDMDL
MODEL 8
REMARK VINA RESULT:      -3.7     11.708     11.916
REMARK  2 active torsions:
REMARK  status: ('A' for Active; 'I' for Inactive)
REMARK    1  A    between atoms: C1_1  and  C3_3 
REMARK    2  A    between atoms: C2_2  and  C5_5 
ROOT
HETATM    1  C1  UNL     1     -32.961  17.132  -2.083  1.00 20.00     0.003 C 
HETATM    2  C2  UNL     1     -33.554  17.668  -1.008  1.00 20.00     0.049 C 
ENDROOT
BRANCH   1   3
HETATM    3  C3  UNL     1     -33.696  16.406  -3.097  1.00 20.00    -0.004 C 
HETATM    4  C4  UNL     1     -33.135  15.481  -3.889  1.00 20.00    -0.031 C 
HETATM    5  C6  UNL     1     -33.882  14.726  -4.939  1.00 20.00     0.036 C 
ENDBRANCH   1   3
BRANCH   2   6
HETATM    6  C5  UNL     1     -32.821  18.420   0.048  1.00 20.00     0.145 C 
HETATM    7  C7  UNL     1     -31.343  18.674  -0.101  1.00 20.00     0.096 C 
HETATM    8  O8  UNL     1     -33.440  18.825   1.032  1.00 20.00    -0.294 OA
ENDBRANCH   2   6
TORSDOF 2
ENDMDL
MODEL 9
REMARK VINA RESULT:      -3.7      2.625      4.949
REMARK  2 active torsions:
REMARK  status: ('A' for Active; 'I' for Inactive)
REMARK    1  A    between atoms: C1_1  and  C3_3 
REMARK    2  A    between atoms: C2_2  and  C5_5 
ROOT
HETATM    1  C1  UNL     1     -32.846   8.391   3.816  1.00 20.00     0.003 C 
HETATM    2  C2  UNL     1     -32.533   7.769   2.671  1.00 20.00     0.049 C 
ENDROOT
BRANCH   1   3
HETATM    3  C3  UNL     1     -33.097   7.675   5.048  1.00 20.00    -0.004 C 
HETATM    4  C4  UNL     1     -34.084   6.778   5.187  1.00 20.00    -0.031 C 
HETATM    5  C6  UNL     1     -34.354   6.033   6.453  1.00 20.00     0.036 C 
ENDBRANCH   1   3
BRANCH   2   6
HETATM    6  C5  UNL     1     -32.269   8.483   1.391  1.00 20.00     0.145 C 
HETATM    7  C7  UNL     1     -32.902   9.828   1.137  1.00 20.00     0.096 C 
HETATM    8  O8  UNL     1     -31.533   7.959   0.556  1.00 20.00    -0.294 OA
ENDBRANCH   2   6
TORSDOF 2
ENDMDL
