MODEL 1
REMARK VINA RESULT:      -4.8      0.000      0.000
REMARK  1 active torsions:
REMARK  status: ('A' for Active; 'I' for Inactive)
REMARK    1  A    between atoms: C4_4  and  C7_7 
ROOT
HETATM    1  C1  UNL     1     -34.808   5.012   6.027  1.00 20.00     0.135 A 
HETATM    2  C2  UNL     1     -34.470   6.206   6.627  1.00 20.00     0.136 A 
HETATM    3  C3  UNL     1     -33.981   5.780   4.037  1.00 20.00     0.143 A 
HETATM    4  C4  UNL     1     -33.644   6.973   4.638  1.00 20.00     0.055 A 
HETATM    5  N8  UNL     1     -34.570   4.779   4.721  1.00 20.00    -0.270 NA
HETATM    6  N9  UNL     1     -33.882   7.207   5.944  1.00 20.00    -0.262 NA
ENDROOT
BRANCH   4   7
HETATM    7  C7  UNL     1     -32.983   8.079   3.836  1.00 20.00     0.031 C 
HETATM    8  C5  UNL     1     -32.088   7.515   2.730  1.00 20.00     0.016 C 
HETATM    9  C6  UNL     1     -32.197   9.035   4.737  1.00 20.00     0.016 C 
ENDBRANCH   4   7
TORSDOF 1
ENDMDL
MODEL 2
REMARK VINA RESULT:      -4.8      0.905      1.589
REMARK  1 active torsions:
REMARK  status: ('A' for Active; 'I' for Inactive)
REMARK    1  A    between atoms: C4_4  and  C7_7 
ROOT
HETATM    1  C1  UNL     1     -34.778   5.062   5.998  1.00 20.00     0.135 A 
HETATM    2  C2  UNL     1     -34.471   4.918   4.662  1.00 20.00     0.136 A 
HETATM    3  C3  UNL     1     -33.918   7.181   5.967  1.00 20.00     0.143 A 
HETATM    4  C4  UNL     1     -33.611   7.037   4.632  1.00 20.00     0.055 A 
HETATM    5  N8  UNL     1     -34.506   6.196   6.674  1.00 20.00    -0.270 NA
HETATM    6  N9  UNL     1     -33.882   5.903   3.955  1.00 20.00    -0.262 NA
ENDROOT
BRANCH   4   7
HETATM    7  C7  UNL     1     -32.948   8.167   3.868  1.00 20.00     0.031 C 
HETATM    8  C5  UNL     1     -32.076   7.640   2.726  1.00 20.00     0.016 C 
HETATM    9  C6  UNL     1     -32.138   9.077   4.795  1.00 20.00     0.016 C 
ENDBRANCH   4   7
TORSDOF 1
ENDMDL
MODEL 3
REMARK VINA RESULT:      -4.5      1.424      3.961
REMARK  1 active torsions:
REMARK  status: ('A' for Active; 'I' for Inactive)
REMARK    1  A    between atoms: C4_4  and  C7_7 
ROOT
HETATM    1  C1  UNL     1     -32.110   8.831   4.002  1.00 20.00     0.135 A 
HETATM    2  C2  UNL     1     -32.203   7.730   3.178  1.00 20.00     0.136 A 
HETATM    3  C3  UNL     1     -33.597   7.870   5.450  1.00 20.00     0.143 A 
HETATM    4  C4  UNL     1     -33.690   6.772   4.625  1.00 20.00     0.055 A 
HETATM    5  N8  UNL     1     -32.805   8.920   5.153  1.00 20.00    -0.270 NA
HETATM    6  N9  UNL     1     -32.995   6.681   3.474  1.00 20.00    -0.262 NA
ENDROOT
BRANCH   4   7
HETATM    7  C7  UNL     1     -34.593   5.608   4.992  1.00 20.00     0.031 C 
HETATM    8  C5  UNL     1     -34.700   5.434   6.508  1.00 20.00     0.016 C 
HETATM    9  C6  UNL     1     -34.135   4.308   4.326  1.00 20.00     0.016 C 
ENDBRANCH   4   7
TORSDOF 1
ENDMDL
MODEL 4
REMARK VINA RESULT:      -4.3      1.457      3.648
REMARK  1 active torsions:
REMARK  status: ('A' for Active; 'I' for Inactive)
REMARK    1  A    between atoms: C4_4  and  C7_7 
ROOT
HETATM    1  C1  UNL     1     -32.122   8.802   3.971  1.00 20.00     0.135 A 
HETATM    2  C2  UNL     1     -32.825   8.810   5.156  1.00 20.00     0.136 A 
HETATM    3  C3  UNL     1     -33.001   6.752   3.466  1.00 20.00     0.143 A 
HETATM    4  C4  UNL     1     -33.702   6.760   4.651  1.00 20.00     0.055 A 
HETATM    5  N8  UNL     1     -32.198   7.772   3.105  1.00 20.00    -0.270 NA
HETATM    6  N9  UNL     1     -33.627   7.789   5.518  1.00 20.00    -0.262 NA
ENDROOT
BRANCH   4   7
HETATM    7  C7  UNL     1     -34.597   5.592   5.024  1.00 20.00     0.031 C 
HETATM    8  C5  UNL     1     -34.689   5.417   6.542  1.00 20.00     0.016 C 
HETATM    9  C6  UNL     1     -34.141   4.295   4.353  1.00 20.00     0.016 C 
ENDBRANCH   4   7
TORSDOF 1
ENDMDL
MODEL 5
REMARK VINA RESULT:      -4.1      1.505      3.780
REMARK  1 active torsions:
REMARK  status: ('A' for Active; 'I' for Inactive)
REMARK    1  A    between atoms: C4_4  and  C7_7 
ROOT
HETATM    1  C1  UNL     1     -32.169   6.811   2.334  1.00 20.00     0.135 A 
HETATM    2  C2  UNL     1     -32.895   5.659   2.543  1.00 20.00     0.136 A 
HETATM    3  C3  UNL     1     -32.985   7.679   4.286  1.00 20.00     0.143 A 
HETATM    4  C4  UNL     1     -33.712   6.528   4.494  1.00 20.00     0.055 A 
HETATM    5  N8  UNL     1     -32.201   7.841   3.203  1.00 20.00    -0.270 NA
HETATM    6  N9  UNL     1     -33.680   5.496   3.627  1.00 20.00    -0.262 NA
ENDROOT
BRANCH   4   7
HETATM    7  C7  UNL     1     -34.585   6.380   5.727  1.00 20.00     0.031 C 
HETATM    8  C5  UNL     1     -34.196   7.382   6.816  1.00 20.00     0.016 C 
HETATM    9  C6  UNL     1     -34.557   4.949   6.269  1.00 20.00     0.016 C 
ENDBRANCH   4   7
TORSDOF 1
ENDMDL
MODEL 6
REMARK VINA RESULT:      -3.9      1.290      1.686
REMARK  1 active torsions:
REMARK  status: ('A' for Active; 'I' for Inactive)
REMARK    1  A    between atoms: C4_4  and  C7_7 
ROOT
HETATM    1  C1  UNL     1     -34.735   5.992   6.647  1.00 20.00     0.135 A 
HETATM    2  C2  UNL     1     -34.031   7.108   6.253  1.00 20.00     0.136 A 
HETATM    3  C3  UNL     1     -34.436   5.073   4.574  1.00 20.00     0.143 A 
HETATM    4  C4  UNL     1     -33.733   6.190   4.181  1.00 20.00     0.055 A 
HETATM    5  N8  UNL     1     -34.950   4.954   5.814  1.00 20.00    -0.270 NA
HETATM    6  N9  UNL     1     -33.517   7.228   5.013  1.00 20.00    -0.262 NA
ENDROOT
BRANCH   4   7
HETATM    7  C7  UNL     1     -33.169   6.289   2.775  1.00 20.00     0.031 C 
HETATM    8  C5  UNL     1     -32.723   4.923   2.250  1.00 20.00     0.016 C 
HETATM    9  C6  UNL     1     -32.025   7.303   2.697  1.00 20.00     0.016 C 
ENDBRANCH   4   7
TORSDOF 1
ENDMDL
MODEL 7
REMARK VINA RESULT:      -3.8      0.992      2.166
REMARK  1 active torsions:
REMARK  status: ('A' for Active; 'I' for Inactive)
REMARK    1  A    between atoms: C4_4  and  C7_7 
ROOT
HETATM    1  C1  UNL     1     -34.694   6.209   6.706  1.00 20.00     0.135 A 
HETATM    2  C2  UNL     1     -34.825   5.127   5.863  1.00 20.00     0.136 A 
HETATM    3  C3  UNL     1     -33.603   7.360   5.058  1.00 20.00     0.143 A 
HETATM    4  C4  UNL     1     -33.733   6.277   4.216  1.00 20.00     0.055 A 
HETATM    5  N8  UNL     1     -34.081   7.345   6.318  1.00 20.00    -0.270 NA
HETATM    6  N9  UNL     1     -34.346   5.141   4.603  1.00 20.00    -0.262 NA
ENDROOT
BRANCH   4   7
HETATM    7  C7  UNL     1     -33.181   6.330   2.803  1.00 20.00     0.031 C 
HETATM    8  C5  UNL     1     -32.729   4.949   2.324  1.00 20.00     0.016 C 
HETATM    9  C6  UNL     1     -32.045   7.348   2.679  1.00 20.00     0.016 C 
ENDBRANCH   4   7
TORSDOF 1
ENDMDL
MODEL 8
REMARK VINA RESULT:      -3.8     12.515     13.110
REMARK  1 active torsions:
REMARK  status: ('A' for Active; 'I' for Inactive)
REMARK    1  A    between atoms: C4_4  and  C7_7 
ROOT
HETATM    1  C1  UNL     1     -30.972  19.246   1.161  1.00 20.00     0.135 A 
HETATM    2  C2  UNL     1     -32.256  19.068   1.627  1.00 20.00     0.136 A 
HETATM    3  C3  UNL     1     -31.591  18.390  -0.868  1.00 20.00     0.143 A 
HETATM    4  C4  UNL     1     -32.874  18.211  -0.401  1.00 20.00     0.055 A 
HETATM    5  N8  UNL     1     -30.617  18.910  -0.095  1.00 20.00    -0.270 NA
HETATM    6  N9  UNL     1     -33.230  18.547   0.855  1.00 20.00    -0.262 NA
ENDROOT
BRANCH   4   7
HETATM    7  C7  UNL     1     -33.945  17.622  -1.299  1.00 20.00     0.031 C 
HETATM    8  C5  UNL     1     -33.340  16.742  -2.395  1.00 20.00     0.016 C 
HETATM    9  C6  UNL     1     -34.835  18.710  -1.905  1.00 20.00     0.016 C 
ENDBRANCH   4   7
TORSDOF 1
ENDMDL
MODEL 9
REMARK VINA RESULT:      -3.7     15.171     15.734
REMARK  1 active torsions:
REMARK  status: ('A' for Active; 'I' for Inactive)
REMARK    1  A    between atoms: C4_4  and  C7_7 
ROOT
HETATM    1  C1  UNL     1     -25.317  16.845  12.331  1.00 20.00     0.135 A 
HETATM    2  C2  UNL     1     -25.762  18.139  12.168  1.00 20.00     0.136 A 
HETATM    3  C3  UNL     1     -23.925  17.100  10.534  1.00 20.00     0.143 A 
HETATM    4  C4  UNL     1     -24.371  18.392  10.371  1.00 20.00     0.055 A 
HETATM    5  N8  UNL     1     -24.390  16.303  11.516  1.00 20.00    -0.270 NA
HETATM    6  N9  UNL     1     -25.298  18.936  11.186  1.00 20.00    -0.262 NA
ENDROOT
BRANCH   4   7
HETATM    7  C7  UNL     1     -23.826  19.261   9.253  1.00 20.00     0.031 C 
HETATM    8  C5  UNL     1     -24.752  19.258   8.034  1.00 20.00     0.016 C 
HETATM    9  C6  UNL     1     -22.406  18.847   8.859  1.00 20.00     0.016 C 
ENDBRANCH   4   7
TORSDOF 1
ENDMDL
