MODEL 1
REMARK VINA RESULT:      -5.2      0.000      0.000
REMARK  0 active torsions:
REMARK  status: ('A' for Active; 'I' for Inactive)
ROOT
HETATM    1  C1  UNL     1     -33.620   7.261   5.269  1.00 20.00    -0.013 A 
HETATM    2  C2  UNL     1     -34.065   6.347   4.396  1.00 20.00    -0.070 A 
HETATM    3  C3  UNL     1     -32.559   8.009   4.568  1.00 20.00     0.160 A 
HETATM    4  C4  UNL     1     -33.367   6.360   3.054  1.00 20.00     0.022 A 
HETATM    5  C5  UNL     1     -32.358   7.519   3.157  1.00 20.00     0.064 A 
HETATM    6  C6  UNL     1     -34.014   7.580   6.662  1.00 20.00     0.052 C 
HETATM    7  C7  UNL     1     -35.178   5.374   4.623  1.00 20.00     0.044 C 
HETATM    8  C8  UNL     1     -32.658   5.040   2.754  1.00 20.00     0.015 C 
HETATM    9  C9  UNL     1     -32.639   8.634   2.160  1.00 20.00     0.019 C 
HETATM   10  O10 UNL     1     -31.931   8.926   5.082  1.00 20.00    -0.292 OA
ENDROOT
TORSDOF 0
ENDMDL
MODEL 2
REMARK VINA RESULT:      -4.8      1.668      2.994
REMARK  0 active torsions:
REMARK  status: ('A' for Active; 'I' for Inactive)
ROOT
HETATM    1  C1  UNL     1     -33.709   6.960   5.144  1.00 20.00    -0.013 A 
HETATM    2  C2  UNL     1     -32.777   7.660   4.481  1.00 20.00    -0.070 A 
HETATM    3  C3  UNL     1     -34.120   5.872   4.236  1.00 20.00     0.160 A 
HETATM    4  C4  UNL     1     -32.475   7.152   3.088  1.00 20.00     0.022 A 
HETATM    5  C5  UNL     1     -33.369   5.909   2.931  1.00 20.00     0.064 A 
HETATM    6  C6  UNL     1     -34.292   7.113   6.497  1.00 20.00     0.052 C 
HETATM    7  C7  UNL     1     -32.018   8.838   5.003  1.00 20.00     0.044 C 
HETATM    8  C8  UNL     1     -32.785   8.191   2.011  1.00 20.00     0.015 C 
HETATM    9  C9  UNL     1     -32.567   4.629   2.740  1.00 20.00     0.019 C 
HETATM   10  O10 UNL     1     -34.966   5.037   4.528  1.00 20.00    -0.292 OA
ENDROOT
TORSDOF 0
ENDMDL
MODEL 3
REMARK VINA RESULT:      -4.6      0.709      2.965
REMARK  0 active torsions:
REMARK  status: ('A' for Active; 'I' for Inactive)
ROOT
HETATM    1  C1  UNL     1     -32.692   7.281   3.444  1.00 20.00    -0.013 A 
HETATM    2  C2  UNL     1     -33.307   6.092   3.504  1.00 20.00    -0.070 A 
HETATM    3  C3  UNL     1     -33.103   8.012   4.657  1.00 20.00     0.160 A 
HETATM    4  C4  UNL     1     -34.190   5.896   4.717  1.00 20.00     0.022 A 
HETATM    5  C5  UNL     1     -34.025   7.196   5.526  1.00 20.00     0.064 A 
HETATM    6  C6  UNL     1     -31.766   7.872   2.449  1.00 20.00     0.052 C 
HETATM    7  C7  UNL     1     -33.170   4.973   2.521  1.00 20.00     0.044 C 
HETATM    8  C8  UNL     1     -35.653   5.664   4.341  1.00 20.00     0.015 C 
HETATM    9  C9  UNL     1     -33.402   6.962   6.894  1.00 20.00     0.019 C 
HETATM   10  O10 UNL     1     -32.721   9.145   4.921  1.00 20.00    -0.292 OA
ENDROOT
TORSDOF 0
ENDMDL
MODEL 4
REMARK VINA RESULT:      -4.5      1.765      3.780
REMARK  0 active torsions:
REMARK  status: ('A' for Active; 'I' for Inactive)
ROOT
HETATM    1  C1  UNL     1     -32.701   7.113   3.381  1.00 20.00    -0.013 A 
HETATM    2  C2  UNL     1     -33.014   7.780   4.501  1.00 20.00    -0.070 A 
HETATM    3  C3  UNL     1     -33.460   5.849   3.436  1.00 20.00     0.160 A 
HETATM    4  C4  UNL     1     -33.977   7.060   5.419  1.00 20.00     0.022 A 
HETATM    5  C5  UNL     1     -34.310   5.753   4.677  1.00 20.00     0.064 A 
HETATM    6  C6  UNL     1     -31.814   7.444   2.242  1.00 20.00     0.052 C 
HETATM    7  C7  UNL     1     -32.532   9.143   4.883  1.00 20.00     0.044 C 
HETATM    8  C8  UNL     1     -33.368   6.773   6.791  1.00 20.00     0.015 C 
HETATM    9  C9  UNL     1     -35.783   5.645   4.308  1.00 20.00     0.019 C 
HETATM   10  O10 UNL     1     -33.406   4.994   2.562  1.00 20.00    -0.292 OA
ENDROOT
TORSDOF 0
ENDMDL
MODEL 5
REMARK VINA RESULT:      -4.0     15.419     16.595
REMARK  0 active torsions:
REMARK  status: ('A' for Active; 'I' for Inactive)
ROOT
HETATM    1  C1  UNL     1     -22.451  18.753   9.847  1.00 20.00    -0.013 A 
HETATM    2  C2  UNL     1     -22.508  18.424  11.145  1.00 20.00    -0.070 A 
HETATM    3  C3  UNL     1     -23.829  18.623   9.335  1.00 20.00     0.160 A 
HETATM    4  C4  UNL     1     -23.883  18.031  11.639  1.00 20.00     0.022 A 
HETATM    5  C5  UNL     1     -24.795  18.199  10.410  1.00 20.00     0.064 A 
HETATM    6  C6  UNL     1     -21.330  19.183   8.979  1.00 20.00     0.052 C 
HETATM    7  C7  UNL     1     -21.370  18.447  12.114  1.00 20.00     0.044 C 
HETATM    8  C8  UNL     1     -23.925  16.596  12.162  1.00 20.00     0.015 C 
HETATM    9  C9  UNL     1     -25.867  19.260  10.614  1.00 20.00     0.019 C 
HETATM   10  O10 UNL     1     -24.138  18.850   8.173  1.00 20.00    -0.292 OA
ENDROOT
TORSDOF 0
ENDMDL
MODEL 6
REMARK VINA RESULT:      -3.7     11.758     13.196
REMARK  0 active torsions:
REMARK  status: ('A' for Active; 'I' for Inactive)
ROOT
HETATM    1  C1  UNL     1     -34.011  16.410  -3.853  1.00 20.00    -0.013 A 
HETATM    2  C2  UNL     1     -34.805  17.265  -4.514  1.00 20.00    -0.070 A 
HETATM    3  C3  UNL     1     -33.937  15.197  -4.690  1.00 20.00     0.160 A 
HETATM    4  C4  UNL     1     -35.355  16.738  -5.821  1.00 20.00     0.022 A 
HETATM    5  C5  UNL     1     -34.735  15.336  -5.960  1.00 20.00     0.064 A 
HETATM    6  C6  UNL     1     -33.286  16.519  -2.566  1.00 20.00     0.052 C 
HETATM    7  C7  UNL     1     -35.151  18.657  -4.092  1.00 20.00     0.044 C 
HETATM    8  C8  UNL     1     -36.881  16.667  -5.824  1.00 20.00     0.015 C 
HETATM    9  C9  UNL     1     -33.828  15.212  -7.176  1.00 20.00     0.019 C 
HETATM   10  O10 UNL     1     -33.289  14.206  -4.380  1.00 20.00    -0.292 OA
ENDROOT
TORSDOF 0
ENDMDL
MODEL 7
REMARK VINA RESULT:      -3.7     11.629     13.260
REMARK  0 active torsions:
REMARK  status: ('A' for Active; 'I' for Inactive)
ROOT
HETATM    1  C1  UNL     1     -35.167  15.592  -5.190  1.00 20.00    -0.013 A 
HETATM    2  C2  UNL     1     -35.464  16.896  -5.100  1.00 20.00    -0.070 A 
HETATM    3  C3  UNL     1     -33.939  15.400  -4.395  1.00 20.00     0.160 A 
HETATM    4  C4  UNL     1     -34.492  17.712  -4.276  1.00 20.00     0.022 A 
HETATM    5  C5  UNL     1     -33.467  16.684  -3.763  1.00 20.00     0.064 A 
HETATM    6  C6  UNL     1     -35.834  14.467  -5.885  1.00 20.00     0.052 C 
HETATM    7  C7  UNL     1     -36.652  17.577  -5.701  1.00 20.00     0.044 C 
HETATM    8  C8  UNL     1     -33.810  18.807  -5.095  1.00 20.00     0.015 C 
HETATM    9  C9  UNL     1     -33.462  16.563  -2.246  1.00 20.00     0.019 C 
HETATM   10  O10 UNL     1     -33.387  14.316  -4.262  1.00 20.00    -0.292 OA
ENDROOT
TORSDOF 0
ENDMDL
MODEL 8
REMARK VINA RESULT:      -3.6     11.901     13.095
REMARK  0 active torsions:
REMARK  status: ('A' for Active; 'I' for Inactive)
ROOT
HETATM    1  C1  UNL     1     -34.440  17.479  -4.437  1.00 20.00    -0.013 A 
HETATM    2  C2  UNL     1     -33.869  16.592  -3.611  1.00 20.00    -0.070 A 
HETATM    3  C3  UNL     1     -34.922  16.703  -5.596  1.00 20.00     0.160 A 
HETATM    4  C4  UNL     1     -33.884  15.163  -4.108  1.00 20.00     0.022 A 
HETATM    5  C5  UNL     1     -34.635  15.231  -5.450  1.00 20.00     0.064 A 
HETATM    6  C6  UNL     1     -34.632  18.945  -4.343  1.00 20.00     0.052 C 
HETATM    7  C7  UNL     1     -33.271  16.886  -2.273  1.00 20.00     0.044 C 
HETATM    8  C8  UNL     1     -32.477  14.596  -4.293  1.00 20.00     0.015 C 
HETATM    9  C9  UNL     1     -35.930  14.432  -5.441  1.00 20.00     0.019 C 
HETATM   10  O10 UNL     1     -35.498  17.208  -6.550  1.00 20.00    -0.292 OA
ENDROOT
TORSDOF 0
ENDMDL
MODEL 9
REMARK VINA RESULT:      -3.6     11.800     13.313
REMARK  0 active torsions:
REMARK  status: ('A' for Active; 'I' for Inactive)
ROOT
HETATM    1  C1  UNL     1     -35.051  15.801  -5.107  1.00 20.00    -0.013 A 
HETATM    2  C2  UNL     1     -33.914  15.722  -4.401  1.00 20.00    -0.070 A 
HETATM    3  C3  UNL     1     -35.544  17.180  -4.930  1.00 20.00     0.160 A 
HETATM    4  C4  UNL     1     -33.531  16.993  -3.675  1.00 20.00     0.022 A 
HETATM    5  C5  UNL     1     -34.626  18.003  -4.062  1.00 20.00     0.064 A 
HETATM    6  C6  UNL     1     -35.773  14.813  -5.942  1.00 20.00     0.052 C 
HETATM    7  C7  UNL     1     -33.013  14.534  -4.305  1.00 20.00     0.044 C 
HETATM    8  C8  UNL     1     -33.471  16.801  -2.160  1.00 20.00     0.015 C 
HETATM    9  C9  UNL     1     -34.082  19.193  -4.839  1.00 20.00     0.019 C 
HETATM   10  O10 UNL     1     -36.573  17.597  -5.444  1.00 20.00    -0.292 OA
ENDROOT
TORSDOF 0
ENDMDL
