MODEL 1
REMARK VINA RESULT:      -3.9      0.000      0.000
REMARK  2 active torsions:
REMARK  status: ('A' for Active; 'I' for Inactive)
REMARK    1  A    between atoms: C1_1  and  C2_2 
REMARK    2  A    between atoms: C1_1  and  C3_3 
ROOT
HETATM    1  C1  UNL     1     -33.899   6.951   5.266  1.00 20.00     0.173 C 
HETATM    2  O4  UNL     1     -33.537   6.968   6.444  1.00 20.00    -0.294 OA
ENDROOT
BRANCH   1   3
HETATM    3  C2  UNL     1     -34.912   5.959   4.734  1.00 20.00     0.195 C 
HETATM    4 CL5  UNL     1     -34.176   4.363   4.520  1.00 20.00    -0.122 Cl
ENDBRANCH   1   3
BRANCH   1   5
HETATM    5  C3  UNL     1     -33.321   7.905   4.245  1.00 20.00     0.248 C 
HETATM    6 CL6  UNL     1     -32.400   6.951   3.076  1.00 20.00    -0.100 Cl
HETATM    7 CL7  UNL     1     -32.294   9.087   5.069  1.00 20.00    -0.100 Cl
ENDBRANCH   1   5
TORSDOF 2
ENDMDL
MODEL 2
REMARK VINA RESULT:      -3.8      1.701      3.710
REMARK  2 active torsions:
REMARK  status: ('A' for Active; 'I' for Inactive)
REMARK    1  A    between atoms: C1_1  and  C2_2 
REMARK    2  A    between atoms: C1_1  and  C3_3 
ROOT
HETATM    1  C1  UNL     1     -33.556   6.880   4.354  1.00 20.00     0.173 C 
HETATM    2  O4  UNL     1     -32.801   6.727   3.392  1.00 20.00    -0.294 OA
ENDROOT
BRANCH   1   3
HETATM    3  C2  UNL     1     -33.521   8.110   5.237  1.00 20.00     0.195 C 
HETATM    4 CL5  UNL     1     -32.137   9.136   4.831  1.00 20.00    -0.122 Cl
ENDBRANCH   1   3
BRANCH   1   5
HETATM    5  C3  UNL     1     -34.557   5.819   4.752  1.00 20.00     0.248 C 
HETATM    6 CL6  UNL     1     -34.716   5.858   6.511  1.00 20.00    -0.100 Cl
HETATM    7 CL7  UNL     1     -33.988   4.241   4.188  1.00 20.00    -0.100 Cl
ENDBRANCH   1   5
TORSDOF 2
ENDMDL
MODEL 3
REMARK VINA RESULT:      -3.8      1.489      2.026
REMARK  2 active torsions:
REMARK  status: ('A' for Active; 'I' for Inactive)
REMARK    1  A    between atoms: C1_1  and  C2_2 
REMARK    2  A    between atoms: C1_1  and  C3_3 
ROOT
HETATM    1  C1  UNL     1     -33.677   7.346   4.730  1.00 20.00     0.173 C 
HETATM    2  O4  UNL     1     -33.778   8.304   5.499  1.00 20.00    -0.294 OA
ENDROOT
BRANCH   1   3
HETATM    3  C2  UNL     1     -34.618   6.160   4.769  1.00 20.00     0.195 C 
HETATM    4 CL5  UNL     1     -34.504   5.317   6.320  1.00 20.00    -0.122 Cl
ENDBRANCH   1   3
BRANCH   1   5
HETATM    5  C3  UNL     1     -32.565   7.264   3.708  1.00 20.00     0.248 C 
HETATM    6 CL6  UNL     1     -32.613   8.740   2.738  1.00 20.00    -0.100 Cl
HETATM    7 CL7  UNL     1     -32.799   5.823   2.708  1.00 20.00    -0.100 Cl
ENDBRANCH   1   5
TORSDOF 2
ENDMDL
MODEL 4
REMARK VINA RESULT:      -3.8      1.022      3.373
REMARK  2 active torsions:
REMARK  status: ('A' for Active; 'I' for Inactive)
REMARK    1  A    between atoms: C1_1  and  C2_2 
REMARK    2  A    between atoms: C1_1  and  C3_3 
ROOT
HETATM    1  C1  UNL     1     -33.721   7.164   4.973  1.00 20.00     0.173 C 
HETATM    2  O4  UNL     1     -34.029   7.596   6.085  1.00 20.00    -0.294 OA
ENDROOT
BRANCH   1   3
HETATM    3  C2  UNL     1     -32.727   7.862   4.068  1.00 20.00     0.195 C 
HETATM    4 CL5  UNL     1     -32.052   9.292   4.862  1.00 20.00    -0.122 Cl
ENDBRANCH   1   3
BRANCH   1   5
HETATM    5  C3  UNL     1     -34.352   5.911   4.406  1.00 20.00     0.248 C 
HETATM    6 CL6  UNL     1     -34.540   4.755   5.729  1.00 20.00    -0.100 Cl
HETATM    7 CL7  UNL     1     -33.316   5.267   3.125  1.00 20.00    -0.100 Cl
ENDBRANCH   1   5
TORSDOF 2
ENDMDL
MODEL 5
REMARK VINA RESULT:      -3.7      2.107      2.820
REMARK  2 active torsions:
REMARK  status: ('A' for Active; 'I' for Inactive)
REMARK    1  A    between atoms: C1_1  and  C2_2 
REMARK    2  A    between atoms: C1_1  and  C3_3 
ROOT
HETATM    1  C1  UNL     1     -33.494   7.208   4.471  1.00 20.00     0.173 C 
HETATM    2  O4  UNL     1     -33.639   8.302   5.020  1.00 20.00    -0.294 OA
ENDROOT
BRANCH   1   3
HETATM    3  C2  UNL     1     -32.563   6.998   3.295  1.00 20.00     0.195 C 
HETATM    4 CL5  UNL     1     -32.792   5.389   2.592  1.00 20.00    -0.122 Cl
ENDBRANCH   1   3
BRANCH   1   5
HETATM    5  C3  UNL     1     -34.276   5.990   4.911  1.00 20.00     0.248 C 
HETATM    6 CL6  UNL     1     -35.870   6.069   4.152  1.00 20.00    -0.100 Cl
HETATM    7 CL7  UNL     1     -34.397   5.983   6.676  1.00 20.00    -0.100 Cl
ENDBRANCH   1   5
TORSDOF 2
ENDMDL
MODEL 6
REMARK VINA RESULT:      -3.7      1.549      3.415
REMARK  2 active torsions:
REMARK  status: ('A' for Active; 'I' for Inactive)
REMARK    1  A    between atoms: C1_1  and  C2_2 
REMARK    2  A    between atoms: C1_1  and  C3_3 
ROOT
HETATM    1  C1  UNL     1     -33.523   7.540   4.728  1.00 20.00     0.173 C 
HETATM    2  O4  UNL     1     -33.704   8.469   5.518  1.00 20.00    -0.294 OA
ENDROOT
BRANCH   1   3
HETATM    3  C2  UNL     1     -32.437   7.561   3.673  1.00 20.00     0.195 C 
HETATM    4 CL5  UNL     1     -32.635   8.951   2.595  1.00 20.00    -0.122 Cl
ENDBRANCH   1   3
BRANCH   1   5
HETATM    5  C3  UNL     1     -34.411   6.315   4.729  1.00 20.00     0.248 C 
HETATM    6 CL6  UNL     1     -34.484   5.702   6.384  1.00 20.00    -0.100 Cl
HETATM    7 CL7  UNL     1     -33.740   5.111   3.620  1.00 20.00    -0.100 Cl
ENDBRANCH   1   5
TORSDOF 2
ENDMDL
MODEL 7
REMARK VINA RESULT:      -3.7      1.942      2.347
REMARK  2 active torsions:
REMARK  status: ('A' for Active; 'I' for Inactive)
REMARK    1  A    between atoms: C1_1  and  C2_2 
REMARK    2  A    between atoms: C1_1  and  C3_3 
ROOT
HETATM    1  C1  UNL     1     -33.673   5.964   3.875  1.00 20.00     0.173 C 
HETATM    2  O4  UNL     1     -33.379   5.118   3.029  1.00 20.00    -0.294 OA
ENDROOT
BRANCH   1   3
HETATM    3  C2  UNL     1     -34.938   5.889   4.704  1.00 20.00     0.195 C 
HETATM    4 CL5  UNL     1     -34.593   5.260   6.322  1.00 20.00    -0.122 Cl
ENDBRANCH   1   3
BRANCH   1   5
HETATM    5  C3  UNL     1     -32.801   7.175   4.122  1.00 20.00     0.248 C 
HETATM    6 CL6  UNL     1     -33.770   8.369   4.992  1.00 20.00    -0.100 Cl
HETATM    7 CL7  UNL     1     -32.230   7.807   2.571  1.00 20.00    -0.100 Cl
ENDBRANCH   1   5
TORSDOF 2
ENDMDL
MODEL 8
REMARK VINA RESULT:      -3.6      2.073      3.717
REMARK  2 active torsions:
REMARK  status: ('A' for Active; 'I' for Inactive)
REMARK    1  A    between atoms: C1_1  and  C2_2 
REMARK    2  A    between atoms: C1_1  and  C3_3 
ROOT
HETATM    1  C1  UNL     1     -33.175   6.755   3.906  1.00 20.00     0.173 C 
HETATM    2  O4  UNL     1     -32.804   5.997   3.009  1.00 20.00    -0.294 OA
ENDROOT
BRANCH   1   3
HETATM    3  C2  UNL     1     -32.477   8.063   4.215  1.00 20.00     0.195 C 
HETATM    4 CL5  UNL     1     -32.608   9.182   2.850  1.00 20.00    -0.122 Cl
ENDBRANCH   1   3
BRANCH   1   5
HETATM    5  C3  UNL     1     -34.343   6.411   4.803  1.00 20.00     0.248 C 
HETATM    6 CL6  UNL     1     -34.019   7.097   6.399  1.00 20.00    -0.100 Cl
HETATM    7 CL7  UNL     1     -34.521   4.652   4.877  1.00 20.00    -0.100 Cl
ENDBRANCH   1   5
TORSDOF 2
ENDMDL
MODEL 9
REMARK VINA RESULT:      -3.5      2.179      2.982
REMARK  2 active torsions:
REMARK  status: ('A' for Active; 'I' for Inactive)
REMARK    1  A    between atoms: C1_1  and  C2_2 
REMARK    2  A    between atoms: C1_1  and  C3_3 
ROOT
HETATM    1  C1  UNL     1     -33.094   7.234   4.137  1.00 20.00     0.173 C 
HETATM    2  O4  UNL     1     -32.242   7.616   3.333  1.00 20.00    -0.294 OA
ENDROOT
BRANCH   1   3
HETATM    3  C2  UNL     1     -33.637   8.120   5.239  1.00 20.00     0.195 C 
HETATM    4 CL5  UNL     1     -34.040   7.163   6.672  1.00 20.00    -0.122 Cl
ENDBRANCH   1   3
BRANCH   1   5
HETATM    5  C3  UNL     1     -33.636   5.821   4.108  1.00 20.00     0.248 C 
HETATM    6 CL6  UNL     1     -33.091   5.065   2.606  1.00 20.00    -0.100 Cl
HETATM    7 CL7  UNL     1     -35.401   5.874   4.203  1.00 20.00    -0.100 Cl
ENDBRANCH   1   5
TORSDOF 2
ENDMDL
