MODEL 1
REMARK VINA RESULT:      -5.5      0.000      0.000
REMARK  0 active torsions:
REMARK  status: ('A' for Active; 'I' for Inactive)
ROOT
HETATM    1  C1  UNL     1     -33.510   7.045   4.493  1.00 20.00    -0.011 C 
HETATM    2  C2  UNL     1     -33.805   5.727   3.859  1.00 20.00     0.155 C 
HETATM    3  C3  UNL     1     -32.586   7.829   3.920  1.00 20.00    -0.078 C 
HETATM    4  C4  UNL     1     -34.248   7.395   5.748  1.00 20.00     0.042 C 
HETATM    5  C5  UNL     1     -34.112   4.573   4.791  1.00 20.00     0.083 C 
HETATM    6  C6  UNL     1     -34.348   6.204   6.698  1.00 20.00     0.005 C 
HETATM    7  C7  UNL     1     -34.951   4.996   5.990  1.00 20.00     0.008 C 
HETATM    8  C8  UNL     1     -32.222   9.171   4.486  1.00 20.00     0.043 C 
HETATM    9  C9  UNL     1     -31.855   7.418   2.676  1.00 20.00     0.043 C 
HETATM   10  O10 UNL     1     -33.728   5.563   2.643  1.00 20.00    -0.293 OA
ENDROOT
TORSDOF 0
ENDMDL
MODEL 2
REMARK VINA RESULT:      -5.5      1.223      1.954
REMARK  0 active torsions:
REMARK  status: ('A' for Active; 'I' for Inactive)
ROOT
HETATM    1  C1  UNL     1     -33.592   6.516   4.131  1.00 20.00    -0.011 C 
HETATM    2  C2  UNL     1     -34.258   5.378   4.829  1.00 20.00     0.155 C 
HETATM    3  C3  UNL     1     -32.899   6.254   3.015  1.00 20.00    -0.078 C 
HETATM    4  C4  UNL     1     -33.720   7.878   4.740  1.00 20.00     0.042 C 
HETATM    5  C5  UNL     1     -34.287   5.427   6.343  1.00 20.00     0.083 C 
HETATM    6  C6  UNL     1     -33.557   7.839   6.258  1.00 20.00     0.005 C 
HETATM    7  C7  UNL     1     -34.521   6.834   6.879  1.00 20.00     0.008 C 
HETATM    8  C8  UNL     1     -32.195   7.334   2.245  1.00 20.00     0.043 C 
HETATM    9  C9  UNL     1     -32.779   4.865   2.461  1.00 20.00     0.043 C 
HETATM   10  O10 UNL     1     -34.695   4.409   4.213  1.00 20.00    -0.293 OA
ENDROOT
TORSDOF 0
ENDMDL
MODEL 3
REMARK VINA RESULT:      -5.0      1.609      3.948
REMARK  0 active torsions:
REMARK  status: ('A' for Active; 'I' for Inactive)
ROOT
HETATM    1  C1  UNL     1     -33.841   6.617   4.647  1.00 20.00    -0.011 C 
HETATM    2  C2  UNL     1     -33.195   7.948   4.454  1.00 20.00     0.155 C 
HETATM    3  C3  UNL     1     -34.298   6.308   5.868  1.00 20.00    -0.078 C 
HETATM    4  C4  UNL     1     -33.912   5.699   3.466  1.00 20.00     0.042 C 
HETATM    5  C5  UNL     1     -32.022   8.006   3.497  1.00 20.00     0.083 C 
HETATM    6  C6  UNL     1     -32.611   5.700   2.667  1.00 20.00     0.005 C 
HETATM    7  C7  UNL     1     -32.219   7.120   2.274  1.00 20.00     0.008 C 
HETATM    8  C8  UNL     1     -34.962   4.993   6.159  1.00 20.00     0.043 C 
HETATM    9  C9  UNL     1     -34.177   7.256   7.026  1.00 20.00     0.043 C 
HETATM   10  O10 UNL     1     -33.546   8.936   5.095  1.00 20.00    -0.293 OA
ENDROOT
TORSDOF 0
ENDMDL
MODEL 4
REMARK VINA RESULT:      -5.0      1.550      2.678
REMARK  0 active torsions:
REMARK  status: ('A' for Active; 'I' for Inactive)
ROOT
HETATM    1  C1  UNL     1     -33.201   6.231   4.063  1.00 20.00    -0.011 C 
HETATM    2  C2  UNL     1     -33.013   7.484   4.852  1.00 20.00     0.155 C 
HETATM    3  C3  UNL     1     -32.826   6.233   2.777  1.00 20.00    -0.078 C 
HETATM    4  C4  UNL     1     -33.824   5.059   4.755  1.00 20.00     0.042 C 
HETATM    5  C5  UNL     1     -34.075   7.809   5.881  1.00 20.00     0.083 C 
HETATM    6  C6  UNL     1     -35.000   5.478   5.634  1.00 20.00     0.005 C 
HETATM    7  C7  UNL     1     -34.583   6.572   6.610  1.00 20.00     0.008 C 
HETATM    8  C8  UNL     1     -32.977   5.020   1.904  1.00 20.00     0.043 C 
HETATM    9  C9  UNL     1     -32.231   7.445   2.123  1.00 20.00     0.043 C 
HETATM   10  O10 UNL     1     -32.083   8.255   4.627  1.00 20.00    -0.293 OA
ENDROOT
TORSDOF 0
ENDMDL
MODEL 5
REMARK VINA RESULT:      -4.6      1.590      2.522
REMARK  0 active torsions:
REMARK  status: ('A' for Active; 'I' for Inactive)
ROOT
HETATM    1  C1  UNL     1     -33.043   6.991   4.127  1.00 20.00    -0.011 C 
HETATM    2  C2  UNL     1     -33.307   7.365   5.547  1.00 20.00     0.155 C 
HETATM    3  C3  UNL     1     -32.616   7.947   3.291  1.00 20.00    -0.078 C 
HETATM    4  C4  UNL     1     -33.300   5.572   3.721  1.00 20.00     0.042 C 
HETATM    5  C5  UNL     1     -34.474   6.681   6.228  1.00 20.00     0.083 C 
HETATM    6  C6  UNL     1     -34.596   5.035   4.323  1.00 20.00     0.005 C 
HETATM    7  C7  UNL     1     -34.604   5.215   5.837  1.00 20.00     0.008 C 
HETATM    8  C8  UNL     1     -32.324   7.665   1.845  1.00 20.00     0.043 C 
HETATM    9  C9  UNL     1     -32.400   9.361   3.743  1.00 20.00     0.043 C 
HETATM   10  O10 UNL     1     -32.659   8.240   6.115  1.00 20.00    -0.293 OA
ENDROOT
TORSDOF 0
ENDMDL
MODEL 6
REMARK VINA RESULT:      -4.6      1.490      3.387
REMARK  0 active torsions:
REMARK  status: ('A' for Active; 'I' for Inactive)
ROOT
HETATM    1  C1  UNL     1     -33.547   6.508   4.116  1.00 20.00    -0.011 C 
HETATM    2  C2  UNL     1     -34.237   6.609   5.436  1.00 20.00     0.155 C 
HETATM    3  C3  UNL     1     -33.447   5.300   3.546  1.00 20.00    -0.078 C 
HETATM    4  C4  UNL     1     -32.986   7.765   3.526  1.00 20.00     0.042 C 
HETATM    5  C5  UNL     1     -33.681   7.614   6.423  1.00 20.00     0.083 C 
HETATM    6  C6  UNL     1     -32.291   8.625   4.579  1.00 20.00     0.005 C 
HETATM    7  C7  UNL     1     -33.224   8.903   5.752  1.00 20.00     0.008 C 
HETATM    8  C8  UNL     1     -32.771   5.101   2.220  1.00 20.00     0.043 C 
HETATM    9  C9  UNL     1     -34.004   4.066   4.193  1.00 20.00     0.043 C 
HETATM   10  O10 UNL     1     -35.163   5.860   5.738  1.00 20.00    -0.293 OA
ENDROOT
TORSDOF 0
ENDMDL
MODEL 7
REMARK VINA RESULT:      -4.6      0.977      3.473
REMARK  0 active torsions:
REMARK  status: ('A' for Active; 'I' for Inactive)
ROOT
HETATM    1  C1  UNL     1     -33.233   6.819   4.412  1.00 20.00    -0.011 C 
HETATM    2  C2  UNL     1     -32.925   6.183   3.097  1.00 20.00     0.155 C 
HETATM    3  C3  UNL     1     -34.094   6.197   5.228  1.00 20.00    -0.078 C 
HETATM    4  C4  UNL     1     -32.577   8.129   4.722  1.00 20.00     0.042 C 
HETATM    5  C5  UNL     1     -32.713   7.114   1.921  1.00 20.00     0.083 C 
HETATM    6  C6  UNL     1     -32.573   9.062   3.514  1.00 20.00     0.005 C 
HETATM    7  C7  UNL     1     -31.951   8.376   2.303  1.00 20.00     0.008 C 
HETATM    8  C8  UNL     1     -34.465   6.760   6.570  1.00 20.00     0.043 C 
HETATM    9  C9  UNL     1     -34.745   4.897   4.857  1.00 20.00     0.043 C 
HETATM   10  O10 UNL     1     -32.919   4.963   2.956  1.00 20.00    -0.293 OA
ENDROOT
TORSDOF 0
ENDMDL
MODEL 8
REMARK VINA RESULT:      -4.5      1.399      2.199
REMARK  0 active torsions:
REMARK  status: ('A' for Active; 'I' for Inactive)
ROOT
HETATM    1  C1  UNL     1     -33.590   7.067   4.398  1.00 20.00    -0.011 C 
HETATM    2  C2  UNL     1     -32.811   6.714   3.175  1.00 20.00     0.155 C 
HETATM    3  C3  UNL     1     -33.225   8.157   5.086  1.00 20.00    -0.078 C 
HETATM    4  C4  UNL     1     -34.715   6.161   4.794  1.00 20.00     0.042 C 
HETATM    5  C5  UNL     1     -32.604   5.239   2.899  1.00 20.00     0.083 C 
HETATM    6  C6  UNL     1     -34.338   4.689   4.644  1.00 20.00     0.005 C 
HETATM    7  C7  UNL     1     -33.831   4.401   3.235  1.00 20.00     0.008 C 
HETATM    8  C8  UNL     1     -33.947   8.590   6.329  1.00 20.00     0.043 C 
HETATM    9  C9  UNL     1     -32.070   9.016   4.661  1.00 20.00     0.043 C 
HETATM   10  O10 UNL     1     -32.298   7.575   2.466  1.00 20.00    -0.293 OA
ENDROOT
TORSDOF 0
ENDMDL
MODEL 9
REMARK VINA RESULT:      -3.8     12.517     13.592
REMARK  0 active torsions:
REMARK  status: ('A' for Active; 'I' for Inactive)
ROOT
HETATM    1  C1  UNL     1     -33.972  17.028  -3.459  1.00 20.00    -0.011 C 
HETATM    2  C2  UNL     1     -34.897  18.188  -3.621  1.00 20.00     0.155 C 
HETATM    3  C3  UNL     1     -34.032  16.041  -4.363  1.00 20.00    -0.078 C 
HETATM    4  C4  UNL     1     -33.052  17.030  -2.277  1.00 20.00     0.042 C 
HETATM    5  C5  UNL     1     -35.449  18.804  -2.352  1.00 20.00     0.083 C 
HETATM    6  C6  UNL     1     -33.759  17.502  -1.009  1.00 20.00     0.005 C 
HETATM    7  C7  UNL     1     -34.419  18.859  -1.231  1.00 20.00     0.008 C 
HETATM    8  C8  UNL     1     -33.142  14.835  -4.282  1.00 20.00     0.043 C 
HETATM    9  C9  UNL     1     -34.992  16.076  -5.516  1.00 20.00     0.043 C 
HETATM   10  O10 UNL     1     -35.255  18.578  -4.730  1.00 20.00    -0.293 OA
ENDROOT
TORSDOF 0
ENDMDL
