MODEL 1
REMARK VINA RESULT:      -5.0      0.000      0.000
REMARK  2 active torsions:
REMARK  status: ('A' for Active; 'I' for Inactive)
REMARK    1  A    between atoms: C1_1  and  C2_2 
REMARK    2  A    between atoms: C1_1  and  C3_3 
ROOT
HETATM    1  C1  UNL     1     -33.741   6.718   5.656  1.00 20.00     0.153 C 
ENDROOT
BRANCH   1   2
HETATM    2  C2  UNL     1     -33.417   7.566   4.426  1.00 20.00     0.186 C 
HETATM    3 CL7  UNL     1     -32.611   6.623   3.149  1.00 20.00    -0.108 Cl
HETATM    4 CL8  UNL     1     -32.359   8.927   4.892  1.00 20.00    -0.108 Cl
ENDBRANCH   1   2
BRANCH   1   5
HETATM    5  C3  UNL     1     -34.726   5.595   5.392  1.00 20.00     0.390 C 
HETATM    6  F4  UNL     1     -35.719   5.999   4.572  1.00 20.00    -0.171 F 
HETATM    7  F5  UNL     1     -34.136   4.518   4.836  1.00 20.00    -0.171 F 
HETATM    8  F6  UNL     1     -35.294   5.191   6.550  1.00 20.00    -0.171 F 
ENDBRANCH   1   5
TORSDOF 2
ENDMDL
MODEL 2
REMARK VINA RESULT:      -5.0      0.015      1.335
REMARK  2 active torsions:
REMARK  status: ('A' for Active; 'I' for Inactive)
REMARK    1  A    between atoms: C1_1  and  C2_2 
REMARK    2  A    between atoms: C1_1  and  C3_3 
ROOT
HETATM    1  C1  UNL     1     -33.724   6.712   5.656  1.00 20.00     0.153 C 
ENDROOT
BRANCH   1   2
HETATM    2  C2  UNL     1     -33.412   7.566   4.426  1.00 20.00     0.186 C 
HETATM    3 CL7  UNL     1     -32.604   6.632   3.143  1.00 20.00    -0.108 Cl
HETATM    4 CL8  UNL     1     -32.363   8.933   4.891  1.00 20.00    -0.108 Cl
ENDBRANCH   1   2
BRANCH   1   5
HETATM    5  C3  UNL     1     -34.735   5.610   5.403  1.00 20.00     0.390 C 
HETATM    6  F4  UNL     1     -35.302   5.193   6.555  1.00 20.00    -0.171 F 
HETATM    7  F5  UNL     1     -35.720   6.001   4.570  1.00 20.00    -0.171 F 
HETATM    8  F6  UNL     1     -34.129   4.541   4.838  1.00 20.00    -0.171 F 
ENDBRANCH   1   5
TORSDOF 2
ENDMDL
MODEL 3
REMARK VINA RESULT:      -4.7      3.130      3.841
REMARK  2 active torsions:
REMARK  status: ('A' for Active; 'I' for Inactive)
REMARK    1  A    between atoms: C1_1  and  C2_2 
REMARK    2  A    between atoms: C1_1  and  C3_3 
ROOT
HETATM    1  C1  UNL     1     -33.198   7.420   5.508  1.00 20.00     0.153 C 
ENDROOT
BRANCH   1   2
HETATM    2  C2  UNL     1     -34.257   6.485   4.922  1.00 20.00     0.186 C 
HETATM    3 CL7  UNL     1     -34.889   5.339   6.129  1.00 20.00    -0.108 Cl
HETATM    4 CL8  UNL     1     -33.563   5.564   3.559  1.00 20.00    -0.108 Cl
ENDBRANCH   1   2
BRANCH   1   5
HETATM    5  C3  UNL     1     -32.578   8.365   4.497  1.00 20.00     0.390 C 
HETATM    6  F4  UNL     1     -31.482   7.820   3.926  1.00 20.00    -0.171 F 
HETATM    7  F5  UNL     1     -33.439   8.699   3.514  1.00 20.00    -0.171 F 
HETATM    8  F6  UNL     1     -32.194   9.511   5.103  1.00 20.00    -0.171 F 
ENDBRANCH   1   5
TORSDOF 2
ENDMDL
MODEL 4
REMARK VINA RESULT:      -4.7      3.223      3.762
REMARK  2 active torsions:
REMARK  status: ('A' for Active; 'I' for Inactive)
REMARK    1  A    between atoms: C1_1  and  C2_2 
REMARK    2  A    between atoms: C1_1  and  C3_3 
ROOT
HETATM    1  C1  UNL     1     -33.722   7.796   4.703  1.00 20.00     0.153 C 
ENDROOT
BRANCH   1   2
HETATM    2  C2  UNL     1     -34.139   6.337   4.898  1.00 20.00     0.186 C 
HETATM    3 CL7  UNL     1     -35.744   5.996   4.207  1.00 20.00    -0.108 Cl
HETATM    4 CL8  UNL     1     -34.166   5.944   6.639  1.00 20.00    -0.108 Cl
ENDBRANCH   1   2
BRANCH   1   5
HETATM    5  C3  UNL     1     -32.546   7.983   3.765  1.00 20.00     0.390 C 
HETATM    6  F4  UNL     1     -32.300   6.860   3.058  1.00 20.00    -0.171 F 
HETATM    7  F5  UNL     1     -32.744   8.992   2.891  1.00 20.00    -0.171 F 
HETATM    8  F6  UNL     1     -31.428   8.273   4.469  1.00 20.00    -0.171 F 
ENDBRANCH   1   5
TORSDOF 2
ENDMDL
MODEL 5
REMARK VINA RESULT:      -4.6      3.182      3.686
REMARK  2 active torsions:
REMARK  status: ('A' for Active; 'I' for Inactive)
REMARK    1  A    between atoms: C1_1  and  C2_2 
REMARK    2  A    between atoms: C1_1  and  C3_3 
ROOT
HETATM    1  C1  UNL     1     -33.701   7.676   4.832  1.00 20.00     0.153 C 
ENDROOT
BRANCH   1   2
HETATM    2  C2  UNL     1     -34.191   6.228   4.883  1.00 20.00     0.186 C 
HETATM    3 CL7  UNL     1     -35.815   6.040   4.176  1.00 20.00    -0.108 Cl
HETATM    4 CL8  UNL     1     -34.231   5.661   6.575  1.00 20.00    -0.108 Cl
ENDBRANCH   1   2
BRANCH   1   5
HETATM    5  C3  UNL     1     -32.580   7.915   3.839  1.00 20.00     0.390 C 
HETATM    6  F4  UNL     1     -32.885   8.918   2.989  1.00 20.00    -0.171 F 
HETATM    7  F5  UNL     1     -31.415   8.221   4.447  1.00 20.00    -0.171 F 
HETATM    8  F6  UNL     1     -32.368   6.804   3.098  1.00 20.00    -0.171 F 
ENDBRANCH   1   5
TORSDOF 2
ENDMDL
MODEL 6
REMARK VINA RESULT:      -4.6      1.510      2.448
REMARK  2 active torsions:
REMARK  status: ('A' for Active; 'I' for Inactive)
REMARK    1  A    between atoms: C1_1  and  C2_2 
REMARK    2  A    between atoms: C1_1  and  C3_3 
ROOT
HETATM    1  C1  UNL     1     -34.307   6.473   4.820  1.00 20.00     0.153 C 
ENDROOT
BRANCH   1   2
HETATM    2  C2  UNL     1     -32.991   6.711   4.078  1.00 20.00     0.186 C 
HETATM    3 CL7  UNL     1     -32.799   8.408   3.573  1.00 20.00    -0.108 Cl
HETATM    4 CL8  UNL     1     -32.916   5.668   2.632  1.00 20.00    -0.108 Cl
ENDBRANCH   1   2
BRANCH   1   5
HETATM    5  C3  UNL     1     -34.141   6.202   6.303  1.00 20.00     0.390 C 
HETATM    6  F4  UNL     1     -33.046   6.820   6.794  1.00 20.00    -0.171 F 
HETATM    7  F5  UNL     1     -35.208   6.608   7.020  1.00 20.00    -0.171 F 
HETATM    8  F6  UNL     1     -33.991   4.875   6.521  1.00 20.00    -0.171 F 
ENDBRANCH   1   5
TORSDOF 2
ENDMDL
MODEL 7
REMARK VINA RESULT:      -4.6      0.728      2.038
REMARK  2 active torsions:
REMARK  status: ('A' for Active; 'I' for Inactive)
REMARK    1  A    between atoms: C1_1  and  C2_2 
REMARK    2  A    between atoms: C1_1  and  C3_3 
ROOT
HETATM    1  C1  UNL     1     -34.324   7.401   4.676  1.00 20.00     0.153 C 
ENDROOT
BRANCH   1   2
HETATM    2  C2  UNL     1     -32.803   7.517   4.564  1.00 20.00     0.186 C 
HETATM    3 CL7  UNL     1     -32.214   9.135   5.017  1.00 20.00    -0.108 Cl
HETATM    4 CL8  UNL     1     -32.292   7.166   2.890  1.00 20.00    -0.108 Cl
ENDBRANCH   1   2
BRANCH   1   5
HETATM    5  C3  UNL     1     -34.818   5.996   4.961  1.00 20.00     0.390 C 
HETATM    6  F4  UNL     1     -33.992   5.069   4.431  1.00 20.00    -0.171 F 
HETATM    7  F5  UNL     1     -34.929   5.750   6.283  1.00 20.00    -0.171 F 
HETATM    8  F6  UNL     1     -36.041   5.811   4.413  1.00 20.00    -0.171 F 
ENDBRANCH   1   5
TORSDOF 2
ENDMDL
MODEL 8
REMARK VINA RESULT:      -4.5      1.206      1.261
REMARK  2 active torsions:
REMARK  status: ('A' for Active; 'I' for Inactive)
REMARK    1  A    between atoms: C1_1  and  C2_2 
REMARK    2  A    between atoms: C1_1  and  C3_3 
ROOT
HETATM    1  C1  UNL     1     -33.435   6.902   5.373  1.00 20.00     0.153 C 
ENDROOT
BRANCH   1   2
HETATM    2  C2  UNL     1     -33.425   6.903   3.844  1.00 20.00     0.186 C 
HETATM    3 CL7  UNL     1     -33.235   5.266   3.168  1.00 20.00    -0.108 Cl
HETATM    4 CL8  UNL     1     -32.092   7.930   3.249  1.00 20.00    -0.108 Cl
ENDBRANCH   1   2
BRANCH   1   5
HETATM    5  C3  UNL     1     -34.530   6.049   5.984  1.00 20.00     0.390 C 
HETATM    6  F4  UNL     1     -35.567   5.900   5.132  1.00 20.00    -0.171 F 
HETATM    7  F5  UNL     1     -34.091   4.821   6.327  1.00 20.00    -0.171 F 
HETATM    8  F6  UNL     1     -35.007   6.635   7.106  1.00 20.00    -0.171 F 
ENDBRANCH   1   5
TORSDOF 2
ENDMDL
MODEL 9
REMARK VINA RESULT:      -4.5      1.322      2.129
REMARK  2 active torsions:
REMARK  status: ('A' for Active; 'I' for Inactive)
REMARK    1  A    between atoms: C1_1  and  C2_2 
REMARK    2  A    between atoms: C1_1  and  C3_3 
ROOT
HETATM    1  C1  UNL     1     -33.431   6.174   4.244  1.00 20.00     0.153 C 
ENDROOT
BRANCH   1   2
HETATM    2  C2  UNL     1     -33.722   7.562   4.817  1.00 20.00     0.186 C 
HETATM    3 CL7  UNL     1     -32.353   8.681   4.604  1.00 20.00    -0.108 Cl
HETATM    4 CL8  UNL     1     -34.094   7.431   6.558  1.00 20.00    -0.108 Cl
ENDBRANCH   1   2
BRANCH   1   5
HETATM    5  C3  UNL     1     -34.420   5.108   4.672  1.00 20.00     0.390 C 
HETATM    6  F4  UNL     1     -34.277   4.803   5.979  1.00 20.00    -0.171 F 
HETATM    7  F5  UNL     1     -35.699   5.485   4.468  1.00 20.00    -0.171 F 
HETATM    8  F6  UNL     1     -34.218   3.972   3.965  1.00 20.00    -0.171 F 
ENDBRANCH   1   5
TORSDOF 2
ENDMDL
