MODEL 1
REMARK VINA RESULT:      -4.8      0.000      0.000
REMARK  2 active torsions:
REMARK  status: ('A' for Active; 'I' for Inactive)
REMARK    1  A    between atoms: C2_2  and  C3_3 
REMARK    2  A    between atoms: C3_3  and  O4_4 
ROOT
HETATM    1  C3  UNL     1     -34.669   5.558   4.678  1.00 20.00     0.398 C 
HETATM    2  F6  UNL     1     -35.905   5.834   4.193  1.00 20.00    -0.171 F 
HETATM    3  F7  UNL     1     -34.465   4.223   4.542  1.00 20.00    -0.171 F 
ENDROOT
BRANCH   1   4
HETATM    4  C2  UNL     1     -34.578   5.926   6.142  1.00 20.00     0.367 C 
HETATM    5  F5  UNL     1     -33.953   4.917   6.805  1.00 20.00    -0.223 F 
HETATM    6 CL8  UNL     1     -33.651   7.422   6.384  1.00 20.00    -0.080 Cl
ENDBRANCH   1   4
BRANCH   1   7
HETATM    7  O4  UNL     1     -33.689   6.250   3.914  1.00 20.00    -0.328 OA
HETATM    8  C1  UNL     1     -33.076   5.423   2.934  1.00 20.00     0.208 C 
ENDBRANCH   1   7
TORSDOF 2
ENDMDL
MODEL 2
REMARK VINA RESULT:      -4.5      2.503      2.789
REMARK  2 active torsions:
REMARK  status: ('A' for Active; 'I' for Inactive)
REMARK    1  A    between atoms: C2_2  and  C3_3 
REMARK    2  A    between atoms: C3_3  and  O4_4 
ROOT
HETATM    1  C3  UNL     1     -33.388   7.535   4.971  1.00 20.00     0.398 C 
HETATM    2  F6  UNL     1     -32.332   8.330   5.272  1.00 20.00    -0.171 F 
HETATM    3  F7  UNL     1     -34.427   8.342   4.640  1.00 20.00    -0.171 F 
ENDROOT
BRANCH   1   4
HETATM    4  C2  UNL     1     -33.777   6.693   6.166  1.00 20.00     0.367 C 
HETATM    5  F5  UNL     1     -34.542   7.447   6.998  1.00 20.00    -0.223 F 
HETATM    6 CL8  UNL     1     -34.709   5.260   5.680  1.00 20.00    -0.080 Cl
ENDBRANCH   1   4
BRANCH   1   7
HETATM    7  O4  UNL     1     -33.069   6.719   3.851  1.00 20.00    -0.328 OA
HETATM    8  C1  UNL     1     -32.176   7.356   2.947  1.00 20.00     0.208 C 
ENDBRANCH   1   7
TORSDOF 2
ENDMDL
MODEL 3
REMARK VINA RESULT:      -4.4      2.452      3.052
REMARK  2 active torsions:
REMARK  status: ('A' for Active; 'I' for Inactive)
REMARK    1  A    between atoms: C2_2  and  C3_3 
REMARK    2  A    between atoms: C3_3  and  O4_4 
ROOT
HETATM    1  C3  UNL     1     -33.462   7.447   5.305  1.00 20.00     0.398 C 
HETATM    2  F6  UNL     1     -32.947   7.124   6.517  1.00 20.00    -0.171 F 
HETATM    3  F7  UNL     1     -34.089   8.644   5.433  1.00 20.00    -0.171 F 
ENDROOT
BRANCH   1   4
HETATM    4  C2  UNL     1     -34.466   6.407   4.861  1.00 20.00     0.367 C 
HETATM    5  F5  UNL     1     -33.945   5.723   3.808  1.00 20.00    -0.223 F 
HETATM    6 CL8  UNL     1     -34.834   5.254   6.161  1.00 20.00    -0.080 Cl
ENDBRANCH   1   4
BRANCH   1   7
HETATM    7  O4  UNL     1     -32.410   7.582   4.357  1.00 20.00    -0.328 OA
HETATM    8  C1  UNL     1     -32.563   8.728   3.530  1.00 20.00     0.208 C 
ENDBRANCH   1   7
TORSDOF 2
ENDMDL
MODEL 4
REMARK VINA RESULT:      -4.3      2.938      3.426
REMARK  2 active torsions:
REMARK  status: ('A' for Active; 'I' for Inactive)
REMARK    1  A    between atoms: C2_2  and  C3_3 
REMARK    2  A    between atoms: C3_3  and  O4_4 
ROOT
HETATM    1  C3  UNL     1     -33.640   7.567   5.292  1.00 20.00     0.398 C 
HETATM    2  F6  UNL     1     -34.250   8.699   5.722  1.00 20.00    -0.171 F 
HETATM    3  F7  UNL     1     -32.831   7.132   6.291  1.00 20.00    -0.171 F 
ENDROOT
BRANCH   1   4
HETATM    4  C2  UNL     1     -32.803   7.847   4.064  1.00 20.00     0.367 C 
HETATM    5  F5  UNL     1     -31.565   8.240   4.463  1.00 20.00    -0.223 F 
HETATM    6 CL8  UNL     1     -32.637   6.402   3.043  1.00 20.00    -0.080 Cl
ENDBRANCH   1   4
BRANCH   1   7
HETATM    7  O4  UNL     1     -34.617   6.567   5.029  1.00 20.00    -0.328 OA
HETATM    8  C1  UNL     1     -34.657   5.563   6.034  1.00 20.00     0.208 C 
ENDBRANCH   1   7
TORSDOF 2
ENDMDL
MODEL 5
REMARK VINA RESULT:      -4.3      2.214      2.898
REMARK  2 active torsions:
REMARK  status: ('A' for Active; 'I' for Inactive)
REMARK    1  A    between atoms: C2_2  and  C3_3 
REMARK    2  A    between atoms: C3_3  and  O4_4 
ROOT
HETATM    1  C3  UNL     1     -33.887   6.997   5.116  1.00 20.00     0.398 C 
HETATM    2  F6  UNL     1     -33.207   7.057   6.287  1.00 20.00    -0.171 F 
HETATM    3  F7  UNL     1     -34.591   8.151   4.992  1.00 20.00    -0.171 F 
ENDROOT
BRANCH   1   4
HETATM    4  C2  UNL     1     -34.848   5.830   5.119  1.00 20.00     0.367 C 
HETATM    5  F5  UNL     1     -35.924   6.151   4.353  1.00 20.00    -0.223 F 
HETATM    6 CL8  UNL     1     -34.097   4.363   4.454  1.00 20.00    -0.080 Cl
ENDBRANCH   1   4
BRANCH   1   7
HETATM    7  O4  UNL     1     -32.970   6.904   4.032  1.00 20.00    -0.328 OA
HETATM    8  C1  UNL     1     -32.204   8.088   3.860  1.00 20.00     0.208 C 
ENDBRANCH   1   7
TORSDOF 2
ENDMDL
MODEL 6
REMARK VINA RESULT:      -4.3      1.912      2.951
REMARK  2 active torsions:
REMARK  status: ('A' for Active; 'I' for Inactive)
REMARK    1  A    between atoms: C2_2  and  C3_3 
REMARK    2  A    between atoms: C3_3  and  O4_4 
ROOT
HETATM    1  C3  UNL     1     -34.201   5.935   6.011  1.00 20.00     0.398 C 
HETATM    2  F6  UNL     1     -33.694   5.010   6.863  1.00 20.00    -0.171 F 
HETATM    3  F7  UNL     1     -35.169   6.616   6.675  1.00 20.00    -0.171 F 
ENDROOT
BRANCH   1   4
HETATM    4  C2  UNL     1     -34.810   5.264   4.800  1.00 20.00     0.367 C 
HETATM    5  F5  UNL     1     -35.903   5.973   4.415  1.00 20.00    -0.223 F 
HETATM    6 CL8  UNL     1     -33.666   5.205   3.442  1.00 20.00    -0.080 Cl
ENDBRANCH   1   4
BRANCH   1   7
HETATM    7  O4  UNL     1     -33.179   6.848   5.632  1.00 20.00    -0.328 OA
HETATM    8  C1  UNL     1     -33.673   8.162   5.413  1.00 20.00     0.208 C 
ENDBRANCH   1   7
TORSDOF 2
ENDMDL
MODEL 7
REMARK VINA RESULT:      -4.3      1.297      1.717
REMARK  2 active torsions:
REMARK  status: ('A' for Active; 'I' for Inactive)
REMARK    1  A    between atoms: C2_2  and  C3_3 
REMARK    2  A    between atoms: C3_3  and  O4_4 
ROOT
HETATM    1  C3  UNL     1     -34.725   5.603   4.765  1.00 20.00     0.398 C 
HETATM    2  F6  UNL     1     -35.901   5.926   4.174  1.00 20.00    -0.171 F 
HETATM    3  F7  UNL     1     -35.012   5.007   5.950  1.00 20.00    -0.171 F 
ENDROOT
BRANCH   1   4
HETATM    4  C2  UNL     1     -33.901   6.845   5.023  1.00 20.00     0.367 C 
HETATM    5  F5  UNL     1     -34.401   7.862   4.273  1.00 20.00    -0.223 F 
HETATM    6 CL8  UNL     1     -33.955   7.322   6.734  1.00 20.00    -0.080 Cl
ENDBRANCH   1   4
BRANCH   1   7
HETATM    7  O4  UNL     1     -34.016   4.678   3.949  1.00 20.00    -0.328 OA
HETATM    8  C1  UNL     1     -33.170   5.319   3.004  1.00 20.00     0.208 C 
ENDBRANCH   1   7
TORSDOF 2
ENDMDL
MODEL 8
REMARK VINA RESULT:      -3.9      3.222      3.853
REMARK  2 active torsions:
REMARK  status: ('A' for Active; 'I' for Inactive)
REMARK    1  A    between atoms: C2_2  and  C3_3 
REMARK    2  A    between atoms: C3_3  and  O4_4 
ROOT
HETATM    1  C3  UNL     1     -32.981   8.061   4.607  1.00 20.00     0.398 C 
HETATM    2  F6  UNL     1     -34.273   8.335   4.303  1.00 20.00    -0.171 F 
HETATM    3  F7  UNL     1     -32.340   9.246   4.775  1.00 20.00    -0.171 F 
ENDROOT
BRANCH   1   4
HETATM    4  C2  UNL     1     -32.320   7.296   3.483  1.00 20.00     0.367 C 
HETATM    5  F5  UNL     1     -33.022   6.153   3.264  1.00 20.00    -0.223 F 
HETATM    6 CL8  UNL     1     -32.291   8.240   1.978  1.00 20.00    -0.080 Cl
ENDBRANCH   1   4
BRANCH   1   7
HETATM    7  O4  UNL     1     -32.920   7.333   5.828  1.00 20.00    -0.328 OA
HETATM    8  C1  UNL     1     -34.198   6.900   6.271  1.00 20.00     0.208 C 
ENDBRANCH   1   7
TORSDOF 2
ENDMDL
MODEL 9
REMARK VINA RESULT:      -3.9      2.302      2.880
REMARK  2 active torsions:
REMARK  status: ('A' for Active; 'I' for Inactive)
REMARK    1  A    between atoms: C2_2  and  C3_3 
REMARK    2  A    between atoms: C3_3  and  O4_4 
ROOT
HETATM    1  C3  UNL     1     -34.162   6.615   4.721  1.00 20.00     0.398 C 
HETATM    2  F6  UNL     1     -33.486   5.734   3.942  1.00 20.00    -0.171 F 
HETATM    3  F7  UNL     1     -35.480   6.506   4.413  1.00 20.00    -0.171 F 
ENDROOT
BRANCH   1   4
HETATM    4  C2  UNL     1     -33.705   8.029   4.444  1.00 20.00     0.367 C 
HETATM    5  F5  UNL     1     -33.836   8.759   5.584  1.00 20.00    -0.223 F 
HETATM    6 CL8  UNL     1     -32.004   8.079   3.932  1.00 20.00    -0.080 Cl
ENDBRANCH   1   4
BRANCH   1   7
HETATM    7  O4  UNL     1     -33.985   6.277   6.091  1.00 20.00    -0.328 OA
HETATM    8  C1  UNL     1     -34.547   5.015   6.421  1.00 20.00     0.208 C 
ENDBRANCH   1   7
TORSDOF 2
ENDMDL
