MODEL 1
REMARK VINA RESULT:      -3.0      0.000      0.000
REMARK  0 active torsions:
REMARK  status: ('A' for Active; 'I' for Inactive)
ROOT
HETATM    1  C1  UNL     1     -34.819   5.470   4.762  1.00 20.00     0.196 C 
HETATM    2  C2  UNL     1     -34.610   5.467   6.253  1.00 20.00     0.196 C 
HETATM    3  C3  UNL     1     -33.700   7.333   5.367  1.00 20.00     0.337 C 
HETATM    4  O4  UNL     1     -33.840   6.395   4.296  1.00 20.00    -0.365 OA
HETATM    5  O5  UNL     1     -34.340   6.836   6.546  1.00 20.00    -0.365 OA
ENDROOT
TORSDOF 0
ENDMDL
MODEL 2
REMARK VINA RESULT:      -3.0      0.127      1.768
REMARK  0 active torsions:
REMARK  status: ('A' for Active; 'I' for Inactive)
ROOT
HETATM    1  C1  UNL     1     -34.636   5.597   6.266  1.00 20.00     0.196 C 
HETATM    2  C2  UNL     1     -34.841   5.620   4.775  1.00 20.00     0.196 C 
HETATM    3  C3  UNL     1     -33.625   7.417   5.396  1.00 20.00     0.337 C 
HETATM    4  O4  UNL     1     -34.295   6.948   6.570  1.00 20.00    -0.365 OA
HETATM    5  O5  UNL     1     -33.812   6.496   4.318  1.00 20.00    -0.365 OA
ENDROOT
TORSDOF 0
ENDMDL
MODEL 3
REMARK VINA RESULT:      -2.9      1.127      1.782
REMARK  0 active torsions:
REMARK  status: ('A' for Active; 'I' for Inactive)
ROOT
HETATM    1  C1  UNL     1     -34.061   5.527   4.107  1.00 20.00     0.196 C 
HETATM    2  C2  UNL     1     -34.035   6.885   4.754  1.00 20.00     0.196 C 
HETATM    3  C3  UNL     1     -34.591   5.330   6.292  1.00 20.00     0.337 C 
HETATM    4  O4  UNL     1     -34.847   4.750   5.009  1.00 20.00    -0.365 OA
HETATM    5  O5  UNL     1     -33.918   6.584   6.143  1.00 20.00    -0.365 OA
ENDROOT
TORSDOF 0
ENDMDL
MODEL 4
REMARK VINA RESULT:      -2.9      1.127      2.173
REMARK  0 active torsions:
REMARK  status: ('A' for Active; 'I' for Inactive)
ROOT
HETATM    1  C1  UNL     1     -34.032   6.885   4.752  1.00 20.00     0.196 C 
HETATM    2  C2  UNL     1     -34.060   5.526   4.107  1.00 20.00     0.196 C 
HETATM    3  C3  UNL     1     -34.592   5.333   6.291  1.00 20.00     0.337 C 
HETATM    4  O4  UNL     1     -33.917   6.585   6.142  1.00 20.00    -0.365 OA
HETATM    5  O5  UNL     1     -34.847   4.751   5.009  1.00 20.00    -0.365 OA
ENDROOT
TORSDOF 0
ENDMDL
MODEL 5
REMARK VINA RESULT:      -2.9      1.138      1.790
REMARK  0 active torsions:
REMARK  status: ('A' for Active; 'I' for Inactive)
ROOT
HETATM    1  C1  UNL     1     -33.959   6.707   6.086  1.00 20.00     0.196 C 
HETATM    2  C2  UNL     1     -34.730   5.443   6.355  1.00 20.00     0.196 C 
HETATM    3  C3  UNL     1     -34.277   5.592   4.150  1.00 20.00     0.337 C 
HETATM    4  O4  UNL     1     -34.146   6.912   4.687  1.00 20.00    -0.365 OA
HETATM    5  O5  UNL     1     -34.461   4.644   5.205  1.00 20.00    -0.365 OA
ENDROOT
TORSDOF 0
ENDMDL
MODEL 6
REMARK VINA RESULT:      -2.8      0.976      1.715
REMARK  0 active torsions:
REMARK  status: ('A' for Active; 'I' for Inactive)
ROOT
HETATM    1  C1  UNL     1     -33.775   7.062   4.958  1.00 20.00     0.196 C 
HETATM    2  C2  UNL     1     -34.181   6.858   6.393  1.00 20.00     0.196 C 
HETATM    3  C3  UNL     1     -34.615   4.983   5.215  1.00 20.00     0.337 C 
HETATM    4  O4  UNL     1     -34.502   6.048   4.266  1.00 20.00    -0.365 OA
HETATM    5  O5  UNL     1     -34.239   5.439   6.518  1.00 20.00    -0.365 OA
ENDROOT
TORSDOF 0
ENDMDL
MODEL 7
REMARK VINA RESULT:      -2.7      1.083      1.825
REMARK  0 active torsions:
REMARK  status: ('A' for Active; 'I' for Inactive)
ROOT
HETATM    1  C1  UNL     1     -34.194   6.716   6.392  1.00 20.00     0.196 C 
HETATM    2  C2  UNL     1     -34.875   5.825   5.388  1.00 20.00     0.196 C 
HETATM    3  C3  UNL     1     -33.450   7.211   4.320  1.00 20.00     0.337 C 
HETATM    4  O4  UNL     1     -33.716   7.800   5.597  1.00 20.00    -0.365 OA
HETATM    5  O5  UNL     1     -34.018   5.901   4.250  1.00 20.00    -0.365 OA
ENDROOT
TORSDOF 0
ENDMDL
MODEL 8
REMARK VINA RESULT:      -2.6      1.506      1.738
REMARK  0 active torsions:
REMARK  status: ('A' for Active; 'I' for Inactive)
ROOT
HETATM    1  C1  UNL     1     -34.233   6.443   4.728  1.00 20.00     0.196 C 
HETATM    2  C2  UNL     1     -33.718   7.260   5.883  1.00 20.00     0.196 C 
HETATM    3  C3  UNL     1     -32.596   7.819   4.007  1.00 20.00     0.337 C 
HETATM    4  O4  UNL     1     -33.181   6.535   3.769  1.00 20.00    -0.365 OA
HETATM    5  O5  UNL     1     -33.070   8.358   5.244  1.00 20.00    -0.365 OA
ENDROOT
TORSDOF 0
ENDMDL
MODEL 9
REMARK VINA RESULT:      -2.5      2.095      3.094
REMARK  0 active torsions:
REMARK  status: ('A' for Active; 'I' for Inactive)
ROOT
HETATM    1  C1  UNL     1     -33.629   7.887   4.785  1.00 20.00     0.196 C 
HETATM    2  C2  UNL     1     -32.234   8.286   4.386  1.00 20.00     0.196 C 
HETATM    3  C3  UNL     1     -32.839   6.430   3.253  1.00 20.00     0.337 C 
HETATM    4  O4  UNL     1     -33.704   6.518   4.390  1.00 20.00    -0.365 OA
HETATM    5  O5  UNL     1     -32.046   7.615   3.142  1.00 20.00    -0.365 OA
ENDROOT
TORSDOF 0
ENDMDL
