MODEL 1
REMARK VINA RESULT:      -4.3      0.000      0.000
REMARK  0 active torsions:
REMARK  status: ('A' for Active; 'I' for Inactive)
ROOT
HETATM    1  C1  UNL     1     -22.817  19.201   7.782  1.00 20.00     0.000 C 
HETATM    2  C2  UNL     1     -22.003  17.995   8.234  1.00 20.00     0.000 C 
HETATM    3  C3  UNL     1     -24.304  19.054   8.092  1.00 20.00     0.004 C 
HETATM    4  C4  UNL     1     -21.559  18.013   9.692  1.00 20.00     0.004 C 
HETATM    5  C5  UNL     1     -24.687  19.262   9.557  1.00 20.00     0.049 C 
HETATM    6  C6  UNL     1     -22.494  18.655  10.720  1.00 20.00     0.049 C 
HETATM    7  C7  UNL     1     -24.340  16.195  11.411  1.00 20.00     0.180 C 
HETATM    8  C8  UNL     1     -25.312  16.907  12.332  1.00 20.00     0.103 C 
HETATM    9  C9  UNL     1     -23.993  18.346  10.576  1.00 20.00     0.108 C 
HETATM   10  O10 UNL     1     -24.209  16.973  10.217  1.00 20.00    -0.369 OA
HETATM   11  S11 UNL     1     -24.796  18.626  12.208  1.00 20.00    -0.129 SA
ENDROOT
TORSDOF 0
ENDMDL
MODEL 2
REMARK VINA RESULT:      -3.5     17.831     19.348
REMARK  0 active torsions:
REMARK  status: ('A' for Active; 'I' for Inactive)
ROOT
HETATM    1  C1  UNL     1     -33.440  16.347  -2.988  1.00 20.00     0.000 C 
HETATM    2  C2  UNL     1     -32.885  15.365  -4.013  1.00 20.00     0.000 C 
HETATM    3  C3  UNL     1     -33.932  17.643  -3.626  1.00 20.00     0.004 C 
HETATM    4  C4  UNL     1     -33.918  14.475  -4.693  1.00 20.00     0.004 C 
HETATM    5  C5  UNL     1     -35.272  17.543  -4.353  1.00 20.00     0.049 C 
HETATM    6  C6  UNL     1     -35.306  15.061  -4.962  1.00 20.00     0.049 C 
HETATM    7  C7  UNL     1     -34.799  16.445  -7.749  1.00 20.00     0.180 C 
HETATM    8  C8  UNL     1     -36.155  17.104  -7.912  1.00 20.00     0.103 C 
HETATM    9  C9  UNL     1     -35.354  16.507  -5.484  1.00 20.00     0.108 C 
HETATM   10  O10 UNL     1     -34.311  16.751  -6.439  1.00 20.00    -0.369 OA
HETATM   11  S11 UNL     1     -36.963  16.753  -6.344  1.00 20.00    -0.129 SA
ENDROOT
TORSDOF 0
ENDMDL
MODEL 3
REMARK VINA RESULT:      -3.5     19.714     21.232
REMARK  0 active torsions:
REMARK  status: ('A' for Active; 'I' for Inactive)
ROOT
HETATM    1  C1  UNL     1     -28.799  -1.609  10.561  1.00 20.00     0.000 C 
HETATM    2  C2  UNL     1     -27.662  -0.608  10.402  1.00 20.00     0.000 C 
HETATM    3  C3  UNL     1     -28.466  -2.974   9.965  1.00 20.00     0.004 C 
HETATM    4  C4  UNL     1     -26.587  -0.661  11.482  1.00 20.00     0.004 C 
HETATM    5  C5  UNL     1     -27.509  -3.830  10.794  1.00 20.00     0.049 C 
HETATM    6  C6  UNL     1     -26.244  -2.024  12.087  1.00 20.00     0.049 C 
HETATM    7  C7  UNL     1     -24.086  -3.028  10.020  1.00 20.00     0.180 C 
HETATM    8  C8  UNL     1     -23.869  -4.415  10.592  1.00 20.00     0.103 C 
HETATM    9  C9  UNL     1     -26.141  -3.206  11.109  1.00 20.00     0.108 C 
HETATM   10  O10 UNL     1     -25.495  -2.817   9.888  1.00 20.00    -0.369 OA
HETATM   11  S11 UNL     1     -25.106  -4.511  11.893  1.00 20.00    -0.129 SA
ENDROOT
TORSDOF 0
ENDMDL
MODEL 4
REMARK VINA RESULT:      -3.4     17.197     18.747
REMARK  0 active torsions:
REMARK  status: ('A' for Active; 'I' for Inactive)
ROOT
HETATM    1  C1  UNL     1     -33.483  17.770  -2.478  1.00 20.00     0.000 C 
HETATM    2  C2  UNL     1     -34.761  18.482  -2.903  1.00 20.00     0.000 C 
HETATM    3  C3  UNL     1     -33.553  16.261  -2.696  1.00 20.00     0.004 C 
HETATM    4  C4  UNL     1     -34.852  18.839  -4.382  1.00 20.00     0.004 C 
HETATM    5  C5  UNL     1     -33.403  15.805  -4.146  1.00 20.00     0.049 C 
HETATM    6  C6  UNL     1     -34.211  17.885  -5.392  1.00 20.00     0.049 C 
HETATM    7  C7  UNL     1     -36.585  15.858  -5.832  1.00 20.00     0.180 C 
HETATM    8  C8  UNL     1     -35.865  14.878  -6.738  1.00 20.00     0.103 C 
HETATM    9  C9  UNL     1     -34.417  16.381  -5.146  1.00 20.00     0.108 C 
HETATM   10  O10 UNL     1     -35.751  16.105  -4.695  1.00 20.00    -0.369 OA
HETATM   11  S11 UNL     1     -34.179  15.501  -6.745  1.00 20.00    -0.129 SA
ENDROOT
TORSDOF 0
ENDMDL
MODEL 5
REMARK VINA RESULT:      -3.4     18.011     19.512
REMARK  0 active torsions:
REMARK  status: ('A' for Active; 'I' for Inactive)
ROOT
HETATM    1  C1  UNL     1     -33.023  15.602  -3.839  1.00 20.00     0.000 C 
HETATM    2  C2  UNL     1     -33.792  16.751  -3.199  1.00 20.00     0.000 C 
HETATM    3  C3  UNL     1     -33.930  14.648  -4.612  1.00 20.00     0.004 C 
HETATM    4  C4  UNL     1     -34.052  17.950  -4.102  1.00 20.00     0.004 C 
HETATM    5  C5  UNL     1     -34.416  15.164  -5.965  1.00 20.00     0.049 C 
HETATM    6  C6  UNL     1     -34.290  17.690  -5.592  1.00 20.00     0.049 C 
HETATM    7  C7  UNL     1     -37.395  17.148  -5.576  1.00 20.00     0.180 C 
HETATM    8  C8  UNL     1     -37.558  16.782  -7.038  1.00 20.00     0.103 C 
HETATM    9  C9  UNL     1     -35.188  16.493  -5.947  1.00 20.00     0.108 C 
HETATM   10  O10 UNL     1     -36.301  16.392  -5.047  1.00 20.00    -0.369 OA
HETATM   11  S11 UNL     1     -35.862  16.764  -7.637  1.00 20.00    -0.129 SA
ENDROOT
TORSDOF 0
ENDMDL
MODEL 6
REMARK VINA RESULT:      -3.3     17.337     18.848
REMARK  0 active torsions:
REMARK  status: ('A' for Active; 'I' for Inactive)
ROOT
HETATM    1  C1  UNL     1     -33.074  15.329  -4.112  1.00 20.00     0.000 C 
HETATM    2  C2  UNL     1     -33.476  16.224  -2.946  1.00 20.00     0.000 C 
HETATM    3  C3  UNL     1     -34.223  15.081  -5.085  1.00 20.00     0.004 C 
HETATM    4  C4  UNL     1     -33.391  17.722  -3.212  1.00 20.00     0.004 C 
HETATM    5  C5  UNL     1     -34.554  16.250  -6.012  1.00 20.00     0.049 C 
HETATM    6  C6  UNL     1     -33.707  18.222  -4.623  1.00 20.00     0.049 C 
HETATM    7  C7  UNL     1     -36.838  18.532  -4.417  1.00 20.00     0.180 C 
HETATM    8  C8  UNL     1     -37.112  18.910  -5.860  1.00 20.00     0.103 C 
HETATM    9  C9  UNL     1     -34.914  17.578  -5.327  1.00 20.00     0.108 C 
HETATM   10  O10 UNL     1     -36.001  17.371  -4.414  1.00 20.00    -0.369 OA
HETATM   11  S11 UNL     1     -35.499  18.734  -6.634  1.00 20.00    -0.129 SA
ENDROOT
TORSDOF 0
ENDMDL
MODEL 7
REMARK VINA RESULT:      -3.2     18.081     19.523
REMARK  0 active torsions:
REMARK  status: ('A' for Active; 'I' for Inactive)
ROOT
HETATM    1  C1  UNL     1     -37.131  16.388  -7.236  1.00 20.00     0.000 C 
HETATM    2  C2  UNL     1     -35.962  15.512  -7.669  1.00 20.00     0.000 C 
HETATM    3  C3  UNL     1     -37.353  16.366  -5.726  1.00 20.00     0.004 C 
HETATM    4  C4  UNL     1     -34.589  16.170  -7.597  1.00 20.00     0.004 C 
HETATM    5  C5  UNL     1     -36.353  17.185  -4.910  1.00 20.00     0.049 C 
HETATM    6  C6  UNL     1     -34.333  17.180  -6.477  1.00 20.00     0.049 C 
HETATM    7  C7  UNL     1     -33.417  15.236  -4.170  1.00 20.00     0.180 C 
HETATM    8  C8  UNL     1     -33.293  16.262  -3.060  1.00 20.00     0.103 C 
HETATM    9  C9  UNL     1     -34.872  16.814  -5.083  1.00 20.00     0.108 C 
HETATM   10  O10 UNL     1     -34.688  15.419  -4.803  1.00 20.00    -0.369 OA
HETATM   11  S11 UNL     1     -33.914  17.763  -3.831  1.00 20.00    -0.129 SA
ENDROOT
TORSDOF 0
ENDMDL
MODEL 8
REMARK VINA RESULT:      -3.1     17.963     19.484
REMARK  0 active torsions:
REMARK  status: ('A' for Active; 'I' for Inactive)
ROOT
HETATM    1  C1  UNL     1     -35.083  14.074  -4.512  1.00 20.00     0.000 C 
HETATM    2  C2  UNL     1     -35.916  14.390  -5.748  1.00 20.00     0.000 C 
HETATM    3  C3  UNL     1     -33.720  14.762  -4.532  1.00 20.00     0.004 C 
HETATM    4  C4  UNL     1     -36.722  15.682  -5.682  1.00 20.00     0.004 C 
HETATM    5  C5  UNL     1     -33.742  16.257  -4.216  1.00 20.00     0.049 C 
HETATM    6  C6  UNL     1     -36.124  16.865  -4.918  1.00 20.00     0.049 C 
HETATM    7  C7  UNL     1     -34.382  18.178  -7.194  1.00 20.00     0.180 C 
HETATM    8  C8  UNL     1     -33.724  19.262  -6.363  1.00 20.00     0.103 C 
HETATM    9  C9  UNL     1     -34.623  17.129  -5.124  1.00 20.00     0.108 C 
HETATM   10  O10 UNL     1     -34.243  16.937  -6.494  1.00 20.00    -0.369 OA
HETATM   11  S11 UNL     1     -34.287  18.888  -4.697  1.00 20.00    -0.129 SA
ENDROOT
TORSDOF 0
ENDMDL
MODEL 9
REMARK VINA RESULT:      -3.1     19.631     21.000
REMARK  0 active torsions:
REMARK  status: ('A' for Active; 'I' for Inactive)
ROOT
HETATM    1  C1  UNL     1     -28.032  -0.573  11.238  1.00 20.00     0.000 C 
HETATM    2  C2  UNL     1     -28.552  -1.985  11.000  1.00 20.00     0.000 C 
HETATM    3  C3  UNL     1     -26.938  -0.523  12.302  1.00 20.00     0.004 C 
HETATM    4  C4  UNL     1     -27.747  -2.821  10.012  1.00 20.00     0.004 C 
HETATM    5  C5  UNL     1     -25.567  -1.021  11.848  1.00 20.00     0.049 C 
HETATM    6  C6  UNL     1     -26.231  -2.613   9.962  1.00 20.00     0.049 C 
HETATM    7  C7  UNL     1     -25.318  -4.592  12.239  1.00 20.00     0.180 C 
HETATM    8  C8  UNL     1     -23.838  -4.263  12.230  1.00 20.00     0.103 C 
HETATM    9  C9  UNL     1     -25.512  -2.460  11.312  1.00 20.00     0.108 C 
HETATM   10  O10 UNL     1     -26.047  -3.361  12.292  1.00 20.00    -0.369 OA
HETATM   11  S11 UNL     1     -23.740  -2.893  11.069  1.00 20.00    -0.129 SA
ENDROOT
TORSDOF 0
ENDMDL
