MODEL 1
REMARK VINA RESULT:      -4.5      0.000      0.000
REMARK  4 active torsions:
REMARK  status: ('A' for Active; 'I' for Inactive)
REMARK    1  A    between atoms: C5_5  and  C6_6 
REMARK    2  A    between atoms: C6_6  and  C9_9 
REMARK    3  A    between atoms: C7_7  and  C8_8 
REMARK    4  A    between atoms: C7_7  and  C9_9 
ROOT
HETATM    1  C4  UNL     1     -33.727   8.837   5.940  1.00 20.00     0.010 C 
HETATM    2  C9  UNL     1     -33.268   7.615   5.138  1.00 20.00    -0.018 C 
ENDROOT
BRANCH   2   3
HETATM    3  C6  UNL     1     -32.208   8.066   4.106  1.00 20.00     0.004 C 
BRANCH   3   4
HETATM    4  C5  UNL     1     -32.203   7.234   2.820  1.00 20.00    -0.004 C 
HETATM    5  C1  UNL     1     -32.188   8.124   1.586  1.00 20.00     0.005 C 
ENDBRANCH   3   4
ENDBRANCH   2   3
BRANCH   2   6
HETATM    6  C7  UNL     1     -34.453   6.897   4.456  1.00 20.00     0.008 C 
BRANCH   6   7
HETATM    7  C8  UNL     1     -34.795   5.490   4.991  1.00 20.00    -0.022 C 
HETATM    8  C2  UNL     1     -34.530   5.433   6.499  1.00 20.00     0.009 C 
HETATM    9  C3  UNL     1     -33.999   4.390   4.288  1.00 20.00     0.009 C 
ENDBRANCH   6   7
ENDBRANCH   2   6
TORSDOF 4
ENDMDL
MODEL 2
REMARK VINA RESULT:      -4.4      1.115      3.559
REMARK  4 active torsions:
REMARK  status: ('A' for Active; 'I' for Inactive)
REMARK    1  A    between atoms: C5_5  and  C6_6 
REMARK    2  A    between atoms: C6_6  and  C9_9 
REMARK    3  A    between atoms: C7_7  and  C8_8 
REMARK    4  A    between atoms: C7_7  and  C9_9 
ROOT
HETATM    1  C4  UNL     1     -32.222   9.027   5.103  1.00 20.00     0.010 C 
HETATM    2  C9  UNL     1     -33.504   8.187   5.124  1.00 20.00    -0.018 C 
ENDROOT
BRANCH   2   3
HETATM    3  C6  UNL     1     -33.394   7.139   6.255  1.00 20.00     0.004 C 
BRANCH   3   4
HETATM    4  C5  UNL     1     -34.669   6.318   6.464  1.00 20.00    -0.004 C 
HETATM    5  C1  UNL     1     -34.487   4.883   5.992  1.00 20.00     0.005 C 
ENDBRANCH   3   4
ENDBRANCH   2   3
BRANCH   2   6
HETATM    6  C7  UNL     1     -33.775   7.520   3.757  1.00 20.00     0.008 C 
BRANCH   6   7
HETATM    7  C8  UNL     1     -32.574   6.815   3.094  1.00 20.00    -0.022 C 
HETATM    8  C2  UNL     1     -32.135   7.602   1.855  1.00 20.00     0.009 C 
HETATM    9  C3  UNL     1     -32.889   5.371   2.700  1.00 20.00     0.009 C 
ENDBRANCH   6   7
ENDBRANCH   2   6
TORSDOF 4
ENDMDL
MODEL 3
REMARK VINA RESULT:      -4.3      1.316      4.382
REMARK  4 active torsions:
REMARK  status: ('A' for Active; 'I' for Inactive)
REMARK    1  A    between atoms: C5_5  and  C6_6 
REMARK    2  A    between atoms: C6_6  and  C9_9 
REMARK    3  A    between atoms: C7_7  and  C8_8 
REMARK    4  A    between atoms: C7_7  and  C9_9 
ROOT
HETATM    1  C4  UNL     1     -32.932   4.731   2.320  1.00 20.00     0.010 C 
HETATM    2  C9  UNL     1     -32.932   5.742   3.473  1.00 20.00    -0.018 C 
ENDROOT
BRANCH   2   3
HETATM    3  C6  UNL     1     -34.387   5.948   3.953  1.00 20.00     0.004 C 
BRANCH   3   4
HETATM    4  C5  UNL     1     -34.702   5.263   5.286  1.00 20.00    -0.004 C 
HETATM    5  C1  UNL     1     -34.356   6.162   6.465  1.00 20.00     0.005 C 
ENDBRANCH   3   4
ENDBRANCH   2   3
BRANCH   2   6
HETATM    6  C7  UNL     1     -32.274   7.078   3.065  1.00 20.00     0.008 C 
BRANCH   6   7
HETATM    7  C8  UNL     1     -32.943   8.359   3.605  1.00 20.00    -0.022 C 
HETATM    8  C2  UNL     1     -32.855   9.469   2.552  1.00 20.00     0.009 C 
HETATM    9  C3  UNL     1     -32.312   8.840   4.912  1.00 20.00     0.009 C 
ENDBRANCH   6   7
ENDBRANCH   2   6
TORSDOF 4
ENDMDL
MODEL 4
REMARK VINA RESULT:      -4.3      1.018      3.415
REMARK  4 active torsions:
REMARK  status: ('A' for Active; 'I' for Inactive)
REMARK    1  A    between atoms: C5_5  and  C6_6 
REMARK    2  A    between atoms: C6_6  and  C9_9 
REMARK    3  A    between atoms: C7_7  and  C8_8 
REMARK    4  A    between atoms: C7_7  and  C9_9 
ROOT
HETATM    1  C4  UNL     1     -33.647   6.129   6.519  1.00 20.00     0.010 C 
HETATM    2  C9  UNL     1     -34.670   6.707   5.534  1.00 20.00    -0.018 C 
ENDROOT
BRANCH   2   3
HETATM    3  C6  UNL     1     -35.107   5.591   4.558  1.00 20.00     0.004 C 
BRANCH   3   4
HETATM    4  C5  UNL     1     -34.031   4.529   4.311  1.00 20.00    -0.004 C 
HETATM    5  C1  UNL     1     -33.372   4.715   2.952  1.00 20.00     0.005 C 
ENDBRANCH   3   4
ENDBRANCH   2   3
BRANCH   2   6
HETATM    6  C7  UNL     1     -34.111   7.934   4.780  1.00 20.00     0.008 C 
BRANCH   6   7
HETATM    7  C8  UNL     1     -32.582   7.971   4.580  1.00 20.00    -0.022 C 
HETATM    8  C2  UNL     1     -32.028   9.309   5.082  1.00 20.00     0.009 C 
HETATM    9  C3  UNL     1     -32.179   7.764   3.120  1.00 20.00     0.009 C 
ENDBRANCH   6   7
ENDBRANCH   2   6
TORSDOF 4
ENDMDL
MODEL 5
REMARK VINA RESULT:      -4.3      1.032      1.656
REMARK  4 active torsions:
REMARK  status: ('A' for Active; 'I' for Inactive)
REMARK    1  A    between atoms: C5_5  and  C6_6 
REMARK    2  A    between atoms: C6_6  and  C9_9 
REMARK    3  A    between atoms: C7_7  and  C8_8 
REMARK    4  A    between atoms: C7_7  and  C9_9 
ROOT
HETATM    1  C4  UNL     1     -32.103   9.319   4.874  1.00 20.00     0.010 C 
HETATM    2  C9  UNL     1     -32.494   7.868   4.571  1.00 20.00    -0.018 C 
ENDROOT
BRANCH   2   3
HETATM    3  C6  UNL     1     -32.370   7.627   3.049  1.00 20.00     0.004 C 
BRANCH   3   4
HETATM    4  C5  UNL     1     -32.614   8.880   2.203  1.00 20.00    -0.004 C 
HETATM    5  C1  UNL     1     -32.332   8.617   0.731  1.00 20.00     0.005 C 
ENDBRANCH   3   4
ENDBRANCH   2   3
BRANCH   2   6
HETATM    6  C7  UNL     1     -33.913   7.538   5.085  1.00 20.00     0.008 C 
BRANCH   6   7
HETATM    7  C8  UNL     1     -34.306   6.046   5.083  1.00 20.00    -0.022 C 
HETATM    8  C2  UNL     1     -35.613   5.858   4.304  1.00 20.00     0.009 C 
HETATM    9  C3  UNL     1     -34.466   5.483   6.496  1.00 20.00     0.009 C 
ENDBRANCH   6   7
ENDBRANCH   2   6
TORSDOF 4
ENDMDL
MODEL 6
REMARK VINA RESULT:      -4.3      1.311      2.903
REMARK  4 active torsions:
REMARK  status: ('A' for Active; 'I' for Inactive)
REMARK    1  A    between atoms: C5_5  and  C6_6 
REMARK    2  A    between atoms: C6_6  and  C9_9 
REMARK    3  A    between atoms: C7_7  and  C8_8 
REMARK    4  A    between atoms: C7_7  and  C9_9 
ROOT
HETATM    1  C4  UNL     1     -32.944   4.873   1.804  1.00 20.00     0.010 C 
HETATM    2  C9  UNL     1     -33.342   5.719   3.020  1.00 20.00    -0.018 C 
ENDROOT
BRANCH   2   3
HETATM    3  C6  UNL     1     -32.257   6.795   3.253  1.00 20.00     0.004 C 
BRANCH   3   4
HETATM    4  C5  UNL     1     -32.821   8.195   3.514  1.00 20.00    -0.004 C 
HETATM    5  C1  UNL     1     -32.419   8.706   4.889  1.00 20.00     0.005 C 
ENDBRANCH   3   4
ENDBRANCH   2   3
BRANCH   2   6
HETATM    6  C7  UNL     1     -33.559   4.849   4.277  1.00 20.00     0.008 C 
BRANCH   6   7
HETATM    7  C8  UNL     1     -34.783   5.203   5.147  1.00 20.00    -0.022 C 
HETATM    8  C2  UNL     1     -35.764   6.053   4.333  1.00 20.00     0.009 C 
HETATM    9  C3  UNL     1     -34.395   5.948   6.424  1.00 20.00     0.009 C 
ENDBRANCH   6   7
ENDBRANCH   2   6
TORSDOF 4
ENDMDL
MODEL 7
REMARK VINA RESULT:      -4.1      1.157      1.770
REMARK  4 active torsions:
REMARK  status: ('A' for Active; 'I' for Inactive)
REMARK    1  A    between atoms: C5_5  and  C6_6 
REMARK    2  A    between atoms: C6_6  and  C9_9 
REMARK    3  A    between atoms: C7_7  and  C8_8 
REMARK    4  A    between atoms: C7_7  and  C9_9 
ROOT
HETATM    1  C4  UNL     1     -32.166   9.305   5.174  1.00 20.00     0.010 C 
HETATM    2  C9  UNL     1     -32.644   7.914   4.742  1.00 20.00    -0.018 C 
ENDROOT
BRANCH   2   3
HETATM    3  C6  UNL     1     -32.834   7.908   3.208  1.00 20.00     0.004 C 
BRANCH   3   4
HETATM    4  C5  UNL     1     -32.024   6.825   2.489  1.00 20.00    -0.004 C 
HETATM    5  C1  UNL     1     -32.770   5.498   2.469  1.00 20.00     0.005 C 
ENDBRANCH   3   4
ENDBRANCH   2   3
BRANCH   2   6
HETATM    6  C7  UNL     1     -33.938   7.499   5.476  1.00 20.00     0.008 C 
BRANCH   6   7
HETATM    7  C8  UNL     1     -34.372   6.027   5.309  1.00 20.00    -0.022 C 
HETATM    8  C2  UNL     1     -35.645   5.958   4.459  1.00 20.00     0.009 C 
HETATM    9  C3  UNL     1     -34.612   5.335   6.651  1.00 20.00     0.009 C 
ENDBRANCH   6   7
ENDBRANCH   2   6
TORSDOF 4
ENDMDL
MODEL 8
REMARK VINA RESULT:      -3.9      1.252      2.441
REMARK  4 active torsions:
REMARK  status: ('A' for Active; 'I' for Inactive)
REMARK    1  A    between atoms: C5_5  and  C6_6 
REMARK    2  A    between atoms: C6_6  and  C9_9 
REMARK    3  A    between atoms: C7_7  and  C8_8 
REMARK    4  A    between atoms: C7_7  and  C9_9 
ROOT
HETATM    1  C4  UNL     1     -32.869   5.037   2.751  1.00 20.00     0.010 C 
HETATM    2  C9  UNL     1     -33.408   6.437   3.064  1.00 20.00    -0.018 C 
ENDROOT
BRANCH   2   3
HETATM    3  C6  UNL     1     -32.217   7.366   3.394  1.00 20.00     0.004 C 
BRANCH   3   4
HETATM    4  C5  UNL     1     -32.544   8.857   3.276  1.00 20.00    -0.004 C 
HETATM    5  C1  UNL     1     -32.792   9.257   1.829  1.00 20.00     0.005 C 
ENDBRANCH   3   4
ENDBRANCH   2   3
BRANCH   2   6
HETATM    6  C7  UNL     1     -34.442   6.411   4.210  1.00 20.00     0.008 C 
BRANCH   6   7
HETATM    7  C8  UNL     1     -33.874   6.253   5.636  1.00 20.00    -0.022 C 
HETATM    8  C2  UNL     1     -34.563   5.078   6.338  1.00 20.00     0.009 C 
HETATM    9  C3  UNL     1     -34.040   7.521   6.474  1.00 20.00     0.009 C 
ENDBRANCH   6   7
ENDBRANCH   2   6
TORSDOF 4
ENDMDL
MODEL 9
REMARK VINA RESULT:      -3.8      1.337      3.644
REMARK  4 active torsions:
REMARK  status: ('A' for Active; 'I' for Inactive)
REMARK    1  A    between atoms: C5_5  and  C6_6 
REMARK    2  A    between atoms: C6_6  and  C9_9 
REMARK    3  A    between atoms: C7_7  and  C8_8 
REMARK    4  A    between atoms: C7_7  and  C9_9 
ROOT
HETATM    1  C4  UNL     1     -35.829   6.044   4.135  1.00 20.00     0.010 C 
HETATM    2  C9  UNL     1     -34.876   5.243   5.029  1.00 20.00    -0.018 C 
ENDROOT
BRANCH   2   3
HETATM    3  C6  UNL     1     -34.675   6.012   6.355  1.00 20.00     0.004 C 
BRANCH   3   4
HETATM    4  C5  UNL     1     -33.469   6.956   6.347  1.00 20.00    -0.004 C 
HETATM    5  C1  UNL     1     -33.851   8.337   5.835  1.00 20.00     0.005 C 
ENDBRANCH   3   4
ENDBRANCH   2   3
BRANCH   2   6
HETATM    6  C7  UNL     1     -33.529   4.961   4.327  1.00 20.00     0.008 C 
BRANCH   6   7
HETATM    7  C8  UNL     1     -33.347   5.589   2.930  1.00 20.00    -0.022 C 
HETATM    8  C2  UNL     1     -32.853   4.523   1.946  1.00 20.00     0.009 C 
HETATM    9  C3  UNL     1     -32.371   6.767   2.943  1.00 20.00     0.009 C 
ENDBRANCH   6   7
ENDBRANCH   2   6
TORSDOF 4
ENDMDL
