MODEL 1
REMARK VINA RESULT:      -3.3      0.000      0.000
REMARK  3 active torsions:
REMARK  status: ('A' for Active; 'I' for Inactive)
REMARK    1  A    between atoms: C2_2  and  C6_6 
REMARK    2  A    between atoms: C6_6  and  O9_9 
REMARK    3  A    between atoms: C7_7  and  O9_9 
ROOT
HETATM    1  O9  UNL     1     -34.004   7.939   4.400  1.00 20.00    -0.379 OA
ENDROOT
BRANCH   1   2
HETATM    2  C6  UNL     1     -33.781   7.257   5.624  1.00 20.00     0.202 C 
BRANCH   2   3
HETATM    3  C2  UNL     1     -34.741   6.091   5.721  1.00 20.00     0.169 A 
HETATM    4  C1  UNL     1     -34.507   4.823   4.946  1.00 20.00     0.202 A 
HETATM    5  O8  UNL     1     -35.459   5.809   4.514  1.00 20.00    -0.379 OA
ENDBRANCH   2   3
ENDBRANCH   1   2
BRANCH   1   6
HETATM    6  C7  UNL     1     -32.772   8.317   3.785  1.00 20.00     0.050 C 
HETATM    7  C3  UNL     1     -33.058   9.410   2.755  1.00 20.00     0.045 C 
HETATM    8  C4  UNL     1     -31.851   8.842   4.884  1.00 20.00     0.045 C 
HETATM    9  C5  UNL     1     -32.163   7.084   3.117  1.00 20.00     0.045 C 
ENDBRANCH   1   6
TORSDOF 3
ENDMDL
MODEL 2
REMARK VINA RESULT:      -3.3      0.029      1.451
REMARK  3 active torsions:
REMARK  status: ('A' for Active; 'I' for Inactive)
REMARK    1  A    between atoms: C2_2  and  C6_6 
REMARK    2  A    between atoms: C6_6  and  O9_9 
REMARK    3  A    between atoms: C7_7  and  O9_9 
ROOT
HETATM    1  O9  UNL     1     -34.013   7.929   4.370  1.00 20.00    -0.379 OA
ENDROOT
BRANCH   1   2
HETATM    2  C6  UNL     1     -33.802   7.281   5.614  1.00 20.00     0.202 C 
BRANCH   2   3
HETATM    3  C2  UNL     1     -34.743   6.101   5.722  1.00 20.00     0.169 A 
HETATM    4  C1  UNL     1     -34.473   4.820   4.981  1.00 20.00     0.202 A 
HETATM    5  O8  UNL     1     -35.434   5.779   4.509  1.00 20.00    -0.379 OA
ENDBRANCH   2   3
ENDBRANCH   1   2
BRANCH   1   6
HETATM    6  C7  UNL     1     -32.777   8.333   3.779  1.00 20.00     0.050 C 
HETATM    7  C3  UNL     1     -31.859   8.858   4.882  1.00 20.00     0.045 C 
HETATM    8  C4  UNL     1     -32.165   7.104   3.109  1.00 20.00     0.045 C 
HETATM    9  C5  UNL     1     -33.065   9.421   2.745  1.00 20.00     0.045 C 
ENDBRANCH   1   6
TORSDOF 3
ENDMDL
MODEL 3
REMARK VINA RESULT:      -3.3      1.350      3.934
REMARK  3 active torsions:
REMARK  status: ('A' for Active; 'I' for Inactive)
REMARK    1  A    between atoms: C2_2  and  C6_6 
REMARK    2  A    between atoms: C6_6  and  O9_9 
REMARK    3  A    between atoms: C7_7  and  O9_9 
ROOT
HETATM    1  O9  UNL     1     -33.283   6.482   5.165  1.00 20.00    -0.379 OA
ENDROOT
BRANCH   1   2
HETATM    2  C6  UNL     1     -33.672   7.818   4.890  1.00 20.00     0.202 C 
BRANCH   2   3
HETATM    3  C2  UNL     1     -32.542   8.524   4.172  1.00 20.00     0.169 A 
HETATM    4  C1  UNL     1     -32.592   8.766   2.689  1.00 20.00     0.202 A 
HETATM    5  O8  UNL     1     -31.813   7.699   3.256  1.00 20.00    -0.379 OA
ENDBRANCH   2   3
ENDBRANCH   1   2
BRANCH   1   6
HETATM    6  C7  UNL     1     -34.405   5.598   5.134  1.00 20.00     0.050 C 
HETATM    7  C3  UNL     1     -33.985   4.304   4.439  1.00 20.00     0.045 C 
HETATM    8  C4  UNL     1     -34.815   5.325   6.579  1.00 20.00     0.045 C 
HETATM    9  C5  UNL     1     -35.541   6.282   4.372  1.00 20.00     0.045 C 
ENDBRANCH   1   6
TORSDOF 3
ENDMDL
MODEL 4
REMARK VINA RESULT:      -3.3      1.347      3.936
REMARK  3 active torsions:
REMARK  status: ('A' for Active; 'I' for Inactive)
REMARK    1  A    between atoms: C2_2  and  C6_6 
REMARK    2  A    between atoms: C6_6  and  O9_9 
REMARK    3  A    between atoms: C7_7  and  O9_9 
ROOT
HETATM    1  O9  UNL     1     -33.279   6.500   5.087  1.00 20.00    -0.379 OA
ENDROOT
BRANCH   1   2
HETATM    2  C6  UNL     1     -33.678   7.838   4.835  1.00 20.00     0.202 C 
BRANCH   2   3
HETATM    3  C2  UNL     1     -32.564   8.556   4.104  1.00 20.00     0.169 A 
HETATM    4  C1  UNL     1     -32.621   8.772   2.617  1.00 20.00     0.202 A 
HETATM    5  O8  UNL     1     -31.818   7.732   3.201  1.00 20.00    -0.379 OA
ENDBRANCH   2   3
ENDBRANCH   1   2
BRANCH   1   6
HETATM    6  C7  UNL     1     -34.404   5.620   5.116  1.00 20.00     0.050 C 
HETATM    7  C3  UNL     1     -34.795   5.380   6.574  1.00 20.00     0.045 C 
HETATM    8  C4  UNL     1     -35.541   6.302   4.358  1.00 20.00     0.045 C 
HETATM    9  C5  UNL     1     -34.013   4.310   4.434  1.00 20.00     0.045 C 
ENDBRANCH   1   6
TORSDOF 3
ENDMDL
MODEL 5
REMARK VINA RESULT:      -3.3     11.394     12.133
REMARK  3 active torsions:
REMARK  status: ('A' for Active; 'I' for Inactive)
REMARK    1  A    between atoms: C2_2  and  C6_6 
REMARK    2  A    between atoms: C6_6  and  O9_9 
REMARK    3  A    between atoms: C7_7  and  O9_9 
ROOT
HETATM    1  O9  UNL     1     -33.434  16.634  -2.027  1.00 20.00    -0.379 OA
ENDROOT
BRANCH   1   2
HETATM    2  C6  UNL     1     -33.761  16.615  -3.407  1.00 20.00     0.202 C 
BRANCH   2   3
HETATM    3  C2  UNL     1     -33.220  15.343  -4.024  1.00 20.00     0.169 A 
HETATM    4  C1  UNL     1     -33.842  14.751  -5.258  1.00 20.00     0.202 A 
HETATM    5  O8  UNL     1     -34.108  14.221  -3.949  1.00 20.00    -0.379 OA
ENDBRANCH   2   3
ENDBRANCH   1   2
BRANCH   1   6
HETATM    6  C7  UNL     1     -33.631  17.933  -1.466  1.00 20.00     0.050 C 
HETATM    7  C3  UNL     1     -33.817  17.788   0.044  1.00 20.00     0.045 C 
HETATM    8  C4  UNL     1     -32.386  18.762  -1.777  1.00 20.00     0.045 C 
HETATM    9  C5  UNL     1     -34.868  18.558  -2.110  1.00 20.00     0.045 C 
ENDBRANCH   1   6
TORSDOF 3
ENDMDL
MODEL 6
REMARK VINA RESULT:      -3.1     11.545     12.699
REMARK  3 active torsions:
REMARK  status: ('A' for Active; 'I' for Inactive)
REMARK    1  A    between atoms: C2_2  and  C6_6 
REMARK    2  A    between atoms: C6_6  and  O9_9 
REMARK    3  A    between atoms: C7_7  and  O9_9 
ROOT
HETATM    1  O9  UNL     1     -34.862  16.457  -4.688  1.00 20.00    -0.379 OA
ENDROOT
BRANCH   1   2
HETATM    2  C6  UNL     1     -33.671  16.993  -4.134  1.00 20.00     0.202 C 
BRANCH   2   3
HETATM    3  C2  UNL     1     -33.983  17.593  -2.780  1.00 20.00     0.169 A 
HETATM    4  C1  UNL     1     -32.885  17.988  -1.832  1.00 20.00     0.202 A 
HETATM    5  O8  UNL     1     -33.625  16.767  -1.667  1.00 20.00    -0.379 OA
ENDBRANCH   2   3
ENDBRANCH   1   2
BRANCH   1   6
HETATM    6  C7  UNL     1     -34.632  15.170  -5.264  1.00 20.00     0.050 C 
HETATM    7  C3  UNL     1     -34.108  15.361  -6.687  1.00 20.00     0.045 C 
HETATM    8  C4  UNL     1     -33.594  14.457  -4.399  1.00 20.00     0.045 C 
HETATM    9  C5  UNL     1     -35.951  14.397  -5.268  1.00 20.00     0.045 C 
ENDBRANCH   1   6
TORSDOF 3
ENDMDL
MODEL 7
REMARK VINA RESULT:      -3.0      9.356     10.122
REMARK  3 active torsions:
REMARK  status: ('A' for Active; 'I' for Inactive)
REMARK    1  A    between atoms: C2_2  and  C6_6 
REMARK    2  A    between atoms: C6_6  and  O9_9 
REMARK    3  A    between atoms: C7_7  and  O9_9 
ROOT
HETATM    1  O9  UNL     1     -40.986  12.986   7.356  1.00 20.00    -0.379 OA
ENDROOT
BRANCH   1   2
HETATM    2  C6  UNL     1     -40.223  13.432   6.247  1.00 20.00     0.202 C 
BRANCH   2   3
HETATM    3  C2  UNL     1     -39.249  12.345   5.848  1.00 20.00     0.169 A 
HETATM    4  C1  UNL     1     -39.244  11.775   4.457  1.00 20.00     0.202 A 
HETATM    5  O8  UNL     1     -39.855  11.081   5.556  1.00 20.00    -0.379 OA
ENDBRANCH   2   3
ENDBRANCH   1   2
BRANCH   1   6
HETATM    6  C7  UNL     1     -42.372  13.283   7.185  1.00 20.00     0.050 C 
HETATM    7  C3  UNL     1     -42.817  14.199   8.325  1.00 20.00     0.045 C 
HETATM    8  C4  UNL     1     -42.530  13.985   5.838  1.00 20.00     0.045 C 
HETATM    9  C5  UNL     1     -43.156  11.971   7.203  1.00 20.00     0.045 C 
ENDBRANCH   1   6
TORSDOF 3
ENDMDL
MODEL 8
REMARK VINA RESULT:      -3.0      9.345     10.029
REMARK  3 active torsions:
REMARK  status: ('A' for Active; 'I' for Inactive)
REMARK    1  A    between atoms: C2_2  and  C6_6 
REMARK    2  A    between atoms: C6_6  and  O9_9 
REMARK    3  A    between atoms: C7_7  and  O9_9 
ROOT
HETATM    1  O9  UNL     1     -41.370  12.757   7.382  1.00 20.00    -0.379 OA
ENDROOT
BRANCH   1   2
HETATM    2  C6  UNL     1     -40.972  12.747   6.021  1.00 20.00     0.202 C 
BRANCH   2   3
HETATM    3  C2  UNL     1     -39.901  11.695   5.828  1.00 20.00     0.169 A 
HETATM    4  C1  UNL     1     -38.494  12.076   5.456  1.00 20.00     0.202 A 
HETATM    5  O8  UNL     1     -39.424  11.571   4.483  1.00 20.00    -0.379 OA
ENDBRANCH   2   3
ENDBRANCH   1   2
BRANCH   1   6
HETATM    6  C7  UNL     1     -41.520  14.092   7.869  1.00 20.00     0.050 C 
HETATM    7  C3  UNL     1     -41.644  15.034   6.673  1.00 20.00     0.045 C 
HETATM    8  C4  UNL     1     -42.788  14.131   8.720  1.00 20.00     0.045 C 
HETATM    9  C5  UNL     1     -40.295  14.441   8.714  1.00 20.00     0.045 C 
ENDBRANCH   1   6
TORSDOF 3
ENDMDL
MODEL 9
REMARK VINA RESULT:      -3.0     11.470     12.507
REMARK  3 active torsions:
REMARK  status: ('A' for Active; 'I' for Inactive)
REMARK    1  A    between atoms: C2_2  and  C6_6 
REMARK    2  A    between atoms: C6_6  and  O9_9 
REMARK    3  A    between atoms: C7_7  and  O9_9 
ROOT
HETATM    1  O9  UNL     1     -33.411  16.578  -3.826  1.00 20.00    -0.379 OA
ENDROOT
BRANCH   1   2
HETATM    2  C6  UNL     1     -34.399  16.343  -4.816  1.00 20.00     0.202 C 
BRANCH   2   3
HETATM    3  C2  UNL     1     -34.404  14.871  -5.168  1.00 20.00     0.169 A 
HETATM    4  C1  UNL     1     -35.581  13.995  -4.836  1.00 20.00     0.202 A 
HETATM    5  O8  UNL     1     -34.385  13.990  -4.039  1.00 20.00    -0.379 OA
ENDBRANCH   2   3
ENDBRANCH   1   2
BRANCH   1   6
HETATM    6  C7  UNL     1     -33.759  17.690  -3.000  1.00 20.00     0.050 C 
HETATM    7  C3  UNL     1     -33.631  17.267  -1.537  1.00 20.00     0.045 C 
HETATM    8  C4  UNL     1     -32.787  18.824  -3.320  1.00 20.00     0.045 C 
HETATM    9  C5  UNL     1     -35.195  18.105  -3.324  1.00 20.00     0.045 C 
ENDBRANCH   1   6
TORSDOF 3
ENDMDL
