MODEL 1
REMARK VINA RESULT:      -5.3      0.000      0.000
REMARK  0 active torsions:
REMARK  status: ('A' for Active; 'I' for Inactive)
ROOT
HETATM    1  C1  UNL     1     -33.030   6.177   2.586  1.00 20.00     0.053 A 
HETATM    2  C2  UNL     1     -33.261   5.965   3.883  1.00 20.00    -0.072 A 
HETATM    3  C3  UNL     1     -32.394   7.500   2.513  1.00 20.00     0.150 A 
HETATM    4  C4  UNL     1     -33.961   4.795   4.493  1.00 20.00     0.034 C 
HETATM    5  C5  UNL     1     -32.262   8.139   3.868  1.00 20.00     0.092 A 
HETATM    6  C6  UNL     1     -35.107   5.277   5.387  1.00 20.00     0.004 C 
HETATM    7  C7  UNL     1     -34.658   6.359   6.377  1.00 20.00     0.001 C 
HETATM    8  C8  UNL     1     -33.988   7.539   5.663  1.00 20.00     0.009 C 
HETATM    9  C9  UNL     1     -32.813   7.065   4.804  1.00 20.00     0.022 A 
HETATM   10  O10 UNL     1     -32.032   8.008   1.462  1.00 20.00    -0.293 OA
ENDROOT
TORSDOF 0
ENDMDL
MODEL 2
REMARK VINA RESULT:      -5.2      1.506      2.589
REMARK  0 active torsions:
REMARK  status: ('A' for Active; 'I' for Inactive)
ROOT
HETATM    1  C1  UNL     1     -33.345   8.040   5.788  1.00 20.00     0.053 A 
HETATM    2  C2  UNL     1     -33.929   7.041   5.124  1.00 20.00    -0.072 A 
HETATM    3  C3  UNL     1     -32.472   8.702   4.809  1.00 20.00     0.150 A 
HETATM    4  C4  UNL     1     -34.857   6.010   5.682  1.00 20.00     0.034 C 
HETATM    5  C5  UNL     1     -32.516   8.029   3.465  1.00 20.00     0.092 A 
HETATM    6  C6  UNL     1     -34.342   4.607   5.351  1.00 20.00     0.004 C 
HETATM    7  C7  UNL     1     -34.003   4.446   3.863  1.00 20.00     0.001 C 
HETATM    8  C8  UNL     1     -33.016   5.517   3.386  1.00 20.00     0.009 C 
HETATM    9  C9  UNL     1     -33.550   6.923   3.675  1.00 20.00     0.022 A 
HETATM   10  O10 UNL     1     -31.790   9.680   5.079  1.00 20.00    -0.293 OA
ENDROOT
TORSDOF 0
ENDMDL
MODEL 3
REMARK VINA RESULT:      -5.1      0.668      2.081
REMARK  0 active torsions:
REMARK  status: ('A' for Active; 'I' for Inactive)
ROOT
HETATM    1  C1  UNL     1     -32.703   7.881   3.927  1.00 20.00     0.053 A 
HETATM    2  C2  UNL     1     -33.650   7.207   4.580  1.00 20.00    -0.072 A 
HETATM    3  C3  UNL     1     -32.445   7.108   2.704  1.00 20.00     0.150 A 
HETATM    4  C4  UNL     1     -34.220   7.528   5.924  1.00 20.00     0.034 C 
HETATM    5  C5  UNL     1     -33.283   5.861   2.637  1.00 20.00     0.092 A 
HETATM    6  C6  UNL     1     -34.112   6.310   6.845  1.00 20.00     0.004 C 
HETATM    7  C7  UNL     1     -34.658   5.035   6.190  1.00 20.00     0.001 C 
HETATM    8  C8  UNL     1     -33.991   4.759   4.839  1.00 20.00     0.009 C 
HETATM    9  C9  UNL     1     -34.138   5.959   3.899  1.00 20.00     0.022 A 
HETATM   10  O10 UNL     1     -31.633   7.451   1.857  1.00 20.00    -0.293 OA
ENDROOT
TORSDOF 0
ENDMDL
MODEL 4
REMARK VINA RESULT:      -5.0      1.973      3.289
REMARK  0 active torsions:
REMARK  status: ('A' for Active; 'I' for Inactive)
ROOT
HETATM    1  C1  UNL     1     -33.083   5.471   3.348  1.00 20.00     0.053 A 
HETATM    2  C2  UNL     1     -33.363   6.693   3.804  1.00 20.00    -0.072 A 
HETATM    3  C3  UNL     1     -33.914   4.556   4.143  1.00 20.00     0.150 A 
HETATM    4  C4  UNL     1     -32.730   7.979   3.382  1.00 20.00     0.034 C 
HETATM    5  C5  UNL     1     -34.732   5.286   5.173  1.00 20.00     0.092 A 
HETATM    6  C6  UNL     1     -32.194   8.726   4.606  1.00 20.00     0.004 C 
HETATM    7  C7  UNL     1     -33.242   8.847   5.720  1.00 20.00     0.001 C 
HETATM    8  C8  UNL     1     -33.808   7.480   6.119  1.00 20.00     0.009 C 
HETATM    9  C9  UNL     1     -34.386   6.750   4.904  1.00 20.00     0.022 A 
HETATM   10  O10 UNL     1     -33.918   3.345   3.977  1.00 20.00    -0.293 OA
ENDROOT
TORSDOF 0
ENDMDL
MODEL 5
REMARK VINA RESULT:      -5.0      2.364      3.746
REMARK  0 active torsions:
REMARK  status: ('A' for Active; 'I' for Inactive)
ROOT
HETATM    1  C1  UNL     1     -34.277   5.011   4.871  1.00 20.00     0.053 A 
HETATM    2  C2  UNL     1     -33.910   6.044   4.112  1.00 20.00    -0.072 A 
HETATM    3  C3  UNL     1     -34.578   5.583   6.191  1.00 20.00     0.150 A 
HETATM    4  C4  UNL     1     -33.428   5.997   2.698  1.00 20.00     0.034 C 
HETATM    5  C5  UNL     1     -34.344   7.068   6.230  1.00 20.00     0.092 A 
HETATM    6  C6  UNL     1     -32.078   6.708   2.579  1.00 20.00     0.004 C 
HETATM    7  C7  UNL     1     -32.096   8.102   3.217  1.00 20.00     0.001 C 
HETATM    8  C8  UNL     1     -32.561   8.054   4.676  1.00 20.00     0.009 C 
HETATM    9  C9  UNL     1     -33.933   7.384   4.793  1.00 20.00     0.022 A 
HETATM   10  O10 UNL     1     -34.962   4.911   7.137  1.00 20.00    -0.293 OA
ENDROOT
TORSDOF 0
ENDMDL
MODEL 6
REMARK VINA RESULT:      -4.6     16.061     16.821
REMARK  0 active torsions:
REMARK  status: ('A' for Active; 'I' for Inactive)
ROOT
HETATM    1  C1  UNL     1     -21.371  17.942   9.202  1.00 20.00     0.053 A 
HETATM    2  C2  UNL     1     -22.185  18.484  10.108  1.00 20.00    -0.072 A 
HETATM    3  C3  UNL     1     -21.997  18.215   7.901  1.00 20.00     0.150 A 
HETATM    4  C4  UNL     1     -22.046  18.423  11.595  1.00 20.00     0.034 C 
HETATM    5  C5  UNL     1     -23.300  18.953   8.044  1.00 20.00     0.092 A 
HETATM    6  C6  UNL     1     -23.333  17.880  12.220  1.00 20.00     0.004 C 
HETATM    7  C7  UNL     1     -24.582  18.611  11.710  1.00 20.00     0.001 C 
HETATM    8  C8  UNL     1     -24.667  18.590  10.180  1.00 20.00     0.009 C 
HETATM    9  C9  UNL     1     -23.398  19.175   9.552  1.00 20.00     0.022 A 
HETATM   10  O10 UNL     1     -21.504  17.866   6.838  1.00 20.00    -0.293 OA
ENDROOT
TORSDOF 0
ENDMDL
MODEL 7
REMARK VINA RESULT:      -4.3      2.301      3.578
REMARK  0 active torsions:
REMARK  status: ('A' for Active; 'I' for Inactive)
ROOT
HETATM    1  C1  UNL     1     -34.463   5.867   5.681  1.00 20.00     0.053 A 
HETATM    2  C2  UNL     1     -34.108   6.137   4.424  1.00 20.00    -0.072 A 
HETATM    3  C3  UNL     1     -34.288   7.127   6.417  1.00 20.00     0.150 A 
HETATM    4  C4  UNL     1     -34.032   5.176   3.283  1.00 20.00     0.034 C 
HETATM    5  C5  UNL     1     -33.760   8.226   5.537  1.00 20.00     0.092 A 
HETATM    6  C6  UNL     1     -32.645   5.236   2.637  1.00 20.00     0.004 C 
HETATM    7  C7  UNL     1     -32.216   6.673   2.311  1.00 20.00     0.001 C 
HETATM    8  C8  UNL     1     -32.285   7.580   3.545  1.00 20.00     0.009 C 
HETATM    9  C9  UNL     1     -33.684   7.556   4.166  1.00 20.00     0.022 A 
HETATM   10  O10 UNL     1     -34.539   7.244   7.607  1.00 20.00    -0.293 OA
ENDROOT
TORSDOF 0
ENDMDL
MODEL 8
REMARK VINA RESULT:      -4.2      2.077      4.030
REMARK  0 active torsions:
REMARK  status: ('A' for Active; 'I' for Inactive)
ROOT
HETATM    1  C1  UNL     1     -34.142   6.763   5.142  1.00 20.00     0.053 A 
HETATM    2  C2  UNL     1     -33.150   7.218   4.375  1.00 20.00    -0.072 A 
HETATM    3  C3  UNL     1     -34.432   5.411   4.645  1.00 20.00     0.150 A 
HETATM    4  C4  UNL     1     -32.531   8.578   4.416  1.00 20.00     0.034 C 
HETATM    5  C5  UNL     1     -33.566   5.042   3.472  1.00 20.00     0.092 A 
HETATM    6  C6  UNL     1     -32.567   9.213   3.024  1.00 20.00     0.004 C 
HETATM    7  C7  UNL     1     -32.016   8.275   1.941  1.00 20.00     0.001 C 
HETATM    8  C8  UNL     1     -32.734   6.921   1.943  1.00 20.00     0.009 C 
HETATM    9  C9  UNL     1     -32.660   6.263   3.324  1.00 20.00     0.022 A 
HETATM   10  O10 UNL     1     -35.289   4.690   5.135  1.00 20.00    -0.293 OA
ENDROOT
TORSDOF 0
ENDMDL
MODEL 9
REMARK VINA RESULT:      -4.1     12.271     13.290
REMARK  0 active torsions:
REMARK  status: ('A' for Active; 'I' for Inactive)
ROOT
HETATM    1  C1  UNL     1     -34.430  14.696  -5.049  1.00 20.00     0.053 A 
HETATM    2  C2  UNL     1     -33.998  15.846  -4.531  1.00 20.00    -0.072 A 
HETATM    3  C3  UNL     1     -35.413  15.073  -6.075  1.00 20.00     0.150 A 
HETATM    4  C4  UNL     1     -33.041  16.019  -3.396  1.00 20.00     0.034 C 
HETATM    5  C5  UNL     1     -35.602  16.563  -6.155  1.00 20.00     0.092 A 
HETATM    6  C6  UNL     1     -33.660  16.916  -2.321  1.00 20.00     0.004 C 
HETATM    7  C7  UNL     1     -34.227  18.217  -2.903  1.00 20.00     0.001 C 
HETATM    8  C8  UNL     1     -35.228  17.946  -4.031  1.00 20.00     0.009 C 
HETATM    9  C9  UNL     1     -34.597  17.087  -5.130  1.00 20.00     0.022 A 
HETATM   10  O10 UNL     1     -36.003  14.255  -6.764  1.00 20.00    -0.293 OA
ENDROOT
TORSDOF 0
ENDMDL
