MODEL 1
REMARK VINA RESULT:      -4.7      0.000      0.000
REMARK  2 active torsions:
REMARK  status: ('A' for Active; 'I' for Inactive)
REMARK    1  A    between atoms: C1_1  and  C4_4 
REMARK    2  A    between atoms: C5_5  and  C8_8 
ROOT
HETATM    1  C2  UNL     1     -32.817   6.579   2.898  1.00 20.00     0.020 C 
HETATM    2  C3  UNL     1     -32.876   8.418   3.973  1.00 20.00     0.020 C 
HETATM    3  C4  UNL     1     -32.069   7.926   2.747  1.00 20.00     0.087 C 
HETATM    4  C5  UNL     1     -33.005   6.932   4.396  1.00 20.00    -0.010 C 
ENDROOT
BRANCH   3   5
HETATM    5  C1  UNL     1     -32.318   8.659   1.479  1.00 20.00     0.177 C 
HETATM    6  O9  UNL     1     -32.977   9.729   1.595  1.00 20.00    -0.648 OA
HETATM    7  O10 UNL     1     -31.837   8.113   0.447  1.00 20.00    -0.648 OA
ENDBRANCH   3   5
BRANCH   4   8
HETATM    8  C8  UNL     1     -34.316   6.518   5.031  1.00 20.00    -0.019 C 
HETATM    9  C6  UNL     1     -34.609   5.038   4.772  1.00 20.00     0.010 C 
HETATM   10  C7  UNL     1     -34.308   6.797   6.537  1.00 20.00     0.010 C 
ENDBRANCH   4   8
TORSDOF 2
ENDMDL
MODEL 2
REMARK VINA RESULT:      -4.0     11.141     12.219
REMARK  2 active torsions:
REMARK  status: ('A' for Active; 'I' for Inactive)
REMARK    1  A    between atoms: C1_1  and  C4_4 
REMARK    2  A    between atoms: C5_5  and  C8_8 
ROOT
HETATM    1  C2  UNL     1     -33.499  17.292  -1.274  1.00 20.00     0.020 C 
HETATM    2  C3  UNL     1     -32.645  18.975  -2.262  1.00 20.00     0.020 C 
HETATM    3  C4  UNL     1     -32.933  18.644  -0.777  1.00 20.00     0.087 C 
HETATM    4  C5  UNL     1     -33.783  17.988  -2.630  1.00 20.00    -0.010 C 
ENDROOT
BRANCH   3   5
HETATM    5  C1  UNL     1     -31.740  18.556   0.103  1.00 20.00     0.177 C 
HETATM    6  O9  UNL     1     -31.985  18.381   1.329  1.00 20.00    -0.648 OA
HETATM    7  O10 UNL     1     -30.632  18.668  -0.492  1.00 20.00    -0.648 OA
ENDBRANCH   3   5
BRANCH   4   8
HETATM    8  C8  UNL     1     -33.581  17.153  -3.877  1.00 20.00    -0.019 C 
HETATM    9  C6  UNL     1     -33.532  15.661  -3.538  1.00 20.00     0.010 C 
HETATM   10  C7  UNL     1     -34.686  17.424  -4.903  1.00 20.00     0.010 C 
ENDBRANCH   4   8
TORSDOF 2
ENDMDL
MODEL 3
REMARK VINA RESULT:      -3.9     10.804     11.862
REMARK  2 active torsions:
REMARK  status: ('A' for Active; 'I' for Inactive)
REMARK    1  A    between atoms: C1_1  and  C4_4 
REMARK    2  A    between atoms: C5_5  and  C8_8 
ROOT
HETATM    1  C2  UNL     1     -33.786  15.071  -3.834  1.00 20.00     0.020 C 
HETATM    2  C3  UNL     1     -34.845  16.672  -4.759  1.00 20.00     0.020 C 
HETATM    3  C4  UNL     1     -34.418  15.263  -5.235  1.00 20.00     0.087 C 
HETATM    4  C5  UNL     1     -33.665  16.614  -3.755  1.00 20.00    -0.010 C 
ENDROOT
BRANCH   3   5
HETATM    5  C1  UNL     1     -35.528  14.335  -5.570  1.00 20.00     0.177 C 
HETATM    6  O9  UNL     1     -35.958  13.638  -4.609  1.00 20.00    -0.648 OA
HETATM    7  O10 UNL     1     -35.898  14.364  -6.777  1.00 20.00    -0.648 OA
ENDBRANCH   3   5
BRANCH   4   8
HETATM    8  C8  UNL     1     -33.896  17.244  -2.397  1.00 20.00    -0.019 C 
HETATM    9  C6  UNL     1     -32.572  17.651  -1.747  1.00 20.00     0.010 C 
HETATM   10  C7  UNL     1     -34.824  18.458  -2.507  1.00 20.00     0.010 C 
ENDBRANCH   4   8
TORSDOF 2
ENDMDL
MODEL 4
REMARK VINA RESULT:      -3.8     11.069     12.201
REMARK  2 active torsions:
REMARK  status: ('A' for Active; 'I' for Inactive)
REMARK    1  A    between atoms: C1_1  and  C4_4 
REMARK    2  A    between atoms: C5_5  and  C8_8 
ROOT
HETATM    1  C2  UNL     1     -33.454  16.997  -1.411  1.00 20.00     0.020 C 
HETATM    2  C3  UNL     1     -32.913  18.811  -2.391  1.00 20.00     0.020 C 
HETATM    3  C4  UNL     1     -33.108  18.420  -0.906  1.00 20.00     0.087 C 
HETATM    4  C5  UNL     1     -33.879  17.652  -2.750  1.00 20.00    -0.010 C 
ENDROOT
BRANCH   3   5
HETATM    5  C1  UNL     1     -31.897  18.520  -0.052  1.00 20.00     0.177 C 
HETATM    6  O9  UNL     1     -30.818  18.739  -0.670  1.00 20.00    -0.648 OA
HETATM    7  O10 UNL     1     -32.106  18.373   1.185  1.00 20.00    -0.648 OA
ENDBRANCH   3   5
BRANCH   4   8
HETATM    8  C8  UNL     1     -33.570  16.877  -4.013  1.00 20.00    -0.019 C 
HETATM    9  C6  UNL     1     -33.958  15.404  -3.862  1.00 20.00     0.010 C 
HETATM   10  C7  UNL     1     -34.286  17.489  -5.221  1.00 20.00     0.010 C 
ENDBRANCH   4   8
TORSDOF 2
ENDMDL
MODEL 5
REMARK VINA RESULT:      -3.7     11.505     12.514
REMARK  2 active torsions:
REMARK  status: ('A' for Active; 'I' for Inactive)
REMARK    1  A    between atoms: C1_1  and  C4_4 
REMARK    2  A    between atoms: C5_5  and  C8_8 
ROOT
HETATM    1  C2  UNL     1     -34.880  16.976  -5.191  1.00 20.00     0.020 C 
HETATM    2  C3  UNL     1     -34.053  15.200  -4.351  1.00 20.00     0.020 C 
HETATM    3  C4  UNL     1     -35.186  15.468  -5.371  1.00 20.00     0.087 C 
HETATM    4  C5  UNL     1     -34.316  16.622  -3.791  1.00 20.00    -0.010 C 
ENDROOT
BRANCH   3   5
HETATM    5  C1  UNL     1     -34.962  14.927  -6.736  1.00 20.00     0.177 C 
HETATM    6  O9  UNL     1     -33.781  15.027  -7.169  1.00 20.00    -0.648 OA
HETATM    7  O10 UNL     1     -35.987  14.436  -7.287  1.00 20.00    -0.648 OA
ENDBRANCH   3   5
BRANCH   4   8
HETATM    8  C8  UNL     1     -33.105  17.405  -3.330  1.00 20.00    -0.019 C 
HETATM    9  C6  UNL     1     -33.164  18.852  -3.826  1.00 20.00     0.010 C 
HETATM   10  C7  UNL     1     -32.982  17.376  -1.803  1.00 20.00     0.010 C 
ENDBRANCH   4   8
TORSDOF 2
ENDMDL
MODEL 6
REMARK VINA RESULT:      -3.6      8.982      9.918
REMARK  2 active torsions:
REMARK  status: ('A' for Active; 'I' for Inactive)
REMARK    1  A    between atoms: C1_1  and  C4_4 
REMARK    2  A    between atoms: C5_5  and  C8_8 
ROOT
HETATM    1  C2  UNL     1     -41.026  13.363   5.200  1.00 20.00     0.020 C 
HETATM    2  C3  UNL     1     -39.831  12.589   6.786  1.00 20.00     0.020 C 
HETATM    3  C4  UNL     1     -40.174  12.081   5.365  1.00 20.00     0.087 C 
HETATM    4  C5  UNL     1     -41.160  13.388   6.745  1.00 20.00    -0.010 C 
ENDROOT
BRANCH   3   5
HETATM    5  C1  UNL     1     -39.023  11.952   4.435  1.00 20.00     0.177 C 
HETATM    6  O9  UNL     1     -39.325  11.855   3.213  1.00 20.00    -0.648 OA
HETATM    7  O10 UNL     1     -37.890  11.955   4.990  1.00 20.00    -0.648 OA
ENDBRANCH   3   5
BRANCH   4   8
HETATM    8  C8  UNL     1     -41.154  14.750   7.405  1.00 20.00    -0.019 C 
HETATM    9  C6  UNL     1     -42.555  15.366   7.408  1.00 20.00     0.010 C 
HETATM   10  C7  UNL     1     -40.614  14.664   8.835  1.00 20.00     0.010 C 
ENDBRANCH   4   8
TORSDOF 2
ENDMDL
MODEL 7
REMARK VINA RESULT:      -3.6      9.740     10.875
REMARK  2 active torsions:
REMARK  status: ('A' for Active; 'I' for Inactive)
REMARK    1  A    between atoms: C1_1  and  C4_4 
REMARK    2  A    between atoms: C5_5  and  C8_8 
ROOT
HETATM    1  C2  UNL     1     -41.863  12.365   6.369  1.00 20.00     0.020 C 
HETATM    2  C3  UNL     1     -40.386  13.849   6.766  1.00 20.00     0.020 C 
HETATM    3  C4  UNL     1     -41.913  13.774   7.009  1.00 20.00     0.087 C 
HETATM    4  C5  UNL     1     -40.590  12.830   5.615  1.00 20.00    -0.010 C 
ENDROOT
BRANCH   3   5
HETATM    5  C1  UNL     1     -42.339  13.817   8.432  1.00 20.00     0.177 C 
HETATM    6  O9  UNL     1     -42.352  14.965   8.956  1.00 20.00    -0.648 OA
HETATM    7  O10 UNL     1     -42.631  12.695   8.932  1.00 20.00    -0.648 OA
ENDBRANCH   3   5
BRANCH   4   8
HETATM    8  C8  UNL     1     -39.501  11.796   5.423  1.00 20.00    -0.019 C 
HETATM    9  C6  UNL     1     -39.195  11.590   3.937  1.00 20.00     0.010 C 
HETATM   10  C7  UNL     1     -38.226  12.196   6.172  1.00 20.00     0.010 C 
ENDBRANCH   4   8
TORSDOF 2
ENDMDL
MODEL 8
REMARK VINA RESULT:      -3.5     11.307     12.148
REMARK  2 active torsions:
REMARK  status: ('A' for Active; 'I' for Inactive)
REMARK    1  A    between atoms: C1_1  and  C4_4 
REMARK    2  A    between atoms: C5_5  and  C8_8 
ROOT
HETATM    1  C2  UNL     1     -33.550  16.932  -1.901  1.00 20.00     0.020 C 
HETATM    2  C3  UNL     1     -32.825  18.642  -2.946  1.00 20.00     0.020 C 
HETATM    3  C4  UNL     1     -33.325  17.248  -3.400  1.00 20.00     0.087 C 
HETATM    4  C5  UNL     1     -32.463  17.992  -1.586  1.00 20.00    -0.010 C 
ENDROOT
BRANCH   3   5
HETATM    5  C1  UNL     1     -34.546  17.248  -4.246  1.00 20.00     0.177 C 
HETATM    6  O9  UNL     1     -34.505  16.486  -5.251  1.00 20.00    -0.648 OA
HETATM    7  O10 UNL     1     -35.467  18.014  -3.848  1.00 20.00    -0.648 OA
ENDBRANCH   3   5
BRANCH   4   8
HETATM    8  C8  UNL     1     -32.679  18.839  -0.350  1.00 20.00    -0.019 C 
HETATM    9  C6  UNL     1     -33.709  18.197   0.584  1.00 20.00     0.010 C 
HETATM   10  C7  UNL     1     -31.361  19.065   0.397  1.00 20.00     0.010 C 
ENDBRANCH   4   8
TORSDOF 2
ENDMDL
MODEL 9
REMARK VINA RESULT:      -3.5      3.259      4.661
REMARK  2 active torsions:
REMARK  status: ('A' for Active; 'I' for Inactive)
REMARK    1  A    between atoms: C1_1  and  C4_4 
REMARK    2  A    between atoms: C5_5  and  C8_8 
ROOT
HETATM    1  C2  UNL     1     -33.941   6.479   3.699  1.00 20.00     0.020 C 
HETATM    2  C3  UNL     1     -33.833   7.376   5.628  1.00 20.00     0.020 C 
HETATM    3  C4  UNL     1     -34.663   6.209   5.042  1.00 20.00     0.087 C 
HETATM    4  C5  UNL     1     -33.730   7.935   4.186  1.00 20.00    -0.010 C 
ENDROOT
BRANCH   3   5
HETATM    5  C1  UNL     1     -34.412   4.876   5.648  1.00 20.00     0.177 C 
HETATM    6  O9  UNL     1     -34.191   3.943   4.826  1.00 20.00    -0.648 OA
HETATM    7  O10 UNL     1     -34.453   4.850   6.909  1.00 20.00    -0.648 OA
ENDBRANCH   3   5
BRANCH   4   8
HETATM    8  C8  UNL     1     -32.422   8.595   3.805  1.00 20.00    -0.019 C 
HETATM    9  C6  UNL     1     -32.565   9.390   2.504  1.00 20.00     0.010 C 
HETATM   10  C7  UNL     1     -31.921   9.509   4.927  1.00 20.00     0.010 C 
ENDBRANCH   4   8
TORSDOF 2
ENDMDL
