MODEL 1
REMARK VINA RESULT:      -5.6      0.000      0.000
REMARK  2 active torsions:
REMARK  status: ('A' for Active; 'I' for Inactive)
REMARK    1  A    between atoms: C1_1  and  C2_2 
REMARK    2  A    between atoms: C1_1  and  C3_3 
ROOT
HETATM    1  C1  UNL     1     -33.800   6.653   4.401  1.00 20.00     0.234 C 
ENDROOT
BRANCH   1   2
HETATM    2  C2  UNL     1     -34.883   5.722   4.898  1.00 20.00     0.396 C 
HETATM    3  F4  UNL     1     -36.063   5.968   4.289  1.00 20.00    -0.171 F 
HETATM    4  F5  UNL     1     -34.554   4.436   4.647  1.00 20.00    -0.171 F 
HETATM    5  F6  UNL     1     -35.068   5.845   6.230  1.00 20.00    -0.171 F 
ENDBRANCH   1   2
BRANCH   1   6
HETATM    6  C3  UNL     1     -33.323   7.612   5.470  1.00 20.00     0.396 C 
HETATM    7  F7  UNL     1     -32.206   8.256   5.063  1.00 20.00    -0.171 F 
HETATM    8  F8  UNL     1     -33.027   6.965   6.616  1.00 20.00    -0.171 F 
HETATM    9  F9  UNL     1     -34.256   8.547   5.746  1.00 20.00    -0.171 F 
ENDBRANCH   1   6
TORSDOF 2
ENDMDL
MODEL 2
REMARK VINA RESULT:      -5.6      0.027      3.354
REMARK  2 active torsions:
REMARK  status: ('A' for Active; 'I' for Inactive)
REMARK    1  A    between atoms: C1_1  and  C2_2 
REMARK    2  A    between atoms: C1_1  and  C3_3 
ROOT
HETATM    1  C1  UNL     1     -33.810   6.668   4.403  1.00 20.00     0.234 C 
ENDROOT
BRANCH   1   2
HETATM    2  C2  UNL     1     -33.316   7.623   5.467  1.00 20.00     0.396 C 
HETATM    3  F4  UNL     1     -33.021   6.974   6.614  1.00 20.00    -0.171 F 
HETATM    4  F5  UNL     1     -32.195   8.254   5.053  1.00 20.00    -0.171 F 
HETATM    5  F6  UNL     1     -34.237   8.569   5.749  1.00 20.00    -0.171 F 
ENDBRANCH   1   2
BRANCH   1   6
HETATM    6  C3  UNL     1     -34.874   5.724   4.920  1.00 20.00     0.396 C 
HETATM    7  F7  UNL     1     -36.053   5.958   4.303  1.00 20.00    -0.171 F 
HETATM    8  F8  UNL     1     -35.069   5.879   6.246  1.00 20.00    -0.171 F 
HETATM    9  F9  UNL     1     -34.542   4.436   4.693  1.00 20.00    -0.171 F 
ENDBRANCH   1   6
TORSDOF 2
ENDMDL
MODEL 3
REMARK VINA RESULT:      -5.6      0.005      3.348
REMARK  2 active torsions:
REMARK  status: ('A' for Active; 'I' for Inactive)
REMARK    1  A    between atoms: C1_1  and  C2_2 
REMARK    2  A    between atoms: C1_1  and  C3_3 
ROOT
HETATM    1  C1  UNL     1     -33.797   6.652   4.402  1.00 20.00     0.234 C 
ENDROOT
BRANCH   1   2
HETATM    2  C2  UNL     1     -33.325   7.612   5.471  1.00 20.00     0.396 C 
HETATM    3  F4  UNL     1     -33.026   6.966   6.618  1.00 20.00    -0.171 F 
HETATM    4  F5  UNL     1     -32.212   8.262   5.065  1.00 20.00    -0.171 F 
HETATM    5  F6  UNL     1     -34.263   8.543   5.748  1.00 20.00    -0.171 F 
ENDBRANCH   1   2
BRANCH   1   6
HETATM    6  C3  UNL     1     -34.884   5.722   4.897  1.00 20.00     0.396 C 
HETATM    7  F7  UNL     1     -34.556   4.436   4.641  1.00 20.00    -0.171 F 
HETATM    8  F8  UNL     1     -36.062   5.972   4.288  1.00 20.00    -0.171 F 
HETATM    9  F9  UNL     1     -35.067   5.841   6.228  1.00 20.00    -0.171 F 
ENDBRANCH   1   6
TORSDOF 2
ENDMDL
MODEL 4
REMARK VINA RESULT:      -5.6      0.019      1.783
REMARK  2 active torsions:
REMARK  status: ('A' for Active; 'I' for Inactive)
REMARK    1  A    between atoms: C1_1  and  C2_2 
REMARK    2  A    between atoms: C1_1  and  C3_3 
ROOT
HETATM    1  C1  UNL     1     -33.807   6.648   4.395  1.00 20.00     0.234 C 
ENDROOT
BRANCH   1   2
HETATM    2  C2  UNL     1     -34.888   5.721   4.905  1.00 20.00     0.396 C 
HETATM    3  F4  UNL     1     -35.077   5.866   6.234  1.00 20.00    -0.171 F 
HETATM    4  F5  UNL     1     -36.064   5.983   4.293  1.00 20.00    -0.171 F 
HETATM    5  F6  UNL     1     -34.583   4.428   4.666  1.00 20.00    -0.171 F 
ENDBRANCH   1   2
BRANCH   1   6
HETATM    6  C3  UNL     1     -33.313   7.603   5.460  1.00 20.00     0.396 C 
HETATM    7  F7  UNL     1     -34.258   8.527   5.743  1.00 20.00    -0.171 F 
HETATM    8  F8  UNL     1     -32.206   8.261   5.056  1.00 20.00    -0.171 F 
HETATM    9  F9  UNL     1     -33.019   6.954   6.607  1.00 20.00    -0.171 F 
ENDBRANCH   1   6
TORSDOF 2
ENDMDL
MODEL 5
REMARK VINA RESULT:      -5.5      1.125      2.011
REMARK  2 active torsions:
REMARK  status: ('A' for Active; 'I' for Inactive)
REMARK    1  A    between atoms: C1_1  and  C2_2 
REMARK    2  A    between atoms: C1_1  and  C3_3 
ROOT
HETATM    1  C1  UNL     1     -33.759   6.748   5.887  1.00 20.00     0.234 C 
ENDROOT
BRANCH   1   2
HETATM    2  C2  UNL     1     -34.712   5.621   5.558  1.00 20.00     0.396 C 
HETATM    3  F4  UNL     1     -34.065   4.574   5.004  1.00 20.00    -0.171 F 
HETATM    4  F5  UNL     1     -35.324   5.177   6.678  1.00 20.00    -0.171 F 
HETATM    5  F6  UNL     1     -35.673   6.020   4.698  1.00 20.00    -0.171 F 
ENDBRANCH   1   2
BRANCH   1   6
HETATM    6  C3  UNL     1     -33.289   7.489   4.653  1.00 20.00     0.396 C 
HETATM    7  F7  UNL     1     -32.126   8.130   4.902  1.00 20.00    -0.171 F 
HETATM    8  F8  UNL     1     -34.190   8.414   4.261  1.00 20.00    -0.171 F 
HETATM    9  F9  UNL     1     -33.079   6.645   3.621  1.00 20.00    -0.171 F 
ENDBRANCH   1   6
TORSDOF 2
ENDMDL
MODEL 6
REMARK VINA RESULT:      -5.5      1.126      3.247
REMARK  2 active torsions:
REMARK  status: ('A' for Active; 'I' for Inactive)
REMARK    1  A    between atoms: C1_1  and  C2_2 
REMARK    2  A    between atoms: C1_1  and  C3_3 
ROOT
HETATM    1  C1  UNL     1     -33.752   6.754   5.890  1.00 20.00     0.234 C 
ENDROOT
BRANCH   1   2
HETATM    2  C2  UNL     1     -33.285   7.490   4.653  1.00 20.00     0.396 C 
HETATM    3  F4  UNL     1     -34.187   8.414   4.259  1.00 20.00    -0.171 F 
HETATM    4  F5  UNL     1     -32.121   8.131   4.896  1.00 20.00    -0.171 F 
HETATM    5  F6  UNL     1     -33.078   6.643   3.623  1.00 20.00    -0.171 F 
ENDBRANCH   1   2
BRANCH   1   6
HETATM    6  C3  UNL     1     -34.708   5.626   5.567  1.00 20.00     0.396 C 
HETATM    7  F7  UNL     1     -35.319   5.189   6.691  1.00 20.00    -0.171 F 
HETATM    8  F8  UNL     1     -34.064   4.576   5.018  1.00 20.00    -0.171 F 
HETATM    9  F9  UNL     1     -35.669   6.024   4.708  1.00 20.00    -0.171 F 
ENDBRANCH   1   6
TORSDOF 2
ENDMDL
MODEL 7
REMARK VINA RESULT:      -5.5      1.105      1.598
REMARK  2 active torsions:
REMARK  status: ('A' for Active; 'I' for Inactive)
REMARK    1  A    between atoms: C1_1  and  C2_2 
REMARK    2  A    between atoms: C1_1  and  C3_3 
ROOT
HETATM    1  C1  UNL     1     -33.748   6.803   5.897  1.00 20.00     0.234 C 
ENDROOT
BRANCH   1   2
HETATM    2  C2  UNL     1     -34.687   5.682   5.513  1.00 20.00     0.396 C 
HETATM    3  F4  UNL     1     -35.626   6.102   4.639  1.00 20.00    -0.171 F 
HETATM    4  F5  UNL     1     -34.005   4.673   4.927  1.00 20.00    -0.171 F 
HETATM    5  F6  UNL     1     -35.319   5.174   6.593  1.00 20.00    -0.171 F 
ENDBRANCH   1   2
BRANCH   1   6
HETATM    6  C3  UNL     1     -33.267   7.593   4.699  1.00 20.00     0.396 C 
HETATM    7  F7  UNL     1     -32.168   8.312   5.017  1.00 20.00    -0.171 F 
HETATM    8  F8  UNL     1     -34.209   8.458   4.268  1.00 20.00    -0.171 F 
HETATM    9  F9  UNL     1     -32.941   6.781   3.671  1.00 20.00    -0.171 F 
ENDBRANCH   1   6
TORSDOF 2
ENDMDL
MODEL 8
REMARK VINA RESULT:      -5.5      1.092      2.016
REMARK  2 active torsions:
REMARK  status: ('A' for Active; 'I' for Inactive)
REMARK    1  A    between atoms: C1_1  and  C2_2 
REMARK    2  A    between atoms: C1_1  and  C3_3 
ROOT
HETATM    1  C1  UNL     1     -33.795   6.774   5.927  1.00 20.00     0.234 C 
ENDROOT
BRANCH   1   2
HETATM    2  C2  UNL     1     -34.723   5.639   5.560  1.00 20.00     0.396 C 
HETATM    3  F4  UNL     1     -35.349   5.142   6.648  1.00 20.00    -0.171 F 
HETATM    4  F5  UNL     1     -35.675   6.065   4.700  1.00 20.00    -0.171 F 
HETATM    5  F6  UNL     1     -34.057   4.628   4.963  1.00 20.00    -0.171 F 
ENDBRANCH   1   2
BRANCH   1   6
HETATM    6  C3  UNL     1     -33.305   7.538   4.716  1.00 20.00     0.396 C 
HETATM    7  F7  UNL     1     -34.238   8.427   4.309  1.00 20.00    -0.171 F 
HETATM    8  F8  UNL     1     -33.051   6.711   3.681  1.00 20.00    -0.171 F 
HETATM    9  F9  UNL     1     -32.177   8.226   4.990  1.00 20.00    -0.171 F 
ENDBRANCH   1   6
TORSDOF 2
ENDMDL
MODEL 9
REMARK VINA RESULT:      -5.0      1.498      3.188
REMARK  2 active torsions:
REMARK  status: ('A' for Active; 'I' for Inactive)
REMARK    1  A    between atoms: C1_1  and  C2_2 
REMARK    2  A    between atoms: C1_1  and  C3_3 
ROOT
HETATM    1  C1  UNL     1     -33.583   8.316   5.254  1.00 20.00     0.234 C 
ENDROOT
BRANCH   1   2
HETATM    2  C2  UNL     1     -32.700   7.999   4.067  1.00 20.00     0.396 C 
HETATM    3  F4  UNL     1     -32.912   8.862   3.050  1.00 20.00    -0.171 F 
HETATM    4  F5  UNL     1     -31.396   8.085   4.412  1.00 20.00    -0.171 F 
HETATM    5  F6  UNL     1     -32.920   6.749   3.608  1.00 20.00    -0.171 F 
ENDBRANCH   1   2
BRANCH   1   6
HETATM    6  C3  UNL     1     -33.985   7.078   6.025  1.00 20.00     0.396 C 
HETATM    7  F7  UNL     1     -34.792   6.295   5.273  1.00 20.00    -0.171 F 
HETATM    8  F8  UNL     1     -34.658   7.395   7.151  1.00 20.00    -0.171 F 
HETATM    9  F9  UNL     1     -32.909   6.341   6.372  1.00 20.00    -0.171 F 
ENDBRANCH   1   6
TORSDOF 2
ENDMDL
