MODEL 1
REMARK VINA RESULT:      -4.6      0.000      0.000
REMARK  3 active torsions:
REMARK  status: ('A' for Active; 'I' for Inactive)
REMARK    1  A    between atoms: C1_1  and  C3_3 
REMARK    2  A    between atoms: C3_3  and  C6_6 
REMARK    3  A    between atoms: C6_6  and  C7_7 
ROOT
HETATM    1  C3  UNL     1     -34.505   6.055   5.827  1.00 20.00     0.149 C 
HETATM    2  O8  UNL     1     -34.860   5.418   6.815  1.00 20.00    -0.293 OA
ENDROOT
BRANCH   1   3
HETATM    3  C1  UNL     1     -33.694   7.301   5.947  1.00 20.00     0.045 C 
HETATM    4  C2  UNL     1     -33.129   7.860   4.869  1.00 20.00    -0.027 C 
HETATM    5  C4  UNL     1     -32.307   9.105   4.926  1.00 20.00     0.036 C 
ENDBRANCH   1   3
BRANCH   1   6
HETATM    6  C6  UNL     1     -34.851   5.638   4.408  1.00 20.00     0.082 C 
BRANCH   6   7
HETATM    7  C7  UNL     1     -33.901   4.571   3.868  1.00 20.00     0.003 C 
HETATM    8  C5  UNL     1     -33.061   5.102   2.719  1.00 20.00     0.005 C 
ENDBRANCH   6   7
ENDBRANCH   1   6
TORSDOF 3
ENDMDL
MODEL 2
REMARK VINA RESULT:      -4.5      2.097      3.669
REMARK  3 active torsions:
REMARK  status: ('A' for Active; 'I' for Inactive)
REMARK    1  A    between atoms: C1_1  and  C3_3 
REMARK    2  A    between atoms: C3_3  and  C6_6 
REMARK    3  A    between atoms: C6_6  and  C7_7 
ROOT
HETATM    1  C3  UNL     1     -32.789   8.077   4.459  1.00 20.00     0.149 C 
HETATM    2  O8  UNL     1     -32.067   9.030   4.736  1.00 20.00    -0.293 OA
ENDROOT
BRANCH   1   3
HETATM    3  C1  UNL     1     -32.439   7.116   3.373  1.00 20.00     0.045 C 
HETATM    4  C2  UNL     1     -33.135   5.984   3.206  1.00 20.00    -0.027 C 
HETATM    5  C4  UNL     1     -32.833   4.985   2.138  1.00 20.00     0.036 C 
ENDBRANCH   1   3
BRANCH   1   6
HETATM    6  C6  UNL     1     -34.089   7.788   5.189  1.00 20.00     0.082 C 
BRANCH   6   7
HETATM    7  C7  UNL     1     -33.878   6.932   6.437  1.00 20.00     0.003 C 
HETATM    8  C5  UNL     1     -34.657   5.630   6.358  1.00 20.00     0.005 C 
ENDBRANCH   6   7
ENDBRANCH   1   6
TORSDOF 3
ENDMDL
MODEL 3
REMARK VINA RESULT:      -4.5      1.725      2.931
REMARK  3 active torsions:
REMARK  status: ('A' for Active; 'I' for Inactive)
REMARK    1  A    between atoms: C1_1  and  C3_3 
REMARK    2  A    between atoms: C3_3  and  C6_6 
REMARK    3  A    between atoms: C6_6  and  C7_7 
ROOT
HETATM    1  C3  UNL     1     -34.034   4.901   4.047  1.00 20.00     0.149 C 
HETATM    2  O8  UNL     1     -33.848   3.717   4.316  1.00 20.00    -0.293 OA
ENDROOT
BRANCH   1   3
HETATM    3  C1  UNL     1     -33.245   5.599   2.991  1.00 20.00     0.045 C 
HETATM    4  C2  UNL     1     -32.792   6.844   3.182  1.00 20.00    -0.027 C 
HETATM    5  C4  UNL     1     -31.998   7.595   2.164  1.00 20.00     0.036 C 
ENDBRANCH   1   3
BRANCH   1   6
HETATM    6  C6  UNL     1     -35.073   5.754   4.754  1.00 20.00     0.082 C 
BRANCH   6   7
HETATM    7  C7  UNL     1     -34.774   5.921   6.242  1.00 20.00     0.003 C 
HETATM    8  C5  UNL     1     -33.985   7.191   6.513  1.00 20.00     0.005 C 
ENDBRANCH   6   7
ENDBRANCH   1   6
TORSDOF 3
ENDMDL
MODEL 4
REMARK VINA RESULT:      -4.5      1.947      2.695
REMARK  3 active torsions:
REMARK  status: ('A' for Active; 'I' for Inactive)
REMARK    1  A    between atoms: C1_1  and  C3_3 
REMARK    2  A    between atoms: C3_3  and  C6_6 
REMARK    3  A    between atoms: C6_6  and  C7_7 
ROOT
HETATM    1  C3  UNL     1     -33.234   5.876   3.258  1.00 20.00     0.149 C 
HETATM    2  O8  UNL     1     -32.805   5.007   2.504  1.00 20.00    -0.293 OA
ENDROOT
BRANCH   1   3
HETATM    3  C1  UNL     1     -32.485   7.142   3.504  1.00 20.00     0.045 C 
HETATM    4  C2  UNL     1     -32.847   7.974   4.489  1.00 20.00    -0.027 C 
HETATM    5  C4  UNL     1     -32.138   9.254   4.785  1.00 20.00     0.036 C 
ENDBRANCH   1   3
BRANCH   1   6
HETATM    6  C6  UNL     1     -34.553   5.745   4.000  1.00 20.00     0.082 C 
BRANCH   6   7
HETATM    7  C7  UNL     1     -34.463   4.783   5.183  1.00 20.00     0.003 C 
HETATM    8  C5  UNL     1     -34.559   5.520   6.508  1.00 20.00     0.005 C 
ENDBRANCH   6   7
ENDBRANCH   1   6
TORSDOF 3
ENDMDL
MODEL 5
REMARK VINA RESULT:      -4.3      0.602      3.163
REMARK  3 active torsions:
REMARK  status: ('A' for Active; 'I' for Inactive)
REMARK    1  A    between atoms: C1_1  and  C3_3 
REMARK    2  A    between atoms: C3_3  and  C6_6 
REMARK    3  A    between atoms: C6_6  and  C7_7 
ROOT
HETATM    1  C3  UNL     1     -34.433   5.915   5.654  1.00 20.00     0.149 C 
HETATM    2  O8  UNL     1     -35.072   5.163   6.384  1.00 20.00    -0.293 OA
ENDROOT
BRANCH   1   3
HETATM    3  C1  UNL     1     -34.338   5.687   4.183  1.00 20.00     0.045 C 
HETATM    4  C2  UNL     1     -33.209   5.224   3.631  1.00 20.00    -0.027 C 
HETATM    5  C4  UNL     1     -33.053   4.976   2.167  1.00 20.00     0.036 C 
ENDBRANCH   1   3
BRANCH   1   6
HETATM    6  C6  UNL     1     -33.691   7.134   6.173  1.00 20.00     0.082 C 
BRANCH   6   7
HETATM    7  C7  UNL     1     -33.728   8.301   5.189  1.00 20.00     0.003 C 
HETATM    8  C5  UNL     1     -32.332   8.688   4.730  1.00 20.00     0.005 C 
ENDBRANCH   6   7
ENDBRANCH   1   6
TORSDOF 3
ENDMDL
MODEL 6
REMARK VINA RESULT:      -4.2      2.567      3.505
REMARK  3 active torsions:
REMARK  status: ('A' for Active; 'I' for Inactive)
REMARK    1  A    between atoms: C1_1  and  C3_3 
REMARK    2  A    between atoms: C3_3  and  C6_6 
REMARK    3  A    between atoms: C6_6  and  C7_7 
ROOT
HETATM    1  C3  UNL     1     -32.775   8.089   4.464  1.00 20.00     0.149 C 
HETATM    2  O8  UNL     1     -32.151   8.824   5.225  1.00 20.00    -0.293 OA
ENDROOT
BRANCH   1   3
HETATM    3  C1  UNL     1     -32.310   7.826   3.072  1.00 20.00     0.045 C 
HETATM    4  C2  UNL     1     -32.581   8.687   2.082  1.00 20.00    -0.027 C 
HETATM    5  C4  UNL     1     -32.144   8.479   0.670  1.00 20.00     0.036 C 
ENDBRANCH   1   3
BRANCH   1   6
HETATM    6  C6  UNL     1     -34.060   7.387   4.866  1.00 20.00     0.082 C 
BRANCH   6   7
HETATM    7  C7  UNL     1     -33.989   6.806   6.277  1.00 20.00     0.003 C 
HETATM    8  C5  UNL     1     -34.560   5.398   6.329  1.00 20.00     0.005 C 
ENDBRANCH   6   7
ENDBRANCH   1   6
TORSDOF 3
ENDMDL
MODEL 7
REMARK VINA RESULT:      -4.2      2.073      3.179
REMARK  3 active torsions:
REMARK  status: ('A' for Active; 'I' for Inactive)
REMARK    1  A    between atoms: C1_1  and  C3_3 
REMARK    2  A    between atoms: C3_3  and  C6_6 
REMARK    3  A    between atoms: C6_6  and  C7_7 
ROOT
HETATM    1  C3  UNL     1     -32.782   8.358   4.886  1.00 20.00     0.149 C 
HETATM    2  O8  UNL     1     -32.160   9.358   5.234  1.00 20.00    -0.293 OA
ENDROOT
BRANCH   1   3
HETATM    3  C1  UNL     1     -33.279   7.359   5.875  1.00 20.00     0.045 C 
HETATM    4  C2  UNL     1     -34.273   6.517   5.561  1.00 20.00    -0.027 C 
HETATM    5  C4  UNL     1     -34.813   5.496   6.507  1.00 20.00     0.036 C 
ENDBRANCH   1   3
BRANCH   1   6
HETATM    6  C6  UNL     1     -33.100   8.051   3.433  1.00 20.00     0.082 C 
BRANCH   6   7
HETATM    7  C7  UNL     1     -32.114   7.060   2.818  1.00 20.00     0.003 C 
HETATM    8  C5  UNL     1     -32.760   5.705   2.580  1.00 20.00     0.005 C 
ENDBRANCH   6   7
ENDBRANCH   1   6
TORSDOF 3
ENDMDL
MODEL 8
REMARK VINA RESULT:      -4.2      2.815      3.937
REMARK  3 active torsions:
REMARK  status: ('A' for Active; 'I' for Inactive)
REMARK    1  A    between atoms: C1_1  and  C3_3 
REMARK    2  A    between atoms: C3_3  and  C6_6 
REMARK    3  A    between atoms: C6_6  and  C7_7 
ROOT
HETATM    1  C3  UNL     1     -32.643   8.175   4.078  1.00 20.00     0.149 C 
HETATM    2  O8  UNL     1     -32.271   9.076   4.824  1.00 20.00    -0.293 OA
ENDROOT
BRANCH   1   3
HETATM    3  C1  UNL     1     -33.486   7.047   4.571  1.00 20.00     0.045 C 
HETATM    4  C2  UNL     1     -33.866   6.983   5.854  1.00 20.00    -0.027 C 
HETATM    5  C4  UNL     1     -34.709   5.880   6.406  1.00 20.00     0.036 C 
ENDBRANCH   1   3
BRANCH   1   6
HETATM    6  C6  UNL     1     -32.287   8.125   2.603  1.00 20.00     0.082 C 
BRANCH   6   7
HETATM    7  C7  UNL     1     -32.800   9.345   1.839  1.00 20.00     0.003 C 
HETATM    8  C5  UNL     1     -32.699   9.144   0.336  1.00 20.00     0.005 C 
ENDBRANCH   6   7
ENDBRANCH   1   6
TORSDOF 3
ENDMDL
MODEL 9
REMARK VINA RESULT:      -4.0      1.296      1.756
REMARK  3 active torsions:
REMARK  status: ('A' for Active; 'I' for Inactive)
REMARK    1  A    between atoms: C1_1  and  C3_3 
REMARK    2  A    between atoms: C3_3  and  C6_6 
REMARK    3  A    between atoms: C6_6  and  C7_7 
ROOT
HETATM    1  C3  UNL     1     -33.780   7.056   5.961  1.00 20.00     0.149 C 
HETATM    2  O8  UNL     1     -32.997   7.239   6.889  1.00 20.00    -0.293 OA
ENDROOT
BRANCH   1   3
HETATM    3  C1  UNL     1     -33.743   7.893   4.727  1.00 20.00     0.045 C 
HETATM    4  C2  UNL     1     -32.611   8.035   4.026  1.00 20.00    -0.027 C 
HETATM    5  C4  UNL     1     -32.512   8.859   2.784  1.00 20.00     0.036 C 
ENDBRANCH   1   3
BRANCH   1   6
HETATM    6  C6  UNL     1     -34.845   5.973   5.981  1.00 20.00     0.082 C 
BRANCH   6   7
HETATM    7  C7  UNL     1     -35.078   5.361   4.602  1.00 20.00     0.003 C 
HETATM    8  C5  UNL     1     -33.976   4.382   4.233  1.00 20.00     0.005 C 
ENDBRANCH   6   7
ENDBRANCH   1   6
TORSDOF 3
ENDMDL
