MODEL 1
REMARK VINA RESULT:      -4.5      0.000      0.000
REMARK  3 active torsions:
REMARK  status: ('A' for Active; 'I' for Inactive)
REMARK    1  A    between atoms: C1_1  and  C5_5 
REMARK    2  A    between atoms: C2_2  and  C6_6 
REMARK    3  A    between atoms: C6_6  and  C7_7 
ROOT
HETATM    1  C1  UNL     1     -34.095   5.764   6.220  1.00 20.00     0.150 A 
HETATM    2  C2  UNL     1     -33.491   7.146   6.276  1.00 20.00     0.151 A 
HETATM    3  O8  UNL     1     -34.724   6.835   6.937  1.00 20.00    -0.376 OA
ENDROOT
BRANCH   2   4
HETATM    4  C6  UNL     1     -33.612   8.154   5.144  1.00 20.00     0.034 C 
BRANCH   4   5
HETATM    5  C7  UNL     1     -32.277   8.353   4.427  1.00 20.00    -0.002 C 
HETATM    6  C4  UNL     1     -32.182   7.492   3.179  1.00 20.00     0.005 C 
ENDBRANCH   4   5
ENDBRANCH   2   4
BRANCH   1   7
HETATM    7  C5  UNL     1     -34.866   5.258   5.054  1.00 20.00     0.030 C 
HETATM    8  C3  UNL     1     -34.036   4.416   4.116  1.00 20.00     0.007 C 
ENDBRANCH   1   7
TORSDOF 3
ENDMDL
MODEL 2
REMARK VINA RESULT:      -4.4      1.477      3.245
REMARK  3 active torsions:
REMARK  status: ('A' for Active; 'I' for Inactive)
REMARK    1  A    between atoms: C1_1  and  C5_5 
REMARK    2  A    between atoms: C2_2  and  C6_6 
REMARK    3  A    between atoms: C6_6  and  C7_7 
ROOT
HETATM    1  C1  UNL     1     -32.974   8.290   3.886  1.00 20.00     0.150 A 
HETATM    2  C2  UNL     1     -33.618   8.178   5.246  1.00 20.00     0.151 A 
HETATM    3  O8  UNL     1     -32.481   9.020   5.017  1.00 20.00    -0.376 OA
ENDROOT
BRANCH   2   4
HETATM    4  C6  UNL     1     -33.369   7.014   6.192  1.00 20.00     0.034 C 
BRANCH   4   5
HETATM    5  C7  UNL     1     -34.623   6.159   6.371  1.00 20.00    -0.002 C 
HETATM    6  C4  UNL     1     -34.685   5.041   5.343  1.00 20.00     0.005 C 
ENDBRANCH   4   5
ENDBRANCH   2   4
BRANCH   1   7
HETATM    7  C5  UNL     1     -32.036   7.273   3.343  1.00 20.00     0.030 C 
HETATM    8  C3  UNL     1     -32.733   6.158   2.604  1.00 20.00     0.007 C 
ENDBRANCH   1   7
TORSDOF 3
ENDMDL
MODEL 3
REMARK VINA RESULT:      -4.3      0.966      2.989
REMARK  3 active torsions:
REMARK  status: ('A' for Active; 'I' for Inactive)
REMARK    1  A    between atoms: C1_1  and  C5_5 
REMARK    2  A    between atoms: C2_2  and  C6_6 
REMARK    3  A    between atoms: C6_6  and  C7_7 
ROOT
HETATM    1  C1  UNL     1     -34.050   7.430   6.269  1.00 20.00     0.150 A 
HETATM    2  C2  UNL     1     -34.664   6.060   6.113  1.00 20.00     0.151 A 
HETATM    3  O8  UNL     1     -33.255   6.237   6.308  1.00 20.00    -0.376 OA
ENDROOT
BRANCH   2   4
HETATM    4  C6  UNL     1     -35.051   5.470   4.766  1.00 20.00     0.034 C 
BRANCH   4   5
HETATM    5  C7  UNL     1     -33.955   4.558   4.218  1.00 20.00    -0.002 C 
HETATM    6  C4  UNL     1     -33.268   5.177   3.012  1.00 20.00     0.005 C 
ENDBRANCH   4   5
ENDBRANCH   2   4
BRANCH   1   7
HETATM    7  C5  UNL     1     -33.766   8.331   5.123  1.00 20.00     0.030 C 
HETATM    8  C3  UNL     1     -32.301   8.397   4.769  1.00 20.00     0.007 C 
ENDBRANCH   1   7
TORSDOF 3
ENDMDL
MODEL 4
REMARK VINA RESULT:      -4.1      1.354      1.979
REMARK  3 active torsions:
REMARK  status: ('A' for Active; 'I' for Inactive)
REMARK    1  A    between atoms: C1_1  and  C5_5 
REMARK    2  A    between atoms: C2_2  and  C6_6 
REMARK    3  A    between atoms: C6_6  and  C7_7 
ROOT
HETATM    1  C1  UNL     1     -33.522   7.349   5.971  1.00 20.00     0.150 A 
HETATM    2  C2  UNL     1     -32.696   8.070   4.933  1.00 20.00     0.151 A 
HETATM    3  O8  UNL     1     -33.717   8.741   5.685  1.00 20.00    -0.376 OA
ENDROOT
BRANCH   2   4
HETATM    4  C6  UNL     1     -32.966   7.972   3.440  1.00 20.00     0.034 C 
BRANCH   4   5
HETATM    5  C7  UNL     1     -32.107   6.892   2.786  1.00 20.00    -0.002 C 
HETATM    6  C4  UNL     1     -32.859   5.576   2.671  1.00 20.00     0.005 C 
ENDBRANCH   4   5
ENDBRANCH   2   4
BRANCH   1   7
HETATM    7  C5  UNL     1     -34.675   6.475   5.633  1.00 20.00     0.030 C 
HETATM    8  C3  UNL     1     -34.489   5.047   6.081  1.00 20.00     0.007 C 
ENDBRANCH   1   7
TORSDOF 3
ENDMDL
MODEL 5
REMARK VINA RESULT:      -4.0      1.981      3.922
REMARK  3 active torsions:
REMARK  status: ('A' for Active; 'I' for Inactive)
REMARK    1  A    between atoms: C1_1  and  C5_5 
REMARK    2  A    between atoms: C2_2  and  C6_6 
REMARK    3  A    between atoms: C6_6  and  C7_7 
ROOT
HETATM    1  C1  UNL     1     -32.509   6.511   3.284  1.00 20.00     0.150 A 
HETATM    2  C2  UNL     1     -33.408   5.390   3.748  1.00 20.00     0.151 A 
HETATM    3  O8  UNL     1     -33.296   5.744   2.362  1.00 20.00    -0.376 OA
ENDROOT
BRANCH   2   4
HETATM    4  C6  UNL     1     -34.781   5.622   4.355  1.00 20.00     0.034 C 
BRANCH   4   5
HETATM    5  C7  UNL     1     -34.768   5.406   5.868  1.00 20.00    -0.002 C 
HETATM    6  C4  UNL     1     -34.309   6.653   6.604  1.00 20.00     0.005 C 
ENDBRANCH   4   5
ENDBRANCH   2   4
BRANCH   1   7
HETATM    7  C5  UNL     1     -32.882   7.946   3.379  1.00 20.00     0.030 C 
HETATM    8  C3  UNL     1     -32.221   8.656   4.535  1.00 20.00     0.007 C 
ENDBRANCH   1   7
TORSDOF 3
ENDMDL
MODEL 6
REMARK VINA RESULT:      -4.0      1.582      2.669
REMARK  3 active torsions:
REMARK  status: ('A' for Active; 'I' for Inactive)
REMARK    1  A    between atoms: C1_1  and  C5_5 
REMARK    2  A    between atoms: C2_2  and  C6_6 
REMARK    3  A    between atoms: C6_6  and  C7_7 
ROOT
HETATM    1  C1  UNL     1     -34.770   5.296   4.957  1.00 20.00     0.150 A 
HETATM    2  C2  UNL     1     -34.080   5.369   3.616  1.00 20.00     0.151 A 
HETATM    3  O8  UNL     1     -34.244   4.127   4.314  1.00 20.00    -0.376 OA
ENDROOT
BRANCH   2   4
HETATM    4  C6  UNL     1     -32.638   5.818   3.445  1.00 20.00     0.034 C 
BRANCH   4   5
HETATM    5  C7  UNL     1     -32.556   7.256   2.934  1.00 20.00    -0.002 C 
HETATM    6  C4  UNL     1     -32.183   8.221   4.047  1.00 20.00     0.005 C 
ENDBRANCH   4   5
ENDBRANCH   2   4
BRANCH   1   7
HETATM    7  C5  UNL     1     -34.104   5.656   6.236  1.00 20.00     0.030 C 
HETATM    8  C3  UNL     1     -34.267   7.111   6.601  1.00 20.00     0.007 C 
ENDBRANCH   1   7
TORSDOF 3
ENDMDL
MODEL 7
REMARK VINA RESULT:      -3.9      1.715      3.768
REMARK  3 active torsions:
REMARK  status: ('A' for Active; 'I' for Inactive)
REMARK    1  A    between atoms: C1_1  and  C5_5 
REMARK    2  A    between atoms: C2_2  and  C6_6 
REMARK    3  A    between atoms: C6_6  and  C7_7 
ROOT
HETATM    1  C1  UNL     1     -32.486   8.590   3.628  1.00 20.00     0.150 A 
HETATM    2  C2  UNL     1     -33.483   8.339   4.733  1.00 20.00     0.151 A 
HETATM    3  O8  UNL     1     -32.071   8.213   4.948  1.00 20.00    -0.376 OA
ENDROOT
BRANCH   2   4
HETATM    4  C6  UNL     1     -34.267   7.043   4.868  1.00 20.00     0.034 C 
BRANCH   4   5
HETATM    5  C7  UNL     1     -34.276   6.543   6.312  1.00 20.00    -0.002 C 
HETATM    6  C4  UNL     1     -34.511   5.043   6.379  1.00 20.00     0.005 C 
ENDBRANCH   4   5
ENDBRANCH   2   4
BRANCH   1   7
HETATM    7  C5  UNL     1     -32.175   7.595   2.569  1.00 20.00     0.030 C 
HETATM    8  C3  UNL     1     -32.139   8.195   1.185  1.00 20.00     0.007 C 
ENDBRANCH   1   7
TORSDOF 3
ENDMDL
MODEL 8
REMARK VINA RESULT:      -3.8      1.617      2.242
REMARK  3 active torsions:
REMARK  status: ('A' for Active; 'I' for Inactive)
REMARK    1  A    between atoms: C1_1  and  C5_5 
REMARK    2  A    between atoms: C2_2  and  C6_6 
REMARK    3  A    between atoms: C6_6  and  C7_7 
ROOT
HETATM    1  C1  UNL     1     -33.459   7.449   5.612  1.00 20.00     0.150 A 
HETATM    2  C2  UNL     1     -32.444   8.071   4.684  1.00 20.00     0.151 A 
HETATM    3  O8  UNL     1     -33.649   8.756   5.053  1.00 20.00    -0.376 OA
ENDROOT
BRANCH   2   4
HETATM    4  C6  UNL     1     -32.338   7.718   3.209  1.00 20.00     0.034 C 
BRANCH   4   5
HETATM    5  C7  UNL     1     -32.600   8.935   2.322  1.00 20.00    -0.002 C 
HETATM    6  C4  UNL     1     -32.334   8.624   0.859  1.00 20.00     0.005 C 
ENDBRANCH   4   5
ENDBRANCH   2   4
BRANCH   1   7
HETATM    7  C5  UNL     1     -34.450   6.433   5.172  1.00 20.00     0.030 C 
HETATM    8  C3  UNL     1     -34.570   5.269   6.125  1.00 20.00     0.007 C 
ENDBRANCH   1   7
TORSDOF 3
ENDMDL
MODEL 9
REMARK VINA RESULT:      -3.8      1.862      3.479
REMARK  3 active torsions:
REMARK  status: ('A' for Active; 'I' for Inactive)
REMARK    1  A    between atoms: C1_1  and  C5_5 
REMARK    2  A    between atoms: C2_2  and  C6_6 
REMARK    3  A    between atoms: C6_6  and  C7_7 
ROOT
HETATM    1  C1  UNL     1     -32.499   8.135   4.708  1.00 20.00     0.150 A 
HETATM    2  C2  UNL     1     -32.069   7.490   3.413  1.00 20.00     0.151 A 
HETATM    3  O8  UNL     1     -32.407   8.882   3.488  1.00 20.00    -0.376 OA
ENDROOT
BRANCH   2   4
HETATM    4  C6  UNL     1     -33.000   6.654   2.550  1.00 20.00     0.034 C 
BRANCH   4   5
HETATM    5  C7  UNL     1     -32.822   5.161   2.818  1.00 20.00    -0.002 C 
HETATM    6  C4  UNL     1     -33.874   4.640   3.784  1.00 20.00     0.005 C 
ENDBRANCH   4   5
ENDBRANCH   2   4
BRANCH   1   7
HETATM    7  C5  UNL     1     -33.873   8.013   5.262  1.00 20.00     0.030 C 
HETATM    8  C3  UNL     1     -33.965   7.042   6.413  1.00 20.00     0.007 C 
ENDBRANCH   1   7
TORSDOF 3
ENDMDL
