MODEL 1
REMARK VINA RESULT:      -4.9      0.000      0.000
REMARK  2 active torsions:
REMARK  status: ('A' for Active; 'I' for Inactive)
REMARK    1  A    between atoms: C6_6  and  C7_7 
REMARK    2  A    between atoms: C7_7  and  O8_8 
ROOT
HETATM    1  C1  UNL     1     -33.008   5.054   2.654  1.00 20.00     0.015 C 
HETATM    2  C2  UNL     1     -33.683   5.440   3.568  1.00 20.00    -0.079 C 
HETATM    3  C5  UNL     1     -34.405   4.917   5.856  1.00 20.00     0.061 C 
HETATM    4  C7  UNL     1     -34.519   5.908   4.692  1.00 20.00     0.119 C 
ENDROOT
BRANCH   4   5
HETATM    5  C6  UNL     1     -34.162   7.361   5.124  1.00 20.00     0.024 C 
HETATM    6  C3  UNL     1     -33.886   7.514   6.625  1.00 20.00     0.014 C 
HETATM    7  C4  UNL     1     -32.985   7.944   4.325  1.00 20.00     0.014 C 
ENDBRANCH   4   5
BRANCH   4   8
HETATM    8  O8  UNL     1     -35.885   5.887   4.263  1.00 20.00    -0.378 OA
HETATM    9  H20 UNL     1     -36.208   6.795   4.347  1.00 20.00     0.211 HD
ENDBRANCH   4   8
TORSDOF 2
ENDMDL
MODEL 2
REMARK VINA RESULT:      -4.2      1.717      3.068
REMARK  2 active torsions:
REMARK  status: ('A' for Active; 'I' for Inactive)
REMARK    1  A    between atoms: C6_6  and  C7_7 
REMARK    2  A    between atoms: C7_7  and  O8_8 
ROOT
HETATM    1  C1  UNL     1     -31.982   7.633   3.108  1.00 20.00     0.015 C 
HETATM    2  C2  UNL     1     -32.700   7.530   4.065  1.00 20.00    -0.079 C 
HETATM    3  C5  UNL     1     -34.305   8.738   5.476  1.00 20.00     0.061 C 
HETATM    4  C7  UNL     1     -33.579   7.408   5.245  1.00 20.00     0.119 C 
ENDROOT
BRANCH   4   5
HETATM    5  C6  UNL     1     -34.570   6.214   5.118  1.00 20.00     0.024 C 
HETATM    6  C3  UNL     1     -34.218   5.229   3.997  1.00 20.00     0.014 C 
HETATM    7  C4  UNL     1     -34.744   5.446   6.439  1.00 20.00     0.014 C 
ENDBRANCH   4   5
BRANCH   4   8
HETATM    8  O8  UNL     1     -32.748   7.187   6.391  1.00 20.00    -0.378 OA
HETATM    9  H20 UNL     1     -31.837   7.319   6.093  1.00 20.00     0.211 HD
ENDBRANCH   4   8
TORSDOF 2
ENDMDL
MODEL 3
REMARK VINA RESULT:      -4.1      1.156      2.877
REMARK  2 active torsions:
REMARK  status: ('A' for Active; 'I' for Inactive)
REMARK    1  A    between atoms: C6_6  and  C7_7 
REMARK    2  A    between atoms: C7_7  and  O8_8 
ROOT
HETATM    1  C1  UNL     1     -33.990   7.113   6.740  1.00 20.00     0.015 C 
HETATM    2  C2  UNL     1     -34.215   6.518   5.722  1.00 20.00    -0.079 C 
HETATM    3  C5  UNL     1     -35.980   5.936   4.116  1.00 20.00     0.061 C 
HETATM    4  C7  UNL     1     -34.497   5.780   4.474  1.00 20.00     0.119 C 
ENDROOT
BRANCH   4   5
HETATM    5  C6  UNL     1     -33.564   6.221   3.308  1.00 20.00     0.024 C 
HETATM    6  C3  UNL     1     -32.559   7.313   3.694  1.00 20.00     0.014 C 
HETATM    7  C4  UNL     1     -32.816   5.039   2.669  1.00 20.00     0.014 C 
ENDBRANCH   4   5
BRANCH   4   8
HETATM    8  O8  UNL     1     -34.278   4.387   4.727  1.00 20.00    -0.378 OA
HETATM    9  H20 UNL     1     -35.106   3.940   4.503  1.00 20.00     0.211 HD
ENDBRANCH   4   8
TORSDOF 2
ENDMDL
MODEL 4
REMARK VINA RESULT:      -4.1      1.608      3.223
REMARK  2 active torsions:
REMARK  status: ('A' for Active; 'I' for Inactive)
REMARK    1  A    between atoms: C6_6  and  C7_7 
REMARK    2  A    between atoms: C7_7  and  O8_8 
ROOT
HETATM    1  C1  UNL     1     -34.357   6.054   6.359  1.00 20.00     0.015 C 
HETATM    2  C2  UNL     1     -33.872   6.759   5.518  1.00 20.00    -0.079 C 
HETATM    3  C5  UNL     1     -32.390   8.684   5.160  1.00 20.00     0.061 C 
HETATM    4  C7  UNL     1     -33.280   7.633   4.486  1.00 20.00     0.119 C 
ENDROOT
BRANCH   4   5
HETATM    5  C6  UNL     1     -32.510   6.823   3.401  1.00 20.00     0.024 C 
HETATM    6  C3  UNL     1     -33.203   5.518   2.991  1.00 20.00     0.014 C 
HETATM    7  C4  UNL     1     -32.203   7.657   2.146  1.00 20.00     0.014 C 
ENDBRANCH   4   5
BRANCH   4   8
HETATM    8  O8  UNL     1     -34.346   8.345   3.847  1.00 20.00    -0.378 OA
HETATM    9  H20 UNL     1     -34.461   7.934   2.978  1.00 20.00     0.211 HD
ENDBRANCH   4   8
TORSDOF 2
ENDMDL
MODEL 5
REMARK VINA RESULT:      -4.0     15.943     17.321
REMARK  2 active torsions:
REMARK  status: ('A' for Active; 'I' for Inactive)
REMARK    1  A    between atoms: C6_6  and  C7_7 
REMARK    2  A    between atoms: C7_7  and  O8_8 
ROOT
HETATM    1  C1  UNL     1     -24.293  15.896  11.644  1.00 20.00     0.015 C 
HETATM    2  C2  UNL     1     -23.866  17.016  11.578  1.00 20.00    -0.079 C 
HETATM    3  C5  UNL     1     -22.055  18.493  12.332  1.00 20.00     0.061 C 
HETATM    4  C7  UNL     1     -23.342  18.394  11.503  1.00 20.00     0.119 C 
ENDROOT
BRANCH   4   5
HETATM    5  C6  UNL     1     -23.129  18.864  10.034  1.00 20.00     0.024 C 
HETATM    6  C3  UNL     1     -22.317  17.884   9.179  1.00 20.00     0.014 C 
HETATM    7  C4  UNL     1     -24.451  19.193   9.320  1.00 20.00     0.014 C 
ENDBRANCH   4   5
BRANCH   4   8
HETATM    8  O8  UNL     1     -24.299  19.263  12.122  1.00 20.00    -0.378 OA
HETATM    9  H20 UNL     1     -24.623  18.793  12.904  1.00 20.00     0.211 HD
ENDBRANCH   4   8
TORSDOF 2
ENDMDL
MODEL 6
REMARK VINA RESULT:      -4.0     12.206     13.560
REMARK  2 active torsions:
REMARK  status: ('A' for Active; 'I' for Inactive)
REMARK    1  A    between atoms: C6_6  and  C7_7 
REMARK    2  A    between atoms: C7_7  and  O8_8 
ROOT
HETATM    1  C1  UNL     1     -33.361  16.868  -2.150  1.00 20.00     0.015 C 
HETATM    2  C2  UNL     1     -33.472  16.211  -3.149  1.00 20.00    -0.079 C 
HETATM    3  C5  UNL     1     -34.421  14.138  -4.061  1.00 20.00     0.061 C 
HETATM    4  C7  UNL     1     -33.604  15.398  -4.374  1.00 20.00     0.119 C 
ENDROOT
BRANCH   4   5
HETATM    5  C6  UNL     1     -34.211  16.210  -5.556  1.00 20.00     0.024 C 
HETATM    6  C3  UNL     1     -34.218  15.454  -6.891  1.00 20.00     0.014 C 
HETATM    7  C4  UNL     1     -35.626  16.728  -5.254  1.00 20.00     0.014 C 
ENDBRANCH   4   5
BRANCH   4   8
HETATM    8  O8  UNL     1     -32.295  14.956  -4.753  1.00 20.00    -0.378 OA
HETATM    9  H20 UNL     1     -32.303  14.890  -5.719  1.00 20.00     0.211 HD
ENDBRANCH   4   8
TORSDOF 2
ENDMDL
MODEL 7
REMARK VINA RESULT:      -3.9     16.206     17.116
REMARK  2 active torsions:
REMARK  status: ('A' for Active; 'I' for Inactive)
REMARK    1  A    between atoms: C6_6  and  C7_7 
REMARK    2  A    between atoms: C7_7  and  O8_8 
ROOT
HETATM    1  C1  UNL     1     -22.500  17.368   9.084  1.00 20.00     0.015 C 
HETATM    2  C2  UNL     1     -22.798  17.545  10.234  1.00 20.00    -0.079 C 
HETATM    3  C5  UNL     1     -22.064  18.588  12.332  1.00 20.00     0.061 C 
HETATM    4  C7  UNL     1     -23.158  17.759  11.649  1.00 20.00     0.119 C 
ENDROOT
BRANCH   4   5
HETATM    5  C6  UNL     1     -24.566  18.406  11.807  1.00 20.00     0.024 C 
HETATM    6  C3  UNL     1     -25.082  19.089  10.534  1.00 20.00     0.014 C 
HETATM    7  C4  UNL     1     -25.621  17.412  12.319  1.00 20.00     0.014 C 
ENDBRANCH   4   5
BRANCH   4   8
HETATM    8  O8  UNL     1     -23.173  16.482  12.297  1.00 20.00    -0.378 OA
HETATM    9  H20 UNL     1     -23.829  16.547  13.006  1.00 20.00     0.211 HD
ENDBRANCH   4   8
TORSDOF 2
ENDMDL
MODEL 8
REMARK VINA RESULT:      -3.9      1.314      2.236
REMARK  2 active torsions:
REMARK  status: ('A' for Active; 'I' for Inactive)
REMARK    1  A    between atoms: C6_6  and  C7_7 
REMARK    2  A    between atoms: C7_7  and  O8_8 
ROOT
HETATM    1  C1  UNL     1     -34.244   4.551   4.203  1.00 20.00     0.015 C 
HETATM    2  C2  UNL     1     -34.055   5.689   4.535  1.00 20.00    -0.079 C 
HETATM    3  C5  UNL     1     -33.959   7.199   6.469  1.00 20.00     0.061 C 
HETATM    4  C7  UNL     1     -33.829   7.089   4.945  1.00 20.00     0.119 C 
ENDROOT
BRANCH   4   5
HETATM    5  C6  UNL     1     -32.465   7.639   4.432  1.00 20.00     0.024 C 
HETATM    6  C3  UNL     1     -32.238   7.436   2.929  1.00 20.00     0.014 C 
HETATM    7  C4  UNL     1     -32.253   9.120   4.786  1.00 20.00     0.014 C 
ENDBRANCH   4   5
BRANCH   4   8
HETATM    8  O8  UNL     1     -34.878   7.887   4.383  1.00 20.00    -0.378 OA
HETATM    9  H20 UNL     1     -34.852   7.731   3.428  1.00 20.00     0.211 HD
ENDBRANCH   4   8
TORSDOF 2
ENDMDL
MODEL 9
REMARK VINA RESULT:      -3.8      1.980      2.760
REMARK  2 active torsions:
REMARK  status: ('A' for Active; 'I' for Inactive)
REMARK    1  A    between atoms: C6_6  and  C7_7 
REMARK    2  A    between atoms: C7_7  and  O8_8 
ROOT
HETATM    1  C1  UNL     1     -32.039   7.332   2.582  1.00 20.00     0.015 C 
HETATM    2  C2  UNL     1     -32.691   7.337   3.590  1.00 20.00    -0.079 C 
HETATM    3  C5  UNL     1     -34.427   8.563   4.820  1.00 20.00     0.061 C 
HETATM    4  C7  UNL     1     -33.489   7.349   4.832  1.00 20.00     0.119 C 
ENDROOT
BRANCH   4   5
HETATM    5  C6  UNL     1     -34.262   6.015   5.048  1.00 20.00     0.024 C 
HETATM    6  C3  UNL     1     -34.504   5.668   6.522  1.00 20.00     0.014 C 
HETATM    7  C4  UNL     1     -35.597   5.973   4.286  1.00 20.00     0.014 C 
ENDBRANCH   4   5
BRANCH   4   8
HETATM    8  O8  UNL     1     -32.590   7.534   5.932  1.00 20.00    -0.378 OA
HETATM    9  H20 UNL     1     -31.964   6.796   5.894  1.00 20.00     0.211 HD
ENDBRANCH   4   8
TORSDOF 2
ENDMDL
