MODEL 1
REMARK VINA RESULT:      -4.4      0.000      0.000
REMARK  5 active torsions:
REMARK  status: ('A' for Active; 'I' for Inactive)
REMARK    1  A    between atoms: C1_1  and  C5_5 
REMARK    2  A    between atoms: C1_1  and  C9_9 
REMARK    3  A    between atoms: C5_5  and  C6_6 
REMARK    4  A    between atoms: C7_7  and  C9_9 
REMARK    5  A    between atoms: C8_8  and  C9_9 
ROOT
HETATM    1  C1  UNL     1     -33.163   5.910   3.160  1.00 20.00     0.131 C 
HETATM    2  O10 UNL     1     -32.740   4.921   2.561  1.00 20.00    -0.298 OA
ENDROOT
BRANCH   1   3
HETATM    3  C5  UNL     1     -34.476   5.898   3.931  1.00 20.00     0.078 C 
BRANCH   3   4
HETATM    4  C6  UNL     1     -34.466   4.979   5.149  1.00 20.00     0.003 C 
HETATM    5  C2  UNL     1     -34.475   5.749   6.463  1.00 20.00     0.005 C 
ENDBRANCH   3   4
ENDBRANCH   1   3
BRANCH   1   6
HETATM    6  C9  UNL     1     -32.375   7.220   3.190  1.00 20.00     0.054 C 
BRANCH   6   7
HETATM    7  C7  UNL     1     -33.154   8.277   3.991  1.00 20.00     0.007 C 
HETATM    8  C3  UNL     1     -32.353   8.845   5.156  1.00 20.00     0.006 C 
ENDBRANCH   6   7
BRANCH   6   9
HETATM    9  C8  UNL     1     -32.116   7.713   1.757  1.00 20.00     0.007 C 
HETATM   10  C4  UNL     1     -32.710   9.089   1.490  1.00 20.00     0.006 C 
ENDBRANCH   6   9
ENDBRANCH   1   6
TORSDOF 5
ENDMDL
MODEL 2
REMARK VINA RESULT:      -4.4      1.846      2.665
REMARK  5 active torsions:
REMARK  status: ('A' for Active; 'I' for Inactive)
REMARK    1  A    between atoms: C1_1  and  C5_5 
REMARK    2  A    between atoms: C1_1  and  C9_9 
REMARK    3  A    between atoms: C5_5  and  C6_6 
REMARK    4  A    between atoms: C7_7  and  C9_9 
REMARK    5  A    between atoms: C8_8  and  C9_9 
ROOT
HETATM    1  C1  UNL     1     -32.954   8.424   4.608  1.00 20.00     0.131 C 
HETATM    2  O10 UNL     1     -32.010   9.097   5.023  1.00 20.00    -0.298 OA
ENDROOT
BRANCH   1   3
HETATM    3  C5  UNL     1     -34.095   7.974   5.509  1.00 20.00     0.078 C 
BRANCH   3   4
HETATM    4  C6  UNL     1     -33.767   6.744   6.351  1.00 20.00     0.003 C 
HETATM    5  C2  UNL     1     -34.677   5.563   6.041  1.00 20.00     0.005 C 
ENDBRANCH   3   4
ENDBRANCH   1   3
BRANCH   1   6
HETATM    6  C9  UNL     1     -33.053   8.015   3.138  1.00 20.00     0.054 C 
BRANCH   6   7
HETATM    7  C7  UNL     1     -32.160   6.791   2.877  1.00 20.00     0.007 C 
HETATM    8  C3  UNL     1     -32.953   5.499   2.731  1.00 20.00     0.006 C 
ENDBRANCH   6   7
BRANCH   6   9
HETATM    9  C8  UNL     1     -32.638   9.187   2.234  1.00 20.00     0.007 C 
HETATM   10  C4  UNL     1     -32.497   8.785   0.773  1.00 20.00     0.006 C 
ENDBRANCH   6   9
ENDBRANCH   1   6
TORSDOF 5
ENDMDL
MODEL 3
REMARK VINA RESULT:      -4.2      1.771      2.924
REMARK  5 active torsions:
REMARK  status: ('A' for Active; 'I' for Inactive)
REMARK    1  A    between atoms: C1_1  and  C5_5 
REMARK    2  A    between atoms: C1_1  and  C9_9 
REMARK    3  A    between atoms: C5_5  and  C6_6 
REMARK    4  A    between atoms: C7_7  and  C9_9 
REMARK    5  A    between atoms: C8_8  and  C9_9 
ROOT
HETATM    1  C1  UNL     1     -32.770   8.080   4.532  1.00 20.00     0.131 C 
HETATM    2  O10 UNL     1     -32.050   8.871   5.143  1.00 20.00    -0.298 OA
ENDROOT
BRANCH   1   3
HETATM    3  C5  UNL     1     -34.102   7.593   5.087  1.00 20.00     0.078 C 
BRANCH   3   4
HETATM    4  C6  UNL     1     -33.971   6.757   6.357  1.00 20.00     0.003 C 
HETATM    5  C2  UNL     1     -34.574   5.367   6.207  1.00 20.00     0.005 C 
ENDBRANCH   3   4
ENDBRANCH   1   3
BRANCH   1   6
HETATM    6  C9  UNL     1     -32.381   7.552   3.151  1.00 20.00     0.054 C 
BRANCH   6   7
HETATM    7  C7  UNL     1     -32.403   8.700   2.130  1.00 20.00     0.007 C 
HETATM    8  C3  UNL     1     -32.071   8.241   0.716  1.00 20.00     0.006 C 
ENDBRANCH   6   7
BRANCH   6   9
HETATM    9  C8  UNL     1     -33.345   6.433   2.723  1.00 20.00     0.007 C 
HETATM   10  C4  UNL     1     -32.711   5.050   2.790  1.00 20.00     0.006 C 
ENDBRANCH   6   9
ENDBRANCH   1   6
TORSDOF 5
ENDMDL
MODEL 4
REMARK VINA RESULT:      -4.2      0.922      3.945
REMARK  5 active torsions:
REMARK  status: ('A' for Active; 'I' for Inactive)
REMARK    1  A    between atoms: C1_1  and  C5_5 
REMARK    2  A    between atoms: C1_1  and  C9_9 
REMARK    3  A    between atoms: C5_5  and  C6_6 
REMARK    4  A    between atoms: C7_7  and  C9_9 
REMARK    5  A    between atoms: C8_8  and  C9_9 
ROOT
HETATM    1  C1  UNL     1     -32.944   6.457   3.206  1.00 20.00     0.131 C 
HETATM    2  O10 UNL     1     -32.851   5.361   2.653  1.00 20.00    -0.298 OA
ENDROOT
BRANCH   1   3
HETATM    3  C5  UNL     1     -32.072   7.643   2.818  1.00 20.00     0.078 C 
BRANCH   3   4
HETATM    4  C6  UNL     1     -32.176   8.028   1.345  1.00 20.00     0.003 C 
HETATM    5  C2  UNL     1     -32.788   9.408   1.143  1.00 20.00     0.005 C 
ENDBRANCH   3   4
ENDBRANCH   1   3
BRANCH   1   6
HETATM    6  C9  UNL     1     -33.971   6.707   4.311  1.00 20.00     0.054 C 
BRANCH   6   7
HETATM    7  C7  UNL     1     -33.289   7.385   5.511  1.00 20.00     0.007 C 
HETATM    8  C3  UNL     1     -33.707   8.840   5.684  1.00 20.00     0.006 C 
ENDBRANCH   6   7
BRANCH   6   9
HETATM    9  C8  UNL     1     -34.619   5.381   4.739  1.00 20.00     0.007 C 
HETATM   10  C4  UNL     1     -34.647   5.198   6.251  1.00 20.00     0.006 C 
ENDBRANCH   6   9
ENDBRANCH   1   6
TORSDOF 5
ENDMDL
MODEL 5
REMARK VINA RESULT:      -4.0      0.516      2.130
REMARK  5 active torsions:
REMARK  status: ('A' for Active; 'I' for Inactive)
REMARK    1  A    between atoms: C1_1  and  C5_5 
REMARK    2  A    between atoms: C1_1  and  C9_9 
REMARK    3  A    between atoms: C5_5  and  C6_6 
REMARK    4  A    between atoms: C7_7  and  C9_9 
REMARK    5  A    between atoms: C8_8  and  C9_9 
ROOT
HETATM    1  C1  UNL     1     -33.314   6.078   3.177  1.00 20.00     0.131 C 
HETATM    2  O10 UNL     1     -32.649   5.136   2.744  1.00 20.00    -0.298 OA
ENDROOT
BRANCH   1   3
HETATM    3  C5  UNL     1     -34.608   5.875   3.953  1.00 20.00     0.078 C 
BRANCH   3   4
HETATM    4  C6  UNL     1     -34.457   4.976   5.177  1.00 20.00     0.003 C 
HETATM    5  C2  UNL     1     -34.441   5.762   6.481  1.00 20.00     0.005 C 
ENDBRANCH   3   4
ENDBRANCH   1   3
BRANCH   1   6
HETATM    6  C9  UNL     1     -32.863   7.526   2.984  1.00 20.00     0.054 C 
BRANCH   6   7
HETATM    7  C7  UNL     1     -32.098   7.660   1.657  1.00 20.00     0.007 C 
HETATM    8  C3  UNL     1     -32.505   8.894   0.862  1.00 20.00     0.006 C 
ENDBRANCH   6   7
BRANCH   6   9
HETATM    9  C8  UNL     1     -31.978   7.965   4.162  1.00 20.00     0.007 C 
HETATM   10  C4  UNL     1     -32.720   8.838   5.165  1.00 20.00     0.006 C 
ENDBRANCH   6   9
ENDBRANCH   1   6
TORSDOF 5
ENDMDL
MODEL 6
REMARK VINA RESULT:      -4.0      1.813      4.633
REMARK  5 active torsions:
REMARK  status: ('A' for Active; 'I' for Inactive)
REMARK    1  A    between atoms: C1_1  and  C5_5 
REMARK    2  A    between atoms: C1_1  and  C9_9 
REMARK    3  A    between atoms: C5_5  and  C6_6 
REMARK    4  A    between atoms: C7_7  and  C9_9 
REMARK    5  A    between atoms: C8_8  and  C9_9 
ROOT
HETATM    1  C1  UNL     1     -32.558   8.187   4.181  1.00 20.00     0.131 C 
HETATM    2  O10 UNL     1     -32.431   9.152   4.936  1.00 20.00    -0.298 OA
ENDROOT
BRANCH   1   3
HETATM    3  C5  UNL     1     -32.190   8.252   2.705  1.00 20.00     0.078 C 
BRANCH   3   4
HETATM    4  C6  UNL     1     -32.866   9.394   1.952  1.00 20.00     0.003 C 
HETATM    5  C2  UNL     1     -32.712   9.272   0.442  1.00 20.00     0.005 C 
ENDBRANCH   3   4
ENDBRANCH   1   3
BRANCH   1   6
HETATM    6  C9  UNL     1     -33.073   6.841   4.690  1.00 20.00     0.054 C 
BRANCH   6   7
HETATM    7  C7  UNL     1     -33.875   6.138   3.582  1.00 20.00     0.007 C 
HETATM    8  C3  UNL     1     -33.062   5.085   2.840  1.00 20.00     0.006 C 
ENDBRANCH   6   7
BRANCH   6   9
HETATM    9  C8  UNL     1     -33.947   7.047   5.938  1.00 20.00     0.007 C 
HETATM   10  C4  UNL     1     -34.654   5.774   6.381  1.00 20.00     0.006 C 
ENDBRANCH   6   9
ENDBRANCH   1   6
TORSDOF 5
ENDMDL
MODEL 7
REMARK VINA RESULT:      -3.9      0.794      3.801
REMARK  5 active torsions:
REMARK  status: ('A' for Active; 'I' for Inactive)
REMARK    1  A    between atoms: C1_1  and  C5_5 
REMARK    2  A    between atoms: C1_1  and  C9_9 
REMARK    3  A    between atoms: C5_5  and  C6_6 
REMARK    4  A    between atoms: C7_7  and  C9_9 
REMARK    5  A    between atoms: C8_8  and  C9_9 
ROOT
HETATM    1  C1  UNL     1     -32.766   6.454   3.095  1.00 20.00     0.131 C 
HETATM    2  O10 UNL     1     -32.982   5.382   2.529  1.00 20.00    -0.298 OA
ENDROOT
BRANCH   1   3
HETATM    3  C5  UNL     1     -31.917   7.552   2.469  1.00 20.00     0.078 C 
BRANCH   3   4
HETATM    4  C6  UNL     1     -32.319   7.901   1.039  1.00 20.00     0.003 C 
HETATM    5  C2  UNL     1     -32.732   9.359   0.887  1.00 20.00     0.005 C 
ENDBRANCH   3   4
ENDBRANCH   1   3
BRANCH   1   6
HETATM    6  C9  UNL     1     -33.366   6.764   4.467  1.00 20.00     0.054 C 
BRANCH   6   7
HETATM    7  C7  UNL     1     -34.667   5.969   4.658  1.00 20.00     0.007 C 
HETATM    8  C3  UNL     1     -34.758   5.302   6.025  1.00 20.00     0.006 C 
ENDBRANCH   6   7
BRANCH   6   9
HETATM    9  C8  UNL     1     -33.633   8.273   4.598  1.00 20.00     0.007 C 
HETATM   10  C4  UNL     1     -32.495   9.017   5.284  1.00 20.00     0.006 C 
ENDBRANCH   6   9
ENDBRANCH   1   6
TORSDOF 5
ENDMDL
MODEL 8
REMARK VINA RESULT:      -3.8      1.733      4.195
REMARK  5 active torsions:
REMARK  status: ('A' for Active; 'I' for Inactive)
REMARK    1  A    between atoms: C1_1  and  C5_5 
REMARK    2  A    between atoms: C1_1  and  C9_9 
REMARK    3  A    between atoms: C5_5  and  C6_6 
REMARK    4  A    between atoms: C7_7  and  C9_9 
REMARK    5  A    between atoms: C8_8  and  C9_9 
ROOT
HETATM    1  C1  UNL     1     -32.718   8.024   4.155  1.00 20.00     0.131 C 
HETATM    2  O10 UNL     1     -32.375   8.723   5.109  1.00 20.00    -0.298 OA
ENDROOT
BRANCH   1   3
HETATM    3  C5  UNL     1     -32.146   8.211   2.757  1.00 20.00     0.078 C 
BRANCH   3   4
HETATM    4  C6  UNL     1     -32.823   9.322   1.959  1.00 20.00     0.003 C 
HETATM    5  C2  UNL     1     -32.673   9.137   0.455  1.00 20.00     0.005 C 
ENDBRANCH   3   4
ENDBRANCH   1   3
BRANCH   1   6
HETATM    6  C9  UNL     1     -33.733   6.893   4.323  1.00 20.00     0.054 C 
BRANCH   6   7
HETATM    7  C7  UNL     1     -34.254   6.871   5.769  1.00 20.00     0.007 C 
HETATM    8  C3  UNL     1     -34.589   5.467   6.256  1.00 20.00     0.006 C 
ENDBRANCH   6   7
BRANCH   6   9
HETATM    9  C8  UNL     1     -33.086   5.545   3.963  1.00 20.00     0.007 C 
HETATM   10  C4  UNL     1     -33.294   5.161   2.505  1.00 20.00     0.006 C 
ENDBRANCH   6   9
ENDBRANCH   1   6
TORSDOF 5
ENDMDL
MODEL 9
REMARK VINA RESULT:      -3.7     11.833     12.603
REMARK  5 active torsions:
REMARK  status: ('A' for Active; 'I' for Inactive)
REMARK    1  A    between atoms: C1_1  and  C5_5 
REMARK    2  A    between atoms: C1_1  and  C9_9 
REMARK    3  A    between atoms: C5_5  and  C6_6 
REMARK    4  A    between atoms: C7_7  and  C9_9 
REMARK    5  A    between atoms: C8_8  and  C9_9 
ROOT
HETATM    1  C1  UNL     1     -32.643  18.499  -1.727  1.00 20.00     0.131 C 
HETATM    2  O10 UNL     1     -32.259  19.237  -2.635  1.00 20.00    -0.298 OA
ENDROOT
BRANCH   1   3
HETATM    3  C5  UNL     1     -33.300  17.152  -1.993  1.00 20.00     0.078 C 
BRANCH   3   4
HETATM    4  C6  UNL     1     -33.548  16.869  -3.472  1.00 20.00     0.003 C 
HETATM    5  C2  UNL     1     -33.202  15.438  -3.860  1.00 20.00     0.005 C 
ENDBRANCH   3   4
ENDBRANCH   1   3
BRANCH   1   6
HETATM    6  C9  UNL     1     -32.458  18.881  -0.258  1.00 20.00     0.054 C 
BRANCH   6   7
HETATM    7  C7  UNL     1     -31.048  18.486   0.209  1.00 20.00     0.007 C 
HETATM    8  C3  UNL     1     -30.956  18.295   1.718  1.00 20.00     0.006 C 
ENDBRANCH   6   7
BRANCH   6   9
HETATM    9  C8  UNL     1     -33.525  18.189   0.606  1.00 20.00     0.007 C 
HETATM   10  C4  UNL     1     -34.624  19.139   1.061  1.00 20.00     0.006 C 
ENDBRANCH   6   9
ENDBRANCH   1   6
TORSDOF 5
ENDMDL
