MODEL 1
REMARK VINA RESULT:      -3.7      0.000      0.000
REMARK  2 active torsions:
REMARK  status: ('A' for Active; 'I' for Inactive)
REMARK    1  A    between atoms: C1_1  and  C6_6 
REMARK    2  A    between atoms: C6_6  and  O8_8 
ROOT
HETATM    1  C3  UNL     1     -35.952   6.232   4.215  1.00 20.00     0.054 C 
HETATM    2  C4  UNL     1     -34.456   5.885   6.199  1.00 20.00     0.054 C 
HETATM    3  C6  UNL     1     -34.505   6.085   4.686  1.00 20.00     0.112 C 
ENDROOT
BRANCH   3   4
HETATM    4  C1  UNL     1     -33.810   4.914   3.983  1.00 20.00     0.156 C 
HETATM    5  C2  UNL     1     -32.963   5.220   2.771  1.00 20.00     0.094 C 
HETATM    6  O7  UNL     1     -33.901   3.757   4.398  1.00 20.00    -0.295 OA
ENDBRANCH   3   4
BRANCH   3   7
HETATM    7  O8  UNL     1     -33.809   7.284   4.374  1.00 20.00    -0.378 OA
HETATM    8  C5  UNL     1     -33.189   7.843   5.525  1.00 20.00     0.203 C 
ENDBRANCH   3   7
TORSDOF 2
ENDMDL
MODEL 2
REMARK VINA RESULT:      -3.5     16.111     17.263
REMARK  2 active torsions:
REMARK  status: ('A' for Active; 'I' for Inactive)
REMARK    1  A    between atoms: C1_1  and  C6_6 
REMARK    2  A    between atoms: C6_6  and  O8_8 
ROOT
HETATM    1  C3  UNL     1     -22.979  18.370  11.776  1.00 20.00     0.054 C 
HETATM    2  C4  UNL     1     -24.491  18.878   9.840  1.00 20.00     0.054 C 
HETATM    3  C6  UNL     1     -23.450  17.910  10.396  1.00 20.00     0.112 C 
ENDROOT
BRANCH   3   4
HETATM    4  C1  UNL     1     -22.274  17.791   9.420  1.00 20.00     0.156 C 
HETATM    5  C2  UNL     1     -21.294  18.938   9.352  1.00 20.00     0.094 C 
HETATM    6  O7  UNL     1     -22.101  16.786   8.728  1.00 20.00    -0.295 OA
ENDBRANCH   3   4
BRANCH   3   7
HETATM    7  O8  UNL     1     -24.060  16.633  10.535  1.00 20.00    -0.378 OA
HETATM    8  C5  UNL     1     -24.329  16.329  11.897  1.00 20.00     0.203 C 
ENDBRANCH   3   7
TORSDOF 2
ENDMDL
MODEL 3
REMARK VINA RESULT:      -3.5      1.284      2.970
REMARK  2 active torsions:
REMARK  status: ('A' for Active; 'I' for Inactive)
REMARK    1  A    between atoms: C1_1  and  C6_6 
REMARK    2  A    between atoms: C6_6  and  O8_8 
ROOT
HETATM    1  C3  UNL     1     -33.997   4.611   5.169  1.00 20.00     0.054 C 
HETATM    2  C4  UNL     1     -35.685   6.166   4.155  1.00 20.00     0.054 C 
HETATM    3  C6  UNL     1     -34.239   6.019   4.625  1.00 20.00     0.112 C 
ENDROOT
BRANCH   3   4
HETATM    4  C1  UNL     1     -33.924   7.084   5.682  1.00 20.00     0.156 C 
HETATM    5  C2  UNL     1     -33.047   8.245   5.275  1.00 20.00     0.094 C 
HETATM    6  O7  UNL     1     -34.387   7.027   6.822  1.00 20.00    -0.295 OA
ENDBRANCH   3   4
BRANCH   3   7
HETATM    7  O8  UNL     1     -33.386   6.219   3.505  1.00 20.00    -0.378 OA
HETATM    8  C5  UNL     1     -33.154   5.005   2.803  1.00 20.00     0.203 C 
ENDBRANCH   3   7
TORSDOF 2
ENDMDL
MODEL 4
REMARK VINA RESULT:      -3.4      8.703      9.965
REMARK  2 active torsions:
REMARK  status: ('A' for Active; 'I' for Inactive)
REMARK    1  A    between atoms: C1_1  and  C6_6 
REMARK    2  A    between atoms: C6_6  and  O8_8 
ROOT
HETATM    1  C3  UNL     1     -40.630  14.132   7.378  1.00 20.00     0.054 C 
HETATM    2  C4  UNL     1     -41.434  13.648   5.051  1.00 20.00     0.054 C 
HETATM    3  C6  UNL     1     -40.920  13.036   6.352  1.00 20.00     0.112 C 
ENDROOT
BRANCH   3   4
HETATM    4  C1  UNL     1     -39.671  12.192   6.074  1.00 20.00     0.156 C 
HETATM    5  C2  UNL     1     -39.379  11.813   4.641  1.00 20.00     0.094 C 
HETATM    6  O7  UNL     1     -38.900  11.853   6.974  1.00 20.00    -0.295 OA
ENDBRANCH   3   4
BRANCH   3   7
HETATM    7  O8  UNL     1     -41.935  12.191   6.877  1.00 20.00    -0.378 OA
HETATM    8  C5  UNL     1     -42.883  12.925   7.640  1.00 20.00     0.203 C 
ENDBRANCH   3   7
TORSDOF 2
ENDMDL
MODEL 5
REMARK VINA RESULT:      -3.4      1.453      2.473
REMARK  2 active torsions:
REMARK  status: ('A' for Active; 'I' for Inactive)
REMARK    1  A    between atoms: C1_1  and  C6_6 
REMARK    2  A    between atoms: C6_6  and  O8_8 
ROOT
HETATM    1  C3  UNL     1     -33.999   8.303   5.153  1.00 20.00     0.054 C 
HETATM    2  C4  UNL     1     -35.263   6.270   4.402  1.00 20.00     0.054 C 
HETATM    3  C6  UNL     1     -33.894   6.822   4.790  1.00 20.00     0.112 C 
ENDROOT
BRANCH   3   4
HETATM    4  C1  UNL     1     -32.899   6.601   3.645  1.00 20.00     0.156 C 
HETATM    5  C2  UNL     1     -33.029   5.336   2.829  1.00 20.00     0.094 C 
HETATM    6  O7  UNL     1     -32.034   7.432   3.364  1.00 20.00    -0.295 OA
ENDBRANCH   3   4
BRANCH   3   7
HETATM    7  O8  UNL     1     -33.438   6.112   5.935  1.00 20.00    -0.378 OA
HETATM    8  C5  UNL     1     -34.443   5.248   6.448  1.00 20.00     0.203 C 
ENDBRANCH   3   7
TORSDOF 2
ENDMDL
MODEL 6
REMARK VINA RESULT:      -3.4      8.759      9.957
REMARK  2 active torsions:
REMARK  status: ('A' for Active; 'I' for Inactive)
REMARK    1  A    between atoms: C1_1  and  C6_6 
REMARK    2  A    between atoms: C6_6  and  O8_8 
ROOT
HETATM    1  C3  UNL     1     -42.146  12.480   6.701  1.00 20.00     0.054 C 
HETATM    2  C4  UNL     1     -40.548  14.396   6.963  1.00 20.00     0.054 C 
HETATM    3  C6  UNL     1     -40.930  13.191   6.108  1.00 20.00     0.112 C 
ENDROOT
BRANCH   3   4
HETATM    4  C1  UNL     1     -39.735  12.237   5.989  1.00 20.00     0.156 C 
HETATM    5  C2  UNL     1     -39.349  11.757   4.610  1.00 20.00     0.094 C 
HETATM    6  O7  UNL     1     -39.079  11.888   6.972  1.00 20.00    -0.295 OA
ENDBRANCH   3   4
BRANCH   3   7
HETATM    7  O8  UNL     1     -41.273  13.658   4.810  1.00 20.00    -0.378 OA
HETATM    8  C5  UNL     1     -42.463  14.434   4.833  1.00 20.00     0.203 C 
ENDBRANCH   3   7
TORSDOF 2
ENDMDL
MODEL 7
REMARK VINA RESULT:      -3.3      9.152     10.065
REMARK  2 active torsions:
REMARK  status: ('A' for Active; 'I' for Inactive)
REMARK    1  A    between atoms: C1_1  and  C6_6 
REMARK    2  A    between atoms: C6_6  and  O8_8 
ROOT
HETATM    1  C3  UNL     1     -40.939   5.670  -0.429  1.00 20.00     0.054 C 
HETATM    2  C4  UNL     1     -42.694   6.068   1.318  1.00 20.00     0.054 C 
HETATM    3  C6  UNL     1     -42.263   6.366  -0.116  1.00 20.00     0.112 C 
ENDROOT
BRANCH   3   4
HETATM    4  C1  UNL     1     -42.155   7.881  -0.323  1.00 20.00     0.156 C 
HETATM    5  C2  UNL     1     -40.841   8.548   0.012  1.00 20.00     0.094 C 
HETATM    6  O7  UNL     1     -43.088   8.545  -0.776  1.00 20.00    -0.295 OA
ENDBRANCH   3   4
BRANCH   3   7
HETATM    7  O8  UNL     1     -43.256   5.855  -0.994  1.00 20.00    -0.378 OA
HETATM    8  C5  UNL     1     -43.417   4.451  -0.839  1.00 20.00     0.203 C 
ENDBRANCH   3   7
TORSDOF 2
ENDMDL
MODEL 8
REMARK VINA RESULT:      -3.3      1.338      2.758
REMARK  2 active torsions:
REMARK  status: ('A' for Active; 'I' for Inactive)
REMARK    1  A    between atoms: C1_1  and  C6_6 
REMARK    2  A    between atoms: C6_6  and  O8_8 
ROOT
HETATM    1  C3  UNL     1     -35.492   6.140   4.312  1.00 20.00     0.054 C 
HETATM    2  C4  UNL     1     -33.409   5.212   3.266  1.00 20.00     0.054 C 
HETATM    3  C6  UNL     1     -33.970   6.044   4.417  1.00 20.00     0.112 C 
ENDROOT
BRANCH   3   4
HETATM    4  C1  UNL     1     -33.326   7.436   4.416  1.00 20.00     0.156 C 
HETATM    5  C2  UNL     1     -32.230   7.706   3.412  1.00 20.00     0.094 C 
HETATM    6  O7  UNL     1     -33.699   8.327   5.180  1.00 20.00    -0.295 OA
ENDBRANCH   3   4
BRANCH   3   7
HETATM    7  O8  UNL     1     -33.645   5.391   5.637  1.00 20.00    -0.378 OA
HETATM    8  C5  UNL     1     -34.746   5.389   6.536  1.00 20.00     0.203 C 
ENDBRANCH   3   7
TORSDOF 2
ENDMDL
MODEL 9
REMARK VINA RESULT:      -3.3      8.745      9.885
REMARK  2 active torsions:
REMARK  status: ('A' for Active; 'I' for Inactive)
REMARK    1  A    between atoms: C1_1  and  C6_6 
REMARK    2  A    between atoms: C6_6  and  O8_8 
ROOT
HETATM    1  C3  UNL     1     -41.435  13.712   4.739  1.00 20.00     0.054 C 
HETATM    2  C4  UNL     1     -42.116  12.447   6.796  1.00 20.00     0.054 C 
HETATM    3  C6  UNL     1     -40.974  13.179   6.095  1.00 20.00     0.112 C 
ENDROOT
BRANCH   3   4
HETATM    4  C1  UNL     1     -39.771  12.242   5.942  1.00 20.00     0.156 C 
HETATM    5  C2  UNL     1     -39.395  11.795   4.549  1.00 20.00     0.094 C 
HETATM    6  O7  UNL     1     -39.100  11.879   6.911  1.00 20.00    -0.295 OA
ENDBRANCH   3   4
BRANCH   3   7
HETATM    7  O8  UNL     1     -40.593  14.284   6.904  1.00 20.00    -0.378 OA
HETATM    8  C5  UNL     1     -41.438  14.417   8.039  1.00 20.00     0.203 C 
ENDBRANCH   3   7
TORSDOF 2
ENDMDL
