MODEL 1
REMARK VINA RESULT:      -4.8      0.000      0.000
REMARK  1 active torsions:
REMARK  status: ('A' for Active; 'I' for Inactive)
REMARK    1  A    between atoms: C4_4  and  C8_8 
ROOT
HETATM    1  C1  UNL     1     -32.273   8.963   3.638  1.00 20.00    -0.007 C 
HETATM    2  C2  UNL     1     -32.465   7.883   2.867  1.00 20.00     0.009 C 
HETATM    3  C5  UNL     1     -32.691   9.017   5.077  1.00 20.00     0.029 C 
HETATM    4  C6  UNL     1     -33.146   6.632   3.343  1.00 20.00     0.061 C 
HETATM    5  C7  UNL     1     -33.060   7.647   5.655  1.00 20.00     0.014 C 
HETATM    6  C8  UNL     1     -33.909   6.833   4.666  1.00 20.00     0.035 C 
HETATM    7 CL9  UNL     1     -31.940   7.876   1.220  1.00 20.00    -0.089 Cl
ENDROOT
BRANCH   6   8
HETATM    8  C4  UNL     1     -34.312   5.515   5.256  1.00 20.00     0.007 C 
HETATM    9  C3  UNL     1     -34.839   5.363   6.476  1.00 20.00     0.032 C 
HETATM   10 CL10 UNL     1     -34.054   4.139   4.241  1.00 20.00    -0.089 Cl
ENDBRANCH   6   8
TORSDOF 1
ENDMDL
MODEL 2
REMARK VINA RESULT:      -4.3      1.392      4.422
REMARK  1 active torsions:
REMARK  status: ('A' for Active; 'I' for Inactive)
REMARK    1  A    between atoms: C4_4  and  C8_8 
ROOT
HETATM    1  C1  UNL     1     -34.043   4.643   4.225  1.00 20.00    -0.007 C 
HETATM    2  C2  UNL     1     -34.224   5.546   5.200  1.00 20.00     0.009 C 
HETATM    3  C5  UNL     1     -33.339   4.966   2.941  1.00 20.00     0.029 C 
HETATM    4  C6  UNL     1     -33.777   6.976   5.102  1.00 20.00     0.061 C 
HETATM    5  C7  UNL     1     -32.586   6.299   2.979  1.00 20.00     0.014 C 
HETATM    6  C8  UNL     1     -33.420   7.393   3.662  1.00 20.00     0.035 C 
HETATM    7 CL9  UNL     1     -35.025   5.106   6.666  1.00 20.00    -0.089 Cl
ENDROOT
BRANCH   6   8
HETATM    8  C4  UNL     1     -32.701   8.709   3.650  1.00 20.00     0.007 C 
HETATM    9  C3  UNL     1     -32.056   9.228   4.700  1.00 20.00     0.032 C 
HETATM   10 CL10 UNL     1     -32.746   9.564   2.147  1.00 20.00    -0.089 Cl
ENDBRANCH   6   8
TORSDOF 1
ENDMDL
MODEL 3
REMARK VINA RESULT:      -4.0     12.095     12.821
REMARK  1 active torsions:
REMARK  status: ('A' for Active; 'I' for Inactive)
REMARK    1  A    between atoms: C4_4  and  C8_8 
ROOT
HETATM    1  C1  UNL     1     -32.562  18.939   1.402  1.00 20.00    -0.007 C 
HETATM    2  C2  UNL     1     -33.804  18.866   0.901  1.00 20.00     0.009 C 
HETATM    3  C5  UNL     1     -31.340  18.624   0.591  1.00 20.00     0.029 C 
HETATM    4  C6  UNL     1     -34.109  18.432  -0.504  1.00 20.00     0.061 C 
HETATM    5  C7  UNL     1     -31.617  18.523  -0.912  1.00 20.00     0.014 C 
HETATM    6  C8  UNL     1     -32.912  17.746  -1.191  1.00 20.00     0.035 C 
HETATM    7 CL9  UNL     1     -35.170  19.262   1.881  1.00 20.00    -0.089 Cl
ENDROOT
BRANCH   6   8
HETATM    8  C4  UNL     1     -33.152  17.604  -2.664  1.00 20.00     0.007 C 
HETATM    9  C3  UNL     1     -33.170  18.624  -3.529  1.00 20.00     0.032 C 
HETATM   10 CL10 UNL     1     -33.415  15.987  -3.220  1.00 20.00    -0.089 Cl
ENDBRANCH   6   8
TORSDOF 1
ENDMDL
MODEL 4
REMARK VINA RESULT:      -3.9     11.691     12.911
REMARK  1 active torsions:
REMARK  status: ('A' for Active; 'I' for Inactive)
REMARK    1  A    between atoms: C4_4  and  C8_8 
ROOT
HETATM    1  C1  UNL     1     -33.969  17.251  -4.613  1.00 20.00    -0.007 C 
HETATM    2  C2  UNL     1     -33.756  16.287  -3.707  1.00 20.00     0.009 C 
HETATM    3  C5  UNL     1     -33.761  18.706  -4.315  1.00 20.00     0.029 C 
HETATM    4  C6  UNL     1     -33.322  16.555  -2.294  1.00 20.00     0.061 C 
HETATM    5  C7  UNL     1     -32.996  18.955  -3.011  1.00 20.00     0.014 C 
HETATM    6  C8  UNL     1     -33.490  18.032  -1.888  1.00 20.00     0.035 C 
HETATM    7 CL9  UNL     1     -33.994  14.626  -4.120  1.00 20.00    -0.089 Cl
ENDROOT
BRANCH   6   8
HETATM    8  C4  UNL     1     -32.777  18.316  -0.600  1.00 20.00     0.007 C 
HETATM    9  C3  UNL     1     -31.456  18.498  -0.492  1.00 20.00     0.032 C 
HETATM   10 CL10 UNL     1     -33.784  18.402   0.803  1.00 20.00    -0.089 Cl
ENDBRANCH   6   8
TORSDOF 1
ENDMDL
MODEL 5
REMARK VINA RESULT:      -3.8      1.392      3.721
REMARK  1 active torsions:
REMARK  status: ('A' for Active; 'I' for Inactive)
REMARK    1  A    between atoms: C4_4  and  C8_8 
ROOT
HETATM    1  C1  UNL     1     -34.110   4.625   4.059  1.00 20.00    -0.007 C 
HETATM    2  C2  UNL     1     -33.315   5.041   3.062  1.00 20.00     0.009 C 
HETATM    3  C5  UNL     1     -34.526   5.517   5.191  1.00 20.00     0.029 C 
HETATM    4  C6  UNL     1     -32.731   6.423   2.986  1.00 20.00     0.061 C 
HETATM    5  C7  UNL     1     -34.227   6.998   4.939  1.00 20.00     0.014 C 
HETATM    6  C8  UNL     1     -32.835   7.189   4.318  1.00 20.00     0.035 C 
HETATM    7 CL9  UNL     1     -32.889   3.970   1.775  1.00 20.00    -0.089 Cl
ENDROOT
BRANCH   6   8
HETATM    8  C4  UNL     1     -32.525   8.643   4.123  1.00 20.00     0.007 C 
HETATM    9  C3  UNL     1     -32.122   9.467   5.097  1.00 20.00     0.032 C 
HETATM   10 CL10 UNL     1     -32.720   9.233   2.509  1.00 20.00    -0.089 Cl
ENDBRANCH   6   8
TORSDOF 1
ENDMDL
MODEL 6
REMARK VINA RESULT:      -3.8     12.349     12.943
REMARK  1 active torsions:
REMARK  status: ('A' for Active; 'I' for Inactive)
REMARK    1  A    between atoms: C4_4  and  C8_8 
ROOT
HETATM    1  C1  UNL     1     -32.710  19.192   1.659  1.00 20.00    -0.007 C 
HETATM    2  C2  UNL     1     -31.604  18.974   0.934  1.00 20.00     0.009 C 
HETATM    3  C5  UNL     1     -34.092  18.965   1.122  1.00 20.00     0.029 C 
HETATM    4  C6  UNL     1     -31.626  18.515  -0.496  1.00 20.00     0.061 C 
HETATM    5  C7  UNL     1     -34.111  18.177  -0.191  1.00 20.00     0.014 C 
HETATM    6  C8  UNL     1     -33.013  18.662  -1.150  1.00 20.00     0.035 C 
HETATM    7 CL9  UNL     1     -30.039  19.235   1.618  1.00 20.00    -0.089 Cl
ENDROOT
BRANCH   6   8
HETATM    8  C4  UNL     1     -33.069  17.924  -2.454  1.00 20.00     0.007 C 
HETATM    9  C3  UNL     1     -33.258  16.605  -2.570  1.00 20.00     0.032 C 
HETATM   10 CL10 UNL     1     -32.870  18.901  -3.868  1.00 20.00    -0.089 Cl
ENDBRANCH   6   8
TORSDOF 1
ENDMDL
MODEL 7
REMARK VINA RESULT:      -3.8      1.736      2.176
REMARK  1 active torsions:
REMARK  status: ('A' for Active; 'I' for Inactive)
REMARK    1  A    between atoms: C4_4  and  C8_8 
ROOT
HETATM    1  C1  UNL     1     -32.288   6.910   2.252  1.00 20.00    -0.007 C 
HETATM    2  C2  UNL     1     -32.854   5.767   2.664  1.00 20.00     0.009 C 
HETATM    3  C5  UNL     1     -32.260   8.151   3.093  1.00 20.00     0.029 C 
HETATM    4  C6  UNL     1     -33.547   5.612   3.988  1.00 20.00     0.061 C 
HETATM    5  C7  UNL     1     -32.646   7.903   4.555  1.00 20.00     0.014 C 
HETATM    6  C8  UNL     1     -33.855   6.963   4.662  1.00 20.00     0.035 C 
HETATM    7 CL9  UNL     1     -32.835   4.364   1.655  1.00 20.00    -0.089 Cl
ENDROOT
BRANCH   6   8
HETATM    8  C4  UNL     1     -34.263   6.765   6.091  1.00 20.00     0.007 C 
HETATM    9  C3  UNL     1     -34.194   7.712   7.034  1.00 20.00     0.032 C 
HETATM   10 CL10 UNL     1     -34.852   5.188   6.483  1.00 20.00    -0.089 Cl
ENDBRANCH   6   8
TORSDOF 1
ENDMDL
MODEL 8
REMARK VINA RESULT:      -3.7     12.028     13.181
REMARK  1 active torsions:
REMARK  status: ('A' for Active; 'I' for Inactive)
REMARK    1  A    between atoms: C4_4  and  C8_8 
ROOT
HETATM    1  C1  UNL     1     -34.695  16.895  -4.652  1.00 20.00    -0.007 C 
HETATM    2  C2  UNL     1     -35.111  18.024  -4.061  1.00 20.00     0.009 C 
HETATM    3  C5  UNL     1     -33.675  15.984  -4.036  1.00 20.00     0.029 C 
HETATM    4  C6  UNL     1     -34.583  18.515  -2.743  1.00 20.00     0.061 C 
HETATM    5  C7  UNL     1     -33.397  16.292  -2.562  1.00 20.00     0.014 C 
HETATM    6  C8  UNL     1     -33.284  17.804  -2.318  1.00 20.00     0.035 C 
HETATM    7 CL9  UNL     1     -36.306  19.020  -4.813  1.00 20.00    -0.089 Cl
ENDROOT
BRANCH   6   8
HETATM    8  C4  UNL     1     -32.959  18.098  -0.884  1.00 20.00     0.007 C 
HETATM    9  C3  UNL     1     -33.846  18.052   0.117  1.00 20.00     0.032 C 
HETATM   10 CL10 UNL     1     -31.312  18.520  -0.568  1.00 20.00    -0.089 Cl
ENDBRANCH   6   8
TORSDOF 1
ENDMDL
MODEL 9
REMARK VINA RESULT:      -3.7      1.591      3.720
REMARK  1 active torsions:
REMARK  status: ('A' for Active; 'I' for Inactive)
REMARK    1  A    between atoms: C4_4  and  C8_8 
ROOT
HETATM    1  C1  UNL     1     -33.819   7.712   6.336  1.00 20.00    -0.007 C 
HETATM    2  C2  UNL     1     -34.142   6.537   5.777  1.00 20.00     0.009 C 
HETATM    3  C5  UNL     1     -33.046   8.771   5.609  1.00 20.00     0.029 C 
HETATM    4  C6  UNL     1     -33.742   6.141   4.385  1.00 20.00     0.061 C 
HETATM    5  C7  UNL     1     -32.941   8.520   4.102  1.00 20.00     0.014 C 
HETATM    6  C8  UNL     1     -32.639   7.045   3.800  1.00 20.00     0.035 C 
HETATM    7 CL9  UNL     1     -35.053   5.365   6.662  1.00 20.00    -0.089 Cl
ENDROOT
BRANCH   6   8
HETATM    8  C4  UNL     1     -32.485   6.814   2.327  1.00 20.00     0.007 C 
HETATM    9  C3  UNL     1     -32.121   7.754   1.448  1.00 20.00     0.032 C 
HETATM   10 CL10 UNL     1     -32.813   5.203   1.790  1.00 20.00    -0.089 Cl
ENDBRANCH   6   8
TORSDOF 1
ENDMDL
