MODEL 1
REMARK VINA RESULT:      -4.0      0.000      0.000
REMARK  3 active torsions:
REMARK  status: ('A' for Active; 'I' for Inactive)
REMARK    1  A    between atoms: C6_6  and  C9_9 
REMARK    2  A    between atoms: C7_7  and  C8_8 
REMARK    3  A    between atoms: C7_7  and  C9_9 
ROOT
HETATM    1  C4  UNL     1     -31.910   9.079   4.784  1.00 20.00     0.015 C 
HETATM    2  C5  UNL     1     -32.045   7.194   3.167  1.00 20.00     0.015 C 
HETATM    3  C9  UNL     1     -32.801   8.428   3.710  1.00 20.00    -0.048 C 
ENDROOT
BRANCH   3   4
HETATM    4  C6  UNL     1     -33.000   9.462   2.565  1.00 20.00     0.004 C 
HETATM    5  C1  UNL     1     -32.588   9.002   1.172  1.00 20.00     0.006 C 
ENDBRANCH   3   4
BRANCH   3   6
HETATM    6  C7  UNL     1     -34.145   7.926   4.321  1.00 20.00     0.012 C 
BRANCH   6   7
HETATM    7  C8  UNL     1     -34.124   6.552   5.033  1.00 20.00    -0.022 C 
HETATM    8  C2  UNL     1     -34.231   6.746   6.551  1.00 20.00     0.009 C 
HETATM    9  C3  UNL     1     -35.277   5.652   4.575  1.00 20.00     0.009 C 
ENDBRANCH   6   7
ENDBRANCH   3   6
TORSDOF 3
ENDMDL
MODEL 2
REMARK VINA RESULT:      -3.9      1.246      3.869
REMARK  3 active torsions:
REMARK  status: ('A' for Active; 'I' for Inactive)
REMARK    1  A    between atoms: C6_6  and  C9_9 
REMARK    2  A    between atoms: C7_7  and  C8_8 
REMARK    3  A    between atoms: C7_7  and  C9_9 
ROOT
HETATM    1  C4  UNL     1     -34.396   5.917   6.370  1.00 20.00     0.015 C 
HETATM    2  C5  UNL     1     -35.821   5.832   4.334  1.00 20.00     0.015 C 
HETATM    3  C9  UNL     1     -34.386   6.105   4.842  1.00 20.00    -0.048 C 
ENDROOT
BRANCH   3   4
HETATM    4  C6  UNL     1     -33.411   5.055   4.239  1.00 20.00     0.004 C 
HETATM    5  C1  UNL     1     -33.396   4.954   2.719  1.00 20.00     0.006 C 
ENDBRANCH   3   4
BRANCH   3   6
HETATM    6  C7  UNL     1     -34.022   7.572   4.457  1.00 20.00     0.012 C 
BRANCH   6   7
HETATM    7  C8  UNL     1     -32.519   7.909   4.309  1.00 20.00    -0.022 C 
HETATM    8  C2  UNL     1     -32.182   8.167   2.835  1.00 20.00     0.009 C 
HETATM    9  C3  UNL     1     -32.128   9.147   5.123  1.00 20.00     0.009 C 
ENDBRANCH   6   7
ENDBRANCH   3   6
TORSDOF 3
ENDMDL
MODEL 3
REMARK VINA RESULT:      -3.9      1.036      4.242
REMARK  3 active torsions:
REMARK  status: ('A' for Active; 'I' for Inactive)
REMARK    1  A    between atoms: C6_6  and  C9_9 
REMARK    2  A    between atoms: C7_7  and  C8_8 
REMARK    3  A    between atoms: C7_7  and  C9_9 
ROOT
HETATM    1  C4  UNL     1     -35.981   5.787   4.152  1.00 20.00     0.015 C 
HETATM    2  C5  UNL     1     -33.651   5.042   3.702  1.00 20.00     0.015 C 
HETATM    3  C9  UNL     1     -34.508   6.025   4.534  1.00 20.00    -0.048 C 
ENDROOT
BRANCH   3   4
HETATM    4  C6  UNL     1     -34.349   5.702   6.046  1.00 20.00     0.004 C 
HETATM    5  C1  UNL     1     -34.318   6.902   6.985  1.00 20.00     0.006 C 
ENDBRANCH   3   4
BRANCH   3   6
HETATM    6  C7  UNL     1     -34.057   7.471   4.165  1.00 20.00     0.012 C 
BRANCH   6   7
HETATM    7  C8  UNL     1     -32.536   7.717   4.013  1.00 20.00    -0.022 C 
HETATM    8  C2  UNL     1     -32.185   7.934   2.536  1.00 20.00     0.009 C 
HETATM    9  C3  UNL     1     -32.073   8.942   4.809  1.00 20.00     0.009 C 
ENDBRANCH   6   7
ENDBRANCH   3   6
TORSDOF 3
ENDMDL
MODEL 4
REMARK VINA RESULT:      -3.8      0.533      1.812
REMARK  3 active torsions:
REMARK  status: ('A' for Active; 'I' for Inactive)
REMARK    1  A    between atoms: C6_6  and  C9_9 
REMARK    2  A    between atoms: C7_7  and  C8_8 
REMARK    3  A    between atoms: C7_7  and  C9_9 
ROOT
HETATM    1  C4  UNL     1     -32.956   9.309   2.629  1.00 20.00     0.015 C 
HETATM    2  C5  UNL     1     -32.000   9.065   4.912  1.00 20.00     0.015 C 
HETATM    3  C9  UNL     1     -32.760   8.318   3.792  1.00 20.00    -0.048 C 
ENDROOT
BRANCH   3   4
HETATM    4  C6  UNL     1     -31.893   7.137   3.272  1.00 20.00     0.004 C 
HETATM    5  C1  UNL     1     -32.618   6.100   2.424  1.00 20.00     0.006 C 
ENDBRANCH   3   4
BRANCH   3   6
HETATM    6  C7  UNL     1     -34.131   7.861   4.379  1.00 20.00     0.012 C 
BRANCH   6   7
HETATM    7  C8  UNL     1     -34.146   6.537   5.181  1.00 20.00    -0.022 C 
HETATM    8  C2  UNL     1     -34.272   6.835   6.681  1.00 20.00     0.009 C 
HETATM    9  C3  UNL     1     -35.309   5.630   4.765  1.00 20.00     0.009 C 
ENDBRANCH   6   7
ENDBRANCH   3   6
TORSDOF 3
ENDMDL
MODEL 5
REMARK VINA RESULT:      -3.5      1.003      1.739
REMARK  3 active torsions:
REMARK  status: ('A' for Active; 'I' for Inactive)
REMARK    1  A    between atoms: C6_6  and  C9_9 
REMARK    2  A    between atoms: C7_7  and  C8_8 
REMARK    3  A    between atoms: C7_7  and  C9_9 
ROOT
HETATM    1  C4  UNL     1     -33.957   9.022   3.543  1.00 20.00     0.015 C 
HETATM    2  C5  UNL     1     -31.966   9.078   5.032  1.00 20.00     0.015 C 
HETATM    3  C9  UNL     1     -33.002   8.141   4.370  1.00 20.00    -0.048 C 
ENDROOT
BRANCH   3   4
HETATM    4  C6  UNL     1     -32.279   7.173   3.391  1.00 20.00     0.004 C 
HETATM    5  C1  UNL     1     -32.162   7.648   1.948  1.00 20.00     0.006 C 
ENDBRANCH   3   4
BRANCH   3   6
HETATM    6  C7  UNL     1     -33.764   7.401   5.512  1.00 20.00     0.012 C 
BRANCH   6   7
HETATM    7  C8  UNL     1     -34.229   5.953   5.225  1.00 20.00    -0.022 C 
HETATM    8  C2  UNL     1     -34.464   5.207   6.544  1.00 20.00     0.009 C 
HETATM    9  C3  UNL     1     -35.526   5.920   4.409  1.00 20.00     0.009 C 
ENDBRANCH   6   7
ENDBRANCH   3   6
TORSDOF 3
ENDMDL
MODEL 6
REMARK VINA RESULT:      -3.5      9.260     10.250
REMARK  3 active torsions:
REMARK  status: ('A' for Active; 'I' for Inactive)
REMARK    1  A    between atoms: C6_6  and  C9_9 
REMARK    2  A    between atoms: C7_7  and  C8_8 
REMARK    3  A    between atoms: C7_7  and  C9_9 
ROOT
HETATM    1  C4  UNL     1     -42.195  12.514   6.855  1.00 20.00     0.015 C 
HETATM    2  C5  UNL     1     -41.404  13.662   4.796  1.00 20.00     0.015 C 
HETATM    3  C9  UNL     1     -40.935  12.983   6.104  1.00 20.00    -0.048 C 
ENDROOT
BRANCH   3   4
HETATM    4  C6  UNL     1     -40.087  11.725   5.762  1.00 20.00     0.004 C 
HETATM    5  C1  UNL     1     -39.258  11.806   4.487  1.00 20.00     0.006 C 
ENDBRANCH   3   4
BRANCH   3   6
HETATM    6  C7  UNL     1     -40.149  14.047   6.931  1.00 20.00     0.012 C 
BRANCH   6   7
HETATM    7  C8  UNL     1     -40.954  14.873   7.962  1.00 20.00    -0.022 C 
HETATM    8  C2  UNL     1     -40.329  14.726   9.355  1.00 20.00     0.009 C 
HETATM    9  C3  UNL     1     -40.991  16.361   7.598  1.00 20.00     0.009 C 
ENDBRANCH   6   7
ENDBRANCH   3   6
TORSDOF 3
ENDMDL
MODEL 7
REMARK VINA RESULT:      -3.5      8.584      9.719
REMARK  3 active torsions:
REMARK  status: ('A' for Active; 'I' for Inactive)
REMARK    1  A    between atoms: C6_6  and  C9_9 
REMARK    2  A    between atoms: C7_7  and  C8_8 
REMARK    3  A    between atoms: C7_7  and  C9_9 
ROOT
HETATM    1  C4  UNL     1     -41.955  13.933   5.240  1.00 20.00     0.015 C 
HETATM    2  C5  UNL     1     -42.669  12.380   7.046  1.00 20.00     0.015 C 
HETATM    3  C9  UNL     1     -41.439  13.057   6.398  1.00 20.00    -0.048 C 
ENDROOT
BRANCH   3   4
HETATM    4  C6  UNL     1     -40.753  13.992   7.434  1.00 20.00     0.004 C 
HETATM    5  C1  UNL     1     -41.044  15.480   7.285  1.00 20.00     0.006 C 
ENDBRANCH   3   4
BRANCH   3   6
HETATM    6  C7  UNL     1     -40.500  11.927   5.875  1.00 20.00     0.012 C 
BRANCH   6   7
HETATM    7  C8  UNL     1     -39.222  12.366   5.121  1.00 20.00    -0.022 C 
HETATM    8  C2  UNL     1     -37.986  12.116   5.995  1.00 20.00     0.009 C 
HETATM    9  C3  UNL     1     -39.048  11.608   3.801  1.00 20.00     0.009 C 
ENDBRANCH   6   7
ENDBRANCH   3   6
TORSDOF 3
ENDMDL
MODEL 8
REMARK VINA RESULT:      -3.4      1.560      3.859
REMARK  3 active torsions:
REMARK  status: ('A' for Active; 'I' for Inactive)
REMARK    1  A    between atoms: C6_6  and  C9_9 
REMARK    2  A    between atoms: C7_7  and  C8_8 
REMARK    3  A    between atoms: C7_7  and  C9_9 
ROOT
HETATM    1  C4  UNL     1     -35.611   6.150   4.380  1.00 20.00     0.015 C 
HETATM    2  C5  UNL     1     -34.500   5.039   6.307  1.00 20.00     0.015 C 
HETATM    3  C9  UNL     1     -34.349   6.168   5.262  1.00 20.00    -0.048 C 
ENDROOT
BRANCH   3   4
HETATM    4  C6  UNL     1     -34.294   7.543   5.987  1.00 20.00     0.004 C 
HETATM    5  C1  UNL     1     -33.287   8.546   5.439  1.00 20.00     0.006 C 
ENDBRANCH   3   4
BRANCH   3   6
HETATM    6  C7  UNL     1     -33.070   5.866   4.423  1.00 20.00     0.012 C 
BRANCH   6   7
HETATM    7  C8  UNL     1     -33.179   6.032   2.889  1.00 20.00    -0.022 C 
HETATM    8  C2  UNL     1     -32.197   7.108   2.407  1.00 20.00     0.009 C 
HETATM    9  C3  UNL     1     -32.873   4.726   2.148  1.00 20.00     0.009 C 
ENDBRANCH   6   7
ENDBRANCH   3   6
TORSDOF 3
ENDMDL
MODEL 9
REMARK VINA RESULT:      -3.4     11.066     12.117
REMARK  3 active torsions:
REMARK  status: ('A' for Active; 'I' for Inactive)
REMARK    1  A    between atoms: C6_6  and  C9_9 
REMARK    2  A    between atoms: C7_7  and  C8_8 
REMARK    3  A    between atoms: C7_7  and  C9_9 
ROOT
HETATM    1  C4  UNL     1     -32.604  19.131  -2.554  1.00 20.00     0.015 C 
HETATM    2  C5  UNL     1     -34.819  18.858  -1.457  1.00 20.00     0.015 C 
HETATM    3  C9  UNL     1     -33.412  18.233  -1.599  1.00 20.00    -0.048 C 
ENDROOT
BRANCH   3   4
HETATM    4  C6  UNL     1     -32.698  18.242  -0.218  1.00 20.00     0.004 C 
HETATM    5  C1  UNL     1     -31.217  18.599  -0.235  1.00 20.00     0.006 C 
ENDBRANCH   3   4
BRANCH   3   6
HETATM    6  C7  UNL     1     -33.591  16.801  -2.188  1.00 20.00     0.012 C 
BRANCH   6   7
HETATM    7  C8  UNL     1     -33.398  16.638  -3.715  1.00 20.00    -0.022 C 
HETATM    8  C2  UNL     1     -32.947  15.208  -4.037  1.00 20.00     0.009 C 
HETATM    9  C3  UNL     1     -34.688  16.928  -4.489  1.00 20.00     0.009 C 
ENDBRANCH   6   7
ENDBRANCH   3   6
TORSDOF 3
ENDMDL
