MODEL 1
REMARK VINA RESULT:      -4.7      0.000      0.000
REMARK  1 active torsions:
REMARK  status: ('A' for Active; 'I' for Inactive)
REMARK    1  A    between atoms: C5_5  and  O10_10 
ROOT
HETATM    1  C1  UNL     1     -32.711   6.792   3.020  1.00 20.00     0.007 C 
HETATM    2  C2  UNL     1     -32.846   7.547   4.124  1.00 20.00    -0.084 C 
HETATM    3  C3  UNL     1     -33.602   7.062   5.341  1.00 20.00     0.042 C 
HETATM    4  C4  UNL     1     -33.758   4.814   4.217  1.00 20.00     0.045 C 
HETATM    5  C5  UNL     1     -33.275   5.407   2.887  1.00 20.00     0.142 C 
HETATM    6  C6  UNL     1     -34.517   5.837   5.086  1.00 20.00    -0.042 C 
HETATM    7  C7  UNL     1     -32.242   8.917   4.226  1.00 20.00     0.043 C 
HETATM    8  C8  UNL     1     -35.826   6.278   4.397  1.00 20.00     0.015 C 
HETATM    9  C9  UNL     1     -34.884   5.188   6.433  1.00 20.00     0.015 C 
ENDROOT
BRANCH   5  10
HETATM   10  O10 UNL     1     -32.289   4.543   2.327  1.00 20.00    -0.392 OA
HETATM   11  H26 UNL     1     -31.711   5.100   1.783  1.00 20.00     0.210 HD
ENDBRANCH   5  10
TORSDOF 1
ENDMDL
MODEL 2
REMARK VINA RESULT:      -4.5      1.810      3.407
REMARK  1 active torsions:
REMARK  status: ('A' for Active; 'I' for Inactive)
REMARK    1  A    between atoms: C5_5  and  O10_10 
ROOT
HETATM    1  C1  UNL     1     -34.351   5.301   4.213  1.00 20.00     0.007 C 
HETATM    2  C2  UNL     1     -33.357   5.685   3.394  1.00 20.00    -0.084 C 
HETATM    3  C3  UNL     1     -32.567   6.953   3.627  1.00 20.00     0.042 C 
HETATM    4  C4  UNL     1     -33.766   7.167   5.832  1.00 20.00     0.045 C 
HETATM    5  C5  UNL     1     -34.763   6.071   5.434  1.00 20.00     0.142 C 
HETATM    6  C6  UNL     1     -33.224   7.949   4.618  1.00 20.00    -0.042 C 
HETATM    7  C7  UNL     1     -32.958   4.871   2.198  1.00 20.00     0.043 C 
HETATM    8  C8  UNL     1     -34.355   8.733   3.921  1.00 20.00     0.015 C 
HETATM    9  C9  UNL     1     -32.167   8.961   5.095  1.00 20.00     0.015 C 
ENDROOT
BRANCH   5  10
HETATM   10  O10 UNL     1     -34.925   5.174   6.531  1.00 20.00    -0.392 OA
HETATM   11  H26 UNL     1     -35.801   4.770   6.431  1.00 20.00     0.210 HD
ENDBRANCH   5  10
TORSDOF 1
ENDMDL
MODEL 3
REMARK VINA RESULT:      -4.3     12.004     13.484
REMARK  1 active torsions:
REMARK  status: ('A' for Active; 'I' for Inactive)
REMARK    1  A    between atoms: C5_5  and  O10_10 
ROOT
HETATM    1  C1  UNL     1     -34.098  14.698  -4.042  1.00 20.00     0.007 C 
HETATM    2  C2  UNL     1     -34.010  16.027  -3.862  1.00 20.00    -0.084 C 
HETATM    3  C3  UNL     1     -34.850  17.003  -4.655  1.00 20.00     0.042 C 
HETATM    4  C4  UNL     1     -36.088  15.016  -5.584  1.00 20.00     0.045 C 
HETATM    5  C5  UNL     1     -35.034  14.053  -5.022  1.00 20.00     0.142 C 
HETATM    6  C6  UNL     1     -35.507  16.403  -5.925  1.00 20.00    -0.042 C 
HETATM    7  C7  UNL     1     -33.079  16.630  -2.851  1.00 20.00     0.043 C 
HETATM    8  C8  UNL     1     -34.475  16.300  -7.067  1.00 20.00     0.015 C 
HETATM    9  C9  UNL     1     -36.644  17.330  -6.394  1.00 20.00     0.015 C 
ENDROOT
BRANCH   5  10
HETATM   10  O10 UNL     1     -35.697  12.957  -4.397  1.00 20.00    -0.392 OA
HETATM   11  H26 UNL     1     -35.928  13.249  -3.501  1.00 20.00     0.210 HD
ENDBRANCH   5  10
TORSDOF 1
ENDMDL
MODEL 4
REMARK VINA RESULT:      -3.9     12.645     13.735
REMARK  1 active torsions:
REMARK  status: ('A' for Active; 'I' for Inactive)
REMARK    1  A    between atoms: C5_5  and  O10_10 
ROOT
HETATM    1  C1  UNL     1     -34.433  17.195  -4.371  1.00 20.00     0.007 C 
HETATM    2  C2  UNL     1     -33.700  16.341  -3.635  1.00 20.00    -0.084 C 
HETATM    3  C3  UNL     1     -33.418  16.580  -2.169  1.00 20.00     0.042 C 
HETATM    4  C4  UNL     1     -35.024  18.517  -2.286  1.00 20.00     0.045 C 
HETATM    5  C5  UNL     1     -35.049  18.447  -3.819  1.00 20.00     0.142 C 
HETATM    6  C6  UNL     1     -33.689  18.029  -1.689  1.00 20.00    -0.042 C 
HETATM    7  C7  UNL     1     -33.125  15.085  -4.221  1.00 20.00     0.043 C 
HETATM    8  C8  UNL     1     -32.530  18.959  -2.106  1.00 20.00     0.015 C 
HETATM    9  C9  UNL     1     -33.782  18.045  -0.152  1.00 20.00     0.015 C 
ENDROOT
BRANCH   5  10
HETATM   10  O10 UNL     1     -36.400  18.549  -4.263  1.00 20.00    -0.392 OA
HETATM   11  H26 UNL     1     -36.435  18.132  -5.138  1.00 20.00     0.210 HD
ENDBRANCH   5  10
TORSDOF 1
ENDMDL
MODEL 5
REMARK VINA RESULT:      -3.7     10.174     11.440
REMARK  1 active torsions:
REMARK  status: ('A' for Active; 'I' for Inactive)
REMARK    1  A    between atoms: C5_5  and  O10_10 
ROOT
HETATM    1  C1  UNL     1     -40.042  13.100   6.870  1.00 20.00     0.007 C 
HETATM    2  C2  UNL     1     -40.282  12.836   5.574  1.00 20.00    -0.084 C 
HETATM    3  C3  UNL     1     -41.344  13.571   4.787  1.00 20.00     0.042 C 
HETATM    4  C4  UNL     1     -41.620  15.087   6.779  1.00 20.00     0.045 C 
HETATM    5  C5  UNL     1     -40.781  14.146   7.654  1.00 20.00     0.142 C 
HETATM    6  C6  UNL     1     -42.370  14.345   5.655  1.00 20.00    -0.042 C 
HETATM    7  C7  UNL     1     -39.502  11.800   4.820  1.00 20.00     0.043 C 
HETATM    8  C8  UNL     1     -43.417  13.376   6.241  1.00 20.00     0.015 C 
HETATM    9  C9  UNL     1     -43.109  15.368   4.774  1.00 20.00     0.015 C 
ENDROOT
BRANCH   5  10
HETATM   10  O10 UNL     1     -39.851  14.922   8.406  1.00 20.00    -0.392 OA
HETATM   11  H26 UNL     1     -39.057  15.011   7.856  1.00 20.00     0.210 HD
ENDBRANCH   5  10
TORSDOF 1
ENDMDL
MODEL 6
REMARK VINA RESULT:      -3.5     10.513     11.706
REMARK  1 active torsions:
REMARK  status: ('A' for Active; 'I' for Inactive)
REMARK    1  A    between atoms: C5_5  and  O10_10 
ROOT
HETATM    1  C1  UNL     1     -42.026  12.313   6.635  1.00 20.00     0.007 C 
HETATM    2  C2  UNL     1     -40.833  12.803   6.253  1.00 20.00    -0.084 C 
HETATM    3  C3  UNL     1     -40.230  14.036   6.887  1.00 20.00     0.042 C 
HETATM    4  C4  UNL     1     -42.110  13.964   8.562  1.00 20.00     0.045 C 
HETATM    5  C5  UNL     1     -42.861  12.922   7.724  1.00 20.00     0.142 C 
HETATM    6  C6  UNL     1     -41.229  14.895   7.704  1.00 20.00    -0.042 C 
HETATM    7  C7  UNL     1     -40.017  12.148   5.178  1.00 20.00     0.043 C 
HETATM    8  C8  UNL     1     -42.095  15.755   6.760  1.00 20.00     0.015 C 
HETATM    9  C9  UNL     1     -40.443  15.846   8.626  1.00 20.00     0.015 C 
ENDROOT
BRANCH   5  10
HETATM   10  O10 UNL     1     -43.339  11.893   8.588  1.00 20.00    -0.392 OA
HETATM   11  H26 UNL     1     -42.758  11.128   8.454  1.00 20.00     0.210 HD
ENDBRANCH   5  10
TORSDOF 1
ENDMDL
MODEL 7
REMARK VINA RESULT:      -3.5     13.022     14.557
REMARK  1 active torsions:
REMARK  status: ('A' for Active; 'I' for Inactive)
REMARK    1  A    between atoms: C5_5  and  O10_10 
ROOT
HETATM    1  C1  UNL     1     -34.253  15.214  -5.248  1.00 20.00     0.007 C 
HETATM    2  C2  UNL     1     -34.152  16.253  -4.401  1.00 20.00    -0.084 C 
HETATM    3  C3  UNL     1     -34.905  17.545  -4.621  1.00 20.00     0.042 C 
HETATM    4  C4  UNL     1     -36.106  16.399  -6.514  1.00 20.00     0.045 C 
HETATM    5  C5  UNL     1     -35.121  15.223  -6.473  1.00 20.00     0.142 C 
HETATM    6  C6  UNL     1     -35.470  17.726  -6.053  1.00 20.00    -0.042 C 
HETATM    7  C7  UNL     1     -33.292  16.191  -3.172  1.00 20.00     0.043 C 
HETATM    8  C8  UNL     1     -34.352  18.164  -7.021  1.00 20.00     0.015 C 
HETATM    9  C9  UNL     1     -36.546  18.828  -6.038  1.00 20.00     0.015 C 
ENDROOT
BRANCH   5  10
HETATM   10  O10 UNL     1     -35.855  14.003  -6.545  1.00 20.00    -0.392 OA
HETATM   11  H26 UNL     1     -35.578  13.468  -5.785  1.00 20.00     0.210 HD
ENDBRANCH   5  10
TORSDOF 1
ENDMDL
MODEL 8
REMARK VINA RESULT:      -3.4     10.728     11.772
REMARK  1 active torsions:
REMARK  status: ('A' for Active; 'I' for Inactive)
REMARK    1  A    between atoms: C5_5  and  O10_10 
ROOT
HETATM    1  C1  UNL     1     -42.029  15.834   6.472  1.00 20.00     0.007 C 
HETATM    2  C2  UNL     1     -41.086  15.388   7.320  1.00 20.00    -0.084 C 
HETATM    3  C3  UNL     1     -40.422  14.041   7.147  1.00 20.00     0.042 C 
HETATM    4  C4  UNL     1     -41.613  13.858   4.935  1.00 20.00     0.045 C 
HETATM    5  C5  UNL     1     -42.502  15.061   5.275  1.00 20.00     0.142 C 
HETATM    6  C6  UNL     1     -41.163  13.076   6.186  1.00 20.00    -0.042 C 
HETATM    7  C7  UNL     1     -40.622  16.206   8.489  1.00 20.00     0.043 C 
HETATM    8  C8  UNL     1     -42.373  12.434   6.896  1.00 20.00     0.015 C 
HETATM    9  C9  UNL     1     -40.205  11.946   5.763  1.00 20.00     0.015 C 
ENDROOT
BRANCH   5  10
HETATM   10  O10 UNL     1     -42.562  15.925   4.143  1.00 20.00    -0.392 OA
HETATM   11  H26 UNL     1     -41.833  16.557   4.239  1.00 20.00     0.210 HD
ENDBRANCH   5  10
TORSDOF 1
ENDMDL
MODEL 9
REMARK VINA RESULT:      -3.3     10.008     11.161
REMARK  1 active torsions:
REMARK  status: ('A' for Active; 'I' for Inactive)
REMARK    1  A    between atoms: C5_5  and  O10_10 
ROOT
HETATM    1  C1  UNL     1     -40.886  13.270   4.794  1.00 20.00     0.007 C 
HETATM    2  C2  UNL     1     -41.922  14.125   4.854  1.00 20.00    -0.084 C 
HETATM    3  C3  UNL     1     -42.568  14.515   6.164  1.00 20.00     0.042 C 
HETATM    4  C4  UNL     1     -40.713  13.269   7.327  1.00 20.00     0.045 C 
HETATM    5  C5  UNL     1     -40.264  12.634   6.004  1.00 20.00     0.142 C 
HETATM    6  C6  UNL     1     -42.222  13.584   7.355  1.00 20.00    -0.042 C 
HETATM    7  C7  UNL     1     -42.496  14.759   3.621  1.00 20.00     0.043 C 
HETATM    8  C8  UNL     1     -43.054  12.287   7.283  1.00 20.00     0.015 C 
HETATM    9  C9  UNL     1     -42.569  14.299   8.674  1.00 20.00     0.015 C 
ENDROOT
BRANCH   5  10
HETATM   10  O10 UNL     1     -38.844  12.720   5.910  1.00 20.00    -0.392 OA
HETATM   11  H26 UNL     1     -38.646  13.056   5.022  1.00 20.00     0.210 HD
ENDBRANCH   5  10
TORSDOF 1
ENDMDL
