MODEL 1
REMARK VINA RESULT:      -3.9      0.000      0.000
REMARK  2 active torsions:
REMARK  status: ('A' for Active; 'I' for Inactive)
REMARK    1  A    between atoms: C1_1  and  C3_3 
REMARK    2  A    between atoms: C3_3  and  C4_4 
ROOT
HETATM    1  C1  UNL     1     -33.437   7.373   5.089  1.00 20.00    -0.088 C 
HETATM    2  C2  UNL     1     -32.896   7.641   4.052  1.00 20.00     0.004 C 
HETATM    3 CL5  UNL     1     -32.108   8.030   2.534  1.00 20.00    -0.023 Cl
ENDROOT
BRANCH   1   4
HETATM    4  C3  UNL     1     -34.099   7.048   6.361  1.00 20.00     0.110 C 
BRANCH   4   5
HETATM    5  C4  UNL     1     -34.509   5.583   6.439  1.00 20.00     0.126 C 
HETATM    6 CL6  UNL     1     -34.768   4.885   4.820  1.00 20.00    -0.130 Cl
ENDBRANCH   4   5
ENDBRANCH   1   4
TORSDOF 2
ENDMDL
MODEL 2
REMARK VINA RESULT:      -3.7      1.207      3.724
REMARK  2 active torsions:
REMARK  status: ('A' for Active; 'I' for Inactive)
REMARK    1  A    between atoms: C1_1  and  C3_3 
REMARK    2  A    between atoms: C3_3  and  C4_4 
ROOT
HETATM    1  C1  UNL     1     -33.296   7.679   5.413  1.00 20.00    -0.088 C 
HETATM    2  C2  UNL     1     -33.931   6.765   5.863  1.00 20.00     0.004 C 
HETATM    3 CL5  UNL     1     -34.860   5.429   6.518  1.00 20.00    -0.023 Cl
ENDROOT
BRANCH   1   4
HETATM    4  C3  UNL     1     -32.517   8.797   4.862  1.00 20.00     0.110 C 
BRANCH   4   5
HETATM    5  C4  UNL     1     -32.465   8.770   3.341  1.00 20.00     0.126 C 
HETATM    6 CL6  UNL     1     -32.216   7.118   2.720  1.00 20.00    -0.130 Cl
ENDBRANCH   4   5
ENDBRANCH   1   4
TORSDOF 2
ENDMDL
MODEL 3
REMARK VINA RESULT:      -3.7      1.341      1.457
REMARK  2 active torsions:
REMARK  status: ('A' for Active; 'I' for Inactive)
REMARK    1  A    between atoms: C1_1  and  C3_3 
REMARK    2  A    between atoms: C3_3  and  C4_4 
ROOT
HETATM    1  C1  UNL     1     -33.715   7.180   5.773  1.00 20.00    -0.088 C 
HETATM    2  C2  UNL     1     -33.079   8.072   5.286  1.00 20.00     0.004 C 
HETATM    3 CL5  UNL     1     -32.148   9.376   4.571  1.00 20.00    -0.023 Cl
ENDROOT
BRANCH   1   4
HETATM    4  C3  UNL     1     -34.497   6.087   6.371  1.00 20.00     0.110 C 
BRANCH   4   5
HETATM    5  C4  UNL     1     -34.873   5.021   5.350  1.00 20.00     0.126 C 
HETATM    6 CL6  UNL     1     -33.965   5.217   3.830  1.00 20.00    -0.130 Cl
ENDBRANCH   4   5
ENDBRANCH   1   4
TORSDOF 2
ENDMDL
MODEL 4
REMARK VINA RESULT:      -3.5      2.329      2.562
REMARK  2 active torsions:
REMARK  status: ('A' for Active; 'I' for Inactive)
REMARK    1  A    between atoms: C1_1  and  C3_3 
REMARK    2  A    between atoms: C3_3  and  C4_4 
ROOT
HETATM    1  C1  UNL     1     -34.191   5.421   4.646  1.00 20.00    -0.088 C 
HETATM    2  C2  UNL     1     -33.666   5.169   3.597  1.00 20.00     0.004 C 
HETATM    3 CL5  UNL     1     -32.898   4.804   2.063  1.00 20.00    -0.023 Cl
ENDROOT
BRANCH   1   4
HETATM    4  C3  UNL     1     -34.833   5.727   5.933  1.00 20.00     0.110 C 
BRANCH   4   5
HETATM    5  C4  UNL     1     -34.228   6.954   6.602  1.00 20.00     0.126 C 
HETATM    6 CL6  UNL     1     -33.682   8.155   5.403  1.00 20.00    -0.130 Cl
ENDBRANCH   4   5
ENDBRANCH   1   4
TORSDOF 2
ENDMDL
MODEL 5
REMARK VINA RESULT:      -3.4      1.405      4.169
REMARK  2 active torsions:
REMARK  status: ('A' for Active; 'I' for Inactive)
REMARK    1  A    between atoms: C1_1  and  C3_3 
REMARK    2  A    between atoms: C3_3  and  C4_4 
ROOT
HETATM    1  C1  UNL     1     -33.293   7.549   4.603  1.00 20.00    -0.088 C 
HETATM    2  C2  UNL     1     -33.877   6.857   5.389  1.00 20.00     0.004 C 
HETATM    3 CL5  UNL     1     -34.734   5.847   6.539  1.00 20.00    -0.023 Cl
ENDROOT
BRANCH   1   4
HETATM    4  C3  UNL     1     -32.575   8.396   3.638  1.00 20.00     0.110 C 
BRANCH   4   5
HETATM    5  C4  UNL     1     -32.164   7.626   2.390  1.00 20.00     0.126 C 
HETATM    6 CL6  UNL     1     -32.296   8.630   0.924  1.00 20.00    -0.130 Cl
ENDBRANCH   4   5
ENDBRANCH   1   4
TORSDOF 2
ENDMDL
MODEL 6
REMARK VINA RESULT:      -3.3      1.835      1.978
REMARK  2 active torsions:
REMARK  status: ('A' for Active; 'I' for Inactive)
REMARK    1  A    between atoms: C1_1  and  C3_3 
REMARK    2  A    between atoms: C3_3  and  C4_4 
ROOT
HETATM    1  C1  UNL     1     -33.402   6.868   4.217  1.00 20.00    -0.088 C 
HETATM    2  C2  UNL     1     -32.843   7.888   4.509  1.00 20.00     0.004 C 
HETATM    3 CL5  UNL     1     -32.023   9.378   4.936  1.00 20.00    -0.023 Cl
ENDROOT
BRANCH   1   4
HETATM    4  C3  UNL     1     -34.089   5.618   3.857  1.00 20.00     0.110 C 
BRANCH   4   5
HETATM    5  C4  UNL     1     -34.516   4.822   5.083  1.00 20.00     0.126 C 
HETATM    6 CL6  UNL     1     -34.685   5.864   6.518  1.00 20.00    -0.130 Cl
ENDBRANCH   4   5
ENDBRANCH   1   4
TORSDOF 2
ENDMDL
MODEL 7
REMARK VINA RESULT:      -3.2      1.725      1.925
REMARK  2 active torsions:
REMARK  status: ('A' for Active; 'I' for Inactive)
REMARK    1  A    between atoms: C1_1  and  C3_3 
REMARK    2  A    between atoms: C3_3  and  C4_4 
ROOT
HETATM    1  C1  UNL     1     -33.397   6.822   4.208  1.00 20.00    -0.088 C 
HETATM    2  C2  UNL     1     -33.158   6.021   3.347  1.00 20.00     0.004 C 
HETATM    3 CL5  UNL     1     -32.811   4.849   2.089  1.00 20.00    -0.023 Cl
ENDROOT
BRANCH   1   4
HETATM    4  C3  UNL     1     -33.689   7.805   5.262  1.00 20.00     0.110 C 
BRANCH   4   5
HETATM    5  C4  UNL     1     -34.103   7.143   6.569  1.00 20.00     0.126 C 
HETATM    6 CL6  UNL     1     -34.764   5.511   6.300  1.00 20.00    -0.130 Cl
ENDBRANCH   4   5
ENDBRANCH   1   4
TORSDOF 2
ENDMDL
MODEL 8
REMARK VINA RESULT:      -3.2      1.904      2.392
REMARK  2 active torsions:
REMARK  status: ('A' for Active; 'I' for Inactive)
REMARK    1  A    between atoms: C1_1  and  C3_3 
REMARK    2  A    between atoms: C3_3  and  C4_4 
ROOT
HETATM    1  C1  UNL     1     -32.682   8.502   3.331  1.00 20.00    -0.088 C 
HETATM    2  C2  UNL     1     -32.664   8.921   2.207  1.00 20.00     0.004 C 
HETATM    3 CL5  UNL     1     -32.641   9.532   0.563  1.00 20.00    -0.023 Cl
ENDROOT
BRANCH   1   4
HETATM    4  C3  UNL     1     -32.703   7.991   4.710  1.00 20.00     0.110 C 
BRANCH   4   5
HETATM    5  C4  UNL     1     -33.826   6.988   4.936  1.00 20.00     0.126 C 
HETATM    6 CL6  UNL     1     -34.277   6.883   6.657  1.00 20.00    -0.130 Cl
ENDBRANCH   4   5
ENDBRANCH   1   4
TORSDOF 2
ENDMDL
MODEL 9
REMARK VINA RESULT:      -3.0     12.427     12.875
REMARK  2 active torsions:
REMARK  status: ('A' for Active; 'I' for Inactive)
REMARK    1  A    between atoms: C1_1  and  C3_3 
REMARK    2  A    between atoms: C3_3  and  C4_4 
ROOT
HETATM    1  C1  UNL     1     -33.420  16.694  -2.390  1.00 20.00    -0.088 C 
HETATM    2  C2  UNL     1     -33.427  15.917  -3.305  1.00 20.00     0.004 C 
HETATM    3 CL5  UNL     1     -33.435  14.783  -4.642  1.00 20.00    -0.023 Cl
ENDROOT
BRANCH   1   4
HETATM    4  C3  UNL     1     -33.412  17.644  -1.268  1.00 20.00     0.110 C 
BRANCH   4   5
HETATM    5  C4  UNL     1     -32.287  18.664  -1.384  1.00 20.00     0.126 C 
HETATM    6 CL6  UNL     1     -31.058  18.437  -0.115  1.00 20.00    -0.130 Cl
ENDBRANCH   4   5
ENDBRANCH   1   4
TORSDOF 2
ENDMDL
