MODEL 1
REMARK VINA RESULT:      -3.8      0.000      0.000
REMARK  3 active torsions:
REMARK  status: ('A' for Active; 'I' for Inactive)
REMARK    1  A    between atoms: C1_1  and  C5_5 
REMARK    2  A    between atoms: C1_1  and  O8_8 
REMARK    3  A    between atoms: C6_6  and  O8_8 
ROOT
HETATM    1  O8  UNL     1     -33.194   6.488   4.735  1.00 20.00    -0.310 OA
ENDROOT
BRANCH   1   2
HETATM    2  C1  UNL     1     -33.397   7.834   4.880  1.00 20.00     0.273 C 
HETATM    3  O7  UNL     1     -34.011   8.364   5.795  1.00 20.00    -0.264 OA
BRANCH   2   4
HETATM    4  C5  UNL     1     -32.739   8.543   3.728  1.00 20.00     0.225 C 
HETATM    5 CL9  UNL     1     -32.159   7.367   2.537  1.00 20.00    -0.120 Cl
ENDBRANCH   2   4
ENDBRANCH   1   2
BRANCH   1   6
HETATM    6  C6  UNL     1     -34.336   5.662   4.963  1.00 20.00     0.060 C 
HETATM    7  C2  UNL     1     -35.545   6.301   4.280  1.00 20.00     0.045 C 
HETATM    8  C3  UNL     1     -34.041   4.290   4.360  1.00 20.00     0.045 C 
HETATM    9  C4  UNL     1     -34.560   5.548   6.471  1.00 20.00     0.045 C 
ENDBRANCH   1   6
TORSDOF 3
ENDMDL
MODEL 2
REMARK VINA RESULT:      -3.7      1.371      2.329
REMARK  3 active torsions:
REMARK  status: ('A' for Active; 'I' for Inactive)
REMARK    1  A    between atoms: C1_1  and  C5_5 
REMARK    2  A    between atoms: C1_1  and  O8_8 
REMARK    3  A    between atoms: C6_6  and  O8_8 
ROOT
HETATM    1  O8  UNL     1     -33.272   6.547   4.851  1.00 20.00    -0.310 OA
ENDROOT
BRANCH   1   2
HETATM    2  C1  UNL     1     -32.861   6.768   3.564  1.00 20.00     0.273 C 
HETATM    3  O7  UNL     1     -32.762   5.914   2.695  1.00 20.00    -0.264 OA
BRANCH   2   4
HETATM    4  C5  UNL     1     -32.554   8.232   3.405  1.00 20.00     0.225 C 
HETATM    5 CL9  UNL     1     -32.429   9.006   4.994  1.00 20.00    -0.120 Cl
ENDBRANCH   2   4
ENDBRANCH   1   2
BRANCH   1   6
HETATM    6  C6  UNL     1     -34.378   5.656   5.002  1.00 20.00     0.060 C 
HETATM    7  C2  UNL     1     -33.989   4.294   4.428  1.00 20.00     0.045 C 
HETATM    8  C3  UNL     1     -34.678   5.544   6.496  1.00 20.00     0.045 C 
HETATM    9  C4  UNL     1     -35.578   6.240   4.257  1.00 20.00     0.045 C 
ENDBRANCH   1   6
TORSDOF 3
ENDMDL
MODEL 3
REMARK VINA RESULT:      -3.7      0.033      1.456
REMARK  3 active torsions:
REMARK  status: ('A' for Active; 'I' for Inactive)
REMARK    1  A    between atoms: C1_1  and  C5_5 
REMARK    2  A    between atoms: C1_1  and  O8_8 
REMARK    3  A    between atoms: C6_6  and  O8_8 
ROOT
HETATM    1  O8  UNL     1     -33.185   6.504   4.725  1.00 20.00    -0.310 OA
ENDROOT
BRANCH   1   2
HETATM    2  C1  UNL     1     -33.389   7.852   4.856  1.00 20.00     0.273 C 
HETATM    3  O7  UNL     1     -34.003   8.390   5.766  1.00 20.00    -0.264 OA
BRANCH   2   4
HETATM    4  C5  UNL     1     -32.732   8.550   3.697  1.00 20.00     0.225 C 
HETATM    5 CL9  UNL     1     -32.164   7.363   2.511  1.00 20.00    -0.120 Cl
ENDBRANCH   2   4
ENDBRANCH   1   2
BRANCH   1   6
HETATM    6  C6  UNL     1     -34.329   5.680   4.952  1.00 20.00     0.060 C 
HETATM    7  C2  UNL     1     -34.052   4.292   4.377  1.00 20.00     0.045 C 
HETATM    8  C3  UNL     1     -34.549   5.603   6.461  1.00 20.00     0.045 C 
HETATM    9  C4  UNL     1     -35.535   6.324   4.267  1.00 20.00     0.045 C 
ENDBRANCH   1   6
TORSDOF 3
ENDMDL
MODEL 4
REMARK VINA RESULT:      -3.5      1.879      3.506
REMARK  3 active torsions:
REMARK  status: ('A' for Active; 'I' for Inactive)
REMARK    1  A    between atoms: C1_1  and  C5_5 
REMARK    2  A    between atoms: C1_1  and  O8_8 
REMARK    3  A    between atoms: C6_6  and  O8_8 
ROOT
HETATM    1  O8  UNL     1     -34.089   8.008   4.333  1.00 20.00    -0.310 OA
ENDROOT
BRANCH   1   2
HETATM    2  C1  UNL     1     -34.125   6.979   5.236  1.00 20.00     0.273 C 
HETATM    3  O7  UNL     1     -33.518   6.945   6.297  1.00 20.00    -0.264 OA
BRANCH   2   4
HETATM    4  C5  UNL     1     -35.035   5.906   4.702  1.00 20.00     0.225 C 
HETATM    5 CL9  UNL     1     -34.149   4.381   4.539  1.00 20.00    -0.120 Cl
ENDBRANCH   2   4
ENDBRANCH   1   2
BRANCH   1   6
HETATM    6  C6  UNL     1     -32.803   8.306   3.787  1.00 20.00     0.060 C 
HETATM    7  C2  UNL     1     -32.212   7.023   3.204  1.00 20.00     0.045 C 
HETATM    8  C3  UNL     1     -33.000   9.353   2.692  1.00 20.00     0.045 C 
HETATM    9  C4  UNL     1     -31.917   8.857   4.903  1.00 20.00     0.045 C 
ENDBRANCH   1   6
TORSDOF 3
ENDMDL
MODEL 5
REMARK VINA RESULT:      -3.5      1.877      3.501
REMARK  3 active torsions:
REMARK  status: ('A' for Active; 'I' for Inactive)
REMARK    1  A    between atoms: C1_1  and  C5_5 
REMARK    2  A    between atoms: C1_1  and  O8_8 
REMARK    3  A    between atoms: C6_6  and  O8_8 
ROOT
HETATM    1  O8  UNL     1     -34.090   8.010   4.328  1.00 20.00    -0.310 OA
ENDROOT
BRANCH   1   2
HETATM    2  C1  UNL     1     -34.119   6.982   5.231  1.00 20.00     0.273 C 
HETATM    3  O7  UNL     1     -33.505   6.949   6.288  1.00 20.00    -0.264 OA
BRANCH   2   4
HETATM    4  C5  UNL     1     -35.032   5.909   4.705  1.00 20.00     0.225 C 
HETATM    5 CL9  UNL     1     -34.149   4.382   4.541  1.00 20.00    -0.120 Cl
ENDBRANCH   2   4
ENDBRANCH   1   2
BRANCH   1   6
HETATM    6  C6  UNL     1     -32.808   8.308   3.772  1.00 20.00     0.060 C 
HETATM    7  C2  UNL     1     -32.985   9.358   2.675  1.00 20.00     0.045 C 
HETATM    8  C3  UNL     1     -31.931   8.850   4.899  1.00 20.00     0.045 C 
HETATM    9  C4  UNL     1     -32.215   7.020   3.202  1.00 20.00     0.045 C 
ENDBRANCH   1   6
TORSDOF 3
ENDMDL
MODEL 6
REMARK VINA RESULT:      -3.4      1.452      1.575
REMARK  3 active torsions:
REMARK  status: ('A' for Active; 'I' for Inactive)
REMARK    1  A    between atoms: C1_1  and  C5_5 
REMARK    2  A    between atoms: C1_1  and  O8_8 
REMARK    3  A    between atoms: C6_6  and  O8_8 
ROOT
HETATM    1  O8  UNL     1     -33.073   6.234   4.753  1.00 20.00    -0.310 OA
ENDROOT
BRANCH   1   2
HETATM    2  C1  UNL     1     -32.839   7.334   3.972  1.00 20.00     0.273 C 
HETATM    3  O7  UNL     1     -32.903   8.496   4.347  1.00 20.00    -0.264 OA
BRANCH   2   4
HETATM    4  C5  UNL     1     -32.492   6.870   2.584  1.00 20.00     0.225 C 
HETATM    5 CL9  UNL     1     -32.792   5.132   2.428  1.00 20.00    -0.120 Cl
ENDBRANCH   2   4
ENDBRANCH   1   2
BRANCH   1   6
HETATM    6  C6  UNL     1     -34.312   6.232   5.464  1.00 20.00     0.060 C 
HETATM    7  C2  UNL     1     -35.451   6.395   4.458  1.00 20.00     0.045 C 
HETATM    8  C3  UNL     1     -34.424   4.893   6.190  1.00 20.00     0.045 C 
HETATM    9  C4  UNL     1     -34.299   7.387   6.465  1.00 20.00     0.045 C 
ENDBRANCH   1   6
TORSDOF 3
ENDMDL
MODEL 7
REMARK VINA RESULT:      -3.2      1.384      2.874
REMARK  3 active torsions:
REMARK  status: ('A' for Active; 'I' for Inactive)
REMARK    1  A    between atoms: C1_1  and  C5_5 
REMARK    2  A    between atoms: C1_1  and  O8_8 
REMARK    3  A    between atoms: C6_6  and  O8_8 
ROOT
HETATM    1  O8  UNL     1     -33.219   5.981   4.629  1.00 20.00    -0.310 OA
ENDROOT
BRANCH   1   2
HETATM    2  C1  UNL     1     -33.456   4.922   3.793  1.00 20.00     0.273 C 
HETATM    3  O7  UNL     1     -34.003   3.876   4.112  1.00 20.00    -0.264 OA
BRANCH   2   4
HETATM    4  C5  UNL     1     -32.931   5.265   2.426  1.00 20.00     0.225 C 
HETATM    5 CL9  UNL     1     -32.263   6.906   2.423  1.00 20.00    -0.120 Cl
ENDBRANCH   2   4
ENDBRANCH   1   2
BRANCH   1   6
HETATM    6  C6  UNL     1     -34.367   6.517   5.288  1.00 20.00     0.060 C 
HETATM    7  C2  UNL     1     -34.546   5.793   6.622  1.00 20.00     0.045 C 
HETATM    8  C3  UNL     1     -34.115   8.006   5.514  1.00 20.00     0.045 C 
HETATM    9  C4  UNL     1     -35.585   6.310   4.388  1.00 20.00     0.045 C 
ENDBRANCH   1   6
TORSDOF 3
ENDMDL
MODEL 8
REMARK VINA RESULT:      -3.2     16.458     17.257
REMARK  3 active torsions:
REMARK  status: ('A' for Active; 'I' for Inactive)
REMARK    1  A    between atoms: C1_1  and  C5_5 
REMARK    2  A    between atoms: C1_1  and  O8_8 
REMARK    3  A    between atoms: C6_6  and  O8_8 
ROOT
HETATM    1  O8  UNL     1     -23.296  19.214  10.452  1.00 20.00    -0.310 OA
ENDROOT
BRANCH   1   2
HETATM    2  C1  UNL     1     -22.985  18.563  11.616  1.00 20.00     0.273 C 
HETATM    3  O7  UNL     1     -21.854  18.305  12.003  1.00 20.00    -0.264 OA
BRANCH   2   4
HETATM    4  C5  UNL     1     -24.264  18.222  12.330  1.00 20.00     0.225 C 
HETATM    5 CL9  UNL     1     -25.649  18.903  11.460  1.00 20.00    -0.120 Cl
ENDBRANCH   2   4
ENDBRANCH   1   2
BRANCH   1   6
HETATM    6  C6  UNL     1     -22.708  18.678   9.267  1.00 20.00     0.060 C 
HETATM    7  C2  UNL     1     -23.565  19.086   8.069  1.00 20.00     0.045 C 
HETATM    8  C3  UNL     1     -21.302  19.262   9.145  1.00 20.00     0.045 C 
HETATM    9  C4  UNL     1     -22.647  17.156   9.400  1.00 20.00     0.045 C 
ENDBRANCH   1   6
TORSDOF 3
ENDMDL
MODEL 9
REMARK VINA RESULT:      -3.1      8.982      9.832
REMARK  3 active torsions:
REMARK  status: ('A' for Active; 'I' for Inactive)
REMARK    1  A    between atoms: C1_1  and  C5_5 
REMARK    2  A    between atoms: C1_1  and  O8_8 
REMARK    3  A    between atoms: C6_6  and  O8_8 
ROOT
HETATM    1  O8  UNL     1     -41.416  12.255   6.637  1.00 20.00    -0.310 OA
ENDROOT
BRANCH   1   2
HETATM    2  C1  UNL     1     -40.115  12.182   6.216  1.00 20.00     0.273 C 
HETATM    3  O7  UNL     1     -39.156  11.910   6.923  1.00 20.00    -0.264 OA
BRANCH   2   4
HETATM    4  C5  UNL     1     -40.071  12.491   4.745  1.00 20.00     0.225 C 
HETATM    5 CL9  UNL     1     -38.731  11.621   3.979  1.00 20.00    -0.120 Cl
ENDBRANCH   2   4
ENDBRANCH   1   2
BRANCH   1   6
HETATM    6  C6  UNL     1     -41.836  13.528   7.131  1.00 20.00     0.060 C 
HETATM    7  C2  UNL     1     -42.554  14.274   6.007  1.00 20.00     0.045 C 
HETATM    8  C3  UNL     1     -42.784  13.278   8.302  1.00 20.00     0.045 C 
HETATM    9  C4  UNL     1     -40.601  14.300   7.596  1.00 20.00     0.045 C 
ENDBRANCH   1   6
TORSDOF 3
ENDMDL
