MODEL 1
REMARK VINA RESULT:      -3.2      0.000      0.000
REMARK  0 active torsions:
REMARK  status: ('A' for Active; 'I' for Inactive)
ROOT
HETATM    1  C1  UNL     1     -40.292  13.084   6.278  1.00 20.00    -0.007 C 
HETATM    2  C2  UNL     1     -41.172  13.665   5.196  1.00 20.00     0.056 C 
HETATM    3  C3  UNL     1     -40.416  15.001   7.730  1.00 20.00     0.011 C 
HETATM    4  C4  UNL     1     -41.351  15.663   6.693  1.00 20.00     0.011 C 
HETATM    5  C5  UNL     1     -40.800  13.511   7.644  1.00 20.00     0.034 C 
HETATM    6  C6  UNL     1     -42.152  14.460   6.114  1.00 20.00    -0.032 C 
HETATM    7  C7  UNL     1     -42.326  13.538   7.364  1.00 20.00    -0.032 C 
HETATM    8  C8  UNL     1     -43.417  14.878   5.391  1.00 20.00     0.016 C 
HETATM    9  C9  UNL     1     -43.156  14.143   8.513  1.00 20.00     0.016 C 
HETATM   10  C10 UNL     1     -42.926  12.145   7.084  1.00 20.00     0.016 C 
HETATM   11  S11 UNL     1     -38.956  12.136   6.005  1.00 20.00    -0.089 SA
ENDROOT
TORSDOF 0
ENDMDL
MODEL 2
REMARK VINA RESULT:      -3.0      2.129      3.187
REMARK  0 active torsions:
REMARK  status: ('A' for Active; 'I' for Inactive)
ROOT
HETATM    1  C1  UNL     1     -41.963  15.880   6.868  1.00 20.00    -0.007 C 
HETATM    2  C2  UNL     1     -43.101  14.922   7.136  1.00 20.00     0.056 C 
HETATM    3  C3  UNL     1     -40.441  14.874   8.441  1.00 20.00     0.011 C 
HETATM    4  C4  UNL     1     -41.537  13.830   8.756  1.00 20.00     0.011 C 
HETATM    5  C5  UNL     1     -40.638  15.141   6.935  1.00 20.00     0.034 C 
HETATM    6  C6  UNL     1     -42.253  13.637   7.387  1.00 20.00    -0.032 C 
HETATM    7  C7  UNL     1     -41.073  13.763   6.369  1.00 20.00    -0.032 C 
HETATM    8  C8  UNL     1     -43.082  12.370   7.321  1.00 20.00     0.016 C 
HETATM    9  C9  UNL     1     -39.988  12.674   6.488  1.00 20.00     0.016 C 
HETATM   10  C10 UNL     1     -41.480  13.808   4.882  1.00 20.00     0.016 C 
HETATM   11  S11 UNL     1     -42.141  17.503   6.566  1.00 20.00    -0.089 SA
ENDROOT
TORSDOF 0
ENDMDL
MODEL 3
REMARK VINA RESULT:      -3.0      1.004      2.453
REMARK  0 active torsions:
REMARK  status: ('A' for Active; 'I' for Inactive)
ROOT
HETATM    1  C1  UNL     1     -40.795  12.839   5.779  1.00 20.00    -0.007 C 
HETATM    2  C2  UNL     1     -41.772  12.201   6.739  1.00 20.00     0.056 C 
HETATM    3  C3  UNL     1     -42.355  14.450   4.900  1.00 20.00     0.011 C 
HETATM    4  C4  UNL     1     -43.413  13.882   5.873  1.00 20.00     0.011 C 
HETATM    5  C5  UNL     1     -41.045  14.335   5.703  1.00 20.00     0.034 C 
HETATM    6  C6  UNL     1     -42.573  13.484   7.122  1.00 20.00    -0.032 C 
HETATM    7  C7  UNL     1     -41.484  14.605   7.167  1.00 20.00    -0.032 C 
HETATM    8  C8  UNL     1     -43.413  13.296   8.371  1.00 20.00     0.016 C 
HETATM    9  C9  UNL     1     -42.022  16.032   7.399  1.00 20.00     0.016 C 
HETATM   10  C10 UNL     1     -40.356  14.396   8.197  1.00 20.00     0.016 C 
HETATM   11  S11 UNL     1     -39.636  12.016   4.920  1.00 20.00    -0.089 SA
ENDROOT
TORSDOF 0
ENDMDL
MODEL 4
REMARK VINA RESULT:      -3.0      2.021      3.316
REMARK  0 active torsions:
REMARK  status: ('A' for Active; 'I' for Inactive)
ROOT
HETATM    1  C1  UNL     1     -42.475  14.696   5.337  1.00 20.00    -0.007 C 
HETATM    2  C2  UNL     1     -41.313  13.795   4.988  1.00 20.00     0.056 C 
HETATM    3  C3  UNL     1     -43.417  13.223   6.993  1.00 20.00     0.011 C 
HETATM    4  C4  UNL     1     -42.244  12.253   6.726  1.00 20.00     0.011 C 
HETATM    5  C5  UNL     1     -42.767  14.611   6.824  1.00 20.00     0.034 C 
HETATM    6  C6  UNL     1     -41.055  13.208   6.410  1.00 20.00    -0.032 C 
HETATM    7  C7  UNL     1     -41.328  14.413   7.368  1.00 20.00    -0.032 C 
HETATM    8  C8  UNL     1     -39.702  12.534   6.526  1.00 20.00     0.016 C 
HETATM    9  C9  UNL     1     -41.273  14.079   8.872  1.00 20.00     0.016 C 
HETATM   10  C10 UNL     1     -40.418  15.642   7.164  1.00 20.00     0.016 C 
HETATM   11  S11 UNL     1     -43.317  15.623   4.245  1.00 20.00    -0.089 SA
ENDROOT
TORSDOF 0
ENDMDL
MODEL 5
REMARK VINA RESULT:      -3.0     20.864     22.010
REMARK  0 active torsions:
REMARK  status: ('A' for Active; 'I' for Inactive)
ROOT
HETATM    1  C1  UNL     1     -25.584  -2.211  11.416  1.00 20.00    -0.007 C 
HETATM    2  C2  UNL     1     -26.149  -2.720  10.110  1.00 20.00     0.056 C 
HETATM    3  C3  UNL     1     -26.939  -0.222  11.493  1.00 20.00     0.011 C 
HETATM    4  C4  UNL     1     -27.598  -0.680  10.172  1.00 20.00     0.011 C 
HETATM    5  C5  UNL     1     -26.680  -1.550  12.232  1.00 20.00     0.034 C 
HETATM    6  C6  UNL     1     -27.618  -2.232  10.301  1.00 20.00    -0.032 C 
HETATM    7  C7  UNL     1     -27.886  -2.439  11.828  1.00 20.00    -0.032 C 
HETATM    8  C8  UNL     1     -28.584  -2.897   9.341  1.00 20.00     0.016 C 
HETATM    9  C9  UNL     1     -29.244  -1.909  12.332  1.00 20.00     0.016 C 
HETATM   10  C10 UNL     1     -27.776  -3.893  12.330  1.00 20.00     0.016 C 
HETATM   11  S11 UNL     1     -23.993  -2.342  11.875  1.00 20.00    -0.089 SA
ENDROOT
TORSDOF 0
ENDMDL
MODEL 6
REMARK VINA RESULT:      -2.9     13.480     14.694
REMARK  0 active torsions:
REMARK  status: ('A' for Active; 'I' for Inactive)
ROOT
HETATM    1  C1  UNL     1     -35.029  17.299  -4.517  1.00 20.00    -0.007 C 
HETATM    2  C2  UNL     1     -36.384  17.375  -5.182  1.00 20.00     0.056 C 
HETATM    3  C3  UNL     1     -34.684  14.958  -4.964  1.00 20.00     0.011 C 
HETATM    4  C4  UNL     1     -36.047  14.948  -5.694  1.00 20.00     0.011 C 
HETATM    5  C5  UNL     1     -34.125  16.357  -5.291  1.00 20.00     0.034 C 
HETATM    6  C6  UNL     1     -36.117  16.364  -6.339  1.00 20.00    -0.032 C 
HETATM    7  C7  UNL     1     -34.628  16.629  -6.733  1.00 20.00    -0.032 C 
HETATM    8  C8  UNL     1     -37.147  16.463  -7.448  1.00 20.00     0.016 C 
HETATM    9  C9  UNL     1     -34.047  15.663  -7.785  1.00 20.00     0.016 C 
HETATM   10  C10 UNL     1     -34.317  18.054  -7.236  1.00 20.00     0.016 C 
HETATM   11  S11 UNL     1     -34.606  18.114  -3.133  1.00 20.00    -0.089 SA
ENDROOT
TORSDOF 0
ENDMDL
MODEL 7
REMARK VINA RESULT:      -2.8     23.057     24.527
REMARK  0 active torsions:
REMARK  status: ('A' for Active; 'I' for Inactive)
ROOT
HETATM    1  C1  UNL     1     -23.753  -3.389   9.492  1.00 20.00    -0.007 C 
HETATM    2  C2  UNL     1     -23.490  -2.076  10.192  1.00 20.00     0.056 C 
HETATM    3  C3  UNL     1     -23.656  -4.737  11.485  1.00 20.00     0.011 C 
HETATM    4  C4  UNL     1     -23.415  -3.439  12.290  1.00 20.00     0.011 C 
HETATM    5  C5  UNL     1     -24.615  -4.280  10.368  1.00 20.00     0.034 C 
HETATM    6  C6  UNL     1     -24.254  -2.379  11.519  1.00 20.00    -0.032 C 
HETATM    7  C7  UNL     1     -25.497  -3.205  11.055  1.00 20.00    -0.032 C 
HETATM    8  C8  UNL     1     -24.528  -1.128  12.331  1.00 20.00     0.016 C 
HETATM    9  C9  UNL     1     -26.377  -3.759  12.194  1.00 20.00     0.016 C 
HETATM   10  C10 UNL     1     -26.452  -2.480  10.084  1.00 20.00     0.016 C 
HETATM   11  S11 UNL     1     -23.164  -3.798   7.993  1.00 20.00    -0.089 SA
ENDROOT
TORSDOF 0
ENDMDL
MODEL 8
REMARK VINA RESULT:      -2.8     13.243     14.705
REMARK  0 active torsions:
REMARK  status: ('A' for Active; 'I' for Inactive)
ROOT
HETATM    1  C1  UNL     1     -34.394  17.783  -5.197  1.00 20.00    -0.007 C 
HETATM    2  C2  UNL     1     -34.456  16.365  -4.678  1.00 20.00     0.056 C 
HETATM    3  C3  UNL     1     -34.350  17.173  -7.527  1.00 20.00     0.011 C 
HETATM    4  C4  UNL     1     -34.445  15.694  -7.090  1.00 20.00     0.011 C 
HETATM    5  C5  UNL     1     -35.208  17.903  -6.473  1.00 20.00     0.034 C 
HETATM    6  C6  UNL     1     -35.335  15.754  -5.814  1.00 20.00    -0.032 C 
HETATM    7  C7  UNL     1     -36.345  16.895  -6.160  1.00 20.00    -0.032 C 
HETATM    8  C8  UNL     1     -35.925  14.409  -5.434  1.00 20.00     0.016 C 
HETATM    9  C9  UNL     1     -37.268  16.609  -7.362  1.00 20.00     0.016 C 
HETATM   10  C10 UNL     1     -37.264  17.342  -5.005  1.00 20.00     0.016 C 
HETATM   11  S11 UNL     1     -33.543  19.017  -4.482  1.00 20.00    -0.089 SA
ENDROOT
TORSDOF 0
ENDMDL
MODEL 9
REMARK VINA RESULT:      -2.8      2.163      3.318
REMARK  0 active torsions:
REMARK  status: ('A' for Active; 'I' for Inactive)
ROOT
HETATM    1  C1  UNL     1     -42.319  15.915   7.110  1.00 20.00    -0.007 C 
HETATM    2  C2  UNL     1     -40.923  15.348   6.983  1.00 20.00     0.056 C 
HETATM    3  C3  UNL     1     -43.241  14.673   5.264  1.00 20.00     0.011 C 
HETATM    4  C4  UNL     1     -41.854  14.015   5.079  1.00 20.00     0.011 C 
HETATM    5  C5  UNL     1     -43.344  14.842   6.793  1.00 20.00     0.034 C 
HETATM    6  C6  UNL     1     -41.313  13.905   6.535  1.00 20.00    -0.032 C 
HETATM    7  C7  UNL     1     -42.609  13.597   7.353  1.00 20.00    -0.032 C 
HETATM    8  C8  UNL     1     -40.167  12.923   6.673  1.00 20.00     0.016 C 
HETATM    9  C9  UNL     1     -43.299  12.261   7.008  1.00 20.00     0.016 C 
HETATM   10  C10 UNL     1     -42.446  13.615   8.887  1.00 20.00     0.016 C 
HETATM   11  S11 UNL     1     -42.669  17.488   7.516  1.00 20.00    -0.089 SA
ENDROOT
TORSDOF 0
ENDMDL
