MODEL 1
REMARK VINA RESULT:      -6.1      0.000      0.000
REMARK  0 active torsions:
REMARK  status: ('A' for Active; 'I' for Inactive)
ROOT
HETATM    1  C1  UNL     1     -32.593   6.871   2.914  1.00 20.00     0.003 C 
HETATM    2  C2  UNL     1     -32.939   5.591   2.741  1.00 20.00    -0.025 C 
HETATM    3  C3  UNL     1     -32.824   7.566   4.172  1.00 20.00    -0.059 C 
HETATM    4  C4  UNL     1     -33.684   7.058   5.090  1.00 20.00    -0.070 C 
HETATM    5  C5  UNL     1     -33.605   4.817   3.834  1.00 20.00     0.040 C 
HETATM    6  C6  UNL     1     -34.397   5.708   4.838  1.00 20.00    -0.021 C 
HETATM    7  C7  UNL     1     -32.050   8.848   4.309  1.00 20.00     0.048 C 
HETATM    8  C8  UNL     1     -34.042   7.783   6.365  1.00 20.00     0.044 C 
HETATM    9  C9  UNL     1     -35.799   6.000   4.257  1.00 20.00     0.020 C 
HETATM   10  C10 UNL     1     -34.568   4.883   6.132  1.00 20.00     0.020 C 
ENDROOT
TORSDOF 0
ENDMDL
MODEL 2
REMARK VINA RESULT:      -5.1      1.026      3.337
REMARK  0 active torsions:
REMARK  status: ('A' for Active; 'I' for Inactive)
ROOT
HETATM    1  C1  UNL     1     -34.426   5.063   4.670  1.00 20.00     0.003 C 
HETATM    2  C2  UNL     1     -34.597   5.645   5.862  1.00 20.00    -0.025 C 
HETATM    3  C3  UNL     1     -33.508   5.600   3.677  1.00 20.00    -0.059 C 
HETATM    4  C4  UNL     1     -33.047   6.871   3.783  1.00 20.00    -0.070 C 
HETATM    5  C5  UNL     1     -33.861   6.897   6.221  1.00 20.00     0.040 C 
HETATM    6  C6  UNL     1     -33.449   7.756   4.987  1.00 20.00    -0.021 C 
HETATM    7  C7  UNL     1     -33.170   4.632   2.577  1.00 20.00     0.048 C 
HETATM    8  C8  UNL     1     -32.176   7.515   2.732  1.00 20.00     0.044 C 
HETATM    9  C9  UNL     1     -34.646   8.638   4.563  1.00 20.00     0.020 C 
HETATM   10  C10 UNL     1     -32.301   8.681   5.447  1.00 20.00     0.020 C 
ENDROOT
TORSDOF 0
ENDMDL
MODEL 3
REMARK VINA RESULT:      -4.4      0.984      2.742
REMARK  0 active torsions:
REMARK  status: ('A' for Active; 'I' for Inactive)
ROOT
HETATM    1  C1  UNL     1     -32.474   8.440   4.551  1.00 20.00     0.003 C 
HETATM    2  C2  UNL     1     -33.374   8.571   5.532  1.00 20.00    -0.025 C 
HETATM    3  C3  UNL     1     -32.556   7.369   3.570  1.00 20.00    -0.059 C 
HETATM    4  C4  UNL     1     -33.338   6.285   3.800  1.00 20.00    -0.070 C 
HETATM    5  C5  UNL     1     -34.502   7.599   5.677  1.00 20.00     0.040 C 
HETATM    6  C6  UNL     1     -34.195   6.190   5.085  1.00 20.00    -0.021 C 
HETATM    7  C7  UNL     1     -31.703   7.593   2.353  1.00 20.00     0.048 C 
HETATM    8  C8  UNL     1     -33.385   5.097   2.869  1.00 20.00     0.044 C 
HETATM    9  C9  UNL     1     -33.412   5.363   6.131  1.00 20.00     0.020 C 
HETATM   10  C10 UNL     1     -35.555   5.501   4.837  1.00 20.00     0.020 C 
ENDROOT
TORSDOF 0
ENDMDL
MODEL 4
REMARK VINA RESULT:      -4.0      0.946      3.226
REMARK  0 active torsions:
REMARK  status: ('A' for Active; 'I' for Inactive)
ROOT
HETATM    1  C1  UNL     1     -33.508   5.042   3.789  1.00 20.00     0.003 C 
HETATM    2  C2  UNL     1     -32.945   5.367   2.620  1.00 20.00    -0.025 C 
HETATM    3  C3  UNL     1     -33.972   6.054   4.726  1.00 20.00    -0.059 C 
HETATM    4  C4  UNL     1     -33.560   7.340   4.609  1.00 20.00    -0.070 C 
HETATM    5  C5  UNL     1     -32.746   6.798   2.233  1.00 20.00     0.040 C 
HETATM    6  C6  UNL     1     -32.629   7.766   3.449  1.00 20.00    -0.021 C 
HETATM    7  C7  UNL     1     -34.896   5.520   5.787  1.00 20.00     0.048 C 
HETATM    8  C8  UNL     1     -33.925   8.411   5.609  1.00 20.00     0.044 C 
HETATM    9  C9  UNL     1     -31.172   7.753   3.965  1.00 20.00     0.020 C 
HETATM   10  C10 UNL     1     -32.949   9.184   2.927  1.00 20.00     0.020 C 
ENDROOT
TORSDOF 0
ENDMDL
MODEL 5
REMARK VINA RESULT:      -3.9      1.091      3.885
REMARK  0 active torsions:
REMARK  status: ('A' for Active; 'I' for Inactive)
ROOT
HETATM    1  C1  UNL     1     -34.408   7.222   5.821  1.00 20.00     0.003 C 
HETATM    2  C2  UNL     1     -33.629   8.296   5.994  1.00 20.00    -0.025 C 
HETATM    3  C3  UNL     1     -34.112   6.212   4.816  1.00 20.00    -0.059 C 
HETATM    4  C4  UNL     1     -33.243   6.477   3.809  1.00 20.00    -0.070 C 
HETATM    5  C5  UNL     1     -32.422   8.518   5.138  1.00 20.00     0.040 C 
HETATM    6  C6  UNL     1     -32.514   7.840   3.738  1.00 20.00    -0.021 C 
HETATM    7  C7  UNL     1     -34.859   4.921   5.014  1.00 20.00     0.048 C 
HETATM    8  C8  UNL     1     -32.975   5.508   2.683  1.00 20.00     0.044 C 
HETATM    9  C9  UNL     1     -33.303   8.764   2.781  1.00 20.00     0.020 C 
HETATM   10  C10 UNL     1     -31.070   7.708   3.207  1.00 20.00     0.020 C 
ENDROOT
TORSDOF 0
ENDMDL
MODEL 6
REMARK VINA RESULT:      -3.9     12.346     13.647
REMARK  0 active torsions:
REMARK  status: ('A' for Active; 'I' for Inactive)
ROOT
HETATM    1  C1  UNL     1     -33.108  15.469  -3.816  1.00 20.00     0.003 C 
HETATM    2  C2  UNL     1     -33.710  14.684  -4.716  1.00 20.00    -0.025 C 
HETATM    3  C3  UNL     1     -33.706  16.715  -3.361  1.00 20.00    -0.059 C 
HETATM    4  C4  UNL     1     -34.716  17.289  -4.062  1.00 20.00    -0.070 C 
HETATM    5  C5  UNL     1     -35.025  15.067  -5.316  1.00 20.00     0.040 C 
HETATM    6  C6  UNL     1     -35.283  16.605  -5.328  1.00 20.00    -0.021 C 
HETATM    7  C7  UNL     1     -33.087  17.262  -2.104  1.00 20.00     0.048 C 
HETATM    8  C8  UNL     1     -35.305  18.630  -3.697  1.00 20.00     0.044 C 
HETATM    9  C9  UNL     1     -34.594  17.223  -6.565  1.00 20.00     0.020 C 
HETATM   10  C10 UNL     1     -36.809  16.803  -5.470  1.00 20.00     0.020 C 
ENDROOT
TORSDOF 0
ENDMDL
MODEL 7
REMARK VINA RESULT:      -3.8     15.711     17.039
REMARK  0 active torsions:
REMARK  status: ('A' for Active; 'I' for Inactive)
ROOT
HETATM    1  C1  UNL     1     -21.559  18.197  10.032  1.00 20.00     0.003 C 
HETATM    2  C2  UNL     1     -21.456  18.155  11.365  1.00 20.00    -0.025 C 
HETATM    3  C3  UNL     1     -22.792  18.595   9.368  1.00 20.00    -0.059 C 
HETATM    4  C4  UNL     1     -23.964  18.616  10.050  1.00 20.00    -0.070 C 
HETATM    5  C5  UNL     1     -22.621  18.497  12.238  1.00 20.00     0.040 C 
HETATM    6  C6  UNL     1     -24.004  18.266  11.557  1.00 20.00    -0.021 C 
HETATM    7  C7  UNL     1     -22.615  18.940   7.915  1.00 20.00     0.048 C 
HETATM    8  C8  UNL     1     -25.288  18.920   9.392  1.00 20.00     0.044 C 
HETATM    9  C9  UNL     1     -24.395  16.777  11.700  1.00 20.00     0.020 C 
HETATM   10  C10 UNL     1     -25.034  19.117  12.332  1.00 20.00     0.020 C 
ENDROOT
TORSDOF 0
ENDMDL
MODEL 8
REMARK VINA RESULT:      -3.8     12.179     13.696
REMARK  0 active torsions:
REMARK  status: ('A' for Active; 'I' for Inactive)
ROOT
HETATM    1  C1  UNL     1     -33.454  17.175  -3.619  1.00 20.00     0.003 C 
HETATM    2  C2  UNL     1     -33.099  15.889  -3.522  1.00 20.00    -0.025 C 
HETATM    3  C3  UNL     1     -34.700  17.583  -4.251  1.00 20.00    -0.059 C 
HETATM    4  C4  UNL     1     -35.380  16.723  -5.049  1.00 20.00    -0.070 C 
HETATM    5  C5  UNL     1     -33.966  14.807  -4.084  1.00 20.00     0.040 C 
HETATM    6  C6  UNL     1     -34.872  15.278  -5.262  1.00 20.00    -0.021 C 
HETATM    7  C7  UNL     1     -35.103  18.999  -3.941  1.00 20.00     0.048 C 
HETATM    8  C8  UNL     1     -36.621  17.121  -5.811  1.00 20.00     0.044 C 
HETATM    9  C9  UNL     1     -34.055  15.238  -6.574  1.00 20.00     0.020 C 
HETATM   10  C10 UNL     1     -36.026  14.258  -5.376  1.00 20.00     0.020 C 
ENDROOT
TORSDOF 0
ENDMDL
MODEL 9
REMARK VINA RESULT:      -3.7     12.400     14.048
REMARK  0 active torsions:
REMARK  status: ('A' for Active; 'I' for Inactive)
ROOT
HETATM    1  C1  UNL     1     -34.603  18.189  -3.952  1.00 20.00     0.003 C 
HETATM    2  C2  UNL     1     -34.973  18.535  -5.190  1.00 20.00    -0.025 C 
HETATM    3  C3  UNL     1     -33.976  16.907  -3.667  1.00 20.00    -0.059 C 
HETATM    4  C4  UNL     1     -34.043  15.894  -4.567  1.00 20.00    -0.070 C 
HETATM    5  C5  UNL     1     -34.776  17.601  -6.342  1.00 20.00     0.040 C 
HETATM    6  C6  UNL     1     -34.744  16.098  -5.931  1.00 20.00    -0.021 C 
HETATM    7  C7  UNL     1     -33.302  16.845  -2.324  1.00 20.00     0.048 C 
HETATM    8  C8  UNL     1     -33.502  14.513  -4.285  1.00 20.00     0.044 C 
HETATM    9  C9  UNL     1     -36.193  15.575  -5.817  1.00 20.00     0.020 C 
HETATM   10  C10 UNL     1     -34.039  15.335  -7.075  1.00 20.00     0.020 C 
ENDROOT
TORSDOF 0
ENDMDL
