MODEL 1
REMARK VINA RESULT:      -4.3      0.000      0.000
REMARK  3 active torsions:
REMARK  status: ('A' for Active; 'I' for Inactive)
REMARK    1  A    between atoms: C2_2  and  C7_7 
REMARK    2  A    between atoms: C5_5  and  C6_6 
REMARK    3  A    between atoms: C6_6  and  C7_7 
ROOT
HETATM    1  C4  UNL     1     -34.415   6.802   6.816  1.00 20.00     0.012 C 
HETATM    2  C7  UNL     1     -33.780   6.770   5.425  1.00 20.00     0.012 C 
ENDROOT
BRANCH   2   3
HETATM    3  C2  UNL     1     -34.593   5.853   4.508  1.00 20.00     0.149 A 
HETATM    4  C1  UNL     1     -33.973   4.644   3.866  1.00 20.00     0.200 A 
HETATM    5  O8  UNL     1     -34.814   4.536   5.025  1.00 20.00    -0.381 OA
ENDBRANCH   2   3
BRANCH   2   6
HETATM    6  C6  UNL     1     -33.669   8.171   4.796  1.00 20.00     0.006 C 
BRANCH   6   7
HETATM    7  C5  UNL     1     -32.284   8.472   4.220  1.00 20.00    -0.004 C 
HETATM    8  C3  UNL     1     -32.078   7.780   2.881  1.00 20.00     0.005 C 
ENDBRANCH   6   7
ENDBRANCH   2   6
TORSDOF 3
ENDMDL
MODEL 2
REMARK VINA RESULT:      -4.2      2.015      3.857
REMARK  3 active torsions:
REMARK  status: ('A' for Active; 'I' for Inactive)
REMARK    1  A    between atoms: C2_2  and  C7_7 
REMARK    2  A    between atoms: C5_5  and  C6_6 
REMARK    3  A    between atoms: C6_6  and  C7_7 
ROOT
HETATM    1  C4  UNL     1     -32.963   5.166   2.605  1.00 20.00     0.012 C 
HETATM    2  C7  UNL     1     -33.301   5.945   3.877  1.00 20.00     0.012 C 
ENDROOT
BRANCH   2   3
HETATM    3  C2  UNL     1     -33.169   7.447   3.613  1.00 20.00     0.149 A 
HETATM    4  C1  UNL     1     -32.190   8.289   4.382  1.00 20.00     0.200 A 
HETATM    5  O8  UNL     1     -31.917   7.844   3.045  1.00 20.00    -0.381 OA
ENDBRANCH   2   3
BRANCH   2   6
HETATM    6  C6  UNL     1     -34.715   5.630   4.401  1.00 20.00     0.006 C 
BRANCH   6   7
HETATM    7  C5  UNL     1     -34.759   5.354   5.906  1.00 20.00    -0.004 C 
HETATM    8  C3  UNL     1     -34.407   6.598   6.708  1.00 20.00     0.005 C 
ENDBRANCH   6   7
ENDBRANCH   2   6
TORSDOF 3
ENDMDL
MODEL 3
REMARK VINA RESULT:      -4.0      2.015      3.410
REMARK  3 active torsions:
REMARK  status: ('A' for Active; 'I' for Inactive)
REMARK    1  A    between atoms: C2_2  and  C7_7 
REMARK    2  A    between atoms: C5_5  and  C6_6 
REMARK    3  A    between atoms: C6_6  and  C7_7 
ROOT
HETATM    1  C4  UNL     1     -34.026   9.096   5.913  1.00 20.00     0.012 C 
HETATM    2  C7  UNL     1     -33.686   7.752   5.266  1.00 20.00     0.012 C 
ENDROOT
BRANCH   2   3
HETATM    3  C2  UNL     1     -32.407   7.889   4.437  1.00 20.00     0.149 A 
HETATM    4  C1  UNL     1     -32.301   7.289   3.063  1.00 20.00     0.200 A 
HETATM    5  O8  UNL     1     -32.542   8.691   3.259  1.00 20.00    -0.381 OA
ENDBRANCH   2   3
BRANCH   2   6
HETATM    6  C6  UNL     1     -33.519   6.626   6.302  1.00 20.00     0.006 C 
BRANCH   6   7
HETATM    7  C5  UNL     1     -34.602   5.548   6.211  1.00 20.00    -0.004 C 
HETATM    8  C3  UNL     1     -34.772   5.054   4.782  1.00 20.00     0.005 C 
ENDBRANCH   6   7
ENDBRANCH   2   6
TORSDOF 3
ENDMDL
MODEL 4
REMARK VINA RESULT:      -3.9      1.914      3.139
REMARK  3 active torsions:
REMARK  status: ('A' for Active; 'I' for Inactive)
REMARK    1  A    between atoms: C2_2  and  C7_7 
REMARK    2  A    between atoms: C5_5  and  C6_6 
REMARK    3  A    between atoms: C6_6  and  C7_7 
ROOT
HETATM    1  C4  UNL     1     -34.182   6.725   6.585  1.00 20.00     0.012 C 
HETATM    2  C7  UNL     1     -34.227   7.122   5.109  1.00 20.00     0.012 C 
ENDROOT
BRANCH   2   3
HETATM    3  C2  UNL     1     -32.831   7.550   4.648  1.00 20.00     0.149 A 
HETATM    4  C1  UNL     1     -32.647   8.657   3.648  1.00 20.00     0.200 A 
HETATM    5  O8  UNL     1     -32.447   8.868   5.055  1.00 20.00    -0.381 OA
ENDBRANCH   2   3
BRANCH   2   6
HETATM    6  C6  UNL     1     -34.747   5.986   4.210  1.00 20.00     0.006 C 
BRANCH   6   7
HETATM    7  C5  UNL     1     -33.719   4.879   3.970  1.00 20.00    -0.004 C 
HETATM    8  C3  UNL     1     -33.068   5.014   2.602  1.00 20.00     0.005 C 
ENDBRANCH   6   7
ENDBRANCH   2   6
TORSDOF 3
ENDMDL
MODEL 5
REMARK VINA RESULT:      -3.8      1.309      2.468
REMARK  3 active torsions:
REMARK  status: ('A' for Active; 'I' for Inactive)
REMARK    1  A    between atoms: C2_2  and  C7_7 
REMARK    2  A    between atoms: C5_5  and  C6_6 
REMARK    3  A    between atoms: C6_6  and  C7_7 
ROOT
HETATM    1  C4  UNL     1     -32.899   4.816   2.377  1.00 20.00     0.012 C 
HETATM    2  C7  UNL     1     -33.348   6.080   3.112  1.00 20.00     0.012 C 
ENDROOT
BRANCH   2   3
HETATM    3  C2  UNL     1     -33.817   5.716   4.523  1.00 20.00     0.149 A 
HETATM    4  C1  UNL     1     -35.279   5.662   4.867  1.00 20.00     0.200 A 
HETATM    5  O8  UNL     1     -34.517   4.471   4.616  1.00 20.00    -0.381 OA
ENDBRANCH   2   3
BRANCH   2   6
HETATM    6  C6  UNL     1     -32.235   7.141   3.190  1.00 20.00     0.006 C 
BRANCH   6   7
HETATM    7  C5  UNL     1     -32.749   8.537   3.549  1.00 20.00    -0.004 C 
HETATM    8  C3  UNL     1     -32.377   8.916   4.974  1.00 20.00     0.005 C 
ENDBRANCH   6   7
ENDBRANCH   2   6
TORSDOF 3
ENDMDL
MODEL 6
REMARK VINA RESULT:      -3.5      1.578      2.494
REMARK  3 active torsions:
REMARK  status: ('A' for Active; 'I' for Inactive)
REMARK    1  A    between atoms: C2_2  and  C7_7 
REMARK    2  A    between atoms: C5_5  and  C6_6 
REMARK    3  A    between atoms: C6_6  and  C7_7 
ROOT
HETATM    1  C4  UNL     1     -32.488   9.037   5.331  1.00 20.00     0.012 C 
HETATM    2  C7  UNL     1     -32.871   7.667   4.767  1.00 20.00     0.012 C 
ENDROOT
BRANCH   2   3
HETATM    3  C2  UNL     1     -34.238   7.249   5.315  1.00 20.00     0.149 A 
HETATM    4  C1  UNL     1     -34.428   5.928   6.006  1.00 20.00     0.200 A 
HETATM    5  O8  UNL     1     -34.305   7.155   6.741  1.00 20.00    -0.381 OA
ENDBRANCH   2   3
BRANCH   2   6
HETATM    6  C6  UNL     1     -32.898   7.651   3.228  1.00 20.00     0.006 C 
BRANCH   6   7
HETATM    7  C5  UNL     1     -32.160   6.457   2.618  1.00 20.00    -0.004 C 
HETATM    8  C3  UNL     1     -33.023   5.205   2.636  1.00 20.00     0.005 C 
ENDBRANCH   6   7
ENDBRANCH   2   6
TORSDOF 3
ENDMDL
MODEL 7
REMARK VINA RESULT:      -3.4      1.548      2.564
REMARK  3 active torsions:
REMARK  status: ('A' for Active; 'I' for Inactive)
REMARK    1  A    between atoms: C2_2  and  C7_7 
REMARK    2  A    between atoms: C5_5  and  C6_6 
REMARK    3  A    between atoms: C6_6  and  C7_7 
ROOT
HETATM    1  C4  UNL     1     -34.595   4.915   4.804  1.00 20.00     0.012 C 
HETATM    2  C7  UNL     1     -34.061   6.252   4.286  1.00 20.00     0.012 C 
ENDROOT
BRANCH   2   3
HETATM    3  C2  UNL     1     -33.443   7.043   5.441  1.00 20.00     0.149 A 
HETATM    4  C1  UNL     1     -33.975   8.393   5.833  1.00 20.00     0.200 A 
HETATM    5  O8  UNL     1     -34.299   7.207   6.577  1.00 20.00    -0.381 OA
ENDBRANCH   2   3
BRANCH   2   6
HETATM    6  C6  UNL     1     -33.024   6.074   3.162  1.00 20.00     0.006 C 
BRANCH   6   7
HETATM    7  C5  UNL     1     -32.076   7.266   3.014  1.00 20.00    -0.004 C 
HETATM    8  C3  UNL     1     -32.253   7.952   1.668  1.00 20.00     0.005 C 
ENDBRANCH   6   7
ENDBRANCH   2   6
TORSDOF 3
ENDMDL
MODEL 8
REMARK VINA RESULT:      -3.4      9.239     10.141
REMARK  3 active torsions:
REMARK  status: ('A' for Active; 'I' for Inactive)
REMARK    1  A    between atoms: C2_2  and  C7_7 
REMARK    2  A    between atoms: C5_5  and  C6_6 
REMARK    3  A    between atoms: C6_6  and  C7_7 
ROOT
HETATM    1  C4  UNL     1     -42.501  12.557   6.945  1.00 20.00     0.012 C 
HETATM    2  C7  UNL     1     -41.445  13.541   6.440  1.00 20.00     0.012 C 
ENDROOT
BRANCH   2   3
HETATM    3  C2  UNL     1     -40.391  13.769   7.526  1.00 20.00     0.149 A 
HETATM    4  C1  UNL     1     -40.369  15.035   8.336  1.00 20.00     0.200 A 
HETATM    5  O8  UNL     1     -40.909  13.811   8.860  1.00 20.00    -0.381 OA
ENDBRANCH   2   3
BRANCH   2   6
HETATM    6  C6  UNL     1     -40.764  13.059   5.146  1.00 20.00     0.006 C 
BRANCH   6   7
HETATM    7  C5  UNL     1     -39.641  12.047   5.388  1.00 20.00    -0.004 C 
HETATM    8  C3  UNL     1     -38.953  11.661   4.087  1.00 20.00     0.005 C 
ENDBRANCH   6   7
ENDBRANCH   2   6
TORSDOF 3
ENDMDL
MODEL 9
REMARK VINA RESULT:      -3.3     12.117     13.351
REMARK  3 active torsions:
REMARK  status: ('A' for Active; 'I' for Inactive)
REMARK    1  A    between atoms: C2_2  and  C7_7 
REMARK    2  A    between atoms: C5_5  and  C6_6 
REMARK    3  A    between atoms: C6_6  and  C7_7 
ROOT
HETATM    1  C4  UNL     1     -34.388  14.101  -4.219  1.00 20.00     0.012 C 
HETATM    2  C7  UNL     1     -34.312  15.366  -5.075  1.00 20.00     0.012 C 
ENDROOT
BRANCH   2   3
HETATM    3  C2  UNL     1     -35.587  15.498  -5.913  1.00 20.00     0.149 A 
HETATM    4  C1  UNL     1     -35.538  15.465  -7.415  1.00 20.00     0.200 A 
HETATM    5  O8  UNL     1     -35.943  14.322  -6.646  1.00 20.00    -0.381 OA
ENDBRANCH   2   3
BRANCH   2   6
HETATM    6  C6  UNL     1     -34.110  16.637  -4.230  1.00 20.00     0.006 C 
BRANCH   6   7
HETATM    7  C5  UNL     1     -33.193  16.426  -3.023  1.00 20.00    -0.004 C 
HETATM    8  C3  UNL     1     -33.664  17.233  -1.822  1.00 20.00     0.005 C 
ENDBRANCH   6   7
ENDBRANCH   2   6
TORSDOF 3
ENDMDL
