MODEL 1
REMARK VINA RESULT:      -4.3      0.000      0.000
REMARK  3 active torsions:
REMARK  status: ('A' for Active; 'I' for Inactive)
REMARK    1  A    between atoms: C2_2  and  C3_3 
REMARK    2  A    between atoms: C3_3  and  C5_5 
REMARK    3  A    between atoms: C4_4  and  C5_5 
ROOT
HETATM    1  C5  UNL     1     -32.610   7.604   4.565  1.00 20.00     0.096 C 
HETATM    2 CL7  UNL     1     -32.160   9.325   4.812  1.00 20.00    -0.124 Cl
ENDROOT
BRANCH   1   3
HETATM    3  C3  UNL     1     -34.075   7.375   4.978  1.00 20.00     0.021 C 
BRANCH   3   4
HETATM    4  C2  UNL     1     -34.221   6.622   6.304  1.00 20.00    -0.003 C 
HETATM    5  C1  UNL     1     -34.648   5.179   6.077  1.00 20.00     0.005 C 
ENDBRANCH   3   4
ENDBRANCH   1   3
BRANCH   1   6
HETATM    6  C4  UNL     1     -32.342   7.255   3.099  1.00 20.00     0.134 C 
HETATM    7 CL6  UNL     1     -32.856   5.595   2.704  1.00 20.00    -0.129 Cl
ENDBRANCH   1   6
TORSDOF 3
ENDMDL
MODEL 2
REMARK VINA RESULT:      -4.2      2.160      3.058
REMARK  3 active torsions:
REMARK  status: ('A' for Active; 'I' for Inactive)
REMARK    1  A    between atoms: C2_2  and  C3_3 
REMARK    2  A    between atoms: C3_3  and  C5_5 
REMARK    3  A    between atoms: C4_4  and  C5_5 
ROOT
HETATM    1  C5  UNL     1     -34.722   5.649   4.851  1.00 20.00     0.096 C 
HETATM    2 CL7  UNL     1     -34.403   5.378   6.598  1.00 20.00    -0.124 Cl
ENDROOT
BRANCH   1   3
HETATM    3  C3  UNL     1     -34.293   7.071   4.449  1.00 20.00     0.021 C 
BRANCH   3   4
HETATM    4  C2  UNL     1     -33.328   7.720   5.447  1.00 20.00    -0.003 C 
HETATM    5  C1  UNL     1     -32.346   8.646   4.745  1.00 20.00     0.005 C 
ENDBRANCH   3   4
ENDBRANCH   1   3
BRANCH   1   6
HETATM    6  C4  UNL     1     -33.987   4.560   4.067  1.00 20.00     0.134 C 
HETATM    7 CL6  UNL     1     -33.020   5.237   2.732  1.00 20.00    -0.129 Cl
ENDBRANCH   1   6
TORSDOF 3
ENDMDL
MODEL 3
REMARK VINA RESULT:      -3.8      0.850      2.514
REMARK  3 active torsions:
REMARK  status: ('A' for Active; 'I' for Inactive)
REMARK    1  A    between atoms: C2_2  and  C3_3 
REMARK    2  A    between atoms: C3_3  and  C5_5 
REMARK    3  A    between atoms: C4_4  and  C5_5 
ROOT
HETATM    1  C5  UNL     1     -33.319   6.918   3.338  1.00 20.00     0.096 C 
HETATM    2 CL7  UNL     1     -32.848   5.271   2.794  1.00 20.00    -0.124 Cl
ENDROOT
BRANCH   1   3
HETATM    3  C3  UNL     1     -34.207   6.828   4.591  1.00 20.00     0.021 C 
BRANCH   3   4
HETATM    4  C2  UNL     1     -34.613   5.394   4.946  1.00 20.00    -0.003 C 
HETATM    5  C1  UNL     1     -34.531   5.151   6.446  1.00 20.00     0.005 C 
ENDBRANCH   3   4
ENDBRANCH   1   3
BRANCH   1   6
HETATM    6  C4  UNL     1     -32.035   7.718   3.572  1.00 20.00     0.134 C 
HETATM    7 CL6  UNL     1     -32.223   8.910   4.883  1.00 20.00    -0.129 Cl
ENDBRANCH   1   6
TORSDOF 3
ENDMDL
MODEL 4
REMARK VINA RESULT:      -3.8      1.338      1.338
REMARK  3 active torsions:
REMARK  status: ('A' for Active; 'I' for Inactive)
REMARK    1  A    between atoms: C2_2  and  C3_3 
REMARK    2  A    between atoms: C3_3  and  C5_5 
REMARK    3  A    between atoms: C4_4  and  C5_5 
ROOT
HETATM    1  C5  UNL     1     -32.572   7.728   4.536  1.00 20.00     0.096 C 
HETATM    2 CL7  UNL     1     -32.081   9.401   4.968  1.00 20.00    -0.124 Cl
ENDROOT
BRANCH   1   3
HETATM    3  C3  UNL     1     -34.030   7.477   4.959  1.00 20.00     0.021 C 
BRANCH   3   4
HETATM    4  C2  UNL     1     -34.156   6.792   6.325  1.00 20.00    -0.003 C 
HETATM    5  C1  UNL     1     -34.594   5.342   6.178  1.00 20.00     0.005 C 
ENDBRANCH   3   4
ENDBRANCH   1   3
BRANCH   1   6
HETATM    6  C4  UNL     1     -32.347   7.548   3.033  1.00 20.00     0.134 C 
HETATM    7 CL6  UNL     1     -32.666   9.049   2.127  1.00 20.00    -0.129 Cl
ENDBRANCH   1   6
TORSDOF 3
ENDMDL
MODEL 5
REMARK VINA RESULT:      -3.7      2.184      3.005
REMARK  3 active torsions:
REMARK  status: ('A' for Active; 'I' for Inactive)
REMARK    1  A    between atoms: C2_2  and  C3_3 
REMARK    2  A    between atoms: C3_3  and  C5_5 
REMARK    3  A    between atoms: C4_4  and  C5_5 
ROOT
HETATM    1  C5  UNL     1     -33.804   6.697   5.309  1.00 20.00     0.096 C 
HETATM    2 CL7  UNL     1     -34.524   6.824   6.951  1.00 20.00    -0.124 Cl
ENDROOT
BRANCH   1   3
HETATM    3  C3  UNL     1     -34.669   5.786   4.421  1.00 20.00     0.021 C 
BRANCH   3   4
HETATM    4  C2  UNL     1     -33.878   4.650   3.763  1.00 20.00    -0.003 C 
HETATM    5  C1  UNL     1     -32.961   5.176   2.669  1.00 20.00     0.005 C 
ENDBRANCH   3   4
ENDBRANCH   1   3
BRANCH   1   6
HETATM    6  C4  UNL     1     -33.660   8.114   4.750  1.00 20.00     0.134 C 
HETATM    7 CL6  UNL     1     -32.022   8.418   4.118  1.00 20.00    -0.129 Cl
ENDBRANCH   1   6
TORSDOF 3
ENDMDL
MODEL 6
REMARK VINA RESULT:      -3.7      2.059      3.427
REMARK  3 active torsions:
REMARK  status: ('A' for Active; 'I' for Inactive)
REMARK    1  A    between atoms: C2_2  and  C3_3 
REMARK    2  A    between atoms: C3_3  and  C5_5 
REMARK    3  A    between atoms: C4_4  and  C5_5 
ROOT
HETATM    1  C5  UNL     1     -34.001   7.388   4.790  1.00 20.00     0.096 C 
HETATM    2 CL7  UNL     1     -33.970   7.349   6.586  1.00 20.00    -0.124 Cl
ENDROOT
BRANCH   1   3
HETATM    3  C3  UNL     1     -32.704   8.019   4.252  1.00 20.00     0.021 C 
BRANCH   3   4
HETATM    4  C2  UNL     1     -32.117   7.268   3.052  1.00 20.00    -0.003 C 
HETATM    5  C1  UNL     1     -32.221   8.094   1.778  1.00 20.00     0.005 C 
ENDBRANCH   3   4
ENDBRANCH   1   3
BRANCH   1   6
HETATM    6  C4  UNL     1     -34.219   5.957   4.294  1.00 20.00     0.134 C 
HETATM    7 CL6  UNL     1     -34.566   4.833   5.633  1.00 20.00    -0.129 Cl
ENDBRANCH   1   6
TORSDOF 3
ENDMDL
MODEL 7
REMARK VINA RESULT:      -3.6      1.903      2.961
REMARK  3 active torsions:
REMARK  status: ('A' for Active; 'I' for Inactive)
REMARK    1  A    between atoms: C2_2  and  C3_3 
REMARK    2  A    between atoms: C3_3  and  C5_5 
REMARK    3  A    between atoms: C4_4  and  C5_5 
ROOT
HETATM    1  C5  UNL     1     -33.835   7.728   5.119  1.00 20.00     0.096 C 
HETATM    2 CL7  UNL     1     -32.289   8.621   4.914  1.00 20.00    -0.124 Cl
ENDROOT
BRANCH   1   3
HETATM    3  C3  UNL     1     -34.064   6.785   3.925  1.00 20.00     0.021 C 
BRANCH   3   4
HETATM    4  C2  UNL     1     -32.779   6.448   3.162  1.00 20.00    -0.003 C 
HETATM    5  C1  UNL     1     -32.837   5.048   2.569  1.00 20.00     0.005 C 
ENDBRANCH   3   4
ENDBRANCH   1   3
BRANCH   1   6
HETATM    6  C4  UNL     1     -33.776   6.992   6.459  1.00 20.00     0.134 C 
HETATM    7 CL6  UNL     1     -34.583   5.406   6.384  1.00 20.00    -0.129 Cl
ENDBRANCH   1   6
TORSDOF 3
ENDMDL
MODEL 8
REMARK VINA RESULT:      -3.6      1.475      1.948
REMARK  3 active torsions:
REMARK  status: ('A' for Active; 'I' for Inactive)
REMARK    1  A    between atoms: C2_2  and  C3_3 
REMARK    2  A    between atoms: C3_3  and  C5_5 
REMARK    3  A    between atoms: C4_4  and  C5_5 
ROOT
HETATM    1  C5  UNL     1     -33.412   7.427   4.138  1.00 20.00     0.096 C 
HETATM    2 CL7  UNL     1     -33.143   5.850   3.319  1.00 20.00    -0.124 Cl
ENDROOT
BRANCH   1   3
HETATM    3  C3  UNL     1     -33.147   7.292   5.647  1.00 20.00     0.021 C 
BRANCH   3   4
HETATM    4  C2  UNL     1     -34.380   6.850   6.443  1.00 20.00    -0.003 C 
HETATM    5  C1  UNL     1     -34.611   5.351   6.318  1.00 20.00     0.005 C 
ENDBRANCH   3   4
ENDBRANCH   1   3
BRANCH   1   6
HETATM    6  C4  UNL     1     -32.512   8.464   3.463  1.00 20.00     0.134 C 
HETATM    7 CL6  UNL     1     -32.143   8.030   1.775  1.00 20.00    -0.129 Cl
ENDBRANCH   1   6
TORSDOF 3
ENDMDL
MODEL 9
REMARK VINA RESULT:      -3.6      2.215      3.480
REMARK  3 active torsions:
REMARK  status: ('A' for Active; 'I' for Inactive)
REMARK    1  A    between atoms: C2_2  and  C3_3 
REMARK    2  A    between atoms: C3_3  and  C5_5 
REMARK    3  A    between atoms: C4_4  and  C5_5 
ROOT
HETATM    1  C5  UNL     1     -33.492   5.902   4.204  1.00 20.00     0.096 C 
HETATM    2 CL7  UNL     1     -33.036   5.302   2.573  1.00 20.00    -0.124 Cl
ENDROOT
BRANCH   1   3
HETATM    3  C3  UNL     1     -33.986   7.357   4.114  1.00 20.00     0.021 C 
BRANCH   3   4
HETATM    4  C2  UNL     1     -33.436   8.254   5.228  1.00 20.00    -0.003 C 
HETATM    5  C1  UNL     1     -32.183   8.991   4.776  1.00 20.00     0.005 C 
ENDBRANCH   3   4
ENDBRANCH   1   3
BRANCH   1   6
HETATM    6  C4  UNL     1     -34.544   4.949   4.776  1.00 20.00     0.134 C 
HETATM    7 CL6  UNL     1     -34.854   5.256   6.503  1.00 20.00    -0.129 Cl
ENDBRANCH   1   6
TORSDOF 3
ENDMDL
