MODEL 1
REMARK VINA RESULT:      -5.7      0.000      0.000
REMARK  0 active torsions:
REMARK  status: ('A' for Active; 'I' for Inactive)
ROOT
HETATM    1  C1  UNL     1     -34.143   6.488   5.250  1.00 20.00    -0.089 C 
HETATM    2  C2  UNL     1     -32.430   7.312   3.084  1.00 20.00    -0.089 C 
HETATM    3  C3  UNL     1     -34.439   5.910   6.423  1.00 20.00     0.014 C 
HETATM    4  C4  UNL     1     -32.135   7.891   1.911  1.00 20.00     0.014 C 
HETATM    5  C5  UNL     1     -33.723   7.934   5.140  1.00 20.00     0.037 C 
HETATM    6  C6  UNL     1     -34.182   5.737   3.941  1.00 20.00     0.037 C 
HETATM    7  C7  UNL     1     -32.391   8.063   4.392  1.00 20.00     0.037 C 
HETATM    8  C8  UNL     1     -32.851   5.866   3.193  1.00 20.00     0.037 C 
ENDROOT
TORSDOF 0
ENDMDL
MODEL 2
REMARK VINA RESULT:      -5.7      0.047      3.263
REMARK  0 active torsions:
REMARK  status: ('A' for Active; 'I' for Inactive)
ROOT
HETATM    1  C1  UNL     1     -32.420   7.319   3.061  1.00 20.00    -0.089 C 
HETATM    2  C2  UNL     1     -34.121   6.538   5.252  1.00 20.00    -0.089 C 
HETATM    3  C3  UNL     1     -32.129   7.885   1.880  1.00 20.00     0.014 C 
HETATM    4  C4  UNL     1     -34.412   5.973   6.432  1.00 20.00     0.014 C 
HETATM    5  C5  UNL     1     -32.354   8.080   4.363  1.00 20.00     0.037 C 
HETATM    6  C6  UNL     1     -32.862   5.882   3.185  1.00 20.00     0.037 C 
HETATM    7  C7  UNL     1     -33.680   7.976   5.127  1.00 20.00     0.037 C 
HETATM    8  C8  UNL     1     -34.187   5.778   3.949  1.00 20.00     0.037 C 
ENDROOT
TORSDOF 0
ENDMDL
MODEL 3
REMARK VINA RESULT:      -4.5      0.867      3.024
REMARK  0 active torsions:
REMARK  status: ('A' for Active; 'I' for Inactive)
ROOT
HETATM    1  C1  UNL     1     -32.669   8.091   4.122  1.00 20.00    -0.089 C 
HETATM    2  C2  UNL     1     -33.990   5.532   4.222  1.00 20.00    -0.089 C 
HETATM    3  C3  UNL     1     -32.535   9.386   3.803  1.00 20.00     0.014 C 
HETATM    4  C4  UNL     1     -34.124   4.236   4.541  1.00 20.00     0.014 C 
HETATM    5  C5  UNL     1     -33.312   7.634   5.409  1.00 20.00     0.037 C 
HETATM    6  C6  UNL     1     -32.209   6.978   3.211  1.00 20.00     0.037 C 
HETATM    7  C7  UNL     1     -34.450   6.644   5.132  1.00 20.00     0.037 C 
HETATM    8  C8  UNL     1     -33.347   5.989   2.935  1.00 20.00     0.037 C 
ENDROOT
TORSDOF 0
ENDMDL
MODEL 4
REMARK VINA RESULT:      -4.4      0.697      2.445
REMARK  0 active torsions:
REMARK  status: ('A' for Active; 'I' for Inactive)
ROOT
HETATM    1  C1  UNL     1     -33.363   7.843   5.253  1.00 20.00    -0.089 C 
HETATM    2  C2  UNL     1     -33.241   5.837   3.188  1.00 20.00    -0.089 C 
HETATM    3  C3  UNL     1     -33.816   8.953   5.855  1.00 20.00     0.014 C 
HETATM    4  C4  UNL     1     -32.788   4.728   2.586  1.00 20.00     0.014 C 
HETATM    5  C5  UNL     1     -33.966   6.482   5.500  1.00 20.00     0.037 C 
HETATM    6  C6  UNL     1     -32.228   7.865   4.259  1.00 20.00     0.037 C 
HETATM    7  C7  UNL     1     -34.377   5.816   4.181  1.00 20.00     0.037 C 
HETATM    8  C8  UNL     1     -32.638   7.199   2.941  1.00 20.00     0.037 C 
ENDROOT
TORSDOF 0
ENDMDL
MODEL 5
REMARK VINA RESULT:      -4.4      0.703      3.023
REMARK  0 active torsions:
REMARK  status: ('A' for Active; 'I' for Inactive)
ROOT
HETATM    1  C1  UNL     1     -33.269   5.799   3.188  1.00 20.00    -0.089 C 
HETATM    2  C2  UNL     1     -33.389   7.790   5.267  1.00 20.00    -0.089 C 
HETATM    3  C3  UNL     1     -32.821   4.691   2.580  1.00 20.00     0.014 C 
HETATM    4  C4  UNL     1     -33.838   8.898   5.874  1.00 20.00     0.014 C 
HETATM    5  C5  UNL     1     -34.410   5.777   4.176  1.00 20.00     0.037 C 
HETATM    6  C6  UNL     1     -32.656   7.158   2.954  1.00 20.00     0.037 C 
HETATM    7  C7  UNL     1     -34.001   6.431   5.501  1.00 20.00     0.037 C 
HETATM    8  C8  UNL     1     -32.247   7.812   4.278  1.00 20.00     0.037 C 
ENDROOT
TORSDOF 0
ENDMDL
MODEL 6
REMARK VINA RESULT:      -4.3      1.040      3.373
REMARK  0 active torsions:
REMARK  status: ('A' for Active; 'I' for Inactive)
ROOT
HETATM    1  C1  UNL     1     -32.882   8.449   4.767  1.00 20.00    -0.089 C 
HETATM    2  C2  UNL     1     -34.256   5.926   4.995  1.00 20.00    -0.089 C 
HETATM    3  C3  UNL     1     -31.850   9.295   4.895  1.00 20.00     0.014 C 
HETATM    4  C4  UNL     1     -35.288   5.080   4.867  1.00 20.00     0.014 C 
HETATM    5  C5  UNL     1     -33.087   7.598   3.537  1.00 20.00     0.037 C 
HETATM    6  C6  UNL     1     -33.914   8.257   5.852  1.00 20.00     0.037 C 
HETATM    7  C7  UNL     1     -33.223   6.117   3.911  1.00 20.00     0.037 C 
HETATM    8  C8  UNL     1     -34.051   6.777   6.225  1.00 20.00     0.037 C 
ENDROOT
TORSDOF 0
ENDMDL
MODEL 7
REMARK VINA RESULT:      -4.3      1.037      2.410
REMARK  0 active torsions:
REMARK  status: ('A' for Active; 'I' for Inactive)
ROOT
HETATM    1  C1  UNL     1     -34.226   5.908   4.976  1.00 20.00    -0.089 C 
HETATM    2  C2  UNL     1     -32.867   8.442   4.790  1.00 20.00    -0.089 C 
HETATM    3  C3  UNL     1     -35.253   5.057   4.831  1.00 20.00     0.014 C 
HETATM    4  C4  UNL     1     -31.841   9.293   4.935  1.00 20.00     0.014 C 
HETATM    5  C5  UNL     1     -33.191   6.122   3.898  1.00 20.00     0.037 C 
HETATM    6  C6  UNL     1     -34.032   6.742   6.218  1.00 20.00     0.037 C 
HETATM    7  C7  UNL     1     -33.063   7.609   3.548  1.00 20.00     0.037 C 
HETATM    8  C8  UNL     1     -33.903   8.229   5.869  1.00 20.00     0.037 C 
ENDROOT
TORSDOF 0
ENDMDL
MODEL 8
REMARK VINA RESULT:      -3.7     11.998     12.591
REMARK  0 active torsions:
REMARK  status: ('A' for Active; 'I' for Inactive)
ROOT
HETATM    1  C1  UNL     1     -31.637  18.646   0.907  1.00 20.00    -0.089 C 
HETATM    2  C2  UNL     1     -33.864  18.309  -0.892  1.00 20.00    -0.089 C 
HETATM    3  C3  UNL     1     -30.703  18.251   1.783  1.00 20.00     0.014 C 
HETATM    4  C4  UNL     1     -34.798  18.705  -1.768  1.00 20.00     0.014 C 
HETATM    5  C5  UNL     1     -31.400  18.657  -0.584  1.00 20.00     0.037 C 
HETATM    6  C6  UNL     1     -33.015  19.092   1.334  1.00 20.00     0.037 C 
HETATM    7  C7  UNL     1     -32.487  17.863  -1.318  1.00 20.00     0.037 C 
HETATM    8  C8  UNL     1     -34.102  18.299   0.600  1.00 20.00     0.037 C 
ENDROOT
TORSDOF 0
ENDMDL
MODEL 9
REMARK VINA RESULT:      -3.7     12.007     12.659
REMARK  0 active torsions:
REMARK  status: ('A' for Active; 'I' for Inactive)
ROOT
HETATM    1  C1  UNL     1     -33.899  18.338  -0.885  1.00 20.00    -0.089 C 
HETATM    2  C2  UNL     1     -31.644  18.648   0.882  1.00 20.00    -0.089 C 
HETATM    3  C3  UNL     1     -34.839  18.745  -1.751  1.00 20.00     0.014 C 
HETATM    4  C4  UNL     1     -30.704  18.241   1.747  1.00 20.00     0.014 C 
HETATM    5  C5  UNL     1     -32.535  17.871  -1.329  1.00 20.00     0.037 C 
HETATM    6  C6  UNL     1     -34.117  18.337   0.609  1.00 20.00     0.037 C 
HETATM    7  C7  UNL     1     -31.427  18.650  -0.611  1.00 20.00     0.037 C 
HETATM    8  C8  UNL     1     -33.009  19.116   1.327  1.00 20.00     0.037 C 
ENDROOT
TORSDOF 0
ENDMDL
