MODEL 1
REMARK VINA RESULT:      -4.2      0.000      0.000
REMARK  3 active torsions:
REMARK  status: ('A' for Active; 'I' for Inactive)
REMARK    1  A    between atoms: C2_2  and  C7_7 
REMARK    2  A    between atoms: C5_5  and  C6_6 
REMARK    3  A    between atoms: C6_6  and  C7_7 
ROOT
HETATM    1  C4  UNL     1     -34.369   6.867   6.719  1.00 20.00     0.012 C 
HETATM    2  C7  UNL     1     -33.791   6.738   5.310  1.00 20.00     0.012 C 
ENDROOT
BRANCH   2   3
HETATM    3  C2  UNL     1     -33.635   8.128   4.686  1.00 20.00     0.149 A 
HETATM    4  C1  UNL     1     -32.450   8.466   3.825  1.00 20.00     0.200 A 
HETATM    5  O8  UNL     1     -32.534   8.888   5.196  1.00 20.00    -0.381 OA
ENDBRANCH   2   3
BRANCH   2   6
HETATM    6  C6  UNL     1     -34.660   5.852   4.397  1.00 20.00     0.006 C 
BRANCH   6   7
HETATM    7  C5  UNL     1     -33.910   4.646   3.827  1.00 20.00    -0.004 C 
HETATM    8  C3  UNL     1     -33.003   5.050   2.674  1.00 20.00     0.005 C 
ENDBRANCH   6   7
ENDBRANCH   2   6
TORSDOF 3
ENDMDL
MODEL 2
REMARK VINA RESULT:      -4.1      1.643      2.787
REMARK  3 active torsions:
REMARK  status: ('A' for Active; 'I' for Inactive)
REMARK    1  A    between atoms: C2_2  and  C7_7 
REMARK    2  A    between atoms: C5_5  and  C6_6 
REMARK    3  A    between atoms: C6_6  and  C7_7 
ROOT
HETATM    1  C4  UNL     1     -32.202   9.091   4.873  1.00 20.00     0.012 C 
HETATM    2  C7  UNL     1     -32.823   7.694   4.855  1.00 20.00     0.012 C 
ENDROOT
BRANCH   2   3
HETATM    3  C2  UNL     1     -33.177   7.306   3.417  1.00 20.00     0.149 A 
HETATM    4  C1  UNL     1     -32.649   6.040   2.801  1.00 20.00     0.200 A 
HETATM    5  O8  UNL     1     -32.072   7.322   2.507  1.00 20.00    -0.381 OA
ENDBRANCH   2   3
BRANCH   2   6
HETATM    6  C6  UNL     1     -34.075   7.596   5.746  1.00 20.00     0.006 C 
BRANCH   6   7
HETATM    7  C5  UNL     1     -34.173   6.277   6.517  1.00 20.00    -0.004 C 
HETATM    8  C3  UNL     1     -34.847   5.197   5.685  1.00 20.00     0.005 C 
ENDBRANCH   6   7
ENDBRANCH   2   6
TORSDOF 3
ENDMDL
MODEL 3
REMARK VINA RESULT:      -3.9      2.010      3.851
REMARK  3 active torsions:
REMARK  status: ('A' for Active; 'I' for Inactive)
REMARK    1  A    between atoms: C2_2  and  C7_7 
REMARK    2  A    between atoms: C5_5  and  C6_6 
REMARK    3  A    between atoms: C6_6  and  C7_7 
ROOT
HETATM    1  C4  UNL     1     -33.071   4.923   2.493  1.00 20.00     0.012 C 
HETATM    2  C7  UNL     1     -33.009   5.854   3.705  1.00 20.00     0.012 C 
ENDROOT
BRANCH   2   3
HETATM    3  C2  UNL     1     -34.369   5.876   4.408  1.00 20.00     0.149 A 
HETATM    4  C1  UNL     1     -34.505   5.477   5.851  1.00 20.00     0.200 A 
HETATM    5  O8  UNL     1     -34.866   4.587   4.783  1.00 20.00    -0.381 OA
ENDBRANCH   2   3
BRANCH   2   6
HETATM    6  C6  UNL     1     -32.595   7.288   3.325  1.00 20.00     0.006 C 
BRANCH   6   7
HETATM    7  C5  UNL     1     -33.242   8.362   4.201  1.00 20.00    -0.004 C 
HETATM    8  C3  UNL     1     -32.212   9.054   5.082  1.00 20.00     0.005 C 
ENDBRANCH   6   7
ENDBRANCH   2   6
TORSDOF 3
ENDMDL
MODEL 4
REMARK VINA RESULT:      -3.8      1.316      2.919
REMARK  3 active torsions:
REMARK  status: ('A' for Active; 'I' for Inactive)
REMARK    1  A    between atoms: C2_2  and  C7_7 
REMARK    2  A    between atoms: C5_5  and  C6_6 
REMARK    3  A    between atoms: C6_6  and  C7_7 
ROOT
HETATM    1  C4  UNL     1     -32.906   4.930   2.150  1.00 20.00     0.012 C 
HETATM    2  C7  UNL     1     -33.549   5.803   3.228  1.00 20.00     0.012 C 
ENDROOT
BRANCH   2   3
HETATM    3  C2  UNL     1     -32.542   6.848   3.714  1.00 20.00     0.149 A 
HETATM    4  C1  UNL     1     -32.900   8.307   3.769  1.00 20.00     0.200 A 
HETATM    5  O8  UNL     1     -32.103   7.765   2.705  1.00 20.00    -0.381 OA
ENDBRANCH   2   3
BRANCH   2   6
HETATM    6  C6  UNL     1     -34.062   4.978   4.424  1.00 20.00     0.006 C 
BRANCH   6   7
HETATM    7  C5  UNL     1     -35.104   5.714   5.270  1.00 20.00    -0.004 C 
HETATM    8  C3  UNL     1     -34.490   6.273   6.544  1.00 20.00     0.005 C 
ENDBRANCH   6   7
ENDBRANCH   2   6
TORSDOF 3
ENDMDL
MODEL 5
REMARK VINA RESULT:      -3.7      1.899      3.015
REMARK  3 active torsions:
REMARK  status: ('A' for Active; 'I' for Inactive)
REMARK    1  A    between atoms: C2_2  and  C7_7 
REMARK    2  A    between atoms: C5_5  and  C6_6 
REMARK    3  A    between atoms: C6_6  and  C7_7 
ROOT
HETATM    1  C4  UNL     1     -33.599   7.494   6.519  1.00 20.00     0.012 C 
HETATM    2  C7  UNL     1     -33.790   7.528   5.002  1.00 20.00     0.012 C 
ENDROOT
BRANCH   2   3
HETATM    3  C2  UNL     1     -34.094   6.118   4.489  1.00 20.00     0.149 A 
HETATM    4  C1  UNL     1     -35.488   5.557   4.533  1.00 20.00     0.200 A 
HETATM    5  O8  UNL     1     -34.493   5.189   5.502  1.00 20.00    -0.381 OA
ENDBRANCH   2   3
BRANCH   2   6
HETATM    6  C6  UNL     1     -32.563   8.098   4.267  1.00 20.00     0.006 C 
BRANCH   6   7
HETATM    7  C5  UNL     1     -32.150   7.278   3.043  1.00 20.00    -0.004 C 
HETATM    8  C3  UNL     1     -32.218   8.107   1.770  1.00 20.00     0.005 C 
ENDBRANCH   6   7
ENDBRANCH   2   6
TORSDOF 3
ENDMDL
MODEL 6
REMARK VINA RESULT:      -3.7      1.293      1.690
REMARK  3 active torsions:
REMARK  status: ('A' for Active; 'I' for Inactive)
REMARK    1  A    between atoms: C2_2  and  C7_7 
REMARK    2  A    between atoms: C5_5  and  C6_6 
REMARK    3  A    between atoms: C6_6  and  C7_7 
ROOT
HETATM    1  C4  UNL     1     -33.695   8.901   6.106  1.00 20.00     0.012 C 
HETATM    2  C7  UNL     1     -33.370   7.526   5.522  1.00 20.00     0.012 C 
ENDROOT
BRANCH   2   3
HETATM    3  C2  UNL     1     -33.376   7.601   3.993  1.00 20.00     0.149 A 
HETATM    4  C1  UNL     1     -32.118   7.391   3.198  1.00 20.00     0.200 A 
HETATM    5  O8  UNL     1     -32.643   8.704   3.448  1.00 20.00    -0.381 OA
ENDBRANCH   2   3
BRANCH   2   6
HETATM    6  C6  UNL     1     -34.352   6.439   5.995  1.00 20.00     0.006 C 
BRANCH   6   7
HETATM    7  C5  UNL     1     -34.977   5.641   4.848  1.00 20.00    -0.004 C 
HETATM    8  C3  UNL     1     -34.170   4.388   4.540  1.00 20.00     0.005 C 
ENDBRANCH   6   7
ENDBRANCH   2   6
TORSDOF 3
ENDMDL
MODEL 7
REMARK VINA RESULT:      -3.7      2.136      3.728
REMARK  3 active torsions:
REMARK  status: ('A' for Active; 'I' for Inactive)
REMARK    1  A    between atoms: C2_2  and  C7_7 
REMARK    2  A    between atoms: C5_5  and  C6_6 
REMARK    3  A    between atoms: C6_6  and  C7_7 
ROOT
HETATM    1  C4  UNL     1     -33.035   5.335   2.670  1.00 20.00     0.012 C 
HETATM    2  C7  UNL     1     -33.109   6.126   3.976  1.00 20.00     0.012 C 
ENDROOT
BRANCH   2   3
HETATM    3  C2  UNL     1     -34.504   5.980   4.590  1.00 20.00     0.149 A 
HETATM    4  C1  UNL     1     -34.683   5.559   6.022  1.00 20.00     0.200 A 
HETATM    5  O8  UNL     1     -34.864   4.638   4.934  1.00 20.00    -0.381 OA
ENDBRANCH   2   3
BRANCH   2   6
HETATM    6  C6  UNL     1     -32.779   7.617   3.780  1.00 20.00     0.006 C 
BRANCH   6   7
HETATM    7  C5  UNL     1     -32.173   7.933   2.410  1.00 20.00    -0.004 C 
HETATM    8  C3  UNL     1     -32.774   9.198   1.816  1.00 20.00     0.005 C 
ENDBRANCH   6   7
ENDBRANCH   2   6
TORSDOF 3
ENDMDL
MODEL 8
REMARK VINA RESULT:      -3.6      1.941      3.202
REMARK  3 active torsions:
REMARK  status: ('A' for Active; 'I' for Inactive)
REMARK    1  A    between atoms: C2_2  and  C7_7 
REMARK    2  A    between atoms: C5_5  and  C6_6 
REMARK    3  A    between atoms: C6_6  and  C7_7 
ROOT
HETATM    1  C4  UNL     1     -34.875   5.948   6.470  1.00 20.00     0.012 C 
HETATM    2  C7  UNL     1     -34.408   6.518   5.131  1.00 20.00     0.012 C 
ENDROOT
BRANCH   2   3
HETATM    3  C2  UNL     1     -33.457   5.529   4.453  1.00 20.00     0.149 A 
HETATM    4  C1  UNL     1     -33.740   4.995   3.076  1.00 20.00     0.200 A 
HETATM    5  O8  UNL     1     -34.000   4.219   4.257  1.00 20.00    -0.381 OA
ENDBRANCH   2   3
BRANCH   2   6
HETATM    6  C6  UNL     1     -33.717   7.886   5.283  1.00 20.00     0.006 C 
BRANCH   6   7
HETATM    7  C5  UNL     1     -32.410   8.000   4.495  1.00 20.00    -0.004 C 
HETATM    8  C3  UNL     1     -32.597   8.820   3.227  1.00 20.00     0.005 C 
ENDBRANCH   6   7
ENDBRANCH   2   6
TORSDOF 3
ENDMDL
MODEL 9
REMARK VINA RESULT:      -3.6      1.994      3.502
REMARK  3 active torsions:
REMARK  status: ('A' for Active; 'I' for Inactive)
REMARK    1  A    between atoms: C2_2  and  C7_7 
REMARK    2  A    between atoms: C5_5  and  C6_6 
REMARK    3  A    between atoms: C6_6  and  C7_7 
ROOT
HETATM    1  C4  UNL     1     -32.971   5.849   2.903  1.00 20.00     0.012 C 
HETATM    2  C7  UNL     1     -32.731   7.037   3.835  1.00 20.00     0.012 C 
ENDROOT
BRANCH   2   3
HETATM    3  C2  UNL     1     -33.942   7.225   4.752  1.00 20.00     0.149 A 
HETATM    4  C1  UNL     1     -33.836   7.006   6.236  1.00 20.00     0.200 A 
HETATM    5  O8  UNL     1     -34.417   6.022   5.365  1.00 20.00    -0.381 OA
ENDBRANCH   2   3
BRANCH   2   6
HETATM    6  C6  UNL     1     -32.451   8.342   3.065  1.00 20.00     0.006 C 
BRANCH   6   7
HETATM    7  C5  UNL     1     -32.150   8.121   1.581  1.00 20.00    -0.004 C 
HETATM    8  C3  UNL     1     -32.703   9.254   0.729  1.00 20.00     0.005 C 
ENDBRANCH   6   7
ENDBRANCH   2   6
TORSDOF 3
ENDMDL
