MODEL 1
REMARK VINA RESULT:      -4.3      0.000      0.000
REMARK  1 active torsions:
REMARK  status: ('A' for Active; 'I' for Inactive)
REMARK    1  A    between atoms: C2_2  and  C3_3 
ROOT
HETATM    1  C1  UNL     1     -33.554   7.917   4.582  1.00 20.00     0.023 C 
HETATM    2  C2  UNL     1     -33.954   6.743   5.089  1.00 20.00    -0.009 C 
HETATM    3  C4  UNL     1     -34.366   6.606   6.526  1.00 20.00     0.052 C 
ENDROOT
BRANCH   2   4
HETATM    4  C3  UNL     1     -34.015   5.491   4.248  1.00 20.00     0.247 C 
HETATM    5  O5  UNL     1     -34.720   4.564   4.649  1.00 20.00    -0.274 OA
HETATM    6 CL6  UNL     1     -33.097   5.393   2.757  1.00 20.00    -0.039 Cl
ENDBRANCH   2   4
TORSDOF 1
ENDMDL
MODEL 2
REMARK VINA RESULT:      -4.3      0.104      1.436
REMARK  1 active torsions:
REMARK  status: ('A' for Active; 'I' for Inactive)
REMARK    1  A    between atoms: C2_2  and  C3_3 
ROOT
HETATM    1  C1  UNL     1     -34.442   6.560   6.455  1.00 20.00     0.023 C 
HETATM    2  C2  UNL     1     -34.032   6.642   5.181  1.00 20.00    -0.009 C 
HETATM    3  C4  UNL     1     -33.558   7.937   4.589  1.00 20.00     0.052 C 
ENDROOT
BRANCH   2   4
HETATM    4  C3  UNL     1     -34.024   5.440   4.269  1.00 20.00     0.247 C 
HETATM    5  O5  UNL     1     -34.677   4.453   4.613  1.00 20.00    -0.274 OA
HETATM    6 CL6  UNL     1     -33.103   5.479   2.777  1.00 20.00    -0.039 Cl
ENDBRANCH   2   4
TORSDOF 1
ENDMDL
MODEL 3
REMARK VINA RESULT:      -4.2      2.178      2.596
REMARK  1 active torsions:
REMARK  status: ('A' for Active; 'I' for Inactive)
REMARK    1  A    between atoms: C2_2  and  C3_3 
ROOT
HETATM    1  C1  UNL     1     -34.136   6.950   6.512  1.00 20.00     0.023 C 
HETATM    2  C2  UNL     1     -34.100   6.672   5.201  1.00 20.00    -0.009 C 
HETATM    3  C4  UNL     1     -35.089   5.736   4.570  1.00 20.00     0.052 C 
ENDROOT
BRANCH   2   4
HETATM    4  C3  UNL     1     -33.067   7.280   4.286  1.00 20.00     0.247 C 
HETATM    5  O5  UNL     1     -32.750   6.648   3.276  1.00 20.00    -0.274 OA
HETATM    6 CL6  UNL     1     -32.358   8.836   4.676  1.00 20.00    -0.039 Cl
ENDBRANCH   2   4
TORSDOF 1
ENDMDL
MODEL 4
REMARK VINA RESULT:      -4.1      2.008      2.641
REMARK  1 active torsions:
REMARK  status: ('A' for Active; 'I' for Inactive)
REMARK    1  A    between atoms: C2_2  and  C3_3 
ROOT
HETATM    1  C1  UNL     1     -34.404   6.477   6.491  1.00 20.00     0.023 C 
HETATM    2  C2  UNL     1     -34.039   6.461   5.201  1.00 20.00    -0.009 C 
HETATM    3  C4  UNL     1     -34.443   5.344   4.284  1.00 20.00     0.052 C 
ENDROOT
BRANCH   2   4
HETATM    4  C3  UNL     1     -33.201   7.561   4.597  1.00 20.00     0.247 C 
HETATM    5  O5  UNL     1     -33.182   8.650   5.173  1.00 20.00    -0.274 OA
HETATM    6 CL6  UNL     1     -32.299   7.266   3.122  1.00 20.00    -0.039 Cl
ENDBRANCH   2   4
TORSDOF 1
ENDMDL
MODEL 5
REMARK VINA RESULT:      -4.1      1.821      2.097
REMARK  1 active torsions:
REMARK  status: ('A' for Active; 'I' for Inactive)
REMARK    1  A    between atoms: C2_2  and  C3_3 
ROOT
HETATM    1  C1  UNL     1     -35.289   5.685   4.725  1.00 20.00     0.023 C 
HETATM    2  C2  UNL     1     -34.213   6.441   4.988  1.00 20.00    -0.009 C 
HETATM    3  C4  UNL     1     -34.003   7.067   6.336  1.00 20.00     0.052 C 
ENDROOT
BRANCH   2   4
HETATM    4  C3  UNL     1     -33.154   6.707   3.947  1.00 20.00     0.247 C 
HETATM    5  O5  UNL     1     -32.515   7.757   4.034  1.00 20.00    -0.274 OA
HETATM    6 CL6  UNL     1     -32.869   5.541   2.669  1.00 20.00    -0.039 Cl
ENDBRANCH   2   4
TORSDOF 1
ENDMDL
MODEL 6
REMARK VINA RESULT:      -4.0      2.135      2.712
REMARK  1 active torsions:
REMARK  status: ('A' for Active; 'I' for Inactive)
REMARK    1  A    between atoms: C2_2  and  C3_3 
ROOT
HETATM    1  C1  UNL     1     -32.504   8.784   4.892  1.00 20.00     0.023 C 
HETATM    2  C2  UNL     1     -32.846   7.648   4.267  1.00 20.00    -0.009 C 
HETATM    3  C4  UNL     1     -32.259   7.276   2.937  1.00 20.00     0.052 C 
ENDROOT
BRANCH   2   4
HETATM    4  C3  UNL     1     -33.838   6.680   4.862  1.00 20.00     0.247 C 
HETATM    5  O5  UNL     1     -34.292   5.800   4.129  1.00 20.00    -0.274 OA
HETATM    6 CL6  UNL     1     -34.310   6.832   6.544  1.00 20.00    -0.039 Cl
ENDBRANCH   2   4
TORSDOF 1
ENDMDL
MODEL 7
REMARK VINA RESULT:      -4.0      2.011      2.558
REMARK  1 active torsions:
REMARK  status: ('A' for Active; 'I' for Inactive)
REMARK    1  A    between atoms: C2_2  and  C3_3 
ROOT
HETATM    1  C1  UNL     1     -32.480   8.766   4.850  1.00 20.00     0.023 C 
HETATM    2  C2  UNL     1     -32.996   7.587   4.476  1.00 20.00    -0.009 C 
HETATM    3  C4  UNL     1     -32.570   6.910   3.205  1.00 20.00     0.052 C 
ENDROOT
BRANCH   2   4
HETATM    4  C3  UNL     1     -34.034   6.872   5.306  1.00 20.00     0.247 C 
HETATM    5  O5  UNL     1     -34.033   7.071   6.522  1.00 20.00    -0.274 OA
HETATM    6 CL6  UNL     1     -35.186   5.799   4.533  1.00 20.00    -0.039 Cl
ENDBRANCH   2   4
TORSDOF 1
ENDMDL
MODEL 8
REMARK VINA RESULT:      -3.9      2.014      2.515
REMARK  1 active torsions:
REMARK  status: ('A' for Active; 'I' for Inactive)
REMARK    1  A    between atoms: C2_2  and  C3_3 
ROOT
HETATM    1  C1  UNL     1     -32.582   6.945   3.207  1.00 20.00     0.023 C 
HETATM    2  C2  UNL     1     -32.995   7.505   4.353  1.00 20.00    -0.009 C 
HETATM    3  C4  UNL     1     -32.434   8.811   4.837  1.00 20.00     0.052 C 
ENDROOT
BRANCH   2   4
HETATM    4  C3  UNL     1     -34.044   6.858   5.223  1.00 20.00     0.247 C 
HETATM    5  O5  UNL     1     -34.068   7.162   6.417  1.00 20.00    -0.274 OA
HETATM    6 CL6  UNL     1     -35.176   5.714   4.526  1.00 20.00    -0.039 Cl
ENDBRANCH   2   4
TORSDOF 1
ENDMDL
MODEL 9
REMARK VINA RESULT:      -3.9      1.706      1.714
REMARK  1 active torsions:
REMARK  status: ('A' for Active; 'I' for Inactive)
REMARK    1  A    between atoms: C2_2  and  C3_3 
ROOT
HETATM    1  C1  UNL     1     -32.639   8.468   4.784  1.00 20.00     0.023 C 
HETATM    2  C2  UNL     1     -33.368   7.387   5.095  1.00 20.00    -0.009 C 
HETATM    3  C4  UNL     1     -34.082   7.272   6.411  1.00 20.00     0.052 C 
ENDROOT
BRANCH   2   4
HETATM    4  C3  UNL     1     -33.514   6.225   4.144  1.00 20.00     0.247 C 
HETATM    5  O5  UNL     1     -32.877   6.262   3.089  1.00 20.00    -0.274 OA
HETATM    6 CL6  UNL     1     -34.565   4.883   4.556  1.00 20.00    -0.039 Cl
ENDBRANCH   2   4
TORSDOF 1
ENDMDL
