MODEL 1
REMARK VINA RESULT:      -5.5      0.000      0.000
REMARK  2 active torsions:
REMARK  status: ('A' for Active; 'I' for Inactive)
REMARK    1  A    between atoms: C5_5  and  C7_7 
REMARK    2  A    between atoms: C7_7  and  C8_8 
ROOT
HETATM    1  C1  UNL     1     -34.495   5.534   6.470  1.00 20.00    -0.030 C 
HETATM    2  C2  UNL     1     -34.084   6.806   6.436  1.00 20.00    -0.026 C 
HETATM    3  C3  UNL     1     -34.764   5.002   5.103  1.00 20.00     0.027 C 
HETATM    4  C4  UNL     1     -34.108   6.048   4.199  1.00 20.00     0.012 C 
HETATM    5  C5  UNL     1     -34.017   7.332   5.037  1.00 20.00     0.008 C 
ENDROOT
BRANCH   5   6
HETATM    6  C7  UNL     1     -32.745   8.117   4.752  1.00 20.00     0.008 C 
BRANCH   6   7
HETATM    7  C8  UNL     1     -32.158   7.756   3.390  1.00 20.00    -0.004 C 
HETATM    8  C6  UNL     1     -32.513   8.796   2.338  1.00 20.00     0.005 C 
ENDBRANCH   6   7
ENDBRANCH   5   6
TORSDOF 2
ENDMDL
MODEL 2
REMARK VINA RESULT:      -5.0      0.656      1.540
REMARK  2 active torsions:
REMARK  status: ('A' for Active; 'I' for Inactive)
REMARK    1  A    between atoms: C5_5  and  C7_7 
REMARK    2  A    between atoms: C7_7  and  C8_8 
ROOT
HETATM    1  C1  UNL     1     -34.885   5.037   5.098  1.00 20.00    -0.030 C 
HETATM    2  C2  UNL     1     -34.201   5.864   4.301  1.00 20.00    -0.026 C 
HETATM    3  C3  UNL     1     -34.731   5.401   6.536  1.00 20.00     0.027 C 
HETATM    4  C4  UNL     1     -34.125   6.803   6.467  1.00 20.00     0.012 C 
HETATM    5  C5  UNL     1     -33.472   6.913   5.081  1.00 20.00     0.008 C 
ENDROOT
BRANCH   5   6
HETATM    6  C7  UNL     1     -33.611   8.307   4.486  1.00 20.00     0.008 C 
BRANCH   6   7
HETATM    7  C8  UNL     1     -32.332   8.743   3.778  1.00 20.00    -0.004 C 
HETATM    8  C6  UNL     1     -32.137   7.992   2.469  1.00 20.00     0.005 C 
ENDBRANCH   6   7
ENDBRANCH   5   6
TORSDOF 2
ENDMDL
MODEL 3
REMARK VINA RESULT:      -4.6      0.793      3.734
REMARK  2 active torsions:
REMARK  status: ('A' for Active; 'I' for Inactive)
REMARK    1  A    between atoms: C5_5  and  C7_7 
REMARK    2  A    between atoms: C7_7  and  C8_8 
ROOT
HETATM    1  C1  UNL     1     -32.181   7.457   3.244  1.00 20.00    -0.030 C 
HETATM    2  C2  UNL     1     -33.024   6.680   3.932  1.00 20.00    -0.026 C 
HETATM    3  C3  UNL     1     -32.231   8.874   3.704  1.00 20.00     0.027 C 
HETATM    4  C4  UNL     1     -32.987   8.772   5.030  1.00 20.00     0.012 C 
HETATM    5  C5  UNL     1     -33.781   7.459   4.963  1.00 20.00     0.008 C 
ENDROOT
BRANCH   5   6
HETATM    6  C7  UNL     1     -33.851   6.757   6.311  1.00 20.00     0.008 C 
BRANCH   6   7
HETATM    7  C8  UNL     1     -34.552   5.406   6.204  1.00 20.00    -0.004 C 
HETATM    8  C6  UNL     1     -35.392   5.315   4.939  1.00 20.00     0.005 C 
ENDBRANCH   6   7
ENDBRANCH   5   6
TORSDOF 2
ENDMDL
MODEL 4
REMARK VINA RESULT:      -4.5      0.952      3.770
REMARK  2 active torsions:
REMARK  status: ('A' for Active; 'I' for Inactive)
REMARK    1  A    between atoms: C5_5  and  C7_7 
REMARK    2  A    between atoms: C7_7  and  C8_8 
ROOT
HETATM    1  C1  UNL     1     -32.444   8.875   4.170  1.00 20.00    -0.030 C 
HETATM    2  C2  UNL     1     -33.369   8.236   4.893  1.00 20.00    -0.026 C 
HETATM    3  C3  UNL     1     -31.769   7.964   3.202  1.00 20.00     0.027 C 
HETATM    4  C4  UNL     1     -32.682   6.736   3.202  1.00 20.00     0.012 C 
HETATM    5  C5  UNL     1     -33.458   6.787   4.527  1.00 20.00     0.008 C 
ENDROOT
BRANCH   5   6
HETATM    6  C7  UNL     1     -34.889   6.294   4.376  1.00 20.00     0.008 C 
BRANCH   6   7
HETATM    7  C8  UNL     1     -35.167   5.097   5.282  1.00 20.00    -0.004 C 
HETATM    8  C6  UNL     1     -34.405   5.205   6.594  1.00 20.00     0.005 C 
ENDBRANCH   6   7
ENDBRANCH   5   6
TORSDOF 2
ENDMDL
MODEL 5
REMARK VINA RESULT:      -4.4      0.914      3.846
REMARK  2 active torsions:
REMARK  status: ('A' for Active; 'I' for Inactive)
REMARK    1  A    between atoms: C5_5  and  C7_7 
REMARK    2  A    between atoms: C7_7  and  C8_8 
ROOT
HETATM    1  C1  UNL     1     -32.545   8.965   2.445  1.00 20.00    -0.030 C 
HETATM    2  C2  UNL     1     -32.746   9.113   3.759  1.00 20.00    -0.026 C 
HETATM    3  C3  UNL     1     -32.209   7.556   2.091  1.00 20.00     0.027 C 
HETATM    4  C4  UNL     1     -32.584   6.790   3.360  1.00 20.00     0.012 C 
HETATM    5  C5  UNL     1     -32.568   7.823   4.497  1.00 20.00     0.008 C 
ENDROOT
BRANCH   5   6
HETATM    6  C7  UNL     1     -33.660   7.566   5.525  1.00 20.00     0.008 C 
BRANCH   6   7
HETATM    7  C8  UNL     1     -34.530   6.375   5.132  1.00 20.00    -0.004 C 
HETATM    8  C6  UNL     1     -34.616   5.355   6.257  1.00 20.00     0.005 C 
ENDBRANCH   6   7
ENDBRANCH   5   6
TORSDOF 2
ENDMDL
MODEL 6
REMARK VINA RESULT:      -4.3      1.054      2.041
REMARK  2 active torsions:
REMARK  status: ('A' for Active; 'I' for Inactive)
REMARK    1  A    between atoms: C5_5  and  C7_7 
REMARK    2  A    between atoms: C7_7  and  C8_8 
ROOT
HETATM    1  C1  UNL     1     -34.139   5.520   4.080  1.00 20.00    -0.030 C 
HETATM    2  C2  UNL     1     -33.190   6.136   3.367  1.00 20.00    -0.026 C 
HETATM    3  C3  UNL     1     -34.444   6.251   5.344  1.00 20.00     0.027 C 
HETATM    4  C4  UNL     1     -33.777   7.608   5.119  1.00 20.00     0.012 C 
HETATM    5  C5  UNL     1     -32.702   7.378   4.045  1.00 20.00     0.008 C 
ENDROOT
BRANCH   5   6
HETATM    6  C7  UNL     1     -32.567   8.562   3.100  1.00 20.00     0.008 C 
BRANCH   6   7
HETATM    7  C8  UNL     1     -32.234   8.111   1.681  1.00 20.00    -0.004 C 
HETATM    8  C6  UNL     1     -32.632   9.162   0.656  1.00 20.00     0.005 C 
ENDBRANCH   6   7
ENDBRANCH   5   6
TORSDOF 2
ENDMDL
MODEL 7
REMARK VINA RESULT:      -4.2      1.483      2.886
REMARK  2 active torsions:
REMARK  status: ('A' for Active; 'I' for Inactive)
REMARK    1  A    between atoms: C5_5  and  C7_7 
REMARK    2  A    between atoms: C7_7  and  C8_8 
ROOT
HETATM    1  C1  UNL     1     -33.637   7.970   5.589  1.00 20.00    -0.030 C 
HETATM    2  C2  UNL     1     -33.886   7.327   4.444  1.00 20.00    -0.026 C 
HETATM    3  C3  UNL     1     -34.184   7.237   6.767  1.00 20.00     0.027 C 
HETATM    4  C4  UNL     1     -34.503   5.858   6.188  1.00 20.00     0.012 C 
HETATM    5  C5  UNL     1     -34.649   6.060   4.672  1.00 20.00     0.008 C 
ENDROOT
BRANCH   5   6
HETATM    6  C7  UNL     1     -34.105   4.882   3.878  1.00 20.00     0.008 C 
BRANCH   6   7
HETATM    7  C8  UNL     1     -33.002   5.317   2.917  1.00 20.00    -0.004 C 
HETATM    8  C6  UNL     1     -32.811   4.305   1.797  1.00 20.00     0.005 C 
ENDBRANCH   6   7
ENDBRANCH   5   6
TORSDOF 2
ENDMDL
MODEL 8
REMARK VINA RESULT:      -3.9     12.130     12.666
REMARK  2 active torsions:
REMARK  status: ('A' for Active; 'I' for Inactive)
REMARK    1  A    between atoms: C5_5  and  C7_7 
REMARK    2  A    between atoms: C7_7  and  C8_8 
ROOT
HETATM    1  C1  UNL     1     -31.060  18.631   0.455  1.00 20.00    -0.030 C 
HETATM    2  C2  UNL     1     -31.548  18.355  -0.759  1.00 20.00    -0.026 C 
HETATM    3  C3  UNL     1     -32.147  18.865   1.449  1.00 20.00     0.027 C 
HETATM    4  C4  UNL     1     -33.386  18.337   0.724  1.00 20.00     0.012 C 
HETATM    5  C5  UNL     1     -33.044  18.367  -0.774  1.00 20.00     0.008 C 
ENDROOT
BRANCH   5   6
HETATM    6  C7  UNL     1     -33.645  17.189  -1.526  1.00 20.00     0.008 C 
BRANCH   6   7
HETATM    7  C8  UNL     1     -33.279  17.226  -3.007  1.00 20.00    -0.004 C 
HETATM    8  C6  UNL     1     -33.268  15.830  -3.611  1.00 20.00     0.005 C 
ENDBRANCH   6   7
ENDBRANCH   5   6
TORSDOF 2
ENDMDL
MODEL 9
REMARK VINA RESULT:      -3.8      1.168      1.853
REMARK  2 active torsions:
REMARK  status: ('A' for Active; 'I' for Inactive)
REMARK    1  A    between atoms: C5_5  and  C7_7 
REMARK    2  A    between atoms: C7_7  and  C8_8 
ROOT
HETATM    1  C1  UNL     1     -34.430   5.200   5.040  1.00 20.00    -0.030 C 
HETATM    2  C2  UNL     1     -34.142   6.431   4.605  1.00 20.00    -0.026 C 
HETATM    3  C3  UNL     1     -33.943   4.152   4.097  1.00 20.00     0.027 C 
HETATM    4  C4  UNL     1     -32.996   4.932   3.184  1.00 20.00     0.012 C 
HETATM    5  C5  UNL     1     -33.421   6.405   3.294  1.00 20.00     0.008 C 
ENDROOT
BRANCH   5   6
HETATM    6  C7  UNL     1     -32.233   7.353   3.244  1.00 20.00     0.008 C 
BRANCH   6   7
HETATM    7  C8  UNL     1     -32.643   8.782   3.591  1.00 20.00    -0.004 C 
HETATM    8  C6  UNL     1     -32.125   9.192   4.961  1.00 20.00     0.005 C 
ENDBRANCH   6   7
ENDBRANCH   5   6
TORSDOF 2
ENDMDL
