MODEL 1
REMARK VINA RESULT:      -3.2      0.000      0.000
REMARK  0 active torsions:
REMARK  status: ('A' for Active; 'I' for Inactive)
ROOT
HETATM    1  C1  UNL     1     -32.261   7.277   3.333  1.00 20.00     0.117 C 
HETATM    2  C2  UNL     1     -34.405   6.272   4.880  1.00 20.00     0.117 C 
HETATM    3  C3  UNL     1     -32.092   7.789   1.909  1.00 20.00     0.033 C 
HETATM    4  C4  UNL     1     -34.686   4.985   5.645  1.00 20.00     0.033 C 
HETATM    5  S5  UNL     1     -33.461   5.886   3.351  1.00 20.00    -0.137 SA
HETATM    6  S6  UNL     1     -32.815   8.621   4.414  1.00 20.00    -0.081 SA
HETATM    7  S7  UNL     1     -33.490   7.430   5.928  1.00 20.00    -0.081 SA
ENDROOT
TORSDOF 0
ENDMDL
MODEL 2
REMARK VINA RESULT:      -3.2      0.034      3.411
REMARK  0 active torsions:
REMARK  status: ('A' for Active; 'I' for Inactive)
ROOT
HETATM    1  C1  UNL     1     -34.403   6.280   4.900  1.00 20.00     0.117 C 
HETATM    2  C2  UNL     1     -32.268   7.268   3.328  1.00 20.00     0.117 C 
HETATM    3  C3  UNL     1     -34.675   5.008   5.690  1.00 20.00     0.033 C 
HETATM    4  C4  UNL     1     -32.106   7.753   1.893  1.00 20.00     0.033 C 
HETATM    5  S5  UNL     1     -33.462   5.871   3.375  1.00 20.00    -0.137 SA
HETATM    6  S6  UNL     1     -33.488   7.463   5.923  1.00 20.00    -0.081 SA
HETATM    7  S7  UNL     1     -32.824   8.628   4.385  1.00 20.00    -0.081 SA
ENDROOT
TORSDOF 0
ENDMDL
MODEL 3
REMARK VINA RESULT:      -2.8     11.907     13.589
REMARK  0 active torsions:
REMARK  status: ('A' for Active; 'I' for Inactive)
ROOT
HETATM    1  C1  UNL     1     -33.478  16.594  -3.745  1.00 20.00     0.117 C 
HETATM    2  C2  UNL     1     -35.479  16.538  -5.743  1.00 20.00     0.117 C 
HETATM    3  C3  UNL     1     -33.457  16.717  -2.228  1.00 20.00     0.033 C 
HETATM    4  C4  UNL     1     -35.798  17.355  -6.988  1.00 20.00     0.033 C 
HETATM    5  S5  UNL     1     -34.820  17.644  -4.432  1.00 20.00    -0.137 SA
HETATM    6  S6  UNL     1     -33.705  14.862  -4.224  1.00 20.00    -0.081 SA
HETATM    7  S7  UNL     1     -34.290  15.233  -6.144  1.00 20.00    -0.081 SA
ENDROOT
TORSDOF 0
ENDMDL
MODEL 4
REMARK VINA RESULT:      -2.7     11.942     13.398
REMARK  0 active torsions:
REMARK  status: ('A' for Active; 'I' for Inactive)
ROOT
HETATM    1  C1  UNL     1     -35.627  16.451  -5.621  1.00 20.00     0.117 C 
HETATM    2  C2  UNL     1     -33.512  16.637  -3.752  1.00 20.00     0.117 C 
HETATM    3  C3  UNL     1     -36.064  17.233  -6.853  1.00 20.00     0.033 C 
HETATM    4  C4  UNL     1     -33.404  16.783  -2.240  1.00 20.00     0.033 C 
HETATM    5  S5  UNL     1     -34.947  17.608  -4.365  1.00 20.00    -0.137 SA
HETATM    6  S6  UNL     1     -34.398  15.203  -6.081  1.00 20.00    -0.081 SA
HETATM    7  S7  UNL     1     -33.677  14.890  -4.197  1.00 20.00    -0.081 SA
ENDROOT
TORSDOF 0
ENDMDL
MODEL 5
REMARK VINA RESULT:      -2.6     15.864     16.489
REMARK  0 active torsions:
REMARK  status: ('A' for Active; 'I' for Inactive)
ROOT
HETATM    1  C1  UNL     1     -22.849  17.962   9.463  1.00 20.00     0.117 C 
HETATM    2  C2  UNL     1     -24.453  18.890  11.601  1.00 20.00     0.117 C 
HETATM    3  C3  UNL     1     -22.392  18.520   8.122  1.00 20.00     0.033 C 
HETATM    4  C4  UNL     1     -25.710  18.404  12.309  1.00 20.00     0.033 C 
HETATM    5  S5  UNL     1     -24.569  18.509   9.806  1.00 20.00    -0.137 SA
HETATM    6  S6  UNL     1     -21.725  18.505  10.776  1.00 20.00    -0.081 SA
HETATM    7  S7  UNL     1     -22.989  18.114  12.331  1.00 20.00    -0.081 SA
ENDROOT
TORSDOF 0
ENDMDL
MODEL 6
REMARK VINA RESULT:      -2.6     15.812     16.816
REMARK  0 active torsions:
REMARK  status: ('A' for Active; 'I' for Inactive)
ROOT
HETATM    1  C1  UNL     1     -24.167  18.754  11.371  1.00 20.00     0.117 C 
HETATM    2  C2  UNL     1     -22.378  17.645   9.480  1.00 20.00     0.117 C 
HETATM    3  C3  UNL     1     -25.395  18.263  12.126  1.00 20.00     0.033 C 
HETATM    4  C4  UNL     1     -21.925  18.001   8.071  1.00 20.00     0.033 C 
HETATM    5  S5  UNL     1     -24.161  18.045   9.675  1.00 20.00    -0.137 SA
HETATM    6  S6  UNL     1     -22.662  18.292  12.267  1.00 20.00    -0.081 SA
HETATM    7  S7  UNL     1     -21.380  18.538  10.698  1.00 20.00    -0.081 SA
ENDROOT
TORSDOF 0
ENDMDL
MODEL 7
REMARK VINA RESULT:      -2.6      1.744      3.179
REMARK  0 active torsions:
REMARK  status: ('A' for Active; 'I' for Inactive)
ROOT
HETATM    1  C1  UNL     1     -34.132   7.106   5.056  1.00 20.00     0.117 C 
HETATM    2  C2  UNL     1     -32.699   5.646   3.102  1.00 20.00     0.117 C 
HETATM    3  C3  UNL     1     -34.335   7.002   6.561  1.00 20.00     0.033 C 
HETATM    4  C4  UNL     1     -33.051   4.918   1.811  1.00 20.00     0.033 C 
HETATM    5  S5  UNL     1     -34.052   5.421   4.325  1.00 20.00    -0.137 SA
HETATM    6  S6  UNL     1     -32.620   8.037   4.697  1.00 20.00    -0.081 SA
HETATM    7  S7  UNL     1     -32.416   7.402   2.767  1.00 20.00    -0.081 SA
ENDROOT
TORSDOF 0
ENDMDL
MODEL 8
REMARK VINA RESULT:      -2.4     12.422     13.191
REMARK  0 active torsions:
REMARK  status: ('A' for Active; 'I' for Inactive)
ROOT
HETATM    1  C1  UNL     1     -34.309  16.605  -4.896  1.00 20.00     0.117 C 
HETATM    2  C2  UNL     1     -33.844  17.513  -2.257  1.00 20.00     0.117 C 
HETATM    3  C3  UNL     1     -34.917  15.360  -5.527  1.00 20.00     0.033 C 
HETATM    4  C4  UNL     1     -32.625  17.954  -1.456  1.00 20.00     0.033 C 
HETATM    5  S5  UNL     1     -33.377  16.137  -3.382  1.00 20.00    -0.137 SA
HETATM    6  S6  UNL     1     -35.611  17.803  -4.506  1.00 20.00    -0.081 SA
HETATM    7  S7  UNL     1     -34.512  18.912  -3.191  1.00 20.00    -0.081 SA
ENDROOT
TORSDOF 0
ENDMDL
MODEL 9
REMARK VINA RESULT:      -2.4     12.424     13.244
REMARK  0 active torsions:
REMARK  status: ('A' for Active; 'I' for Inactive)
ROOT
HETATM    1  C1  UNL     1     -33.849  17.542  -2.258  1.00 20.00     0.117 C 
HETATM    2  C2  UNL     1     -34.314  16.597  -4.884  1.00 20.00     0.117 C 
HETATM    3  C3  UNL     1     -32.629  17.966  -1.454  1.00 20.00     0.033 C 
HETATM    4  C4  UNL     1     -34.948  15.357  -5.499  1.00 20.00     0.033 C 
HETATM    5  S5  UNL     1     -33.409  16.133  -3.354  1.00 20.00    -0.137 SA
HETATM    6  S6  UNL     1     -34.471  18.941  -3.227  1.00 20.00    -0.081 SA
HETATM    7  S7  UNL     1     -35.586  17.836  -4.532  1.00 20.00    -0.081 SA
ENDROOT
TORSDOF 0
ENDMDL
