MODEL 1
REMARK VINA RESULT:      -4.4      0.000      0.000
REMARK  3 active torsions:
REMARK  status: ('A' for Active; 'I' for Inactive)
REMARK    1  A    between atoms: C3_3  and  C5_5 
REMARK    2  A    between atoms: C4_4  and  C6_6 
REMARK    3  A    between atoms: C5_5  and  C6_6 
ROOT
HETATM    1  C6  UNL     1     -32.629   7.575   4.517  1.00 20.00     0.082 C 
HETATM    2 CL7  UNL     1     -32.189   9.302   4.720  1.00 20.00    -0.125 Cl
ENDROOT
BRANCH   1   3
HETATM    3  C4  UNL     1     -32.405   7.135   3.062  1.00 20.00     0.016 C 
HETATM    4  C2  UNL     1     -32.881   5.717   2.774  1.00 20.00     0.006 C 
ENDBRANCH   1   3
BRANCH   1   5
HETATM    5  C5  UNL     1     -34.091   7.347   4.932  1.00 20.00     0.020 C 
BRANCH   5   6
HETATM    6  C3  UNL     1     -34.240   6.687   6.307  1.00 20.00    -0.003 C 
HETATM    7  C1  UNL     1     -34.584   5.210   6.178  1.00 20.00     0.005 C 
ENDBRANCH   5   6
ENDBRANCH   1   5
TORSDOF 3
ENDMDL
MODEL 2
REMARK VINA RESULT:      -4.3      2.220      3.005
REMARK  3 active torsions:
REMARK  status: ('A' for Active; 'I' for Inactive)
REMARK    1  A    between atoms: C3_3  and  C5_5 
REMARK    2  A    between atoms: C4_4  and  C6_6 
REMARK    3  A    between atoms: C5_5  and  C6_6 
ROOT
HETATM    1  C6  UNL     1     -34.686   5.623   4.811  1.00 20.00     0.082 C 
HETATM    2 CL7  UNL     1     -34.387   5.350   6.558  1.00 20.00    -0.125 Cl
ENDROOT
BRANCH   1   3
HETATM    3  C4  UNL     1     -33.905   4.603   3.970  1.00 20.00     0.016 C 
HETATM    4  C2  UNL     1     -33.094   5.232   2.845  1.00 20.00     0.006 C 
ENDBRANCH   1   3
BRANCH   1   5
HETATM    5  C5  UNL     1     -34.294   7.058   4.422  1.00 20.00     0.020 C 
BRANCH   5   6
HETATM    6  C3  UNL     1     -33.411   7.753   5.464  1.00 20.00    -0.003 C 
HETATM    7  C1  UNL     1     -32.364   8.637   4.801  1.00 20.00     0.005 C 
ENDBRANCH   5   6
ENDBRANCH   1   5
TORSDOF 3
ENDMDL
MODEL 3
REMARK VINA RESULT:      -4.0      1.975      2.435
REMARK  3 active torsions:
REMARK  status: ('A' for Active; 'I' for Inactive)
REMARK    1  A    between atoms: C3_3  and  C5_5 
REMARK    2  A    between atoms: C4_4  and  C6_6 
REMARK    3  A    between atoms: C5_5  and  C6_6 
ROOT
HETATM    1  C6  UNL     1     -33.316   6.860   3.319  1.00 20.00     0.082 C 
HETATM    2 CL7  UNL     1     -32.834   5.204   2.831  1.00 20.00    -0.125 Cl
ENDROOT
BRANCH   1   3
HETATM    3  C4  UNL     1     -32.074   7.704   3.646  1.00 20.00     0.016 C 
HETATM    4  C2  UNL     1     -32.300   8.714   4.764  1.00 20.00     0.006 C 
ENDBRANCH   1   3
BRANCH   1   5
HETATM    5  C5  UNL     1     -34.265   6.804   4.527  1.00 20.00     0.020 C 
BRANCH   5   6
HETATM    6  C3  UNL     1     -34.623   5.377   4.956  1.00 20.00    -0.003 C 
HETATM    7  C1  UNL     1     -34.499   5.206   6.464  1.00 20.00     0.005 C 
ENDBRANCH   5   6
ENDBRANCH   1   5
TORSDOF 3
ENDMDL
MODEL 4
REMARK VINA RESULT:      -4.0      1.954      3.017
REMARK  3 active torsions:
REMARK  status: ('A' for Active; 'I' for Inactive)
REMARK    1  A    between atoms: C3_3  and  C5_5 
REMARK    2  A    between atoms: C4_4  and  C6_6 
REMARK    3  A    between atoms: C5_5  and  C6_6 
ROOT
HETATM    1  C6  UNL     1     -33.801   6.730   5.298  1.00 20.00     0.082 C 
HETATM    2 CL7  UNL     1     -34.510   6.841   6.941  1.00 20.00    -0.125 Cl
ENDROOT
BRANCH   1   3
HETATM    3  C4  UNL     1     -33.673   8.129   4.675  1.00 20.00     0.016 C 
HETATM    4  C2  UNL     1     -32.238   8.527   4.359  1.00 20.00     0.006 C 
ENDBRANCH   1   3
BRANCH   1   5
HETATM    5  C5  UNL     1     -34.662   5.818   4.408  1.00 20.00     0.020 C 
BRANCH   5   6
HETATM    6  C3  UNL     1     -33.873   4.675   3.761  1.00 20.00    -0.003 C 
HETATM    7  C1  UNL     1     -32.950   5.190   2.666  1.00 20.00     0.005 C 
ENDBRANCH   5   6
ENDBRANCH   1   5
TORSDOF 3
ENDMDL
MODEL 5
REMARK VINA RESULT:      -4.0      0.771      2.954
REMARK  3 active torsions:
REMARK  status: ('A' for Active; 'I' for Inactive)
REMARK    1  A    between atoms: C3_3  and  C5_5 
REMARK    2  A    between atoms: C4_4  and  C6_6 
REMARK    3  A    between atoms: C5_5  and  C6_6 
ROOT
HETATM    1  C6  UNL     1     -33.849   7.730   5.143  1.00 20.00     0.082 C 
HETATM    2 CL7  UNL     1     -32.316   8.638   4.937  1.00 20.00    -0.125 Cl
ENDROOT
BRANCH   1   3
HETATM    3  C4  UNL     1     -33.829   6.940   6.461  1.00 20.00     0.016 C 
HETATM    4  C2  UNL     1     -34.528   5.590   6.374  1.00 20.00     0.006 C 
ENDBRANCH   1   3
BRANCH   1   5
HETATM    5  C5  UNL     1     -34.073   6.787   3.950  1.00 20.00     0.020 C 
BRANCH   5   6
HETATM    6  C3  UNL     1     -32.790   6.466   3.176  1.00 20.00    -0.003 C 
HETATM    7  C1  UNL     1     -32.849   5.076   2.559  1.00 20.00     0.005 C 
ENDBRANCH   5   6
ENDBRANCH   1   5
TORSDOF 3
ENDMDL
MODEL 6
REMARK VINA RESULT:      -3.9      1.612      3.370
REMARK  3 active torsions:
REMARK  status: ('A' for Active; 'I' for Inactive)
REMARK    1  A    between atoms: C3_3  and  C5_5 
REMARK    2  A    between atoms: C4_4  and  C6_6 
REMARK    3  A    between atoms: C5_5  and  C6_6 
ROOT
HETATM    1  C6  UNL     1     -34.037   7.332   4.791  1.00 20.00     0.082 C 
HETATM    2 CL7  UNL     1     -33.979   7.217   6.580  1.00 20.00    -0.125 Cl
ENDROOT
BRANCH   1   3
HETATM    3  C4  UNL     1     -34.228   5.938   4.173  1.00 20.00     0.016 C 
HETATM    4  C2  UNL     1     -34.583   4.862   5.191  1.00 20.00     0.006 C 
ENDBRANCH   1   3
BRANCH   1   5
HETATM    5  C5  UNL     1     -32.754   7.989   4.258  1.00 20.00     0.020 C 
BRANCH   5   6
HETATM    6  C3  UNL     1     -32.134   7.244   3.071  1.00 20.00    -0.003 C 
HETATM    7  C1  UNL     1     -32.204   8.075   1.798  1.00 20.00     0.005 C 
ENDBRANCH   5   6
ENDBRANCH   1   5
TORSDOF 3
ENDMDL
MODEL 7
REMARK VINA RESULT:      -3.9      1.266      1.479
REMARK  3 active torsions:
REMARK  status: ('A' for Active; 'I' for Inactive)
REMARK    1  A    between atoms: C3_3  and  C5_5 
REMARK    2  A    between atoms: C4_4  and  C6_6 
REMARK    3  A    between atoms: C5_5  and  C6_6 
ROOT
HETATM    1  C6  UNL     1     -33.275   7.419   5.038  1.00 20.00     0.082 C 
HETATM    2 CL7  UNL     1     -34.017   8.767   5.959  1.00 20.00    -0.125 Cl
ENDROOT
BRANCH   1   3
HETATM    3  C4  UNL     1     -32.236   7.960   4.044  1.00 20.00     0.016 C 
HETATM    4  C2  UNL     1     -32.213   7.211   2.717  1.00 20.00     0.006 C 
ENDBRANCH   1   3
BRANCH   1   5
HETATM    5  C5  UNL     1     -34.360   6.616   4.303  1.00 20.00     0.020 C 
BRANCH   5   6
HETATM    6  C3  UNL     1     -34.687   5.277   4.973  1.00 20.00    -0.003 C 
HETATM    7  C1  UNL     1     -34.460   5.340   6.476  1.00 20.00     0.005 C 
ENDBRANCH   5   6
ENDBRANCH   1   5
TORSDOF 3
ENDMDL
MODEL 8
REMARK VINA RESULT:      -3.8      2.081      3.913
REMARK  3 active torsions:
REMARK  status: ('A' for Active; 'I' for Inactive)
REMARK    1  A    between atoms: C3_3  and  C5_5 
REMARK    2  A    between atoms: C4_4  and  C6_6 
REMARK    3  A    between atoms: C5_5  and  C6_6 
ROOT
HETATM    1  C6  UNL     1     -34.821   4.973   5.071  1.00 20.00     0.082 C 
HETATM    2 CL7  UNL     1     -35.841   6.140   4.169  1.00 20.00    -0.125 Cl
ENDROOT
BRANCH   1   3
HETATM    3  C4  UNL     1     -34.406   5.563   6.427  1.00 20.00     0.016 C 
HETATM    4  C2  UNL     1     -34.011   7.033   6.358  1.00 20.00     0.006 C 
ENDBRANCH   1   3
BRANCH   1   5
HETATM    5  C5  UNL     1     -33.582   4.597   4.242  1.00 20.00     0.020 C 
BRANCH   5   6
HETATM    6  C3  UNL     1     -33.472   5.371   2.924  1.00 20.00    -0.003 C 
HETATM    7  C1  UNL     1     -32.495   6.533   3.045  1.00 20.00     0.005 C 
ENDBRANCH   5   6
ENDBRANCH   1   5
TORSDOF 3
ENDMDL
MODEL 9
REMARK VINA RESULT:      -3.8      2.104      3.577
REMARK  3 active torsions:
REMARK  status: ('A' for Active; 'I' for Inactive)
REMARK    1  A    between atoms: C3_3  and  C5_5 
REMARK    2  A    between atoms: C4_4  and  C6_6 
REMARK    3  A    between atoms: C5_5  and  C6_6 
ROOT
HETATM    1  C6  UNL     1     -33.442   5.854   4.208  1.00 20.00     0.082 C 
HETATM    2 CL7  UNL     1     -33.100   5.194   2.576  1.00 20.00    -0.125 Cl
ENDROOT
BRANCH   1   3
HETATM    3  C4  UNL     1     -34.595   5.080   4.867  1.00 20.00     0.016 C 
HETATM    4  C2  UNL     1     -34.792   5.415   6.340  1.00 20.00     0.006 C 
ENDBRANCH   1   3
BRANCH   1   5
HETATM    5  C5  UNL     1     -33.778   7.351   4.117  1.00 20.00     0.020 C 
BRANCH   5   6
HETATM    6  C3  UNL     1     -32.571   8.228   3.768  1.00 20.00    -0.003 C 
HETATM    7  C1  UNL     1     -32.152   9.088   4.952  1.00 20.00     0.005 C 
ENDBRANCH   5   6
ENDBRANCH   1   5
TORSDOF 3
ENDMDL
