MODEL 1
REMARK VINA RESULT:      -4.2      0.000      0.000
REMARK  2 active torsions:
REMARK  status: ('A' for Active; 'I' for Inactive)
REMARK    1  A    between atoms: C1_1  and  C5_5 
REMARK    2  A    between atoms: C1_1  and  C6_6 
ROOT
HETATM    1  C1  UNL     1     -33.554   6.896   5.288  1.00 20.00     0.167 C 
HETATM    2  O7  UNL     1     -33.067   7.107   6.404  1.00 20.00    -0.294 OA
ENDROOT
BRANCH   1   3
HETATM    3  C5  UNL     1     -33.218   7.801   4.119  1.00 20.00     0.248 C 
HETATM    4 CL8  UNL     1     -32.279   6.864   2.948  1.00 20.00    -0.100 Cl
HETATM    5 CL9  UNL     1     -32.290   9.177   4.736  1.00 20.00    -0.100 Cl
ENDBRANCH   1   3
BRANCH   1   6
HETATM    6  C6  UNL     1     -34.515   5.713   5.047  1.00 20.00     0.012 C 
HETATM    7  C2  UNL     1     -35.002   5.162   6.400  1.00 20.00     0.022 C 
HETATM    8  C3  UNL     1     -35.736   6.188   4.247  1.00 20.00     0.022 C 
HETATM    9  C4  UNL     1     -33.783   4.592   4.299  1.00 20.00     0.022 C 
ENDBRANCH   1   6
TORSDOF 2
ENDMDL
MODEL 2
REMARK VINA RESULT:      -4.2      0.085      1.429
REMARK  2 active torsions:
REMARK  status: ('A' for Active; 'I' for Inactive)
REMARK    1  A    between atoms: C1_1  and  C5_5 
REMARK    2  A    between atoms: C1_1  and  C6_6 
ROOT
HETATM    1  C1  UNL     1     -33.571   6.897   5.303  1.00 20.00     0.167 C 
HETATM    2  O7  UNL     1     -33.090   7.077   6.427  1.00 20.00    -0.294 OA
ENDROOT
BRANCH   1   3
HETATM    3  C5  UNL     1     -33.248   7.849   4.168  1.00 20.00     0.248 C 
HETATM    4 CL8  UNL     1     -32.295   6.968   2.964  1.00 20.00    -0.100 Cl
HETATM    5 CL9  UNL     1     -32.340   9.215   4.834  1.00 20.00    -0.100 Cl
ENDBRANCH   1   3
BRANCH   1   6
HETATM    6  C6  UNL     1     -34.509   5.706   5.018  1.00 20.00     0.012 C 
HETATM    7  C2  UNL     1     -35.739   6.197   4.233  1.00 20.00     0.022 C 
HETATM    8  C3  UNL     1     -33.776   4.658   4.168  1.00 20.00     0.022 C 
HETATM    9  C4  UNL     1     -34.987   5.091   6.339  1.00 20.00     0.022 C 
ENDBRANCH   1   6
TORSDOF 2
ENDMDL
MODEL 3
REMARK VINA RESULT:      -4.0      1.559      2.099
REMARK  2 active torsions:
REMARK  status: ('A' for Active; 'I' for Inactive)
REMARK    1  A    between atoms: C1_1  and  C5_5 
REMARK    2  A    between atoms: C1_1  and  C6_6 
ROOT
HETATM    1  C1  UNL     1     -33.319   6.722   3.861  1.00 20.00     0.167 C 
HETATM    2  O7  UNL     1     -32.563   6.136   3.079  1.00 20.00    -0.294 OA
ENDROOT
BRANCH   1   3
HETATM    3  C5  UNL     1     -33.281   8.232   3.982  1.00 20.00     0.248 C 
HETATM    4 CL8  UNL     1     -32.839   8.900   2.403  1.00 20.00    -0.100 Cl
HETATM    5 CL9  UNL     1     -32.086   8.657   5.217  1.00 20.00    -0.100 Cl
ENDBRANCH   1   3
BRANCH   1   6
HETATM    6  C6  UNL     1     -34.321   5.942   4.737  1.00 20.00     0.012 C 
HETATM    7  C2  UNL     1     -35.753   6.193   4.230  1.00 20.00     0.022 C 
HETATM    8  C3  UNL     1     -34.031   4.437   4.648  1.00 20.00     0.022 C 
HETATM    9  C4  UNL     1     -34.228   6.423   6.190  1.00 20.00     0.022 C 
ENDBRANCH   1   6
TORSDOF 2
ENDMDL
MODEL 4
REMARK VINA RESULT:      -4.0      1.551      2.025
REMARK  2 active torsions:
REMARK  status: ('A' for Active; 'I' for Inactive)
REMARK    1  A    between atoms: C1_1  and  C5_5 
REMARK    2  A    between atoms: C1_1  and  C6_6 
ROOT
HETATM    1  C1  UNL     1     -33.322   6.729   3.884  1.00 20.00     0.167 C 
HETATM    2  O7  UNL     1     -32.556   6.140   3.114  1.00 20.00    -0.294 OA
ENDROOT
BRANCH   1   3
HETATM    3  C5  UNL     1     -33.283   8.241   3.998  1.00 20.00     0.248 C 
HETATM    4 CL8  UNL     1     -32.839   8.902   2.417  1.00 20.00    -0.100 Cl
HETATM    5 CL9  UNL     1     -32.089   8.670   5.233  1.00 20.00    -0.100 Cl
ENDBRANCH   1   3
BRANCH   1   6
HETATM    6  C6  UNL     1     -34.336   5.955   4.749  1.00 20.00     0.012 C 
HETATM    7  C2  UNL     1     -34.034   4.447   4.671  1.00 20.00     0.022 C 
HETATM    8  C3  UNL     1     -34.218   6.399   6.214  1.00 20.00     0.022 C 
HETATM    9  C4  UNL     1     -35.758   6.194   4.226  1.00 20.00     0.022 C 
ENDBRANCH   1   6
TORSDOF 2
ENDMDL
MODEL 5
REMARK VINA RESULT:      -3.7      1.017      1.584
REMARK  2 active torsions:
REMARK  status: ('A' for Active; 'I' for Inactive)
REMARK    1  A    between atoms: C1_1  and  C5_5 
REMARK    2  A    between atoms: C1_1  and  C6_6 
ROOT
HETATM    1  C1  UNL     1     -33.753   7.442   4.947  1.00 20.00     0.167 C 
HETATM    2  O7  UNL     1     -34.318   8.221   5.722  1.00 20.00    -0.294 OA
ENDROOT
BRANCH   1   3
HETATM    3  C5  UNL     1     -32.475   7.852   4.243  1.00 20.00     0.248 C 
HETATM    4 CL8  UNL     1     -31.768   9.212   5.129  1.00 20.00    -0.100 Cl
HETATM    5 CL9  UNL     1     -32.882   8.308   2.581  1.00 20.00    -0.100 Cl
ENDBRANCH   1   3
BRANCH   1   6
HETATM    6  C6  UNL     1     -34.324   6.036   4.672  1.00 20.00     0.012 C 
HETATM    7  C2  UNL     1     -34.322   5.216   5.976  1.00 20.00     0.022 C 
HETATM    8  C3  UNL     1     -35.770   6.149   4.171  1.00 20.00     0.022 C 
HETATM    9  C4  UNL     1     -33.450   5.312   3.640  1.00 20.00     0.022 C 
ENDBRANCH   1   6
TORSDOF 2
ENDMDL
MODEL 6
REMARK VINA RESULT:      -3.7      1.456      1.991
REMARK  2 active torsions:
REMARK  status: ('A' for Active; 'I' for Inactive)
REMARK    1  A    between atoms: C1_1  and  C5_5 
REMARK    2  A    between atoms: C1_1  and  C6_6 
ROOT
HETATM    1  C1  UNL     1     -33.309   6.844   4.326  1.00 20.00     0.167 C 
HETATM    2  O7  UNL     1     -32.539   7.644   4.868  1.00 20.00    -0.294 OA
ENDROOT
BRANCH   1   3
HETATM    3  C5  UNL     1     -33.233   6.597   2.832  1.00 20.00     0.248 C 
HETATM    4 CL8  UNL     1     -32.708   4.926   2.575  1.00 20.00    -0.100 Cl
HETATM    5 CL9  UNL     1     -32.080   7.748   2.140  1.00 20.00    -0.100 Cl
ENDBRANCH   1   3
BRANCH   1   6
HETATM    6  C6  UNL     1     -34.366   6.074   5.144  1.00 20.00     0.012 C 
HETATM    7  C2  UNL     1     -33.916   4.612   5.320  1.00 20.00     0.022 C 
HETATM    8  C3  UNL     1     -34.514   6.708   6.534  1.00 20.00     0.022 C 
HETATM    9  C4  UNL     1     -35.708   6.084   4.402  1.00 20.00     0.022 C 
ENDBRANCH   1   6
TORSDOF 2
ENDMDL
MODEL 7
REMARK VINA RESULT:      -3.5      9.238     10.449
REMARK  2 active torsions:
REMARK  status: ('A' for Active; 'I' for Inactive)
REMARK    1  A    between atoms: C1_1  and  C5_5 
REMARK    2  A    between atoms: C1_1  and  C6_6 
ROOT
HETATM    1  C1  UNL     1     -41.951   5.865  -0.174  1.00 20.00     0.167 C 
HETATM    2  O7  UNL     1     -40.873   5.484  -0.641  1.00 20.00    -0.294 OA
ENDROOT
BRANCH   1   3
HETATM    3  C5  UNL     1     -43.182   4.986  -0.265  1.00 20.00     0.248 C 
HETATM    4 CL8  UNL     1     -43.165   3.868   1.107  1.00 20.00    -0.100 Cl
HETATM    5 CL9  UNL     1     -43.125   4.115  -1.806  1.00 20.00    -0.100 Cl
ENDBRANCH   1   3
BRANCH   1   6
HETATM    6  C6  UNL     1     -42.081   7.240   0.515  1.00 20.00     0.012 C 
HETATM    7  C2  UNL     1     -42.495   8.299  -0.524  1.00 20.00     0.022 C 
HETATM    8  C3  UNL     1     -43.162   7.177   1.603  1.00 20.00     0.022 C 
HETATM    9  C4  UNL     1     -40.732   7.650   1.118  1.00 20.00     0.022 C 
ENDBRANCH   1   6
TORSDOF 2
ENDMDL
MODEL 8
REMARK VINA RESULT:      -3.5     12.380     13.415
REMARK  2 active torsions:
REMARK  status: ('A' for Active; 'I' for Inactive)
REMARK    1  A    between atoms: C1_1  and  C5_5 
REMARK    2  A    between atoms: C1_1  and  C6_6 
ROOT
HETATM    1  C1  UNL     1     -33.734  15.947  -4.176  1.00 20.00     0.167 C 
HETATM    2  O7  UNL     1     -32.687  15.320  -3.983  1.00 20.00    -0.294 OA
ENDROOT
BRANCH   1   3
HETATM    3  C5  UNL     1     -34.038  17.201  -3.380  1.00 20.00     0.248 C 
HETATM    4 CL8  UNL     1     -33.113  18.538  -4.083  1.00 20.00    -0.100 Cl
HETATM    5 CL9  UNL     1     -33.573  16.912  -1.697  1.00 20.00    -0.100 Cl
ENDBRANCH   1   3
BRANCH   1   6
HETATM    6  C6  UNL     1     -34.762  15.480  -5.227  1.00 20.00     0.012 C 
HETATM    7  C2  UNL     1     -35.395  14.151  -4.773  1.00 20.00     0.022 C 
HETATM    8  C3  UNL     1     -35.876  16.526  -5.368  1.00 20.00     0.022 C 
HETATM    9  C4  UNL     1     -34.064  15.251  -6.573  1.00 20.00     0.022 C 
ENDBRANCH   1   6
TORSDOF 2
ENDMDL
MODEL 9
REMARK VINA RESULT:      -3.4     12.597     13.715
REMARK  2 active torsions:
REMARK  status: ('A' for Active; 'I' for Inactive)
REMARK    1  A    between atoms: C1_1  and  C5_5 
REMARK    2  A    between atoms: C1_1  and  C6_6 
ROOT
HETATM    1  C1  UNL     1     -34.561  16.645  -4.542  1.00 20.00     0.167 C 
HETATM    2  O7  UNL     1     -35.581  17.336  -4.626  1.00 20.00    -0.294 OA
ENDROOT
BRANCH   1   3
HETATM    3  C5  UNL     1     -33.354  17.147  -3.774  1.00 20.00     0.248 C 
HETATM    4 CL8  UNL     1     -33.663  16.913  -2.047  1.00 20.00    -0.100 Cl
HETATM    5 CL9  UNL     1     -33.125  18.859  -4.162  1.00 20.00    -0.100 Cl
ENDBRANCH   1   3
BRANCH   1   6
HETATM    6  C6  UNL     1     -34.479  15.258  -5.212  1.00 20.00     0.012 C 
HETATM    7  C2  UNL     1     -33.998  15.416  -6.666  1.00 20.00     0.022 C 
HETATM    8  C3  UNL     1     -33.473  14.375  -4.460  1.00 20.00     0.022 C 
HETATM    9  C4  UNL     1     -35.866  14.604  -5.226  1.00 20.00     0.022 C 
ENDBRANCH   1   6
TORSDOF 2
ENDMDL
