MODEL 1
REMARK VINA RESULT:      -3.9      0.000      0.000
REMARK  2 active torsions:
REMARK  status: ('A' for Active; 'I' for Inactive)
REMARK    1  A    between atoms: C2_2  and  C3_3 
REMARK    2  A    between atoms: C2_2  and  C4_4 
ROOT
HETATM    1  C1  UNL     1     -33.353   8.257   5.221  1.00 20.00     0.016 C 
HETATM    2  C2  UNL     1     -33.497   7.156   4.465  1.00 20.00    -0.062 C 
ENDROOT
BRANCH   2   3
HETATM    3  C3  UNL     1     -34.573   6.149   4.764  1.00 20.00     0.149 C 
HETATM    4 CL5  UNL     1     -34.409   5.524   6.420  1.00 20.00    -0.126 Cl
ENDBRANCH   2   3
BRANCH   2   5
HETATM    5  C4  UNL     1     -32.586   6.897   3.297  1.00 20.00     0.149 C 
HETATM    6 CL6  UNL     1     -32.879   5.281   2.616  1.00 20.00    -0.126 Cl
ENDBRANCH   2   5
TORSDOF 2
ENDMDL
MODEL 2
REMARK VINA RESULT:      -3.9      0.062      2.784
REMARK  2 active torsions:
REMARK  status: ('A' for Active; 'I' for Inactive)
REMARK    1  A    between atoms: C2_2  and  C3_3 
REMARK    2  A    between atoms: C2_2  and  C4_4 
ROOT
HETATM    1  C1  UNL     1     -33.401   8.245   5.251  1.00 20.00     0.016 C 
HETATM    2  C2  UNL     1     -33.542   7.153   4.482  1.00 20.00    -0.062 C 
ENDROOT
BRANCH   2   3
HETATM    3  C3  UNL     1     -32.615   6.895   3.327  1.00 20.00     0.149 C 
HETATM    4 CL5  UNL     1     -32.894   5.278   2.644  1.00 20.00    -0.126 Cl
ENDBRANCH   2   3
BRANCH   2   5
HETATM    5  C4  UNL     1     -34.633   6.154   4.753  1.00 20.00     0.149 C 
HETATM    6 CL6  UNL     1     -34.446   5.441   6.371  1.00 20.00    -0.126 Cl
ENDBRANCH   2   5
TORSDOF 2
ENDMDL
MODEL 3
REMARK VINA RESULT:      -3.8      1.635      1.781
REMARK  2 active torsions:
REMARK  status: ('A' for Active; 'I' for Inactive)
REMARK    1  A    between atoms: C2_2  and  C3_3 
REMARK    2  A    between atoms: C2_2  and  C4_4 
ROOT
HETATM    1  C1  UNL     1     -34.029   6.835   6.562  1.00 20.00     0.016 C 
HETATM    2  C2  UNL     1     -34.083   6.902   5.222  1.00 20.00    -0.062 C 
ENDROOT
BRANCH   2   3
HETATM    3  C3  UNL     1     -34.880   5.903   4.429  1.00 20.00     0.149 C 
HETATM    4 CL5  UNL     1     -34.056   4.328   4.391  1.00 20.00    -0.126 Cl
ENDBRANCH   2   3
BRANCH   2   5
HETATM    5  C4  UNL     1     -33.348   7.978   4.472  1.00 20.00     0.149 C 
HETATM    6 CL6  UNL     1     -32.283   7.271   3.237  1.00 20.00    -0.126 Cl
ENDBRANCH   2   5
TORSDOF 2
ENDMDL
MODEL 4
REMARK VINA RESULT:      -3.8      1.627      2.606
REMARK  2 active torsions:
REMARK  status: ('A' for Active; 'I' for Inactive)
REMARK    1  A    between atoms: C2_2  and  C3_3 
REMARK    2  A    between atoms: C2_2  and  C4_4 
ROOT
HETATM    1  C1  UNL     1     -34.057   6.824   6.566  1.00 20.00     0.016 C 
HETATM    2  C2  UNL     1     -34.085   6.899   5.225  1.00 20.00    -0.062 C 
ENDROOT
BRANCH   2   3
HETATM    3  C3  UNL     1     -33.333   7.976   4.495  1.00 20.00     0.149 C 
HETATM    4 CL5  UNL     1     -32.289   7.275   3.238  1.00 20.00    -0.126 Cl
ENDBRANCH   2   3
BRANCH   2   5
HETATM    5  C4  UNL     1     -34.870   5.906   4.413  1.00 20.00     0.149 C 
HETATM    6 CL6  UNL     1     -34.043   4.333   4.369  1.00 20.00    -0.126 Cl
ENDBRANCH   2   5
TORSDOF 2
ENDMDL
MODEL 5
REMARK VINA RESULT:      -3.8      1.842      2.325
REMARK  2 active torsions:
REMARK  status: ('A' for Active; 'I' for Inactive)
REMARK    1  A    between atoms: C2_2  and  C3_3 
REMARK    2  A    between atoms: C2_2  and  C4_4 
ROOT
HETATM    1  C1  UNL     1     -34.274   6.446   6.429  1.00 20.00     0.016 C 
HETATM    2  C2  UNL     1     -34.147   6.553   5.096  1.00 20.00    -0.062 C 
ENDROOT
BRANCH   2   3
HETATM    3  C3  UNL     1     -33.856   7.879   4.451  1.00 20.00     0.149 C 
HETATM    4 CL5  UNL     1     -32.198   8.406   4.814  1.00 20.00    -0.126 Cl
ENDBRANCH   2   3
BRANCH   2   5
HETATM    5  C4  UNL     1     -34.293   5.348   4.208  1.00 20.00     0.149 C 
HETATM    6 CL6  UNL     1     -33.107   5.395   2.883  1.00 20.00    -0.126 Cl
ENDBRANCH   2   5
TORSDOF 2
ENDMDL
MODEL 6
REMARK VINA RESULT:      -3.8      1.841      2.599
REMARK  2 active torsions:
REMARK  status: ('A' for Active; 'I' for Inactive)
REMARK    1  A    between atoms: C2_2  and  C3_3 
REMARK    2  A    between atoms: C2_2  and  C4_4 
ROOT
HETATM    1  C1  UNL     1     -34.238   6.427   6.450  1.00 20.00     0.016 C 
HETATM    2  C2  UNL     1     -34.144   6.556   5.116  1.00 20.00    -0.062 C 
ENDROOT
BRANCH   2   3
HETATM    3  C3  UNL     1     -34.316   5.368   4.211  1.00 20.00     0.149 C 
HETATM    4 CL5  UNL     1     -33.111   5.393   2.904  1.00 20.00    -0.126 Cl
ENDBRANCH   2   3
BRANCH   2   5
HETATM    5  C4  UNL     1     -33.865   7.893   4.488  1.00 20.00     0.149 C 
HETATM    6 CL6  UNL     1     -32.172   8.370   4.746  1.00 20.00    -0.126 Cl
ENDBRANCH   2   5
TORSDOF 2
ENDMDL
MODEL 7
REMARK VINA RESULT:      -3.7      0.962      2.866
REMARK  2 active torsions:
REMARK  status: ('A' for Active; 'I' for Inactive)
REMARK    1  A    between atoms: C2_2  and  C3_3 
REMARK    2  A    between atoms: C2_2  and  C4_4 
ROOT
HETATM    1  C1  UNL     1     -32.903   8.044   4.218  1.00 20.00     0.016 C 
HETATM    2  C2  UNL     1     -33.608   7.025   4.737  1.00 20.00    -0.062 C 
ENDROOT
BRANCH   2   3
HETATM    3  C3  UNL     1     -34.031   5.863   3.882  1.00 20.00     0.149 C 
HETATM    4 CL5  UNL     1     -32.808   5.517   2.638  1.00 20.00    -0.126 Cl
ENDBRANCH   2   3
BRANCH   2   5
HETATM    5  C4  UNL     1     -33.995   7.014   6.190  1.00 20.00     0.149 C 
HETATM    6 CL6  UNL     1     -34.698   5.445   6.644  1.00 20.00    -0.126 Cl
ENDBRANCH   2   5
TORSDOF 2
ENDMDL
MODEL 8
REMARK VINA RESULT:      -3.7      1.647      2.216
REMARK  2 active torsions:
REMARK  status: ('A' for Active; 'I' for Inactive)
REMARK    1  A    between atoms: C2_2  and  C3_3 
REMARK    2  A    between atoms: C2_2  and  C4_4 
ROOT
HETATM    1  C1  UNL     1     -32.967   5.745   2.867  1.00 20.00     0.016 C 
HETATM    2  C2  UNL     1     -33.651   6.043   3.984  1.00 20.00    -0.062 C 
ENDROOT
BRANCH   2   3
HETATM    3  C3  UNL     1     -34.520   5.017   4.656  1.00 20.00     0.149 C 
HETATM    4 CL5  UNL     1     -34.742   5.408   6.376  1.00 20.00    -0.126 Cl
ENDBRANCH   2   3
BRANCH   2   5
HETATM    5  C4  UNL     1     -33.568   7.414   4.596  1.00 20.00     0.149 C 
HETATM    6 CL6  UNL     1     -32.050   8.219   4.138  1.00 20.00    -0.126 Cl
ENDBRANCH   2   5
TORSDOF 2
ENDMDL
MODEL 9
REMARK VINA RESULT:      -3.7      1.647      3.180
REMARK  2 active torsions:
REMARK  status: ('A' for Active; 'I' for Inactive)
REMARK    1  A    between atoms: C2_2  and  C3_3 
REMARK    2  A    between atoms: C2_2  and  C4_4 
ROOT
HETATM    1  C1  UNL     1     -32.983   5.768   2.849  1.00 20.00     0.016 C 
HETATM    2  C2  UNL     1     -33.659   6.062   3.971  1.00 20.00    -0.062 C 
ENDROOT
BRANCH   2   3
HETATM    3  C3  UNL     1     -33.564   7.426   4.597  1.00 20.00     0.149 C 
HETATM    4 CL5  UNL     1     -32.032   8.215   4.158  1.00 20.00    -0.126 Cl
ENDBRANCH   2   3
BRANCH   2   5
HETATM    5  C4  UNL     1     -34.533   5.036   4.638  1.00 20.00     0.149 C 
HETATM    6 CL6  UNL     1     -34.734   5.405   6.366  1.00 20.00    -0.126 Cl
ENDBRANCH   2   5
TORSDOF 2
ENDMDL
