MODEL 1
REMARK VINA RESULT:      -4.5      0.000      0.000
REMARK  2 active torsions:
REMARK  status: ('A' for Active; 'I' for Inactive)
REMARK    1  A    between atoms: C1_1  and  C2_2 
REMARK    2  A    between atoms: C1_1  and  C3_3 
ROOT
HETATM    1  C1  UNL     1     -33.334   7.488   4.103  1.00 20.00     0.148 C 
HETATM    2 CL4  UNL     1     -32.514   8.773   5.077  1.00 20.00    -0.119 Cl
ENDROOT
BRANCH   1   3
HETATM    3  C2  UNL     1     -33.963   6.450   5.057  1.00 20.00     0.199 C 
HETATM    4 CL5  UNL     1     -34.220   7.133   6.696  1.00 20.00    -0.106 Cl
HETATM    5 CL6  UNL     1     -35.550   5.871   4.466  1.00 20.00    -0.106 Cl
ENDBRANCH   1   3
BRANCH   1   6
HETATM    6  C3  UNL     1     -32.353   6.894   3.068  1.00 20.00     0.199 C 
HETATM    7 CL7  UNL     1     -32.136   7.931   1.632  1.00 20.00    -0.106 Cl
HETATM    8 CL8  UNL     1     -32.850   5.255   2.548  1.00 20.00    -0.106 Cl
ENDBRANCH   1   6
TORSDOF 2
ENDMDL
MODEL 2
REMARK VINA RESULT:      -4.1      0.844      2.681
REMARK  2 active torsions:
REMARK  status: ('A' for Active; 'I' for Inactive)
REMARK    1  A    between atoms: C1_1  and  C2_2 
REMARK    2  A    between atoms: C1_1  and  C3_3 
ROOT
HETATM    1  C1  UNL     1     -33.058   6.696   4.082  1.00 20.00     0.148 C 
HETATM    2 CL4  UNL     1     -32.929   5.539   2.697  1.00 20.00    -0.119 Cl
ENDROOT
BRANCH   1   3
HETATM    3  C2  UNL     1     -34.353   6.407   4.869  1.00 20.00     0.199 C 
HETATM    4 CL5  UNL     1     -34.717   4.651   4.916  1.00 20.00    -0.106 Cl
HETATM    5 CL6  UNL     1     -34.251   6.975   6.562  1.00 20.00    -0.106 Cl
ENDBRANCH   1   3
BRANCH   1   6
HETATM    6  C3  UNL     1     -32.926   8.151   3.577  1.00 20.00     0.199 C 
HETATM    7 CL7  UNL     1     -32.098   8.273   2.000  1.00 20.00    -0.106 Cl
HETATM    8 CL8  UNL     1     -32.092   9.193   4.769  1.00 20.00    -0.106 Cl
ENDBRANCH   1   6
TORSDOF 2
ENDMDL
MODEL 3
REMARK VINA RESULT:      -4.0      1.029      2.644
REMARK  2 active torsions:
REMARK  status: ('A' for Active; 'I' for Inactive)
REMARK    1  A    between atoms: C1_1  and  C2_2 
REMARK    2  A    between atoms: C1_1  and  C3_3 
ROOT
HETATM    1  C1  UNL     1     -33.912   7.210   4.495  1.00 20.00     0.148 C 
HETATM    2 CL4  UNL     1     -34.043   7.237   6.299  1.00 20.00    -0.119 Cl
ENDROOT
BRANCH   1   3
HETATM    3  C2  UNL     1     -34.210   5.785   3.984  1.00 20.00     0.199 C 
HETATM    4 CL5  UNL     1     -32.917   5.193   2.891  1.00 20.00    -0.106 Cl
HETATM    5 CL6  UNL     1     -34.355   4.608   5.325  1.00 20.00    -0.106 Cl
ENDBRANCH   1   3
BRANCH   1   6
HETATM    6  C3  UNL     1     -32.546   7.778   4.050  1.00 20.00     0.199 C 
HETATM    7 CL7  UNL     1     -32.018   9.178   5.022  1.00 20.00    -0.106 Cl
HETATM    8 CL8  UNL     1     -32.548   8.224   2.316  1.00 20.00    -0.106 Cl
ENDBRANCH   1   6
TORSDOF 2
ENDMDL
MODEL 4
REMARK VINA RESULT:      -4.0      0.659      2.610
REMARK  2 active torsions:
REMARK  status: ('A' for Active; 'I' for Inactive)
REMARK    1  A    between atoms: C1_1  and  C2_2 
REMARK    2  A    between atoms: C1_1  and  C3_3 
ROOT
HETATM    1  C1  UNL     1     -32.885   6.484   4.076  1.00 20.00     0.148 C 
HETATM    2 CL4  UNL     1     -33.227   5.324   2.730  1.00 20.00    -0.119 Cl
ENDROOT
BRANCH   1   3
HETATM    3  C2  UNL     1     -34.212   6.881   4.756  1.00 20.00     0.199 C 
HETATM    4 CL5  UNL     1     -35.512   5.696   4.405  1.00 20.00    -0.106 Cl
HETATM    5 CL6  UNL     1     -34.051   6.984   6.535  1.00 20.00    -0.106 Cl
ENDBRANCH   1   3
BRANCH   1   6
HETATM    6  C3  UNL     1     -32.049   7.675   3.557  1.00 20.00     0.199 C 
HETATM    7 CL7  UNL     1     -32.403   9.204   4.406  1.00 20.00    -0.106 Cl
HETATM    8 CL8  UNL     1     -32.259   7.912   1.795  1.00 20.00    -0.106 Cl
ENDBRANCH   1   6
TORSDOF 2
ENDMDL
MODEL 5
REMARK VINA RESULT:      -3.9      0.861      3.530
REMARK  2 active torsions:
REMARK  status: ('A' for Active; 'I' for Inactive)
REMARK    1  A    between atoms: C1_1  and  C2_2 
REMARK    2  A    between atoms: C1_1  and  C3_3 
ROOT
HETATM    1  C1  UNL     1     -33.139   6.901   4.638  1.00 20.00     0.148 C 
HETATM    2 CL4  UNL     1     -32.706   8.627   4.965  1.00 20.00    -0.119 Cl
ENDROOT
BRANCH   1   3
HETATM    3  C2  UNL     1     -33.203   6.672   3.113  1.00 20.00     0.199 C 
HETATM    4 CL5  UNL     1     -32.075   7.756   2.236  1.00 20.00    -0.106 Cl
HETATM    5 CL6  UNL     1     -32.780   4.990   2.669  1.00 20.00    -0.106 Cl
ENDBRANCH   1   3
BRANCH   1   6
HETATM    6  C3  UNL     1     -34.430   6.521   5.398  1.00 20.00     0.199 C 
HETATM    7 CL7  UNL     1     -34.170   5.263   6.637  1.00 20.00    -0.106 Cl
HETATM    8 CL8  UNL     1     -35.726   5.996   4.281  1.00 20.00    -0.106 Cl
ENDBRANCH   1   6
TORSDOF 2
ENDMDL
MODEL 6
REMARK VINA RESULT:      -3.9      0.669      3.676
REMARK  2 active torsions:
REMARK  status: ('A' for Active; 'I' for Inactive)
REMARK    1  A    between atoms: C1_1  and  C2_2 
REMARK    2  A    between atoms: C1_1  and  C3_3 
ROOT
HETATM    1  C1  UNL     1     -33.933   7.060   3.945  1.00 20.00     0.148 C 
HETATM    2 CL4  UNL     1     -34.902   5.597   4.388  1.00 20.00    -0.119 Cl
ENDROOT
BRANCH   1   3
HETATM    3  C2  UNL     1     -32.643   6.617   3.223  1.00 20.00     0.199 C 
HETATM    4 CL5  UNL     1     -32.807   4.970   2.532  1.00 20.00    -0.106 Cl
HETATM    5 CL6  UNL     1     -32.214   7.719   1.880  1.00 20.00    -0.106 Cl
ENDBRANCH   1   3
BRANCH   1   6
HETATM    6  C3  UNL     1     -33.699   7.943   5.191  1.00 20.00     0.199 C 
HETATM    7 CL7  UNL     1     -32.246   8.971   5.060  1.00 20.00    -0.106 Cl
HETATM    8 CL8  UNL     1     -33.601   6.965   6.687  1.00 20.00    -0.106 Cl
ENDBRANCH   1   6
TORSDOF 2
ENDMDL
MODEL 7
REMARK VINA RESULT:      -3.8      1.034      3.140
REMARK  2 active torsions:
REMARK  status: ('A' for Active; 'I' for Inactive)
REMARK    1  A    between atoms: C1_1  and  C2_2 
REMARK    2  A    between atoms: C1_1  and  C3_3 
ROOT
HETATM    1  C1  UNL     1     -33.205   6.919   4.718  1.00 20.00     0.148 C 
HETATM    2 CL4  UNL     1     -33.988   7.195   6.325  1.00 20.00    -0.119 Cl
ENDROOT
BRANCH   1   3
HETATM    3  C2  UNL     1     -33.012   8.274   4.006  1.00 20.00     0.199 C 
HETATM    4 CL5  UNL     1     -32.025   9.402   4.993  1.00 20.00    -0.106 Cl
HETATM    5 CL6  UNL     1     -32.191   8.092   2.426  1.00 20.00    -0.106 Cl
ENDBRANCH   1   3
BRANCH   1   6
HETATM    6  C3  UNL     1     -34.006   5.877   3.905  1.00 20.00     0.199 C 
HETATM    7 CL7  UNL     1     -34.852   4.687   4.931  1.00 20.00    -0.106 Cl
HETATM    8 CL8  UNL     1     -32.969   5.016   2.728  1.00 20.00    -0.106 Cl
ENDBRANCH   1   6
TORSDOF 2
ENDMDL
MODEL 8
REMARK VINA RESULT:      -3.8      0.773      4.049
REMARK  2 active torsions:
REMARK  status: ('A' for Active; 'I' for Inactive)
REMARK    1  A    between atoms: C1_1  and  C2_2 
REMARK    2  A    between atoms: C1_1  and  C3_3 
ROOT
HETATM    1  C1  UNL     1     -33.639   6.658   4.130  1.00 20.00     0.148 C 
HETATM    2 CL4  UNL     1     -34.568   5.150   4.498  1.00 20.00    -0.119 Cl
ENDROOT
BRANCH   1   3
HETATM    3  C2  UNL     1     -32.525   6.335   3.113  1.00 20.00     0.199 C 
HETATM    4 CL5  UNL     1     -32.904   4.857   2.168  1.00 20.00    -0.106 Cl
HETATM    5 CL6  UNL     1     -32.276   7.666   1.943  1.00 20.00    -0.106 Cl
ENDBRANCH   1   3
BRANCH   1   6
HETATM    6  C3  UNL     1     -33.142   7.313   5.438  1.00 20.00     0.199 C 
HETATM    7 CL7  UNL     1     -34.341   7.242   6.758  1.00 20.00    -0.106 Cl
HETATM    8 CL8  UNL     1     -32.644   9.013   5.180  1.00 20.00    -0.106 Cl
ENDBRANCH   1   6
TORSDOF 2
ENDMDL
MODEL 9
REMARK VINA RESULT:      -3.7      1.099      3.224
REMARK  2 active torsions:
REMARK  status: ('A' for Active; 'I' for Inactive)
REMARK    1  A    between atoms: C1_1  and  C2_2 
REMARK    2  A    between atoms: C1_1  and  C3_3 
ROOT
HETATM    1  C1  UNL     1     -32.882   6.787   4.042  1.00 20.00     0.148 C 
HETATM    2 CL4  UNL     1     -32.066   7.575   2.632  1.00 20.00    -0.119 Cl
ENDROOT
BRANCH   1   3
HETATM    3  C2  UNL     1     -33.837   5.689   3.529  1.00 20.00     0.199 C 
HETATM    4 CL5  UNL     1     -33.067   4.689   2.253  1.00 20.00    -0.106 Cl
HETATM    5 CL6  UNL     1     -34.349   4.581   4.837  1.00 20.00    -0.106 Cl
ENDBRANCH   1   3
BRANCH   1   6
HETATM    6  C3  UNL     1     -33.554   7.855   4.935  1.00 20.00     0.199 C 
HETATM    7 CL7  UNL     1     -32.511   9.268   5.245  1.00 20.00    -0.106 Cl
HETATM    8 CL8  UNL     1     -34.100   7.166   6.494  1.00 20.00    -0.106 Cl
ENDBRANCH   1   6
TORSDOF 2
ENDMDL
