MODEL 1
REMARK VINA RESULT:      -4.8      0.000      0.000
REMARK  1 active torsions:
REMARK  status: ('A' for Active; 'I' for Inactive)
REMARK    1  A    between atoms: C1_1  and  C7_7 
ROOT
HETATM    1  C2  UNL     1     -34.530   4.932   6.105  1.00 20.00     0.000 C 
HETATM    2  C3  UNL     1     -34.542   6.313   6.749  1.00 20.00     0.001 C 
HETATM    3  C4  UNL     1     -34.688   5.019   4.592  1.00 20.00     0.001 C 
HETATM    4  C5  UNL     1     -33.480   7.230   6.143  1.00 20.00     0.018 C 
HETATM    5  C6  UNL     1     -33.627   5.923   3.963  1.00 20.00     0.018 C 
HETATM    6  C7  UNL     1     -33.563   7.307   4.616  1.00 20.00     0.032 C 
HETATM    7  C8  UNL     1     -34.790   8.121   4.211  1.00 20.00     0.025 C 
ENDROOT
BRANCH   6   8
HETATM    8  C1  UNL     1     -32.410   8.133   4.043  1.00 20.00     0.227 C 
HETATM    9  O9  UNL     1     -31.858   9.011   4.698  1.00 20.00    -0.279 OA
HETATM   10 CL10 UNL     1     -32.018   7.667   2.415  1.00 20.00    -0.043 Cl
ENDBRANCH   6   8
TORSDOF 1
ENDMDL
MODEL 2
REMARK VINA RESULT:      -4.6      2.744      3.962
REMARK  1 active torsions:
REMARK  status: ('A' for Active; 'I' for Inactive)
REMARK    1  A    between atoms: C1_1  and  C7_7 
ROOT
HETATM    1  C2  UNL     1     -32.145   8.517   4.032  1.00 20.00     0.000 C 
HETATM    2  C3  UNL     1     -32.524   7.546   2.920  1.00 20.00     0.001 C 
HETATM    3  C4  UNL     1     -33.258   8.646   5.065  1.00 20.00     0.001 C 
HETATM    4  C5  UNL     1     -32.915   6.176   3.474  1.00 20.00     0.018 C 
HETATM    5  C6  UNL     1     -33.657   7.288   5.641  1.00 20.00     0.018 C 
HETATM    6  C7  UNL     1     -33.994   6.259   4.557  1.00 20.00     0.032 C 
HETATM    7  C8  UNL     1     -35.335   6.610   3.917  1.00 20.00     0.025 C 
ENDROOT
BRANCH   6   8
HETATM    8  C1  UNL     1     -34.266   4.884   5.170  1.00 20.00     0.227 C 
HETATM    9  O9  UNL     1     -34.114   3.850   4.527  1.00 20.00    -0.279 OA
HETATM   10 CL10 UNL     1     -34.794   4.997   6.822  1.00 20.00    -0.043 Cl
ENDBRANCH   6   8
TORSDOF 1
ENDMDL
MODEL 3
REMARK VINA RESULT:      -4.4      2.280      3.251
REMARK  1 active torsions:
REMARK  status: ('A' for Active; 'I' for Inactive)
REMARK    1  A    between atoms: C1_1  and  C7_7 
ROOT
HETATM    1  C2  UNL     1     -33.413   8.383   6.173  1.00 20.00     0.000 C 
HETATM    2  C3  UNL     1     -33.607   8.483   4.664  1.00 20.00     0.001 C 
HETATM    3  C4  UNL     1     -34.262   7.269   6.773  1.00 20.00     0.001 C 
HETATM    4  C5  UNL     1     -33.329   7.150   3.969  1.00 20.00     0.018 C 
HETATM    5  C6  UNL     1     -33.991   5.924   6.099  1.00 20.00     0.018 C 
HETATM    6  C7  UNL     1     -34.120   5.988   4.574  1.00 20.00     0.032 C 
HETATM    7  C8  UNL     1     -35.593   6.115   4.190  1.00 20.00     0.025 C 
ENDROOT
BRANCH   6   8
HETATM    8  C1  UNL     1     -33.720   4.657   3.933  1.00 20.00     0.227 C 
HETATM    9  O9  UNL     1     -34.000   3.582   4.453  1.00 20.00    -0.279 OA
HETATM   10 CL10 UNL     1     -32.859   4.883   2.441  1.00 20.00    -0.043 Cl
ENDBRANCH   6   8
TORSDOF 1
ENDMDL
MODEL 4
REMARK VINA RESULT:      -3.9      2.689      3.870
REMARK  1 active torsions:
REMARK  status: ('A' for Active; 'I' for Inactive)
REMARK    1  A    between atoms: C1_1  and  C7_7 
ROOT
HETATM    1  C2  UNL     1     -32.133   6.996   2.555  1.00 20.00     0.000 C 
HETATM    2  C3  UNL     1     -32.915   5.693   2.431  1.00 20.00     0.001 C 
HETATM    3  C4  UNL     1     -32.936   8.062   3.290  1.00 20.00     0.001 C 
HETATM    4  C5  UNL     1     -33.382   5.181   3.794  1.00 20.00     0.018 C 
HETATM    5  C6  UNL     1     -33.404   7.574   4.661  1.00 20.00     0.018 C 
HETATM    6  C7  UNL     1     -34.148   6.237   4.594  1.00 20.00     0.032 C 
HETATM    7  C8  UNL     1     -35.527   6.450   3.973  1.00 20.00     0.025 C 
ENDROOT
BRANCH   6   8
HETATM    8  C1  UNL     1     -34.488   5.726   5.996  1.00 20.00     0.227 C 
HETATM    9  O9  UNL     1     -34.715   4.540   6.211  1.00 20.00    -0.279 OA
HETATM   10 CL10 UNL     1     -34.503   7.005   7.172  1.00 20.00    -0.043 Cl
ENDBRANCH   6   8
TORSDOF 1
ENDMDL
MODEL 5
REMARK VINA RESULT:      -3.8      9.160     10.602
REMARK  1 active torsions:
REMARK  status: ('A' for Active; 'I' for Inactive)
REMARK    1  A    between atoms: C1_1  and  C7_7 
ROOT
HETATM    1  C2  UNL     1     -42.273  15.942   5.882  1.00 20.00     0.000 C 
HETATM    2  C3  UNL     1     -42.640  14.804   4.937  1.00 20.00     0.001 C 
HETATM    3  C4  UNL     1     -41.866  15.419   7.255  1.00 20.00     0.001 C 
HETATM    4  C5  UNL     1     -41.509  13.781   4.817  1.00 20.00     0.018 C 
HETATM    5  C6  UNL     1     -40.728  14.403   7.159  1.00 20.00     0.018 C 
HETATM    6  C7  UNL     1     -41.028  13.267   6.176  1.00 20.00     0.032 C 
HETATM    7  C8  UNL     1     -42.081  12.337   6.774  1.00 20.00     0.025 C 
ENDROOT
BRANCH   6   8
HETATM    8  C1  UNL     1     -39.818  12.344   6.018  1.00 20.00     0.227 C 
HETATM    9  O9  UNL     1     -39.183  11.941   6.987  1.00 20.00    -0.279 OA
HETATM   10 CL10 UNL     1     -39.494  11.971   4.352  1.00 20.00    -0.043 Cl
ENDBRANCH   6   8
TORSDOF 1
ENDMDL
MODEL 6
REMARK VINA RESULT:      -3.8     12.675     13.760
REMARK  1 active torsions:
REMARK  status: ('A' for Active; 'I' for Inactive)
REMARK    1  A    between atoms: C1_1  and  C7_7 
ROOT
HETATM    1  C2  UNL     1     -33.289  16.508  -3.223  1.00 20.00     0.000 C 
HETATM    2  C3  UNL     1     -32.989  15.193  -3.932  1.00 20.00     0.001 C 
HETATM    3  C4  UNL     1     -33.877  17.538  -4.180  1.00 20.00     0.001 C 
HETATM    4  C5  UNL     1     -34.225  14.636  -4.639  1.00 20.00     0.018 C 
HETATM    5  C6  UNL     1     -35.122  17.005  -4.890  1.00 20.00     0.018 C 
HETATM    6  C7  UNL     1     -34.885  15.655  -5.572  1.00 20.00     0.032 C 
HETATM    7  C8  UNL     1     -34.014  15.853  -6.811  1.00 20.00     0.025 C 
ENDROOT
BRANCH   6   8
HETATM    8  C1  UNL     1     -36.183  15.100  -6.162  1.00 20.00     0.227 C 
HETATM    9  O9  UNL     1     -36.180  14.317  -7.106  1.00 20.00    -0.279 OA
HETATM   10 CL10 UNL     1     -37.587  15.712  -5.340  1.00 20.00    -0.043 Cl
ENDBRANCH   6   8
TORSDOF 1
ENDMDL
MODEL 7
REMARK VINA RESULT:      -3.8      9.118     10.275
REMARK  1 active torsions:
REMARK  status: ('A' for Active; 'I' for Inactive)
REMARK    1  A    between atoms: C1_1  and  C7_7 
ROOT
HETATM    1  C2  UNL     1     -43.021  14.332   8.085  1.00 20.00     0.000 C 
HETATM    2  C3  UNL     1     -41.898  15.186   7.507  1.00 20.00     0.001 C 
HETATM    3  C4  UNL     1     -43.385  13.182   7.154  1.00 20.00     0.001 C 
HETATM    4  C5  UNL     1     -40.666  14.347   7.168  1.00 20.00     0.018 C 
HETATM    5  C6  UNL     1     -42.169  12.323   6.811  1.00 20.00     0.018 C 
HETATM    6  C7  UNL     1     -40.992  13.145   6.277  1.00 20.00     0.032 C 
HETATM    7  C8  UNL     1     -41.305  13.627   4.862  1.00 20.00     0.025 C 
ENDROOT
BRANCH   6   8
HETATM    8  C1  UNL     1     -39.757  12.266   6.066  1.00 20.00     0.227 C 
HETATM    9  O9  UNL     1     -39.068  11.887   7.007  1.00 20.00    -0.279 OA
HETATM   10 CL10 UNL     1     -39.492  11.905   4.387  1.00 20.00    -0.043 Cl
ENDBRANCH   6   8
TORSDOF 1
ENDMDL
MODEL 8
REMARK VINA RESULT:      -3.7      9.570     10.604
REMARK  1 active torsions:
REMARK  status: ('A' for Active; 'I' for Inactive)
REMARK    1  A    between atoms: C1_1  and  C7_7 
ROOT
HETATM    1  C2  UNL     1     -41.151   8.387  -0.083  1.00 20.00     0.000 C 
HETATM    2  C3  UNL     1     -42.671   8.367  -0.198  1.00 20.00     0.001 C 
HETATM    3  C4  UNL     1     -40.661   7.447   1.011  1.00 20.00     0.001 C 
HETATM    4  C5  UNL     1     -43.202   6.950  -0.418  1.00 20.00     0.018 C 
HETATM    5  C6  UNL     1     -41.171   6.021   0.804  1.00 20.00     0.018 C 
HETATM    6  C7  UNL     1     -42.691   5.955   0.627  1.00 20.00     0.032 C 
HETATM    7  C8  UNL     1     -43.375   6.222   1.966  1.00 20.00     0.025 C 
ENDROOT
BRANCH   6   8
HETATM    8  C1  UNL     1     -43.145   4.531   0.299  1.00 20.00     0.227 C 
HETATM    9  O9  UNL     1     -43.284   3.681   1.173  1.00 20.00    -0.279 OA
HETATM   10 CL10 UNL     1     -43.417   4.307  -1.403  1.00 20.00    -0.043 Cl
ENDBRANCH   6   8
TORSDOF 1
ENDMDL
MODEL 9
REMARK VINA RESULT:      -3.6      1.792      2.257
REMARK  1 active torsions:
REMARK  status: ('A' for Active; 'I' for Inactive)
REMARK    1  A    between atoms: C1_1  and  C7_7 
ROOT
HETATM    1  C2  UNL     1     -34.132   6.505   6.999  1.00 20.00     0.000 C 
HETATM    2  C3  UNL     1     -34.131   7.707   6.062  1.00 20.00     0.001 C 
HETATM    3  C4  UNL     1     -34.676   5.259   6.311  1.00 20.00     0.001 C 
HETATM    4  C5  UNL     1     -33.364   7.417   4.771  1.00 20.00     0.018 C 
HETATM    5  C6  UNL     1     -33.914   4.945   5.023  1.00 20.00     0.018 C 
HETATM    6  C7  UNL     1     -33.838   6.142   4.071  1.00 20.00     0.032 C 
HETATM    7  C8  UNL     1     -35.209   6.383   3.442  1.00 20.00     0.025 C 
ENDROOT
BRANCH   6   8
HETATM    8  C1  UNL     1     -32.965   5.824   2.856  1.00 20.00     0.227 C 
HETATM    9  O9  UNL     1     -32.884   4.688   2.400  1.00 20.00    -0.279 OA
HETATM   10 CL10 UNL     1     -32.147   7.233   2.251  1.00 20.00    -0.043 Cl
ENDBRANCH   6   8
TORSDOF 1
ENDMDL
