MODEL 1
REMARK VINA RESULT:      -4.7      0.000      0.000
REMARK  5 active torsions:
REMARK  status: ('A' for Active; 'I' for Inactive)
REMARK    1  A    between atoms: C1_1  and  C9_9 
REMARK    2  A    between atoms: C6_6  and  C7_7 
REMARK    3  A    between atoms: C6_6  and  C8_8 
REMARK    4  A    between atoms: C7_7  and  C9_9 
REMARK    5  A    between atoms: C8_8  and  C10_10 
ROOT
HETATM    1  C7  UNL     1     -32.385   8.323   4.395  1.00 20.00     0.011 C 
ENDROOT
BRANCH   1   2
HETATM    2  C6  UNL     1     -33.843   8.091   4.811  1.00 20.00     0.001 C 
BRANCH   2   3
HETATM    3  C8  UNL     1     -33.921   7.305   6.126  1.00 20.00     0.004 C 
BRANCH   3   4
HETATM    4  C10 UNL     1     -34.772   6.026   6.026  1.00 20.00    -0.023 C 
HETATM    5  C4  UNL     1     -35.387   5.839   4.639  1.00 20.00     0.009 C 
HETATM    6  C5  UNL     1     -33.918   4.806   6.381  1.00 20.00     0.009 C 
ENDBRANCH   3   4
ENDBRANCH   2   3
ENDBRANCH   1   2
BRANCH   1   7
HETATM    7  C9  UNL     1     -32.019   7.771   3.008  1.00 20.00     0.051 C 
HETATM    8  C3  UNL     1     -32.593   6.374   2.770  1.00 20.00     0.018 C 
BRANCH   7   9
HETATM    9  C1  UNL     1     -32.418   8.735   1.890  1.00 20.00     0.126 C 
HETATM   10  C2  UNL     1     -32.113   8.311   0.475  1.00 20.00     0.091 C 
HETATM   11  O11 UNL     1     -32.980   9.807   2.114  1.00 20.00    -0.298 OA
ENDBRANCH   7   9
ENDBRANCH   1   7
TORSDOF 5
ENDMDL
MODEL 2
REMARK VINA RESULT:      -4.3      0.905      2.128
REMARK  5 active torsions:
REMARK  status: ('A' for Active; 'I' for Inactive)
REMARK    1  A    between atoms: C1_1  and  C9_9 
REMARK    2  A    between atoms: C6_6  and  C7_7 
REMARK    3  A    between atoms: C6_6  and  C8_8 
REMARK    4  A    between atoms: C7_7  and  C9_9 
REMARK    5  A    between atoms: C8_8  and  C10_10 
ROOT
HETATM    1  C7  UNL     1     -32.360   6.488   3.001  1.00 20.00     0.011 C 
ENDROOT
BRANCH   1   2
HETATM    2  C6  UNL     1     -33.473   5.434   2.949  1.00 20.00     0.001 C 
BRANCH   2   3
HETATM    3  C8  UNL     1     -33.603   4.707   4.294  1.00 20.00     0.004 C 
BRANCH   3   4
HETATM    4  C10 UNL     1     -34.794   5.192   5.140  1.00 20.00    -0.023 C 
HETATM    5  C4  UNL     1     -34.355   6.012   6.353  1.00 20.00     0.009 C 
HETATM    6  C5  UNL     1     -35.744   6.021   4.273  1.00 20.00     0.009 C 
ENDBRANCH   3   4
ENDBRANCH   2   3
ENDBRANCH   1   2
BRANCH   1   7
HETATM    7  C9  UNL     1     -32.849   7.926   3.241  1.00 20.00     0.051 C 
HETATM    8  C3  UNL     1     -32.230   8.548   4.493  1.00 20.00     0.018 C 
BRANCH   7   9
HETATM    9  C1  UNL     1     -32.630   8.812   2.013  1.00 20.00     0.126 C 
HETATM   10  C2  UNL     1     -31.953   8.180   0.823  1.00 20.00     0.091 C 
HETATM   11  O11 UNL     1     -33.000   9.985   1.973  1.00 20.00    -0.298 OA
ENDBRANCH   7   9
ENDBRANCH   1   7
TORSDOF 5
ENDMDL
MODEL 3
REMARK VINA RESULT:      -4.2     11.117     12.197
REMARK  5 active torsions:
REMARK  status: ('A' for Active; 'I' for Inactive)
REMARK    1  A    between atoms: C1_1  and  C9_9 
REMARK    2  A    between atoms: C6_6  and  C7_7 
REMARK    3  A    between atoms: C6_6  and  C8_8 
REMARK    4  A    between atoms: C7_7  and  C9_9 
REMARK    5  A    between atoms: C8_8  and  C10_10 
ROOT
HETATM    1  C7  UNL     1     -33.636  17.506  -0.742  1.00 20.00     0.011 C 
ENDROOT
BRANCH   1   2
HETATM    2  C6  UNL     1     -33.735  17.549  -2.272  1.00 20.00     0.001 C 
BRANCH   2   3
HETATM    3  C8  UNL     1     -33.045  16.332  -2.900  1.00 20.00     0.004 C 
BRANCH   3   4
HETATM    4  C10 UNL     1     -33.667  15.898  -4.240  1.00 20.00    -0.023 C 
HETATM    5  C4  UNL     1     -34.206  14.468  -4.199  1.00 20.00     0.009 C 
HETATM    6  C5  UNL     1     -34.791  16.863  -4.627  1.00 20.00     0.009 C 
ENDBRANCH   3   4
ENDBRANCH   2   3
ENDBRANCH   1   2
BRANCH   1   7
HETATM    7  C9  UNL     1     -33.041  18.771  -0.102  1.00 20.00     0.051 C 
HETATM    8  C3  UNL     1     -33.825  19.222   1.130  1.00 20.00     0.018 C 
BRANCH   7   9
HETATM    9  C1  UNL     1     -31.554  18.599   0.216  1.00 20.00     0.126 C 
HETATM   10  C2  UNL     1     -31.188  18.310   1.650  1.00 20.00     0.091 C 
HETATM   11  O11 UNL     1     -30.682  18.672  -0.650  1.00 20.00    -0.298 OA
ENDBRANCH   7   9
ENDBRANCH   1   7
TORSDOF 5
ENDMDL
MODEL 4
REMARK VINA RESULT:      -4.1      1.379      2.180
REMARK  5 active torsions:
REMARK  status: ('A' for Active; 'I' for Inactive)
REMARK    1  A    between atoms: C1_1  and  C9_9 
REMARK    2  A    between atoms: C6_6  and  C7_7 
REMARK    3  A    between atoms: C6_6  and  C8_8 
REMARK    4  A    between atoms: C7_7  and  C9_9 
REMARK    5  A    between atoms: C8_8  and  C10_10 
ROOT
HETATM    1  C7  UNL     1     -32.896   7.354   5.652  1.00 20.00     0.011 C 
ENDROOT
BRANCH   1   2
HETATM    2  C6  UNL     1     -34.235   7.092   6.354  1.00 20.00     0.001 C 
BRANCH   2   3
HETATM    3  C8  UNL     1     -34.527   5.589   6.435  1.00 20.00     0.004 C 
BRANCH   3   4
HETATM    4  C10 UNL     1     -35.066   4.996   5.120  1.00 20.00    -0.023 C 
HETATM    5  C4  UNL     1     -35.684   6.058   4.210  1.00 20.00     0.009 C 
HETATM    6  C5  UNL     1     -33.940   4.272   4.378  1.00 20.00     0.009 C 
ENDBRANCH   3   4
ENDBRANCH   2   3
ENDBRANCH   1   2
BRANCH   1   7
HETATM    7  C9  UNL     1     -32.922   8.500   4.628  1.00 20.00     0.051 C 
HETATM    8  C3  UNL     1     -32.003   9.655   5.027  1.00 20.00     0.018 C 
BRANCH   7   9
HETATM    9  C1  UNL     1     -32.612   8.004   3.214  1.00 20.00     0.126 C 
HETATM   10  C2  UNL     1     -32.653   9.025   2.105  1.00 20.00     0.091 C 
HETATM   11  O11 UNL     1     -32.322   6.832   2.976  1.00 20.00    -0.298 OA
ENDBRANCH   7   9
ENDBRANCH   1   7
TORSDOF 5
ENDMDL
MODEL 5
REMARK VINA RESULT:      -4.1      2.080      4.406
REMARK  5 active torsions:
REMARK  status: ('A' for Active; 'I' for Inactive)
REMARK    1  A    between atoms: C1_1  and  C9_9 
REMARK    2  A    between atoms: C6_6  and  C7_7 
REMARK    3  A    between atoms: C6_6  and  C8_8 
REMARK    4  A    between atoms: C7_7  and  C9_9 
REMARK    5  A    between atoms: C8_8  and  C10_10 
ROOT
HETATM    1  C7  UNL     1     -33.908   8.006   4.920  1.00 20.00     0.011 C 
ENDROOT
BRANCH   1   2
HETATM    2  C6  UNL     1     -32.512   8.629   4.794  1.00 20.00     0.001 C 
BRANCH   2   3
HETATM    3  C8  UNL     1     -31.690   7.919   3.711  1.00 20.00     0.004 C 
BRANCH   3   4
HETATM    4  C10 UNL     1     -32.521   7.502   2.484  1.00 20.00    -0.023 C 
HETATM    5  C4  UNL     1     -32.038   8.170   1.196  1.00 20.00     0.009 C 
HETATM    6  C5  UNL     1     -32.481   5.981   2.323  1.00 20.00     0.009 C 
ENDBRANCH   3   4
ENDBRANCH   2   3
ENDBRANCH   1   2
BRANCH   1   7
HETATM    7  C9  UNL     1     -33.942   6.652   5.648  1.00 20.00     0.051 C 
HETATM    8  C3  UNL     1     -34.439   6.781   7.088  1.00 20.00     0.018 C 
BRANCH   7   9
HETATM    9  C1  UNL     1     -34.749   5.610   4.871  1.00 20.00     0.126 C 
HETATM   10  C2  UNL     1     -35.929   6.109   4.076  1.00 20.00     0.091 C 
HETATM   11  O11 UNL     1     -34.453   4.416   4.868  1.00 20.00    -0.298 OA
ENDBRANCH   7   9
ENDBRANCH   1   7
TORSDOF 5
ENDMDL
MODEL 6
REMARK VINA RESULT:      -4.1      2.100      4.597
REMARK  5 active torsions:
REMARK  status: ('A' for Active; 'I' for Inactive)
REMARK    1  A    between atoms: C1_1  and  C9_9 
REMARK    2  A    between atoms: C6_6  and  C7_7 
REMARK    3  A    between atoms: C6_6  and  C8_8 
REMARK    4  A    between atoms: C7_7  and  C9_9 
REMARK    5  A    between atoms: C8_8  and  C10_10 
ROOT
HETATM    1  C7  UNL     1     -33.854   7.867   4.593  1.00 20.00     0.011 C 
ENDROOT
BRANCH   1   2
HETATM    2  C6  UNL     1     -32.538   8.646   4.472  1.00 20.00     0.001 C 
BRANCH   2   3
HETATM    3  C8  UNL     1     -31.806   8.287   3.173  1.00 20.00     0.004 C 
BRANCH   3   4
HETATM    4  C10 UNL     1     -32.641   8.551   1.906  1.00 20.00    -0.023 C 
HETATM    5  C4  UNL     1     -32.980  10.031   1.726  1.00 20.00     0.009 C 
HETATM    6  C5  UNL     1     -31.889   8.041   0.674  1.00 20.00     0.009 C 
ENDBRANCH   3   4
ENDBRANCH   2   3
ENDBRANCH   1   2
BRANCH   1   7
HETATM    7  C9  UNL     1     -33.734   6.514   5.314  1.00 20.00     0.051 C 
HETATM    8  C3  UNL     1     -34.463   6.507   6.658  1.00 20.00     0.018 C 
BRANCH   7   9
HETATM    9  C1  UNL     1     -34.190   5.355   4.427  1.00 20.00     0.126 C 
HETATM   10  C2  UNL     1     -33.425   5.129   3.146  1.00 20.00     0.091 C 
HETATM   11  O11 UNL     1     -35.125   4.617   4.735  1.00 20.00    -0.298 OA
ENDBRANCH   7   9
ENDBRANCH   1   7
TORSDOF 5
ENDMDL
MODEL 7
REMARK VINA RESULT:      -4.0     11.285     12.256
REMARK  5 active torsions:
REMARK  status: ('A' for Active; 'I' for Inactive)
REMARK    1  A    between atoms: C1_1  and  C9_9 
REMARK    2  A    between atoms: C6_6  and  C7_7 
REMARK    3  A    between atoms: C6_6  and  C8_8 
REMARK    4  A    between atoms: C7_7  and  C9_9 
REMARK    5  A    between atoms: C8_8  and  C10_10 
ROOT
HETATM    1  C7  UNL     1     -33.307  16.947  -1.933  1.00 20.00     0.011 C 
ENDROOT
BRANCH   1   2
HETATM    2  C6  UNL     1     -33.292  16.719  -3.450  1.00 20.00     0.001 C 
BRANCH   2   3
HETATM    3  C8  UNL     1     -33.682  15.276  -3.792  1.00 20.00     0.004 C 
BRANCH   3   4
HETATM    4  C10 UNL     1     -34.698  15.172  -4.945  1.00 20.00    -0.023 C 
HETATM    5  C4  UNL     1     -34.023  15.104  -6.315  1.00 20.00     0.009 C 
HETATM    6  C5  UNL     1     -35.585  13.941  -4.745  1.00 20.00     0.009 C 
ENDBRANCH   3   4
ENDBRANCH   2   3
ENDBRANCH   1   2
BRANCH   1   7
HETATM    7  C9  UNL     1     -33.088  18.406  -1.501  1.00 20.00     0.051 C 
HETATM    8  C3  UNL     1     -34.386  19.080  -1.058  1.00 20.00     0.018 C 
BRANCH   7   9
HETATM    9  C1  UNL     1     -32.005  18.523  -0.428  1.00 20.00     0.126 C 
HETATM   10  C2  UNL     1     -32.463  18.573   1.008  1.00 20.00     0.091 C 
HETATM   11  O11 UNL     1     -30.805  18.558  -0.703  1.00 20.00    -0.298 OA
ENDBRANCH   7   9
ENDBRANCH   1   7
TORSDOF 5
ENDMDL
MODEL 8
REMARK VINA RESULT:      -3.8      1.467      1.809
REMARK  5 active torsions:
REMARK  status: ('A' for Active; 'I' for Inactive)
REMARK    1  A    between atoms: C1_1  and  C9_9 
REMARK    2  A    between atoms: C6_6  and  C7_7 
REMARK    3  A    between atoms: C6_6  and  C8_8 
REMARK    4  A    between atoms: C7_7  and  C9_9 
REMARK    5  A    between atoms: C8_8  and  C10_10 
ROOT
HETATM    1  C7  UNL     1     -32.350   8.435   4.555  1.00 20.00     0.011 C 
ENDROOT
BRANCH   1   2
HETATM    2  C6  UNL     1     -33.232   7.672   5.551  1.00 20.00     0.001 C 
BRANCH   2   3
HETATM    3  C8  UNL     1     -34.516   7.172   4.876  1.00 20.00     0.004 C 
BRANCH   3   4
HETATM    4  C10 UNL     1     -34.879   5.723   5.246  1.00 20.00    -0.023 C 
HETATM    5  C4  UNL     1     -34.254   4.702   4.294  1.00 20.00     0.009 C 
HETATM    6  C5  UNL     1     -34.437   5.427   6.682  1.00 20.00     0.009 C 
ENDBRANCH   3   4
ENDBRANCH   2   3
ENDBRANCH   1   2
BRANCH   1   7
HETATM    7  C9  UNL     1     -32.948   8.575   3.146  1.00 20.00     0.051 C 
HETATM    8  C3  UNL     1     -32.881  10.012   2.628  1.00 20.00     0.018 C 
BRANCH   7   9
HETATM    9  C1  UNL     1     -32.310   7.596   2.158  1.00 20.00     0.126 C 
HETATM   10  C2  UNL     1     -31.941   8.135   0.799  1.00 20.00     0.091 C 
HETATM   11  O11 UNL     1     -32.083   6.422   2.448  1.00 20.00    -0.298 OA
ENDBRANCH   7   9
ENDBRANCH   1   7
TORSDOF 5
ENDMDL
MODEL 9
REMARK VINA RESULT:      -3.8      2.418      4.331
REMARK  5 active torsions:
REMARK  status: ('A' for Active; 'I' for Inactive)
REMARK    1  A    between atoms: C1_1  and  C9_9 
REMARK    2  A    between atoms: C6_6  and  C7_7 
REMARK    3  A    between atoms: C6_6  and  C8_8 
REMARK    4  A    between atoms: C7_7  and  C9_9 
REMARK    5  A    between atoms: C8_8  and  C10_10 
ROOT
HETATM    1  C7  UNL     1     -34.764   5.896   6.368  1.00 20.00     0.011 C 
ENDROOT
BRANCH   1   2
HETATM    2  C6  UNL     1     -33.480   6.732   6.294  1.00 20.00     0.001 C 
BRANCH   2   3
HETATM    3  C8  UNL     1     -33.685   7.976   5.421  1.00 20.00     0.004 C 
BRANCH   3   4
HETATM    4  C10 UNL     1     -32.437   8.367   4.607  1.00 20.00    -0.023 C 
HETATM    5  C4  UNL     1     -32.731   8.500   3.113  1.00 20.00     0.009 C 
HETATM    6  C5  UNL     1     -31.862   9.682   5.140  1.00 20.00     0.009 C 
ENDBRANCH   3   4
ENDBRANCH   2   3
ENDBRANCH   1   2
BRANCH   1   7
HETATM    7  C9  UNL     1     -35.175   5.234   5.043  1.00 20.00     0.051 C 
HETATM    8  C3  UNL     1     -35.812   6.228   4.072  1.00 20.00     0.018 C 
BRANCH   7   9
HETATM    9  C1  UNL     1     -34.007   4.491   4.394  1.00 20.00     0.126 C 
HETATM   10  C2  UNL     1     -33.452   5.067   3.115  1.00 20.00     0.091 C 
HETATM   11  O11 UNL     1     -33.515   3.476   4.887  1.00 20.00    -0.298 OA
ENDBRANCH   7   9
ENDBRANCH   1   7
TORSDOF 5
ENDMDL
