MODEL 1
REMARK VINA RESULT:      -4.6      0.000      0.000
REMARK  3 active torsions:
REMARK  status: ('A' for Active; 'I' for Inactive)
REMARK    1  A    between atoms: C3_3  and  C4_4 
REMARK    2  A    between atoms: C5_5  and  C8_8 
REMARK    3  A    between atoms: C6_6  and  C8_8 
ROOT
HETATM    1  C4  UNL     1     -33.683   7.172   5.938  1.00 20.00    -0.004 C 
HETATM    2  C6  UNL     1     -33.846   7.519   4.651  1.00 20.00    -0.019 C 
ENDROOT
BRANCH   2   3
HETATM    3  C8  UNL     1     -32.944   8.488   3.927  1.00 20.00     0.026 C 
HETATM    4  C7  UNL     1     -32.021   9.193   4.924  1.00 20.00     0.018 C 
BRANCH   3   5
HETATM    5  C5  UNL     1     -32.127   7.772   2.880  1.00 20.00    -0.029 C 
HETATM    6  C2  UNL     1     -32.316   6.494   2.531  1.00 20.00     0.007 C 
ENDBRANCH   3   5
ENDBRANCH   2   3
BRANCH   1   7
HETATM    7  C3  UNL     1     -34.552   6.243   6.622  1.00 20.00    -0.011 C 
HETATM    8  C1  UNL     1     -34.819   5.015   6.165  1.00 20.00     0.011 C 
ENDBRANCH   1   7
TORSDOF 3
ENDMDL
MODEL 2
REMARK VINA RESULT:      -4.1      1.236      4.014
REMARK  3 active torsions:
REMARK  status: ('A' for Active; 'I' for Inactive)
REMARK    1  A    between atoms: C3_3  and  C4_4 
REMARK    2  A    between atoms: C5_5  and  C8_8 
REMARK    3  A    between atoms: C6_6  and  C8_8 
ROOT
HETATM    1  C4  UNL     1     -32.683   7.461   3.742  1.00 20.00    -0.004 C 
HETATM    2  C6  UNL     1     -33.820   7.015   4.299  1.00 20.00    -0.019 C 
ENDROOT
BRANCH   2   3
HETATM    3  C8  UNL     1     -34.397   5.645   4.035  1.00 20.00     0.026 C 
HETATM    4  C7  UNL     1     -33.430   4.823   3.181  1.00 20.00     0.018 C 
BRANCH   3   5
HETATM    5  C5  UNL     1     -34.680   4.930   5.333  1.00 20.00    -0.029 C 
HETATM    6  C2  UNL     1     -34.471   5.465   6.542  1.00 20.00     0.007 C 
ENDBRANCH   3   5
ENDBRANCH   2   3
BRANCH   1   7
HETATM    7  C3  UNL     1     -32.139   8.774   4.002  1.00 20.00    -0.011 C 
HETATM    8  C1  UNL     1     -32.170   9.358   5.204  1.00 20.00     0.011 C 
ENDBRANCH   1   7
TORSDOF 3
ENDMDL
MODEL 3
REMARK VINA RESULT:      -4.1      1.228      1.934
REMARK  3 active torsions:
REMARK  status: ('A' for Active; 'I' for Inactive)
REMARK    1  A    between atoms: C3_3  and  C4_4 
REMARK    2  A    between atoms: C5_5  and  C8_8 
REMARK    3  A    between atoms: C6_6  and  C8_8 
ROOT
HETATM    1  C4  UNL     1     -33.653   6.975   4.844  1.00 20.00    -0.004 C 
HETATM    2  C6  UNL     1     -32.881   8.049   4.613  1.00 20.00    -0.019 C 
ENDROOT
BRANCH   2   3
HETATM    3  C8  UNL     1     -32.194   8.317   3.296  1.00 20.00     0.026 C 
HETATM    4  C7  UNL     1     -32.157   7.039   2.454  1.00 20.00     0.018 C 
BRANCH   3   5
HETATM    5  C5  UNL     1     -32.901   9.415   2.542  1.00 20.00    -0.029 C 
HETATM    6  C2  UNL     1     -32.876   9.542   1.210  1.00 20.00     0.007 C 
ENDBRANCH   3   5
ENDBRANCH   2   3
BRANCH   1   7
HETATM    7  C3  UNL     1     -34.307   6.729   6.108  1.00 20.00    -0.011 C 
HETATM    8  C1  UNL     1     -34.676   5.511   6.519  1.00 20.00     0.011 C 
ENDBRANCH   1   7
TORSDOF 3
ENDMDL
MODEL 4
REMARK VINA RESULT:      -4.1      1.202      4.341
REMARK  3 active torsions:
REMARK  status: ('A' for Active; 'I' for Inactive)
REMARK    1  A    between atoms: C3_3  and  C4_4 
REMARK    2  A    between atoms: C5_5  and  C8_8 
REMARK    3  A    between atoms: C6_6  and  C8_8 
ROOT
HETATM    1  C4  UNL     1     -32.799   6.471   3.253  1.00 20.00    -0.004 C 
HETATM    2  C6  UNL     1     -33.893   6.617   4.017  1.00 20.00    -0.019 C 
ENDROOT
BRANCH   2   3
HETATM    3  C8  UNL     1     -34.620   5.462   4.664  1.00 20.00     0.026 C 
HETATM    4  C7  UNL     1     -33.902   4.148   4.349  1.00 20.00     0.018 C 
BRANCH   3   5
HETATM    5  C5  UNL     1     -34.710   5.661   6.156  1.00 20.00    -0.029 C 
HETATM    6  C2  UNL     1     -34.305   6.770   6.787  1.00 20.00     0.007 C 
ENDBRANCH   3   5
ENDBRANCH   2   3
BRANCH   1   7
HETATM    7  C3  UNL     1     -32.110   7.582   2.639  1.00 20.00    -0.011 C 
HETATM    8  C1  UNL     1     -32.494   8.855   2.783  1.00 20.00     0.011 C 
ENDBRANCH   1   7
TORSDOF 3
ENDMDL
MODEL 5
REMARK VINA RESULT:      -4.1      1.310      4.025
REMARK  3 active torsions:
REMARK  status: ('A' for Active; 'I' for Inactive)
REMARK    1  A    between atoms: C3_3  and  C4_4 
REMARK    2  A    between atoms: C5_5  and  C8_8 
REMARK    3  A    between atoms: C6_6  and  C8_8 
ROOT
HETATM    1  C4  UNL     1     -32.475   8.055   3.150  1.00 20.00    -0.004 C 
HETATM    2  C6  UNL     1     -32.940   7.034   3.888  1.00 20.00    -0.019 C 
ENDROOT
BRANCH   2   3
HETATM    3  C8  UNL     1     -33.334   7.164   5.339  1.00 20.00     0.026 C 
HETATM    4  C7  UNL     1     -33.715   8.613   5.652  1.00 20.00     0.018 C 
BRANCH   3   5
HETATM    5  C5  UNL     1     -34.484   6.244   5.661  1.00 20.00    -0.029 C 
HETATM    6  C2  UNL     1     -34.812   5.173   4.928  1.00 20.00     0.007 C 
ENDBRANCH   3   5
ENDBRANCH   2   3
BRANCH   1   7
HETATM    7  C3  UNL     1     -32.102   7.921   1.762  1.00 20.00    -0.011 C 
HETATM    8  C1  UNL     1     -32.450   8.803   0.818  1.00 20.00     0.011 C 
ENDBRANCH   1   7
TORSDOF 3
ENDMDL
MODEL 6
REMARK VINA RESULT:      -3.8      1.441      4.102
REMARK  3 active torsions:
REMARK  status: ('A' for Active; 'I' for Inactive)
REMARK    1  A    between atoms: C3_3  and  C4_4 
REMARK    2  A    between atoms: C5_5  and  C8_8 
REMARK    3  A    between atoms: C6_6  and  C8_8 
ROOT
HETATM    1  C4  UNL     1     -32.827   8.206   2.935  1.00 20.00    -0.004 C 
HETATM    2  C6  UNL     1     -33.121   8.263   4.244  1.00 20.00    -0.019 C 
ENDROOT
BRANCH   2   3
HETATM    3  C8  UNL     1     -33.315   7.042   5.110  1.00 20.00     0.026 C 
HETATM    4  C7  UNL     1     -34.021   7.428   6.412  1.00 20.00     0.018 C 
BRANCH   3   5
HETATM    5  C5  UNL     1     -34.114   5.993   4.377  1.00 20.00    -0.029 C 
HETATM    6  C2  UNL     1     -34.716   4.959   4.976  1.00 20.00     0.007 C 
ENDBRANCH   3   5
ENDBRANCH   2   3
BRANCH   1   7
HETATM    7  C3  UNL     1     -32.642   9.380   2.115  1.00 20.00    -0.011 C 
HETATM    8  C1  UNL     1     -32.718   9.364   0.780  1.00 20.00     0.011 C 
ENDBRANCH   1   7
TORSDOF 3
ENDMDL
MODEL 7
REMARK VINA RESULT:      -3.8     11.563     12.361
REMARK  3 active torsions:
REMARK  status: ('A' for Active; 'I' for Inactive)
REMARK    1  A    between atoms: C3_3  and  C4_4 
REMARK    2  A    between atoms: C5_5  and  C8_8 
REMARK    3  A    between atoms: C6_6  and  C8_8 
ROOT
HETATM    1  C4  UNL     1     -33.349  16.696  -2.421  1.00 20.00    -0.004 C 
HETATM    2  C6  UNL     1     -32.868  17.936  -2.237  1.00 20.00    -0.019 C 
ENDROOT
BRANCH   2   3
HETATM    3  C8  UNL     1     -32.754  18.595  -0.884  1.00 20.00     0.026 C 
HETATM    4  C7  UNL     1     -33.713  17.931   0.106  1.00 20.00     0.018 C 
BRANCH   3   5
HETATM    5  C5  UNL     1     -31.339  18.513  -0.371  1.00 20.00    -0.029 C 
HETATM    6  C2  UNL     1     -31.016  18.464   0.927  1.00 20.00     0.007 C 
ENDBRANCH   3   5
ENDBRANCH   2   3
BRANCH   1   7
HETATM    7  C3  UNL     1     -33.453  16.073  -3.720  1.00 20.00    -0.011 C 
HETATM    8  C1  UNL     1     -33.849  14.809  -3.900  1.00 20.00     0.011 C 
ENDBRANCH   1   7
TORSDOF 3
ENDMDL
MODEL 8
REMARK VINA RESULT:      -3.7      0.958      2.250
REMARK  3 active torsions:
REMARK  status: ('A' for Active; 'I' for Inactive)
REMARK    1  A    between atoms: C3_3  and  C4_4 
REMARK    2  A    between atoms: C5_5  and  C8_8 
REMARK    3  A    between atoms: C6_6  and  C8_8 
ROOT
HETATM    1  C4  UNL     1     -34.053   6.569   4.424  1.00 20.00    -0.004 C 
HETATM    2  C6  UNL     1     -32.952   6.405   3.674  1.00 20.00    -0.019 C 
ENDROOT
BRANCH   2   3
HETATM    3  C8  UNL     1     -32.135   7.551   3.129  1.00 20.00     0.026 C 
HETATM    4  C7  UNL     1     -32.344   7.674   1.618  1.00 20.00     0.018 C 
BRANCH   3   5
HETATM    5  C5  UNL     1     -32.511   8.842   3.812  1.00 20.00    -0.029 C 
HETATM    6  C2  UNL     1     -32.150   9.160   5.061  1.00 20.00     0.007 C 
ENDBRANCH   3   5
ENDBRANCH   2   3
BRANCH   1   7
HETATM    7  C3  UNL     1     -34.828   5.465   4.942  1.00 20.00    -0.011 C 
HETATM    8  C1  UNL     1     -34.801   5.085   6.224  1.00 20.00     0.011 C 
ENDBRANCH   1   7
TORSDOF 3
ENDMDL
MODEL 9
REMARK VINA RESULT:      -3.6     11.676     12.505
REMARK  3 active torsions:
REMARK  status: ('A' for Active; 'I' for Inactive)
REMARK    1  A    between atoms: C3_3  and  C4_4 
REMARK    2  A    between atoms: C5_5  and  C8_8 
REMARK    3  A    between atoms: C6_6  and  C8_8 
ROOT
HETATM    1  C4  UNL     1     -31.480  18.519  -0.489  1.00 20.00    -0.004 C 
HETATM    2  C6  UNL     1     -32.801  18.290  -0.573  1.00 20.00    -0.019 C 
ENDROOT
BRANCH   2   3
HETATM    3  C8  UNL     1     -33.523  18.035  -1.874  1.00 20.00     0.026 C 
HETATM    4  C7  UNL     1     -32.911  18.886  -2.989  1.00 20.00     0.018 C 
BRANCH   3   5
HETATM    5  C5  UNL     1     -33.458  16.574  -2.240  1.00 20.00    -0.029 C 
HETATM    6  C2  UNL     1     -33.288  16.123  -3.489  1.00 20.00     0.007 C 
ENDBRANCH   3   5
ENDBRANCH   2   3
BRANCH   1   7
HETATM    7  C3  UNL     1     -30.798  18.761   0.761  1.00 20.00    -0.011 C 
HETATM    8  C1  UNL     1     -31.274  18.365   1.946  1.00 20.00     0.011 C 
ENDBRANCH   1   7
TORSDOF 3
ENDMDL
