MODEL 1
REMARK VINA RESULT:      -3.9      0.000      0.000
REMARK  4 active torsions:
REMARK  status: ('A' for Active; 'I' for Inactive)
REMARK    1  A    between atoms: C5_5  and  O8_8 
REMARK    2  A    between atoms: C6_6  and  O9_9 
REMARK    3  A    between atoms: C7_7  and  O8_8 
REMARK    4  A    between atoms: C7_7  and  O9_9 
ROOT
HETATM    1  C1  UNL     1     -32.918   4.782   2.536  1.00 20.00     0.014 C 
HETATM    2  C2  UNL     1     -32.728   5.935   2.814  1.00 20.00    -0.091 C 
HETATM    3  C5  UNL     1     -32.492   7.339   3.150  1.00 20.00     0.263 C 
ENDROOT
BRANCH   3   4
HETATM    4  O8  UNL     1     -33.632   7.894   3.794  1.00 20.00    -0.350 OA
BRANCH   4   5
HETATM    5  C7  UNL     1     -33.359   8.344   5.123  1.00 20.00     0.256 C 
HETATM    6  C4  UNL     1     -32.055   9.133   5.129  1.00 20.00     0.070 C 
BRANCH   5   7
HETATM    7  O9  UNL     1     -33.176   7.237   6.015  1.00 20.00    -0.362 OA
BRANCH   7   8
HETATM    8  C6  UNL     1     -34.411   6.717   6.489  1.00 20.00     0.166 C 
HETATM    9  C3  UNL     1     -34.536   5.271   6.058  1.00 20.00     0.033 C 
ENDBRANCH   7   8
ENDBRANCH   5   7
ENDBRANCH   4   5
ENDBRANCH   3   4
TORSDOF 4
ENDMDL
MODEL 2
REMARK VINA RESULT:      -3.9      1.207      3.133
REMARK  4 active torsions:
REMARK  status: ('A' for Active; 'I' for Inactive)
REMARK    1  A    between atoms: C5_5  and  O8_8 
REMARK    2  A    between atoms: C6_6  and  O9_9 
REMARK    3  A    between atoms: C7_7  and  O8_8 
REMARK    4  A    between atoms: C7_7  and  O9_9 
ROOT
HETATM    1  C1  UNL     1     -34.868   5.319   6.061  1.00 20.00     0.014 C 
HETATM    2  C2  UNL     1     -34.255   6.351   6.051  1.00 20.00    -0.091 C 
HETATM    3  C5  UNL     1     -33.506   7.608   6.041  1.00 20.00     0.263 C 
ENDROOT
BRANCH   3   4
HETATM    4  O8  UNL     1     -33.709   8.298   4.815  1.00 20.00    -0.350 OA
BRANCH   4   5
HETATM    5  C7  UNL     1     -32.499   8.495   4.079  1.00 20.00     0.256 C 
HETATM    6  C4  UNL     1     -32.811   9.232   2.783  1.00 20.00     0.070 C 
BRANCH   5   7
HETATM    7  O9  UNL     1     -31.911   7.241   3.709  1.00 20.00    -0.362 OA
BRANCH   7   8
HETATM    8  C6  UNL     1     -32.459   6.723   2.504  1.00 20.00     0.166 C 
HETATM    9  C3  UNL     1     -32.915   5.299   2.741  1.00 20.00     0.033 C 
ENDBRANCH   7   8
ENDBRANCH   5   7
ENDBRANCH   4   5
ENDBRANCH   3   4
TORSDOF 4
ENDMDL
MODEL 3
REMARK VINA RESULT:      -3.8      1.200      3.147
REMARK  4 active torsions:
REMARK  status: ('A' for Active; 'I' for Inactive)
REMARK    1  A    between atoms: C5_5  and  O8_8 
REMARK    2  A    between atoms: C6_6  and  O9_9 
REMARK    3  A    between atoms: C7_7  and  O8_8 
REMARK    4  A    between atoms: C7_7  and  O9_9 
ROOT
HETATM    1  C1  UNL     1     -32.164   8.420   2.739  1.00 20.00     0.014 C 
HETATM    2  C2  UNL     1     -32.664   8.429   3.830  1.00 20.00    -0.091 C 
HETATM    3  C5  UNL     1     -33.275   8.445   5.160  1.00 20.00     0.263 C 
ENDROOT
BRANCH   3   4
HETATM    4  O8  UNL     1     -33.258   7.142   5.729  1.00 20.00    -0.350 OA
BRANCH   4   5
HETATM    5  C7  UNL     1     -34.517   6.472   5.625  1.00 20.00     0.256 C 
HETATM    6  C4  UNL     1     -34.518   5.257   6.543  1.00 20.00     0.070 C 
BRANCH   5   7
HETATM    7  O9  UNL     1     -34.732   5.984   4.294  1.00 20.00    -0.362 OA
BRANCH   7   8
HETATM    8  C6  UNL     1     -33.998   4.797   4.030  1.00 20.00     0.166 C 
HETATM    9  C3  UNL     1     -33.152   5.005   2.791  1.00 20.00     0.033 C 
ENDBRANCH   7   8
ENDBRANCH   5   7
ENDBRANCH   4   5
ENDBRANCH   3   4
TORSDOF 4
ENDMDL
MODEL 4
REMARK VINA RESULT:      -3.7      1.752      3.949
REMARK  4 active torsions:
REMARK  status: ('A' for Active; 'I' for Inactive)
REMARK    1  A    between atoms: C5_5  and  O8_8 
REMARK    2  A    between atoms: C6_6  and  O9_9 
REMARK    3  A    between atoms: C7_7  and  O8_8 
REMARK    4  A    between atoms: C7_7  and  O9_9 
ROOT
HETATM    1  C1  UNL     1     -34.674   5.071   6.335  1.00 20.00     0.014 C 
HETATM    2  C2  UNL     1     -34.418   6.057   5.699  1.00 20.00    -0.091 C 
HETATM    3  C5  UNL     1     -34.108   7.260   4.926  1.00 20.00     0.263 C 
ENDROOT
BRANCH   3   4
HETATM    4  O8  UNL     1     -33.128   6.976   3.935  1.00 20.00    -0.350 OA
BRANCH   4   5
HETATM    5  C7  UNL     1     -32.227   8.063   3.714  1.00 20.00     0.256 C 
HETATM    6  C4  UNL     1     -32.238   8.983   4.928  1.00 20.00     0.070 C 
BRANCH   5   7
HETATM    7  O9  UNL     1     -32.641   8.855   2.592  1.00 20.00    -0.362 OA
BRANCH   7   8
HETATM    8  C6  UNL     1     -32.204   8.307   1.355  1.00 20.00     0.166 C 
HETATM    9  C3  UNL     1     -32.679   9.198   0.226  1.00 20.00     0.033 C 
ENDBRANCH   7   8
ENDBRANCH   5   7
ENDBRANCH   4   5
ENDBRANCH   3   4
TORSDOF 4
ENDMDL
MODEL 5
REMARK VINA RESULT:      -3.6      1.269      2.783
REMARK  4 active torsions:
REMARK  status: ('A' for Active; 'I' for Inactive)
REMARK    1  A    between atoms: C5_5  and  O8_8 
REMARK    2  A    between atoms: C6_6  and  O9_9 
REMARK    3  A    between atoms: C7_7  and  O8_8 
REMARK    4  A    between atoms: C7_7  and  O9_9 
ROOT
HETATM    1  C1  UNL     1     -32.808   4.955   2.364  1.00 20.00     0.014 C 
HETATM    2  C2  UNL     1     -33.597   4.995   3.267  1.00 20.00    -0.091 C 
HETATM    3  C5  UNL     1     -34.559   5.040   4.369  1.00 20.00     0.263 C 
ENDROOT
BRANCH   3   4
HETATM    4  O8  UNL     1     -34.863   6.387   4.708  1.00 20.00    -0.350 OA
BRANCH   4   5
HETATM    5  C7  UNL     1     -33.859   6.998   5.523  1.00 20.00     0.256 C 
HETATM    6  C4  UNL     1     -34.273   6.907   6.986  1.00 20.00     0.070 C 
BRANCH   5   7
HETATM    7  O9  UNL     1     -33.724   8.392   5.217  1.00 20.00    -0.362 OA
BRANCH   7   8
HETATM    8  C6  UNL     1     -32.430   8.713   4.724  1.00 20.00     0.166 C 
HETATM    9  C3  UNL     1     -32.423   8.556   3.218  1.00 20.00     0.033 C 
ENDBRANCH   7   8
ENDBRANCH   5   7
ENDBRANCH   4   5
ENDBRANCH   3   4
TORSDOF 4
ENDMDL
MODEL 6
REMARK VINA RESULT:      -3.6      1.651      2.227
REMARK  4 active torsions:
REMARK  status: ('A' for Active; 'I' for Inactive)
REMARK    1  A    between atoms: C5_5  and  O8_8 
REMARK    2  A    between atoms: C6_6  and  O9_9 
REMARK    3  A    between atoms: C7_7  and  O8_8 
REMARK    4  A    between atoms: C7_7  and  O9_9 
ROOT
HETATM    1  C1  UNL     1     -32.705   9.480   0.637  1.00 20.00     0.014 C 
HETATM    2  C2  UNL     1     -32.442   8.492   1.266  1.00 20.00    -0.091 C 
HETATM    3  C5  UNL     1     -32.122   7.286   2.029  1.00 20.00     0.263 C 
ENDROOT
BRANCH   3   4
HETATM    4  O8  UNL     1     -31.867   7.611   3.390  1.00 20.00    -0.350 OA
BRANCH   4   5
HETATM    5  C7  UNL     1     -33.038   8.038   4.090  1.00 20.00     0.256 C 
HETATM    6  C4  UNL     1     -32.627   8.805   5.340  1.00 20.00     0.070 C 
BRANCH   5   7
HETATM    7  O9  UNL     1     -33.815   6.916   4.530  1.00 20.00    -0.362 OA
BRANCH   7   8
HETATM    8  C6  UNL     1     -34.030   6.928   5.934  1.00 20.00     0.166 C 
HETATM    9  C3  UNL     1     -34.547   5.571   6.365  1.00 20.00     0.033 C 
ENDBRANCH   7   8
ENDBRANCH   5   7
ENDBRANCH   4   5
ENDBRANCH   3   4
TORSDOF 4
ENDMDL
MODEL 7
REMARK VINA RESULT:      -3.6      1.442      2.877
REMARK  4 active torsions:
REMARK  status: ('A' for Active; 'I' for Inactive)
REMARK    1  A    between atoms: C5_5  and  O8_8 
REMARK    2  A    between atoms: C6_6  and  O9_9 
REMARK    3  A    between atoms: C7_7  and  O8_8 
REMARK    4  A    between atoms: C7_7  and  O9_9 
ROOT
HETATM    1  C1  UNL     1     -34.724   5.018   5.083  1.00 20.00     0.014 C 
HETATM    2  C2  UNL     1     -34.118   5.102   4.050  1.00 20.00    -0.091 C 
HETATM    3  C5  UNL     1     -33.382   5.203   2.790  1.00 20.00     0.263 C 
ENDROOT
BRANCH   3   4
HETATM    4  O8  UNL     1     -32.205   5.984   2.963  1.00 20.00    -0.350 OA
BRANCH   4   5
HETATM    5  C7  UNL     1     -32.476   7.383   3.079  1.00 20.00     0.256 C 
HETATM    6  C4  UNL     1     -32.184   8.065   1.749  1.00 20.00     0.070 C 
BRANCH   5   7
HETATM    7  O9  UNL     1     -31.621   7.994   4.054  1.00 20.00    -0.362 OA
BRANCH   7   8
HETATM    8  C6  UNL     1     -32.301   8.971   4.830  1.00 20.00     0.166 C 
HETATM    9  C3  UNL     1     -33.610   8.389   5.320  1.00 20.00     0.033 C 
ENDBRANCH   7   8
ENDBRANCH   5   7
ENDBRANCH   4   5
ENDBRANCH   3   4
TORSDOF 4
ENDMDL
MODEL 8
REMARK VINA RESULT:      -3.5      1.424      3.991
REMARK  4 active torsions:
REMARK  status: ('A' for Active; 'I' for Inactive)
REMARK    1  A    between atoms: C5_5  and  O8_8 
REMARK    2  A    between atoms: C6_6  and  O9_9 
REMARK    3  A    between atoms: C7_7  and  O8_8 
REMARK    4  A    between atoms: C7_7  and  O9_9 
ROOT
HETATM    1  C1  UNL     1     -34.260   6.968   6.711  1.00 20.00     0.014 C 
HETATM    2  C2  UNL     1     -34.585   6.176   5.869  1.00 20.00    -0.091 C 
HETATM    3  C5  UNL     1     -34.984   5.211   4.844  1.00 20.00     0.263 C 
ENDROOT
BRANCH   3   4
HETATM    4  O8  UNL     1     -33.847   4.752   4.123  1.00 20.00    -0.350 OA
BRANCH   4   5
HETATM    5  C7  UNL     1     -33.429   5.663   3.104  1.00 20.00     0.256 C 
HETATM    6  C4  UNL     1     -32.903   4.876   1.910  1.00 20.00     0.070 C 
BRANCH   5   7
HETATM    7  O9  UNL     1     -32.350   6.489   3.561  1.00 20.00    -0.362 OA
BRANCH   7   8
HETATM    8  C6  UNL     1     -32.531   7.855   3.211  1.00 20.00     0.166 C 
HETATM    9  C3  UNL     1     -32.284   8.714   4.433  1.00 20.00     0.033 C 
ENDBRANCH   7   8
ENDBRANCH   5   7
ENDBRANCH   4   5
ENDBRANCH   3   4
TORSDOF 4
ENDMDL
MODEL 9
REMARK VINA RESULT:      -3.4     12.279     12.981
REMARK  4 active torsions:
REMARK  status: ('A' for Active; 'I' for Inactive)
REMARK    1  A    between atoms: C5_5  and  O8_8 
REMARK    2  A    between atoms: C6_6  and  O9_9 
REMARK    3  A    between atoms: C7_7  and  O8_8 
REMARK    4  A    between atoms: C7_7  and  O9_9 
ROOT
HETATM    1  C1  UNL     1     -28.284  18.687   3.680  1.00 20.00     0.014 C 
HETATM    2  C2  UNL     1     -29.309  18.662   3.056  1.00 20.00    -0.091 C 
HETATM    3  C5  UNL     1     -30.560  18.631   2.298  1.00 20.00     0.263 C 
ENDROOT
BRANCH   3   4
HETATM    4  O8  UNL     1     -30.301  18.746   0.905  1.00 20.00    -0.350 OA
BRANCH   4   5
HETATM    5  C7  UNL     1     -31.414  19.263   0.171  1.00 20.00     0.256 C 
HETATM    6  C4  UNL     1     -32.695  19.016   0.958  1.00 20.00     0.070 C 
BRANCH   5   7
HETATM    7  O9  UNL     1     -31.563  18.586  -1.084  1.00 20.00    -0.362 OA
BRANCH   7   8
HETATM    8  C6  UNL     1     -32.926  18.440  -1.459  1.00 20.00     0.166 C 
HETATM    9  C3  UNL     1     -33.105  17.112  -2.162  1.00 20.00     0.033 C 
ENDBRANCH   7   8
ENDBRANCH   5   7
ENDBRANCH   4   5
ENDBRANCH   3   4
TORSDOF 4
ENDMDL
