MODEL 1
REMARK VINA RESULT:      -3.9      0.000      0.000
REMARK  0 active torsions:
REMARK  status: ('A' for Active; 'I' for Inactive)
ROOT
HETATM    1  C1  UNL     1     -33.772  16.187  -3.706  1.00 20.00     0.127 C 
HETATM    2  C2  UNL     1     -34.383  16.906  -4.885  1.00 20.00     0.078 C 
HETATM    3  C3  UNL     1     -32.758  16.963  -2.894  1.00 20.00     0.087 C 
HETATM    4  C4  UNL     1     -34.920  18.264  -4.459  1.00 20.00     0.008 C 
HETATM    5  C5  UNL     1     -32.756  18.560   0.501  1.00 20.00     0.000 C 
HETATM    6  C6  UNL     1     -31.635  18.692  -0.522  1.00 20.00     0.001 C 
HETATM    7  C7  UNL     1     -33.896  17.691  -0.019  1.00 20.00     0.001 C 
HETATM    8  C8  UNL     1     -33.874  19.075  -3.694  1.00 20.00     0.010 C 
HETATM    9  C9  UNL     1     -32.158  19.200  -1.864  1.00 20.00     0.010 C 
HETATM   10  C10 UNL     1     -34.415  18.179  -1.372  1.00 20.00     0.010 C 
HETATM   11  C11 UNL     1     -33.308  18.338  -2.449  1.00 20.00    -0.034 C 
HETATM   12  O12 UNL     1     -34.017  15.004  -3.476  1.00 20.00    -0.298 OA
ENDROOT
TORSDOF 0
ENDMDL
MODEL 2
REMARK VINA RESULT:      -3.9      1.976      4.326
REMARK  0 active torsions:
REMARK  status: ('A' for Active; 'I' for Inactive)
ROOT
HETATM    1  C1  UNL     1     -33.993  18.885   0.587  1.00 20.00     0.127 C 
HETATM    2  C2  UNL     1     -32.732  19.130   1.382  1.00 20.00     0.078 C 
HETATM    3  C3  UNL     1     -33.950  19.263  -0.878  1.00 20.00     0.087 C 
HETATM    4  C4  UNL     1     -31.532  18.519   0.676  1.00 20.00     0.008 C 
HETATM    5  C5  UNL     1     -33.811  17.343  -4.098  1.00 20.00     0.000 C 
HETATM    6  C6  UNL     1     -33.689  18.857  -3.983  1.00 20.00     0.001 C 
HETATM    7  C7  UNL     1     -34.000  16.686  -2.735  1.00 20.00     0.001 C 
HETATM    8  C8  UNL     1     -31.451  18.952  -0.788  1.00 20.00     0.010 C 
HETATM    9  C9  UNL     1     -32.580  19.257  -3.011  1.00 20.00     0.010 C 
HETATM   10  C10 UNL     1     -32.907  17.095  -1.747  1.00 20.00     0.010 C 
HETATM   11  C11 UNL     1     -32.737  18.632  -1.600  1.00 20.00    -0.034 C 
HETATM   12  O12 UNL     1     -35.026  18.488   1.123  1.00 20.00    -0.298 OA
ENDROOT
TORSDOF 0
ENDMDL
MODEL 3
REMARK VINA RESULT:      -3.8     11.709     13.240
REMARK  0 active torsions:
REMARK  status: ('A' for Active; 'I' for Inactive)
ROOT
HETATM    1  C1  UNL     1     -42.852  12.975   8.019  1.00 20.00     0.127 C 
HETATM    2  C2  UNL     1     -43.417  14.374   8.087  1.00 20.00     0.078 C 
HETATM    3  C3  UNL     1     -42.226  12.564   6.703  1.00 20.00     0.087 C 
HETATM    4  C4  UNL     1     -42.387  15.387   7.611  1.00 20.00     0.008 C 
HETATM    5  C5  UNL     1     -38.714  12.001   5.510  1.00 20.00     0.000 C 
HETATM    6  C6  UNL     1     -39.948  11.986   4.616  1.00 20.00     0.001 C 
HETATM    7  C7  UNL     1     -39.074  12.273   6.966  1.00 20.00     0.001 C 
HETATM    8  C8  UNL     1     -41.802  15.006   6.250  1.00 20.00     0.010 C 
HETATM    9  C9  UNL     1     -40.759  13.273   4.761  1.00 20.00     0.010 C 
HETATM   10  C10 UNL     1     -39.903  13.549   7.120  1.00 20.00     0.010 C 
HETATM   11  C11 UNL     1     -41.170  13.587   6.224  1.00 20.00    -0.034 C 
HETATM   12  O12 UNL     1     -42.977  12.183   8.951  1.00 20.00    -0.298 OA
ENDROOT
TORSDOF 0
ENDMDL
MODEL 4
REMARK VINA RESULT:      -3.8      2.649      5.439
REMARK  0 active torsions:
REMARK  status: ('A' for Active; 'I' for Inactive)
ROOT
HETATM    1  C1  UNL     1     -34.254  17.350  -3.610  1.00 20.00     0.127 C 
HETATM    2  C2  UNL     1     -33.327  16.240  -3.176  1.00 20.00     0.078 C 
HETATM    3  C3  UNL     1     -34.436  17.532  -5.102  1.00 20.00     0.087 C 
HETATM    4  C4  UNL     1     -33.703  14.935  -3.861  1.00 20.00     0.008 C 
HETATM    5  C5  UNL     1     -37.211  16.836  -7.528  1.00 20.00     0.000 C 
HETATM    6  C6  UNL     1     -35.812  17.297  -7.917  1.00 20.00     0.001 C 
HETATM    7  C7  UNL     1     -37.358  16.689  -6.018  1.00 20.00     0.001 C 
HETATM    8  C8  UNL     1     -33.823  15.103  -5.376  1.00 20.00     0.010 C 
HETATM    9  C9  UNL     1     -34.739  16.377  -7.338  1.00 20.00     0.010 C 
HETATM   10  C10 UNL     1     -36.276  15.785  -5.425  1.00 20.00     0.010 C 
HETATM   11  C11 UNL     1     -34.830  16.209  -5.799  1.00 20.00    -0.034 C 
HETATM   12  O12 UNL     1     -34.760  18.123  -2.798  1.00 20.00    -0.298 OA
ENDROOT
TORSDOF 0
ENDMDL
MODEL 5
REMARK VINA RESULT:      -3.7      2.932      4.538
REMARK  0 active torsions:
REMARK  status: ('A' for Active; 'I' for Inactive)
ROOT
HETATM    1  C1  UNL     1     -37.317  16.503  -6.039  1.00 20.00     0.127 C 
HETATM    2  C2  UNL     1     -37.230  16.734  -7.529  1.00 20.00     0.078 C 
HETATM    3  C3  UNL     1     -36.268  15.594  -5.434  1.00 20.00     0.087 C 
HETATM    4  C4  UNL     1     -35.822  17.160  -7.918  1.00 20.00     0.008 C 
HETATM    5  C5  UNL     1     -33.256  16.117  -3.261  1.00 20.00     0.000 C 
HETATM    6  C6  UNL     1     -33.644  14.791  -3.903  1.00 20.00     0.001 C 
HETATM    7  C7  UNL     1     -34.246  17.223  -3.605  1.00 20.00     0.001 C 
HETATM    8  C8  UNL     1     -34.765  16.205  -7.362  1.00 20.00     0.010 C 
HETATM    9  C9  UNL     1     -33.821  14.932  -5.414  1.00 20.00     0.010 C 
HETATM   10  C10 UNL     1     -34.446  17.360  -5.115  1.00 20.00     0.010 C 
HETATM   11  C11 UNL     1     -34.836  16.033  -5.820  1.00 20.00    -0.034 C 
HETATM   12  O12 UNL     1     -38.246  16.953  -5.370  1.00 20.00    -0.298 OA
ENDROOT
TORSDOF 0
ENDMDL
MODEL 6
REMARK VINA RESULT:      -3.6     12.249     14.038
REMARK  0 active torsions:
REMARK  status: ('A' for Active; 'I' for Inactive)
ROOT
HETATM    1  C1  UNL     1     -42.151  13.808   9.745  1.00 20.00     0.127 C 
HETATM    2  C2  UNL     1     -41.290  14.673  10.634  1.00 20.00     0.078 C 
HETATM    3  C3  UNL     1     -42.557  14.402   8.413  1.00 20.00     0.087 C 
HETATM    4  C4  UNL     1     -40.091  15.200   9.861  1.00 20.00     0.008 C 
HETATM    5  C5  UNL     1     -41.578  13.800   4.842  1.00 20.00     0.000 C 
HETATM    6  C6  UNL     1     -42.486  14.928   5.316  1.00 20.00     0.001 C 
HETATM    7  C7  UNL     1     -41.107  12.930   6.002  1.00 20.00     0.001 C 
HETATM    8  C8  UNL     1     -40.506  15.860   8.546  1.00 20.00     0.010 C 
HETATM    9  C9  UNL     1     -41.818  15.763   6.406  1.00 20.00     0.010 C 
HETATM   10  C10 UNL     1     -40.454  13.758   7.108  1.00 20.00     0.010 C 
HETATM   11  C11 UNL     1     -41.337  14.927   7.621  1.00 20.00    -0.034 C 
HETATM   12  O12 UNL     1     -42.575  12.717  10.122  1.00 20.00    -0.298 OA
ENDROOT
TORSDOF 0
ENDMDL
MODEL 7
REMARK VINA RESULT:      -3.6      2.371      3.910
REMARK  0 active torsions:
REMARK  status: ('A' for Active; 'I' for Inactive)
ROOT
HETATM    1  C1  UNL     1     -34.468  15.666  -7.368  1.00 20.00     0.127 C 
HETATM    2  C2  UNL     1     -35.909  15.355  -7.695  1.00 20.00     0.078 C 
HETATM    3  C3  UNL     1     -34.226  16.818  -6.415  1.00 20.00     0.087 C 
HETATM    4  C4  UNL     1     -36.724  15.213  -6.419  1.00 20.00     0.008 C 
HETATM    5  C5  UNL     1     -33.119  17.103  -2.843  1.00 20.00     0.000 C 
HETATM    6  C6  UNL     1     -33.604  18.267  -3.698  1.00 20.00     0.001 C 
HETATM    7  C7  UNL     1     -33.133  15.790  -3.616  1.00 20.00     0.001 C 
HETATM    8  C8  UNL     1     -36.531  16.407  -5.485  1.00 20.00     0.010 C 
HETATM    9  C9  UNL     1     -34.981  17.986  -4.296  1.00 20.00     0.010 C 
HETATM   10  C10 UNL     1     -34.502  15.508  -4.236  1.00 20.00     0.010 C 
HETATM   11  C11 UNL     1     -35.045  16.669  -5.112  1.00 20.00    -0.034 C 
HETATM   12  O12 UNL     1     -33.539  15.076  -7.918  1.00 20.00    -0.298 OA
ENDROOT
TORSDOF 0
ENDMDL
MODEL 8
REMARK VINA RESULT:      -3.6     24.530     25.717
REMARK  0 active torsions:
REMARK  status: ('A' for Active; 'I' for Inactive)
ROOT
HETATM    1  C1  UNL     1     -27.640  -2.066  10.213  1.00 20.00     0.127 C 
HETATM    2  C2  UNL     1     -28.071  -0.822  10.953  1.00 20.00     0.078 C 
HETATM    3  C3  UNL     1     -26.148  -2.283  10.073  1.00 20.00     0.087 C 
HETATM    4  C4  UNL     1     -27.359  -0.726  12.293  1.00 20.00     0.008 C 
HETATM    5  C5  UNL     1     -23.665  -4.633  11.616  1.00 20.00     0.000 C 
HETATM    6  C6  UNL     1     -23.307  -3.469  10.701  1.00 20.00     0.001 C 
HETATM    7  C7  UNL     1     -25.169  -4.737  11.836  1.00 20.00     0.001 C 
HETATM    8  C8  UNL     1     -25.845  -0.881  12.144  1.00 20.00     0.010 C 
HETATM    9  C9  UNL     1     -23.889  -2.154  11.215  1.00 20.00     0.010 C 
HETATM   10  C10 UNL     1     -25.766  -3.420  12.332  1.00 20.00     0.010 C 
HETATM   11  C11 UNL     1     -25.424  -2.199  11.436  1.00 20.00    -0.034 C 
HETATM   12  O12 UNL     1     -28.456  -2.811   9.674  1.00 20.00    -0.298 OA
ENDROOT
TORSDOF 0
ENDMDL
MODEL 9
REMARK VINA RESULT:      -3.6      2.071      4.357
REMARK  0 active torsions:
REMARK  status: ('A' for Active; 'I' for Inactive)
ROOT
HETATM    1  C1  UNL     1     -31.525  18.587  -0.234  1.00 20.00     0.127 C 
HETATM    2  C2  UNL     1     -32.314  18.567   1.053  1.00 20.00     0.078 C 
HETATM    3  C3  UNL     1     -31.996  17.652  -1.329  1.00 20.00     0.087 C 
HETATM    4  C4  UNL     1     -33.799  18.735   0.768  1.00 20.00     0.008 C 
HETATM    5  C5  UNL     1     -33.751  18.102  -4.613  1.00 20.00     0.000 C 
HETATM    6  C6  UNL     1     -33.446  16.756  -3.968  1.00 20.00     0.001 C 
HETATM    7  C7  UNL     1     -33.252  19.263  -3.760  1.00 20.00     0.001 C 
HETATM    8  C8  UNL     1     -34.290  17.746  -0.290  1.00 20.00     0.010 C 
HETATM    9  C9  UNL     1     -33.996  16.680  -2.545  1.00 20.00     0.010 C 
HETATM   10  C10 UNL     1     -33.781  19.187  -2.328  1.00 20.00     0.010 C 
HETATM   11  C11 UNL     1     -33.503  17.829  -1.627  1.00 20.00    -0.034 C 
HETATM   12  O12 UNL     1     -30.501  19.256  -0.353  1.00 20.00    -0.298 OA
ENDROOT
TORSDOF 0
ENDMDL
