MODEL 1
REMARK VINA RESULT:      -4.6      0.000      0.000
REMARK  0 active torsions:
REMARK  status: ('A' for Active; 'I' for Inactive)
ROOT
HETATM    1  C1  UNL     1     -33.907  16.826  -3.969  1.00 20.00    -0.077 C 
HETATM    2  C2  UNL     1     -33.780  17.718  -2.976  1.00 20.00    -0.077 C 
HETATM    3  C3  UNL     1     -34.731  17.098  -5.200  1.00 20.00     0.034 C 
HETATM    4  C4  UNL     1     -33.253  15.469  -3.925  1.00 20.00     0.034 C 
HETATM    5  C5  UNL     1     -32.956  17.445  -1.745  1.00 20.00     0.034 C 
HETATM    6  C6  UNL     1     -34.472  19.056  -2.998  1.00 20.00     0.034 C 
HETATM    7  C7  UNL     1     -35.755  15.985  -5.424  1.00 20.00     0.004 C 
HETATM    8  C8  UNL     1     -34.284  14.364  -4.156  1.00 20.00     0.004 C 
HETATM    9  C9  UNL     1     -33.785  17.661  -0.478  1.00 20.00     0.004 C 
HETATM   10  C10 UNL     1     -35.294  19.263  -1.725  1.00 20.00     0.004 C 
HETATM   11  C11 UNL     1     -35.099  14.602  -5.428  1.00 20.00     0.001 C 
HETATM   12  C12 UNL     1     -34.457  19.034  -0.465  1.00 20.00     0.001 C 
ENDROOT
TORSDOF 0
ENDMDL
MODEL 2
REMARK VINA RESULT:      -4.6      0.051      4.813
REMARK  0 active torsions:
REMARK  status: ('A' for Active; 'I' for Inactive)
ROOT
HETATM    1  C1  UNL     1     -33.815  17.750  -3.006  1.00 20.00    -0.077 C 
HETATM    2  C2  UNL     1     -33.934  16.854  -3.996  1.00 20.00    -0.077 C 
HETATM    3  C3  UNL     1     -32.969  17.499  -1.786  1.00 20.00     0.034 C 
HETATM    4  C4  UNL     1     -34.537  19.072  -3.022  1.00 20.00     0.034 C 
HETATM    5  C5  UNL     1     -34.781  17.105  -5.216  1.00 20.00     0.034 C 
HETATM    6  C6  UNL     1     -33.250  15.512  -3.959  1.00 20.00     0.034 C 
HETATM    7  C7  UNL     1     -33.786  17.698  -0.509  1.00 20.00     0.004 C 
HETATM    8  C8  UNL     1     -35.346  19.263  -1.739  1.00 20.00     0.004 C 
HETATM    9  C9  UNL     1     -35.782  15.967  -5.425  1.00 20.00     0.004 C 
HETATM   10  C10 UNL     1     -34.258  14.382  -4.173  1.00 20.00     0.004 C 
HETATM   11  C11 UNL     1     -34.489  19.056  -0.489  1.00 20.00     0.001 C 
HETATM   12  C12 UNL     1     -35.095  14.601  -5.435  1.00 20.00     0.001 C 
ENDROOT
TORSDOF 0
ENDMDL
MODEL 3
REMARK VINA RESULT:      -3.9     10.344     12.032
REMARK  0 active torsions:
REMARK  status: ('A' for Active; 'I' for Inactive)
ROOT
HETATM    1  C1  UNL     1     -32.798   6.941   3.679  1.00 20.00    -0.077 C 
HETATM    2  C2  UNL     1     -32.415   7.891   2.813  1.00 20.00    -0.077 C 
HETATM    3  C3  UNL     1     -32.722   5.472   3.354  1.00 20.00     0.034 C 
HETATM    4  C4  UNL     1     -33.357   7.267   5.040  1.00 20.00     0.034 C 
HETATM    5  C5  UNL     1     -32.491   9.359   3.138  1.00 20.00     0.034 C 
HETATM    6  C6  UNL     1     -31.900   7.567   1.434  1.00 20.00     0.034 C 
HETATM    7  C7  UNL     1     -34.077   4.799   3.570  1.00 20.00     0.004 C 
HETATM    8  C8  UNL     1     -34.709   6.584   5.247  1.00 20.00     0.004 C 
HETATM    9  C9  UNL     1     -33.277  10.113   2.063  1.00 20.00     0.004 C 
HETATM   10  C10 UNL     1     -32.689   8.329   0.368  1.00 20.00     0.004 C 
HETATM   11  C11 UNL     1     -34.638   5.082   4.965  1.00 20.00     0.001 C 
HETATM   12  C12 UNL     1     -32.736   9.829   0.661  1.00 20.00     0.001 C 
ENDROOT
TORSDOF 0
ENDMDL
MODEL 4
REMARK VINA RESULT:      -3.9     10.350     12.006
REMARK  0 active torsions:
REMARK  status: ('A' for Active; 'I' for Inactive)
ROOT
HETATM    1  C1  UNL     1     -32.417   7.904   2.834  1.00 20.00    -0.077 C 
HETATM    2  C2  UNL     1     -32.799   6.948   3.693  1.00 20.00    -0.077 C 
HETATM    3  C3  UNL     1     -32.498   9.371   3.169  1.00 20.00     0.034 C 
HETATM    4  C4  UNL     1     -31.897   7.591   1.456  1.00 20.00     0.034 C 
HETATM    5  C5  UNL     1     -32.717   5.482   3.359  1.00 20.00     0.034 C 
HETATM    6  C6  UNL     1     -33.363   7.262   5.055  1.00 20.00     0.034 C 
HETATM    7  C7  UNL     1     -33.283  10.128   2.097  1.00 20.00     0.004 C 
HETATM    8  C8  UNL     1     -32.685   8.358   0.393  1.00 20.00     0.004 C 
HETATM    9  C9  UNL     1     -34.072   4.802   3.567  1.00 20.00     0.004 C 
HETATM   10  C10 UNL     1     -34.714   6.574   5.254  1.00 20.00     0.004 C 
HETATM   11  C11 UNL     1     -32.738   9.856   0.694  1.00 20.00     0.001 C 
HETATM   12  C12 UNL     1     -34.636   5.075   4.962  1.00 20.00     0.001 C 
ENDROOT
TORSDOF 0
ENDMDL
MODEL 5
REMARK VINA RESULT:      -3.9      1.271      1.964
REMARK  0 active torsions:
REMARK  status: ('A' for Active; 'I' for Inactive)
ROOT
HETATM    1  C1  UNL     1     -34.448  16.889  -5.193  1.00 20.00    -0.077 C 
HETATM    2  C2  UNL     1     -33.676  17.281  -4.169  1.00 20.00    -0.077 C 
HETATM    3  C3  UNL     1     -34.865  17.826  -6.296  1.00 20.00     0.034 C 
HETATM    4  C4  UNL     1     -34.981  15.485  -5.311  1.00 20.00     0.034 C 
HETATM    5  C5  UNL     1     -33.260  16.345  -3.065  1.00 20.00     0.034 C 
HETATM    6  C6  UNL     1     -33.182  18.697  -4.025  1.00 20.00     0.034 C 
HETATM    7  C7  UNL     1     -36.385  17.824  -6.463  1.00 20.00     0.004 C 
HETATM    8  C8  UNL     1     -36.500  15.495  -5.483  1.00 20.00     0.004 C 
HETATM    9  C9  UNL     1     -33.625  16.921  -1.697  1.00 20.00     0.004 C 
HETATM   10  C10 UNL     1     -33.548  19.263  -2.652  1.00 20.00     0.004 C 
HETATM   11  C11 UNL     1     -36.937  16.407  -6.631  1.00 20.00     0.001 C 
HETATM   12  C12 UNL     1     -33.090  18.343  -1.519  1.00 20.00     0.001 C 
ENDROOT
TORSDOF 0
ENDMDL
MODEL 6
REMARK VINA RESULT:      -3.7      2.055      3.480
REMARK  0 active torsions:
REMARK  status: ('A' for Active; 'I' for Inactive)
ROOT
HETATM    1  C1  UNL     1     -35.020  17.102  -4.748  1.00 20.00    -0.077 C 
HETATM    2  C2  UNL     1     -36.197  17.741  -4.681  1.00 20.00    -0.077 C 
HETATM    3  C3  UNL     1     -34.787  15.930  -5.665  1.00 20.00     0.034 C 
HETATM    4  C4  UNL     1     -33.840  17.490  -3.896  1.00 20.00     0.034 C 
HETATM    5  C5  UNL     1     -36.429  18.913  -3.763  1.00 20.00     0.034 C 
HETATM    6  C6  UNL     1     -37.391  17.324  -5.499  1.00 20.00     0.034 C 
HETATM    7  C7  UNL     1     -34.251  14.730  -4.885  1.00 20.00     0.004 C 
HETATM    8  C8  UNL     1     -33.308  16.282  -3.125  1.00 20.00     0.004 C 
HETATM    9  C9  UNL     1     -37.652  18.673  -2.875  1.00 20.00     0.004 C 
HETATM   10  C10 UNL     1     -38.609  17.091  -4.602  1.00 20.00     0.004 C 
HETATM   11  C11 UNL     1     -33.024  15.097  -4.050  1.00 20.00     0.001 C 
HETATM   12  C12 UNL     1     -38.884  18.292  -3.696  1.00 20.00     0.001 C 
ENDROOT
TORSDOF 0
ENDMDL
MODEL 7
REMARK VINA RESULT:      -3.7      2.066      4.230
REMARK  0 active torsions:
REMARK  status: ('A' for Active; 'I' for Inactive)
ROOT
HETATM    1  C1  UNL     1     -36.210  17.734  -4.756  1.00 20.00    -0.077 C 
HETATM    2  C2  UNL     1     -35.021  17.118  -4.803  1.00 20.00    -0.077 C 
HETATM    3  C3  UNL     1     -36.480  18.903  -3.845  1.00 20.00     0.034 C 
HETATM    4  C4  UNL     1     -37.382  17.294  -5.595  1.00 20.00     0.034 C 
HETATM    5  C5  UNL     1     -34.751  15.949  -5.715  1.00 20.00     0.034 C 
HETATM    6  C6  UNL     1     -33.862  17.528  -3.931  1.00 20.00     0.034 C 
HETATM    7  C7  UNL     1     -37.712  18.641  -2.978  1.00 20.00     0.004 C 
HETATM    8  C8  UNL     1     -38.609  17.040  -4.719  1.00 20.00     0.004 C 
HETATM    9  C9  UNL     1     -34.205  14.759  -4.925  1.00 20.00     0.004 C 
HETATM   10  C10 UNL     1     -33.322  16.330  -3.149  1.00 20.00     0.004 C 
HETATM   11  C11 UNL     1     -38.924  18.237  -3.819  1.00 20.00     0.001 C 
HETATM   12  C12 UNL     1     -33.000  15.150  -4.068  1.00 20.00     0.001 C 
ENDROOT
TORSDOF 0
ENDMDL
MODEL 8
REMARK VINA RESULT:      -3.6     10.605     12.205
REMARK  0 active torsions:
REMARK  status: ('A' for Active; 'I' for Inactive)
ROOT
HETATM    1  C1  UNL     1     -40.410  12.921   6.453  1.00 20.00    -0.077 C 
HETATM    2  C2  UNL     1     -40.958  13.899   7.189  1.00 20.00    -0.077 C 
HETATM    3  C3  UNL     1     -39.220  12.126   6.922  1.00 20.00     0.034 C 
HETATM    4  C4  UNL     1     -40.926  12.553   5.086  1.00 20.00     0.034 C 
HETATM    5  C5  UNL     1     -42.148  14.694   6.720  1.00 20.00     0.034 C 
HETATM    6  C6  UNL     1     -40.413  14.299   8.536  1.00 20.00     0.034 C 
HETATM    7  C7  UNL     1     -38.101  12.161   5.881  1.00 20.00     0.004 C 
HETATM    8  C8  UNL     1     -39.799  12.586   4.055  1.00 20.00     0.004 C 
HETATM    9  C9  UNL     1     -41.855  16.194   6.775  1.00 20.00     0.004 C 
HETATM   10  C10 UNL     1     -40.127  15.801   8.581  1.00 20.00     0.004 C 
HETATM   11  C11 UNL     1     -38.599  11.745   4.496  1.00 20.00     0.001 C 
HETATM   12  C12 UNL     1     -41.343  16.623   8.150  1.00 20.00     0.001 C 
ENDROOT
TORSDOF 0
ENDMDL
MODEL 9
REMARK VINA RESULT:      -3.6     10.585     12.682
REMARK  0 active torsions:
REMARK  status: ('A' for Active; 'I' for Inactive)
ROOT
HETATM    1  C1  UNL     1     -40.953  13.921   7.170  1.00 20.00    -0.077 C 
HETATM    2  C2  UNL     1     -40.407  12.934   6.446  1.00 20.00    -0.077 C 
HETATM    3  C3  UNL     1     -42.142  14.713   6.691  1.00 20.00     0.034 C 
HETATM    4  C4  UNL     1     -40.410  14.334   8.514  1.00 20.00     0.034 C 
HETATM    5  C5  UNL     1     -39.218  12.142   6.925  1.00 20.00     0.034 C 
HETATM    6  C6  UNL     1     -40.921  12.552   5.082  1.00 20.00     0.034 C 
HETATM    7  C7  UNL     1     -41.845  16.212   6.730  1.00 20.00     0.004 C 
HETATM    8  C8  UNL     1     -40.122  15.835   8.543  1.00 20.00     0.004 C 
HETATM    9  C9  UNL     1     -38.097  12.163   5.885  1.00 20.00     0.004 C 
HETATM   10  C10 UNL     1     -39.791  12.573   4.051  1.00 20.00     0.004 C 
HETATM   11  C11 UNL     1     -41.335  16.656   8.102  1.00 20.00     0.001 C 
HETATM   12  C12 UNL     1     -38.594  11.735   4.504  1.00 20.00     0.001 C 
ENDROOT
TORSDOF 0
ENDMDL
