MODEL 1
REMARK VINA RESULT:      -3.9      0.000      0.000
REMARK  0 active torsions:
REMARK  status: ('A' for Active; 'I' for Inactive)
ROOT
HETATM    1  C1  UNL     1     -33.120   5.484   3.175  1.00 20.00     0.132 C 
HETATM    2  C2  UNL     1     -33.637   7.059   5.317  1.00 20.00     0.064 C 
HETATM    3  C3  UNL     1     -33.199   7.735   4.026  1.00 20.00     0.128 C 
HETATM    4  C4  UNL     1     -34.575   5.886   5.006  1.00 20.00     0.051 C 
HETATM    5  C5  UNL     1     -32.474   4.633   2.130  1.00 20.00     0.099 C 
HETATM    6  C6  UNL     1     -32.121   8.780   4.281  1.00 20.00     0.040 C 
HETATM    7  C7  UNL     1     -35.939   6.351   4.479  1.00 20.00     0.040 C 
HETATM    8  C8  UNL     1     -34.790   5.055   6.279  1.00 20.00     0.040 C 
HETATM    9  N9  UNL     1     -33.974   5.000   4.004  1.00 20.00    -0.261 NA
HETATM   10  O10 UNL     1     -32.663   6.762   3.111  1.00 20.00    -0.333 OA
ENDROOT
TORSDOF 0
ENDMDL
MODEL 2
REMARK VINA RESULT:      -3.9      9.690     10.796
REMARK  0 active torsions:
REMARK  status: ('A' for Active; 'I' for Inactive)
ROOT
HETATM    1  C1  UNL     1     -40.299  12.668   5.358  1.00 20.00     0.132 C 
HETATM    2  C2  UNL     1     -42.023  14.631   6.071  1.00 20.00     0.064 C 
HETATM    3  C3  UNL     1     -42.147  14.049   4.671  1.00 20.00     0.128 C 
HETATM    4  C4  UNL     1     -41.696  13.521   7.077  1.00 20.00     0.051 C 
HETATM    5  C5  UNL     1     -39.143  11.882   4.828  1.00 20.00     0.099 C 
HETATM    6  C6  UNL     1     -42.281  15.144   3.621  1.00 20.00     0.040 C 
HETATM    7  C7  UNL     1     -42.874  12.563   7.295  1.00 20.00     0.040 C 
HETATM    8  C8  UNL     1     -41.309  14.150   8.422  1.00 20.00     0.040 C 
HETATM    9  N9  UNL     1     -40.546  12.735   6.618  1.00 20.00    -0.261 NA
HETATM   10  O10 UNL     1     -40.980  13.271   4.349  1.00 20.00    -0.333 OA
ENDROOT
TORSDOF 0
ENDMDL
MODEL 3
REMARK VINA RESULT:      -3.8     12.609     13.687
REMARK  0 active torsions:
REMARK  status: ('A' for Active; 'I' for Inactive)
ROOT
HETATM    1  C1  UNL     1     -35.215  18.247  -3.384  1.00 20.00     0.132 C 
HETATM    2  C2  UNL     1     -33.446  16.647  -2.099  1.00 20.00     0.064 C 
HETATM    3  C3  UNL     1     -33.467  16.607  -3.620  1.00 20.00     0.128 C 
HETATM    4  C4  UNL     1     -33.650  18.086  -1.606  1.00 20.00     0.051 C 
HETATM    5  C5  UNL     1     -36.412  18.813  -4.077  1.00 20.00     0.099 C 
HETATM    6  C6  UNL     1     -33.460  15.176  -4.140  1.00 20.00     0.040 C 
HETATM    7  C7  UNL     1     -32.444  18.985  -1.909  1.00 20.00     0.040 C 
HETATM    8  C8  UNL     1     -33.897  18.075  -0.092  1.00 20.00     0.040 C 
HETATM    9  N9  UNL     1     -34.834  18.680  -2.236  1.00 20.00    -0.261 NA
HETATM   10  O10 UNL     1     -34.653  17.252  -4.119  1.00 20.00    -0.333 OA
ENDROOT
TORSDOF 0
ENDMDL
MODEL 4
REMARK VINA RESULT:      -3.7     10.028     11.354
REMARK  0 active torsions:
REMARK  status: ('A' for Active; 'I' for Inactive)
ROOT
HETATM    1  C1  UNL     1     -40.776  14.166   7.938  1.00 20.00     0.132 C 
HETATM    2  C2  UNL     1     -41.176  13.448   5.358  1.00 20.00     0.064 C 
HETATM    3  C3  UNL     1     -40.362  12.512   6.239  1.00 20.00     0.128 C 
HETATM    4  C4  UNL     1     -42.340  14.046   6.157  1.00 20.00     0.051 C 
HETATM    5  C5  UNL     1     -40.232  14.716   9.218  1.00 20.00     0.099 C 
HETATM    6  C6  UNL     1     -39.092  12.049   5.538  1.00 20.00     0.040 C 
HETATM    7  C7  UNL     1     -43.415  13.005   6.495  1.00 20.00     0.040 C 
HETATM    8  C8  UNL     1     -42.983  15.181   5.349  1.00 20.00     0.040 C 
HETATM    9  N9  UNL     1     -41.855  14.627   7.413  1.00 20.00    -0.261 NA
HETATM   10  O10 UNL     1     -39.977  13.180   7.454  1.00 20.00    -0.333 OA
ENDROOT
TORSDOF 0
ENDMDL
MODEL 5
REMARK VINA RESULT:      -3.7      9.703     10.939
REMARK  0 active torsions:
REMARK  status: ('A' for Active; 'I' for Inactive)
ROOT
HETATM    1  C1  UNL     1     -42.012  14.117   4.581  1.00 20.00     0.132 C 
HETATM    2  C2  UNL     1     -41.029  12.215   6.239  1.00 20.00     0.064 C 
HETATM    3  C3  UNL     1     -40.114  12.748   5.148  1.00 20.00     0.128 C 
HETATM    4  C4  UNL     1     -41.874  13.355   6.825  1.00 20.00     0.051 C 
HETATM    5  C5  UNL     1     -42.643  14.861   3.448  1.00 20.00     0.099 C 
HETATM    6  C6  UNL     1     -39.402  11.619   4.415  1.00 20.00     0.040 C 
HETATM    7  C7  UNL     1     -41.035  14.342   7.646  1.00 20.00     0.040 C 
HETATM    8  C8  UNL     1     -42.971  12.767   7.722  1.00 20.00     0.040 C 
HETATM    9  N9  UNL     1     -42.541  14.101   5.753  1.00 20.00    -0.261 NA
HETATM   10  O10 UNL     1     -40.875  13.492   4.179  1.00 20.00    -0.333 OA
ENDROOT
TORSDOF 0
ENDMDL
MODEL 6
REMARK VINA RESULT:      -3.6     12.310     13.770
REMARK  0 active torsions:
REMARK  status: ('A' for Active; 'I' for Inactive)
ROOT
HETATM    1  C1  UNL     1     -33.590  16.363  -3.532  1.00 20.00     0.132 C 
HETATM    2  C2  UNL     1     -32.958  18.986  -3.294  1.00 20.00     0.064 C 
HETATM    3  C3  UNL     1     -33.972  18.592  -4.358  1.00 20.00     0.128 C 
HETATM    4  C4  UNL     1     -33.172  18.149  -2.026  1.00 20.00     0.051 C 
HETATM    5  C5  UNL     1     -33.657  14.922  -3.927  1.00 20.00     0.099 C 
HETATM    6  C6  UNL     1     -33.670  19.262  -5.691  1.00 20.00     0.040 C 
HETATM    7  C7  UNL     1     -34.472  18.513  -1.297  1.00 20.00     0.040 C 
HETATM    8  C8  UNL     1     -31.990  18.360  -1.071  1.00 20.00     0.040 C 
HETATM    9  N9  UNL     1     -33.216  16.721  -2.355  1.00 20.00    -0.261 NA
HETATM   10  O10 UNL     1     -33.948  17.167  -4.566  1.00 20.00    -0.333 OA
ENDROOT
TORSDOF 0
ENDMDL
MODEL 7
REMARK VINA RESULT:      -3.5     10.243     11.332
REMARK  0 active torsions:
REMARK  status: ('A' for Active; 'I' for Inactive)
ROOT
HETATM    1  C1  UNL     1     -40.571  12.878   6.288  1.00 20.00     0.132 C 
HETATM    2  C2  UNL     1     -41.611  15.324   6.809  1.00 20.00     0.064 C 
HETATM    3  C3  UNL     1     -42.297  14.470   5.753  1.00 20.00     0.128 C 
HETATM    4  C4  UNL     1     -41.143  14.446   7.976  1.00 20.00     0.051 C 
HETATM    5  C5  UNL     1     -39.806  11.723   5.726  1.00 20.00     0.099 C 
HETATM    6  C6  UNL     1     -42.604  15.274   4.497  1.00 20.00     0.040 C 
HETATM    7  C7  UNL     1     -42.313  13.897   8.803  1.00 20.00     0.040 C 
HETATM    8  C8  UNL     1     -40.225  15.265   8.893  1.00 20.00     0.040 C 
HETATM    9  N9  UNL     1     -40.360  13.309   7.480  1.00 20.00    -0.261 NA
HETATM   10  O10 UNL     1     -41.450  13.369   5.375  1.00 20.00    -0.333 OA
ENDROOT
TORSDOF 0
ENDMDL
MODEL 8
REMARK VINA RESULT:      -3.5     12.315     13.758
REMARK  0 active torsions:
REMARK  status: ('A' for Active; 'I' for Inactive)
ROOT
HETATM    1  C1  UNL     1     -33.689  16.112  -3.877  1.00 20.00     0.132 C 
HETATM    2  C2  UNL     1     -34.737  18.345  -2.758  1.00 20.00     0.064 C 
HETATM    3  C3  UNL     1     -33.522  17.719  -2.091  1.00 20.00     0.128 C 
HETATM    4  C4  UNL     1     -34.602  18.265  -4.284  1.00 20.00     0.051 C 
HETATM    5  C5  UNL     1     -33.345  14.704  -4.243  1.00 20.00     0.099 C 
HETATM    6  C6  UNL     1     -33.707  17.608  -0.584  1.00 20.00     0.040 C 
HETATM    7  C7  UNL     1     -33.502  19.189  -4.824  1.00 20.00     0.040 C 
HETATM    8  C8  UNL     1     -35.938  18.648  -4.935  1.00 20.00     0.040 C 
HETATM    9  N9  UNL     1     -34.293  16.893  -4.700  1.00 20.00    -0.261 NA
HETATM   10  O10 UNL     1     -33.298  16.394  -2.607  1.00 20.00    -0.333 OA
ENDROOT
TORSDOF 0
ENDMDL
MODEL 9
REMARK VINA RESULT:      -3.5      9.998     11.411
REMARK  0 active torsions:
REMARK  status: ('A' for Active; 'I' for Inactive)
ROOT
HETATM    1  C1  UNL     1     -40.741  12.655   5.544  1.00 20.00     0.132 C 
HETATM    2  C2  UNL     1     -43.279  13.492   5.981  1.00 20.00     0.064 C 
HETATM    3  C3  UNL     1     -42.545  12.819   7.131  1.00 20.00     0.128 C 
HETATM    4  C4  UNL     1     -42.318  14.395   5.197  1.00 20.00     0.051 C 
HETATM    5  C5  UNL     1     -39.517  11.861   5.216  1.00 20.00     0.099 C 
HETATM    6  C6  UNL     1     -43.415  11.773   7.813  1.00 20.00     0.040 C 
HETATM    7  C7  UNL     1     -41.892  15.633   5.996  1.00 20.00     0.040 C 
HETATM    8  C8  UNL     1     -42.993  14.849   3.896  1.00 20.00     0.040 C 
HETATM    9  N9  UNL     1     -41.109  13.653   4.823  1.00 20.00    -0.261 NA
HETATM   10  O10 UNL     1     -41.360  12.160   6.647  1.00 20.00    -0.333 OA
ENDROOT
TORSDOF 0
ENDMDL
