MODEL 1
REMARK VINA RESULT:      -5.9      0.000      0.000
REMARK  2 active torsions:
REMARK  status: ('A' for Active; 'I' for Inactive)
REMARK    1  A    between atoms: C5_5  and  C7_7 
REMARK    2  A    between atoms: C6_6  and  O8_8 
ROOT
HETATM    1  C1  UNL     1     -33.499   5.046   2.985  1.00 20.00     0.003 C 
HETATM    2  C2  UNL     1     -32.621   6.280   3.186  1.00 20.00     0.014 C 
HETATM    3  C3  UNL     1     -34.052   4.530   4.309  1.00 20.00     0.032 C 
HETATM    4  C4  UNL     1     -33.913   6.861   5.277  1.00 20.00     0.045 C 
HETATM    5  C5  UNL     1     -33.361   7.388   3.947  1.00 20.00     0.096 C 
HETATM    6  C6  UNL     1     -34.792   5.627   5.073  1.00 20.00     0.118 C 
ENDROOT
BRANCH   5   7
HETATM    7  C7  UNL     1     -32.446   8.589   4.180  1.00 20.00     0.391 C 
HETATM    8  F9  UNL     1     -32.548   9.451   3.157  1.00 20.00    -0.171 F 
HETATM    9  F10 UNL     1     -32.792   9.216   5.314  1.00 20.00    -0.171 F 
HETATM   10  F11 UNL     1     -31.171   8.181   4.281  1.00 20.00    -0.171 F 
ENDBRANCH   5   7
BRANCH   6  11
HETATM   11  O8  UNL     1     -35.213   5.125   6.337  1.00 20.00    -0.396 OA
HETATM   12  H22 UNL     1     -35.576   4.240   6.178  1.00 20.00     0.210 HD
ENDBRANCH   6  11
TORSDOF 2
ENDMDL
MODEL 2
REMARK VINA RESULT:      -5.9      0.002      1.140
REMARK  2 active torsions:
REMARK  status: ('A' for Active; 'I' for Inactive)
REMARK    1  A    between atoms: C5_5  and  C7_7 
REMARK    2  A    between atoms: C6_6  and  O8_8 
ROOT
HETATM    1  C1  UNL     1     -33.498   5.046   2.986  1.00 20.00     0.003 C 
HETATM    2  C2  UNL     1     -32.619   6.279   3.186  1.00 20.00     0.014 C 
HETATM    3  C3  UNL     1     -34.052   4.530   4.309  1.00 20.00     0.032 C 
HETATM    4  C4  UNL     1     -33.914   6.862   5.277  1.00 20.00     0.045 C 
HETATM    5  C5  UNL     1     -33.360   7.388   3.947  1.00 20.00     0.096 C 
HETATM    6  C6  UNL     1     -34.792   5.628   5.072  1.00 20.00     0.118 C 
ENDROOT
BRANCH   5   7
HETATM    7  C7  UNL     1     -32.444   8.588   4.180  1.00 20.00     0.391 C 
HETATM    8  F9  UNL     1     -32.789   9.217   5.314  1.00 20.00    -0.171 F 
HETATM    9  F10 UNL     1     -31.170   8.180   4.279  1.00 20.00    -0.171 F 
HETATM   10  F11 UNL     1     -32.546   9.450   3.156  1.00 20.00    -0.171 F 
ENDBRANCH   5   7
BRANCH   6  11
HETATM   11  O8  UNL     1     -35.215   5.127   6.336  1.00 20.00    -0.396 OA
HETATM   12  H22 UNL     1     -34.430   5.111   6.906  1.00 20.00     0.210 HD
ENDBRANCH   6  11
TORSDOF 2
ENDMDL
MODEL 3
REMARK VINA RESULT:      -5.6      3.310      4.364
REMARK  2 active torsions:
REMARK  status: ('A' for Active; 'I' for Inactive)
REMARK    1  A    between atoms: C5_5  and  C7_7 
REMARK    2  A    between atoms: C6_6  and  O8_8 
ROOT
HETATM    1  C1  UNL     1     -33.130   8.617   5.536  1.00 20.00     0.003 C 
HETATM    2  C2  UNL     1     -33.601   7.219   5.930  1.00 20.00     0.014 C 
HETATM    3  C3  UNL     1     -32.179   8.575   4.345  1.00 20.00     0.032 C 
HETATM    4  C4  UNL     1     -33.268   6.436   3.551  1.00 20.00     0.045 C 
HETATM    5  C5  UNL     1     -34.231   6.476   4.744  1.00 20.00     0.096 C 
HETATM    6  C6  UNL     1     -32.799   7.836   3.159  1.00 20.00     0.118 C 
ENDROOT
BRANCH   5   7
HETATM    7  C7  UNL     1     -34.646   5.063   5.151  1.00 20.00     0.391 C 
HETATM    8  F9  UNL     1     -34.482   4.898   6.473  1.00 20.00    -0.171 F 
HETATM    9  F10 UNL     1     -35.935   4.858   4.844  1.00 20.00    -0.171 F 
HETATM   10  F11 UNL     1     -33.896   4.159   4.503  1.00 20.00    -0.171 F 
ENDBRANCH   5   7
BRANCH   6  11
HETATM   11  O8  UNL     1     -31.846   7.744   2.105  1.00 20.00    -0.396 OA
HETATM   12  H22 UNL     1     -32.124   8.375   1.423  1.00 20.00     0.210 HD
ENDBRANCH   6  11
TORSDOF 2
ENDMDL
MODEL 4
REMARK VINA RESULT:      -5.6      3.071      3.864
REMARK  2 active torsions:
REMARK  status: ('A' for Active; 'I' for Inactive)
REMARK    1  A    between atoms: C5_5  and  C7_7 
REMARK    2  A    between atoms: C6_6  and  O8_8 
ROOT
HETATM    1  C1  UNL     1     -32.514   6.141   2.716  1.00 20.00     0.003 C 
HETATM    2  C2  UNL     1     -33.670   5.689   3.606  1.00 20.00     0.014 C 
HETATM    3  C3  UNL     1     -32.353   7.656   2.732  1.00 20.00     0.032 C 
HETATM    4  C4  UNL     1     -33.363   7.741   5.048  1.00 20.00     0.045 C 
HETATM    5  C5  UNL     1     -33.523   6.215   5.041  1.00 20.00     0.096 C 
HETATM    6  C6  UNL     1     -32.205   8.189   4.156  1.00 20.00     0.118 C 
ENDROOT
BRANCH   5   7
HETATM    7  C7  UNL     1     -34.716   5.794   5.896  1.00 20.00     0.391 C 
HETATM    8  F9  UNL     1     -34.927   6.694   6.869  1.00 20.00    -0.171 F 
HETATM    9  F10 UNL     1     -35.818   5.710   5.135  1.00 20.00    -0.171 F 
HETATM   10  F11 UNL     1     -34.482   4.597   6.454  1.00 20.00    -0.171 F 
ENDBRANCH   5   7
BRANCH   6  11
HETATM   11  O8  UNL     1     -32.146   9.612   4.129  1.00 20.00    -0.396 OA
HETATM   12  H22 UNL     1     -32.978   9.917   3.733  1.00 20.00     0.210 HD
ENDBRANCH   6  11
TORSDOF 2
ENDMDL
MODEL 5
REMARK VINA RESULT:      -5.6      2.769      3.701
REMARK  2 active torsions:
REMARK  status: ('A' for Active; 'I' for Inactive)
REMARK    1  A    between atoms: C5_5  and  C7_7 
REMARK    2  A    between atoms: C6_6  and  O8_8 
ROOT
HETATM    1  C1  UNL     1     -32.566   8.241   3.563  1.00 20.00     0.003 C 
HETATM    2  C2  UNL     1     -32.956   7.841   4.984  1.00 20.00     0.014 C 
HETATM    3  C3  UNL     1     -32.138   7.034   2.737  1.00 20.00     0.032 C 
HETATM    4  C4  UNL     1     -33.600   5.541   4.160  1.00 20.00     0.045 C 
HETATM    5  C5  UNL     1     -34.039   6.753   4.992  1.00 20.00     0.096 C 
HETATM    6  C6  UNL     1     -33.211   5.945   2.739  1.00 20.00     0.118 C 
ENDROOT
BRANCH   5   7
HETATM    7  C7  UNL     1     -34.373   6.334   6.423  1.00 20.00     0.391 C 
HETATM    8  F9  UNL     1     -33.340   5.666   6.959  1.00 20.00    -0.171 F 
HETATM    9  F10 UNL     1     -34.625   7.418   7.171  1.00 20.00    -0.171 F 
HETATM   10  F11 UNL     1     -35.455   5.541   6.428  1.00 20.00    -0.171 F 
ENDBRANCH   5   7
BRANCH   6  11
HETATM   11  O8  UNL     1     -32.735   4.805   2.031  1.00 20.00    -0.396 OA
HETATM   12  H22 UNL     1     -33.438   4.546   1.416  1.00 20.00     0.210 HD
ENDBRANCH   6  11
TORSDOF 2
ENDMDL
MODEL 6
REMARK VINA RESULT:      -5.2      1.283      1.654
REMARK  2 active torsions:
REMARK  status: ('A' for Active; 'I' for Inactive)
REMARK    1  A    between atoms: C5_5  and  C7_7 
REMARK    2  A    between atoms: C6_6  and  O8_8 
ROOT
HETATM    1  C1  UNL     1     -34.402   4.783   4.319  1.00 20.00     0.003 C 
HETATM    2  C2  UNL     1     -33.315   5.543   3.561  1.00 20.00     0.014 C 
HETATM    3  C3  UNL     1     -34.438   5.175   5.791  1.00 20.00     0.032 C 
HETATM    4  C4  UNL     1     -33.497   7.448   5.211  1.00 20.00     0.045 C 
HETATM    5  C5  UNL     1     -33.462   7.063   3.727  1.00 20.00     0.096 C 
HETATM    6  C6  UNL     1     -34.585   6.687   5.965  1.00 20.00     0.118 C 
ENDROOT
BRANCH   5   7
HETATM    7  C7  UNL     1     -32.334   7.796   3.003  1.00 20.00     0.391 C 
HETATM    8  F9  UNL     1     -32.102   7.223   1.812  1.00 20.00    -0.171 F 
HETATM    9  F10 UNL     1     -32.673   9.080   2.810  1.00 20.00    -0.171 F 
HETATM   10  F11 UNL     1     -31.211   7.749   3.736  1.00 20.00    -0.171 F 
ENDBRANCH   5   7
BRANCH   6  11
HETATM   11  O8  UNL     1     -34.526   7.014   7.350  1.00 20.00    -0.396 OA
HETATM   12  H22 UNL     1     -35.266   7.616   7.525  1.00 20.00     0.210 HD
ENDBRANCH   6  11
TORSDOF 2
ENDMDL
MODEL 7
REMARK VINA RESULT:      -5.0      1.334      2.238
REMARK  2 active torsions:
REMARK  status: ('A' for Active; 'I' for Inactive)
REMARK    1  A    between atoms: C5_5  and  C7_7 
REMARK    2  A    between atoms: C6_6  and  O8_8 
ROOT
HETATM    1  C1  UNL     1     -34.298   6.824   6.662  1.00 20.00     0.003 C 
HETATM    2  C2  UNL     1     -33.947   7.916   5.653  1.00 20.00     0.014 C 
HETATM    3  C3  UNL     1     -34.795   5.560   5.970  1.00 20.00     0.032 C 
HETATM    4  C4  UNL     1     -33.445   6.151   3.916  1.00 20.00     0.045 C 
HETATM    5  C5  UNL     1     -32.937   7.422   4.608  1.00 20.00     0.096 C 
HETATM    6  C6  UNL     1     -33.794   5.061   4.928  1.00 20.00     0.118 C 
ENDROOT
BRANCH   5   7
HETATM    7  C7  UNL     1     -32.644   8.515   3.582  1.00 20.00     0.391 C 
HETATM    8  F9  UNL     1     -31.886   8.024   2.590  1.00 20.00    -0.171 F 
HETATM    9  F10 UNL     1     -33.791   8.978   3.064  1.00 20.00    -0.171 F 
HETATM   10  F11 UNL     1     -31.991   9.531   4.167  1.00 20.00    -0.171 F 
ENDBRANCH   5   7
BRANCH   6  11
HETATM   11  O8  UNL     1     -34.337   3.933   4.248  1.00 20.00    -0.396 OA
HETATM   12  H22 UNL     1     -34.298   3.189   4.869  1.00 20.00     0.210 HD
ENDBRANCH   6  11
TORSDOF 2
ENDMDL
MODEL 8
REMARK VINA RESULT:      -4.7      2.586      3.390
REMARK  2 active torsions:
REMARK  status: ('A' for Active; 'I' for Inactive)
REMARK    1  A    between atoms: C5_5  and  C7_7 
REMARK    2  A    between atoms: C6_6  and  O8_8 
ROOT
HETATM    1  C1  UNL     1     -34.825   5.376   6.009  1.00 20.00     0.003 C 
HETATM    2  C2  UNL     1     -33.989   4.865   4.837  1.00 20.00     0.014 C 
HETATM    3  C3  UNL     1     -34.291   6.699   6.545  1.00 20.00     0.032 C 
HETATM    4  C4  UNL     1     -33.335   7.238   4.268  1.00 20.00     0.045 C 
HETATM    5  C5  UNL     1     -33.875   5.911   3.720  1.00 20.00     0.096 C 
HETATM    6  C6  UNL     1     -34.175   7.747   5.439  1.00 20.00     0.118 C 
ENDROOT
BRANCH   5   7
HETATM    7  C7  UNL     1     -32.991   5.396   2.586  1.00 20.00     0.391 C 
HETATM    8  F9  UNL     1     -33.753   4.940   1.579  1.00 20.00    -0.171 F 
HETATM    9  F10 UNL     1     -32.211   6.386   2.126  1.00 20.00    -0.171 F 
HETATM   10  F11 UNL     1     -32.211   4.398   3.028  1.00 20.00    -0.171 F 
ENDBRANCH   5   7
BRANCH   6  11
HETATM   11  O8  UNL     1     -33.591   8.934   5.967  1.00 20.00    -0.396 OA
HETATM   12  H22 UNL     1     -32.723   9.027   5.546  1.00 20.00     0.210 HD
ENDBRANCH   6  11
TORSDOF 2
ENDMDL
MODEL 9
REMARK VINA RESULT:      -4.4     11.905     12.965
REMARK  2 active torsions:
REMARK  status: ('A' for Active; 'I' for Inactive)
REMARK    1  A    between atoms: C5_5  and  C7_7 
REMARK    2  A    between atoms: C6_6  and  O8_8 
ROOT
HETATM    1  C1  UNL     1     -35.097  16.702  -5.569  1.00 20.00     0.003 C 
HETATM    2  C2  UNL     1     -34.381  17.716  -4.680  1.00 20.00     0.014 C 
HETATM    3  C3  UNL     1     -34.273  15.432  -5.748  1.00 20.00     0.032 C 
HETATM    4  C4  UNL     1     -33.165  15.834  -3.513  1.00 20.00     0.045 C 
HETATM    5  C5  UNL     1     -33.994  17.110  -3.323  1.00 20.00     0.096 C 
HETATM    6  C6  UNL     1     -33.885  14.822  -4.402  1.00 20.00     0.118 C 
ENDROOT
BRANCH   5   7
HETATM    7  C7  UNL     1     -33.234  18.128  -2.474  1.00 20.00     0.391 C 
HETATM    8  F9  UNL     1     -34.099  18.890  -1.787  1.00 20.00    -0.171 F 
HETATM    9  F10 UNL     1     -32.430  17.493  -1.609  1.00 20.00    -0.171 F 
HETATM   10  F11 UNL     1     -32.488  18.917  -3.262  1.00 20.00    -0.171 F 
ENDBRANCH   5   7
BRANCH   6  11
HETATM   11  O8  UNL     1     -33.045  13.691  -4.617  1.00 20.00    -0.396 OA
HETATM   12  H22 UNL     1     -32.284  13.794  -4.024  1.00 20.00     0.210 HD
ENDBRANCH   6  11
TORSDOF 2
ENDMDL
