MODEL 1
REMARK VINA RESULT:      -5.1      0.000      0.000
REMARK  3 active torsions:
REMARK  status: ('A' for Active; 'I' for Inactive)
REMARK    1  A    between atoms: C5_5  and  C8_8 
REMARK    2  A    between atoms: C6_6  and  O10_10 
REMARK    3  A    between atoms: C8_8  and  C9_9 
ROOT
HETATM    1  C1  UNL     1     -33.430   6.358   3.237  1.00 20.00     0.007 C 
HETATM    2  C2  UNL     1     -33.611   8.015   5.140  1.00 20.00     0.007 C 
HETATM    3  C3  UNL     1     -33.949   5.254   4.153  1.00 20.00     0.032 C 
HETATM    4  C4  UNL     1     -34.130   6.905   6.050  1.00 20.00     0.032 C 
HETATM    5  C5  UNL     1     -32.710   7.458   4.029  1.00 20.00    -0.014 C 
HETATM    6  C6  UNL     1     -34.843   5.812   5.258  1.00 20.00     0.118 C 
ENDROOT
BRANCH   5   7
HETATM    7  C8  UNL     1     -32.248   8.578   3.097  1.00 20.00     0.004 C 
BRANCH   7   8
HETATM    8  C9  UNL     1     -32.243   8.121   1.643  1.00 20.00    -0.004 C 
HETATM    9  C7  UNL     1     -32.669   9.244   0.712  1.00 20.00     0.005 C 
ENDBRANCH   7   8
ENDBRANCH   5   7
BRANCH   6  10
HETATM   10  O10 UNL     1     -35.206   4.767   6.154  1.00 20.00    -0.396 OA
HETATM   11  H28 UNL     1     -34.468   4.663   6.774  1.00 20.00     0.210 HD
ENDBRANCH   6  10
TORSDOF 3
ENDMDL
MODEL 2
REMARK VINA RESULT:      -4.9      0.510      1.664
REMARK  3 active torsions:
REMARK  status: ('A' for Active; 'I' for Inactive)
REMARK    1  A    between atoms: C5_5  and  C8_8 
REMARK    2  A    between atoms: C6_6  and  O10_10 
REMARK    3  A    between atoms: C8_8  and  C9_9 
ROOT
HETATM    1  C1  UNL     1     -33.136   7.824   5.517  1.00 20.00     0.007 C 
HETATM    2  C2  UNL     1     -33.410   6.213   3.587  1.00 20.00     0.007 C 
HETATM    3  C3  UNL     1     -34.186   7.050   6.309  1.00 20.00     0.032 C 
HETATM    4  C4  UNL     1     -34.460   5.443   4.384  1.00 20.00     0.032 C 
HETATM    5  C5  UNL     1     -33.355   7.689   4.004  1.00 20.00    -0.014 C 
HETATM    6  C6  UNL     1     -34.240   5.583   5.888  1.00 20.00     0.118 C 
ENDROOT
BRANCH   5   7
HETATM    7  C8  UNL     1     -32.260   8.426   3.234  1.00 20.00     0.004 C 
BRANCH   7   8
HETATM    8  C9  UNL     1     -32.213   7.979   1.777  1.00 20.00    -0.004 C 
HETATM    9  C7  UNL     1     -32.611   9.108   0.841  1.00 20.00     0.005 C 
ENDBRANCH   7   8
ENDBRANCH   5   7
BRANCH   6  10
HETATM   10  O10 UNL     1     -35.309   4.930   6.566  1.00 20.00    -0.396 OA
HETATM   11  H28 UNL     1     -35.041   4.004   6.680  1.00 20.00     0.210 HD
ENDBRANCH   6  10
TORSDOF 3
ENDMDL
MODEL 3
REMARK VINA RESULT:      -4.2     11.707     12.681
REMARK  3 active torsions:
REMARK  status: ('A' for Active; 'I' for Inactive)
REMARK    1  A    between atoms: C5_5  and  C8_8 
REMARK    2  A    between atoms: C6_6  and  O10_10 
REMARK    3  A    between atoms: C8_8  and  C9_9 
ROOT
HETATM    1  C1  UNL     1     -35.116  17.211  -4.555  1.00 20.00     0.007 C 
HETATM    2  C2  UNL     1     -33.555  15.364  -3.811  1.00 20.00     0.007 C 
HETATM    3  C3  UNL     1     -35.601  16.333  -5.705  1.00 20.00     0.032 C 
HETATM    4  C4  UNL     1     -34.045  14.492  -4.963  1.00 20.00     0.032 C 
HETATM    5  C5  UNL     1     -33.680  16.858  -4.141  1.00 20.00    -0.014 C 
HETATM    6  C6  UNL     1     -35.472  14.848  -5.373  1.00 20.00     0.118 C 
ENDROOT
BRANCH   5   7
HETATM    7  C8  UNL     1     -33.237  17.712  -2.954  1.00 20.00     0.004 C 
BRANCH   7   8
HETATM    8  C9  UNL     1     -33.571  17.032  -1.630  1.00 20.00    -0.004 C 
HETATM    9  C7  UNL     1     -33.594  18.035  -0.488  1.00 20.00     0.005 C 
ENDBRANCH   7   8
ENDBRANCH   5   7
BRANCH   6  10
HETATM   10  O10 UNL     1     -35.824  14.071  -6.513  1.00 20.00    -0.396 OA
HETATM   11  H28 UNL     1     -36.652  14.441  -6.857  1.00 20.00     0.210 HD
ENDBRANCH   6  10
TORSDOF 3
ENDMDL
MODEL 4
REMARK VINA RESULT:      -4.1     11.701     12.276
REMARK  3 active torsions:
REMARK  status: ('A' for Active; 'I' for Inactive)
REMARK    1  A    between atoms: C5_5  and  C8_8 
REMARK    2  A    between atoms: C6_6  and  O10_10 
REMARK    3  A    between atoms: C8_8  and  C9_9 
ROOT
HETATM    1  C1  UNL     1     -31.319  18.435  -0.538  1.00 20.00     0.007 C 
HETATM    2  C2  UNL     1     -33.807  18.221  -0.139  1.00 20.00     0.007 C 
HETATM    3  C3  UNL     1     -31.151  19.037   0.855  1.00 20.00     0.032 C 
HETATM    4  C4  UNL     1     -33.632  18.823   1.252  1.00 20.00     0.032 C 
HETATM    5  C5  UNL     1     -32.718  18.708  -1.106  1.00 20.00    -0.014 C 
HETATM    6  C6  UNL     1     -32.238  18.553   1.812  1.00 20.00     0.118 C 
ENDROOT
BRANCH   5   7
HETATM    7  C8  UNL     1     -32.881  18.050  -2.476  1.00 20.00     0.004 C 
BRANCH   7   8
HETATM    8  C9  UNL     1     -33.450  16.641  -2.348  1.00 20.00    -0.004 C 
HETATM    9  C7  UNL     1     -33.273  15.857  -3.638  1.00 20.00     0.005 C 
ENDBRANCH   7   8
ENDBRANCH   5   7
BRANCH   6  10
HETATM   10  O10 UNL     1     -32.111  19.227   3.060  1.00 20.00    -0.396 OA
HETATM   11  H28 UNL     1     -32.920  19.039   3.561  1.00 20.00     0.210 HD
ENDBRANCH   6  10
TORSDOF 3
ENDMDL
MODEL 5
REMARK VINA RESULT:      -4.1     11.754     12.815
REMARK  3 active torsions:
REMARK  status: ('A' for Active; 'I' for Inactive)
REMARK    1  A    between atoms: C5_5  and  C8_8 
REMARK    2  A    between atoms: C6_6  and  O10_10 
REMARK    3  A    between atoms: C8_8  and  C9_9 
ROOT
HETATM    1  C1  UNL     1     -34.884  17.478  -4.475  1.00 20.00     0.007 C 
HETATM    2  C2  UNL     1     -33.484  15.930  -3.045  1.00 20.00     0.007 C 
HETATM    3  C3  UNL     1     -34.492  16.681  -5.716  1.00 20.00     0.032 C 
HETATM    4  C4  UNL     1     -33.096  15.138  -4.291  1.00 20.00     0.032 C 
HETATM    5  C5  UNL     1     -33.807  17.392  -3.384  1.00 20.00    -0.014 C 
HETATM    6  C6  UNL     1     -34.168  15.228  -5.373  1.00 20.00     0.118 C 
ENDROOT
BRANCH   5   7
HETATM    7  C8  UNL     1     -34.246  18.151  -2.133  1.00 20.00     0.004 C 
BRANCH   7   8
HETATM    8  C9  UNL     1     -33.533  17.629  -0.891  1.00 20.00    -0.004 C 
HETATM    9  C7  UNL     1     -32.240  18.387  -0.639  1.00 20.00     0.005 C 
ENDBRANCH   7   8
ENDBRANCH   5   7
BRANCH   6  10
HETATM   10  O10 UNL     1     -33.696  14.556  -6.536  1.00 20.00    -0.396 OA
HETATM   11  H28 UNL     1     -33.488  15.244  -7.189  1.00 20.00     0.210 HD
ENDBRANCH   6  10
TORSDOF 3
ENDMDL
MODEL 6
REMARK VINA RESULT:      -3.9      2.453      4.313
REMARK  3 active torsions:
REMARK  status: ('A' for Active; 'I' for Inactive)
REMARK    1  A    between atoms: C5_5  and  C8_8 
REMARK    2  A    between atoms: C6_6  and  O10_10 
REMARK    3  A    between atoms: C8_8  and  C9_9 
ROOT
HETATM    1  C1  UNL     1     -33.077   6.139   4.009  1.00 20.00     0.007 C 
HETATM    2  C2  UNL     1     -32.818   8.563   4.684  1.00 20.00     0.007 C 
HETATM    3  C3  UNL     1     -32.865   6.526   2.548  1.00 20.00     0.032 C 
HETATM    4  C4  UNL     1     -32.607   8.943   3.221  1.00 20.00     0.032 C 
HETATM    5  C5  UNL     1     -33.675   7.296   4.820  1.00 20.00    -0.014 C 
HETATM    6  C6  UNL     1     -32.014   7.788   2.418  1.00 20.00     0.118 C 
ENDROOT
BRANCH   5   7
HETATM    7  C8  UNL     1     -33.827   6.903   6.288  1.00 20.00     0.004 C 
BRANCH   7   8
HETATM    8  C9  UNL     1     -34.420   5.505   6.428  1.00 20.00    -0.004 C 
HETATM    9  C7  UNL     1     -35.339   5.178   5.263  1.00 20.00     0.005 C 
ENDBRANCH   7   8
ENDBRANCH   5   7
BRANCH   6  10
HETATM   10  O10 UNL     1     -31.942   8.177   1.050  1.00 20.00    -0.396 OA
HETATM   11  H28 UNL     1     -31.485   7.460   0.581  1.00 20.00     0.210 HD
ENDBRANCH   6  10
TORSDOF 3
ENDMDL
MODEL 7
REMARK VINA RESULT:      -3.7     12.145     12.908
REMARK  3 active torsions:
REMARK  status: ('A' for Active; 'I' for Inactive)
REMARK    1  A    between atoms: C5_5  and  C8_8 
REMARK    2  A    between atoms: C6_6  and  O10_10 
REMARK    3  A    between atoms: C8_8  and  C9_9 
ROOT
HETATM    1  C1  UNL     1     -32.965  16.877  -2.321  1.00 20.00     0.007 C 
HETATM    2  C2  UNL     1     -34.644  18.767  -2.254  1.00 20.00     0.007 C 
HETATM    3  C3  UNL     1     -33.645  16.320  -3.569  1.00 20.00     0.032 C 
HETATM    4  C4  UNL     1     -35.319  18.205  -3.503  1.00 20.00     0.032 C 
HETATM    5  C5  UNL     1     -33.948  17.664  -1.444  1.00 20.00    -0.014 C 
HETATM    6  C6  UNL     1     -34.338  17.420  -4.370  1.00 20.00     0.118 C 
ENDROOT
BRANCH   5   7
HETATM    7  C8  UNL     1     -33.233  18.257  -0.231  1.00 20.00     0.004 C 
BRANCH   7   8
HETATM    8  C9  UNL     1     -31.755  18.491  -0.521  1.00 20.00    -0.004 C 
HETATM    9  C7  UNL     1     -30.936  18.489   0.759  1.00 20.00     0.005 C 
ENDBRANCH   7   8
ENDBRANCH   5   7
BRANCH   6  10
HETATM   10  O10 UNL     1     -35.055  16.842  -5.456  1.00 20.00    -0.396 OA
HETATM   11  H28 UNL     1     -35.996  17.009  -5.288  1.00 20.00     0.210 HD
ENDBRANCH   6  10
TORSDOF 3
ENDMDL
MODEL 8
REMARK VINA RESULT:      -3.6     15.576     16.087
REMARK  3 active torsions:
REMARK  status: ('A' for Active; 'I' for Inactive)
REMARK    1  A    between atoms: C5_5  and  C8_8 
REMARK    2  A    between atoms: C6_6  and  O10_10 
REMARK    3  A    between atoms: C8_8  and  C9_9 
ROOT
HETATM    1  C1  UNL     1     -24.213  19.063   9.938  1.00 20.00     0.007 C 
HETATM    2  C2  UNL     1     -23.882  17.098  11.495  1.00 20.00     0.007 C 
HETATM    3  C3  UNL     1     -25.628  19.249  10.477  1.00 20.00     0.032 C 
HETATM    4  C4  UNL     1     -25.299  17.290  12.031  1.00 20.00     0.032 C 
HETATM    5  C5  UNL     1     -23.751  17.604  10.052  1.00 20.00    -0.014 C 
HETATM    6  C6  UNL     1     -25.754  18.742  11.912  1.00 20.00     0.118 C 
ENDROOT
BRANCH   5   7
HETATM    7  C8  UNL     1     -22.314  17.453   9.557  1.00 20.00     0.004 C 
BRANCH   7   8
HETATM    8  C9  UNL     1     -21.897  18.643   8.699  1.00 20.00    -0.004 C 
HETATM    9  C7  UNL     1     -21.405  18.192   7.333  1.00 20.00     0.005 C 
ENDBRANCH   7   8
ENDBRANCH   5   7
BRANCH   6  10
HETATM   10  O10 UNL     1     -27.112  18.827  12.331  1.00 20.00    -0.396 OA
HETATM   11  H28 UNL     1     -27.112  19.297  13.180  1.00 20.00     0.210 HD
ENDBRANCH   6  10
TORSDOF 3
ENDMDL
MODEL 9
REMARK VINA RESULT:      -3.6      9.911     10.805
REMARK  3 active torsions:
REMARK  status: ('A' for Active; 'I' for Inactive)
REMARK    1  A    between atoms: C5_5  and  C8_8 
REMARK    2  A    between atoms: C6_6  and  O10_10 
REMARK    3  A    between atoms: C8_8  and  C9_9 
ROOT
HETATM    1  C1  UNL     1     -40.332  13.986   7.070  1.00 20.00     0.007 C 
HETATM    2  C2  UNL     1     -42.384  12.533   6.793  1.00 20.00     0.007 C 
HETATM    3  C3  UNL     1     -41.226  15.193   7.339  1.00 20.00     0.032 C 
HETATM    4  C4  UNL     1     -43.272  13.745   7.063  1.00 20.00     0.032 C 
HETATM    5  C5  UNL     1     -41.035  12.946   6.187  1.00 20.00    -0.014 C 
HETATM    6  C6  UNL     1     -42.568  14.777   7.939  1.00 20.00     0.118 C 
ENDROOT
BRANCH   5   7
HETATM    7  C8  UNL     1     -40.142  11.724   5.978  1.00 20.00     0.004 C 
BRANCH   7   8
HETATM    8  C9  UNL     1     -38.845  12.102   5.270  1.00 20.00    -0.004 C 
HETATM    9  C7  UNL     1     -38.860  11.654   3.818  1.00 20.00     0.005 C 
ENDBRANCH   7   8
ENDBRANCH   5   7
BRANCH   6  10
HETATM   10  O10 UNL     1     -43.410  15.918   8.063  1.00 20.00    -0.396 OA
HETATM   11  H28 UNL     1     -42.992  16.629   7.551  1.00 20.00     0.210 HD
ENDBRANCH   6  10
TORSDOF 3
ENDMDL
