MODEL 1
REMARK VINA RESULT:      -3.4      0.000      0.000
REMARK  3 active torsions:
REMARK  status: ('A' for Active; 'I' for Inactive)
REMARK    1  A    between atoms: C3_3  and  C4_4 
REMARK    2  A    between atoms: C3_3  and  N5_5 
REMARK    3  A    between atoms: C4_4  and  O6_6 
ROOT
HETATM    1  C1  UNL     1     -33.598   7.529   5.747  1.00 20.00     0.157 C 
HETATM    2  N5  UNL     1     -34.307   6.929   6.466  1.00 20.00    -0.273 NA
HETATM    3  S7  UNL     1     -32.641   8.367   4.789  1.00 20.00    -0.055 SA
ENDROOT
BRANCH   2   4
HETATM    4  C3  UNL     1     -34.436   5.503   6.155  1.00 20.00     0.176 C 
BRANCH   4   5
HETATM    5  C4  UNL     1     -34.846   5.346   4.702  1.00 20.00     0.189 C 
BRANCH   5   6
HETATM    6  O6  UNL     1     -33.948   4.457   4.052  1.00 20.00    -0.394 OA
HETATM    7  C2  UNL     1     -33.257   5.097   2.989  1.00 20.00     0.201 C 
ENDBRANCH   5   6
ENDBRANCH   4   5
ENDBRANCH   2   4
TORSDOF 3
ENDMDL
MODEL 2
REMARK VINA RESULT:      -3.2      1.232      1.232
REMARK  3 active torsions:
REMARK  status: ('A' for Active; 'I' for Inactive)
REMARK    1  A    between atoms: C3_3  and  C4_4 
REMARK    2  A    between atoms: C3_3  and  N5_5 
REMARK    3  A    between atoms: C4_4  and  O6_6 
ROOT
HETATM    1  C1  UNL     1     -33.106   7.834   4.739  1.00 20.00     0.157 C 
HETATM    2  N5  UNL     1     -33.761   7.878   5.712  1.00 20.00    -0.273 NA
HETATM    3  S7  UNL     1     -32.213   7.804   3.420  1.00 20.00    -0.055 SA
ENDROOT
BRANCH   2   4
HETATM    4  C3  UNL     1     -34.241   6.579   6.191  1.00 20.00     0.176 C 
BRANCH   4   5
HETATM    5  C4  UNL     1     -35.092   5.935   5.112  1.00 20.00     0.189 C 
BRANCH   5   6
HETATM    6  O6  UNL     1     -34.749   4.561   4.999  1.00 20.00    -0.394 OA
HETATM    7  C2  UNL     1     -33.816   4.340   3.949  1.00 20.00     0.201 C 
ENDBRANCH   5   6
ENDBRANCH   4   5
ENDBRANCH   2   4
TORSDOF 3
ENDMDL
MODEL 3
REMARK VINA RESULT:      -3.1      1.896      2.626
REMARK  3 active torsions:
REMARK  status: ('A' for Active; 'I' for Inactive)
REMARK    1  A    between atoms: C3_3  and  C4_4 
REMARK    2  A    between atoms: C3_3  and  N5_5 
REMARK    3  A    between atoms: C4_4  and  O6_6 
ROOT
HETATM    1  C1  UNL     1     -32.507   7.383   3.596  1.00 20.00     0.157 C 
HETATM    2  N5  UNL     1     -32.530   6.560   2.760  1.00 20.00    -0.273 NA
HETATM    3  S7  UNL     1     -32.463   8.519   4.712  1.00 20.00    -0.055 SA
ENDROOT
BRANCH   2   4
HETATM    4  C3  UNL     1     -33.137   5.289   3.162  1.00 20.00     0.176 C 
BRANCH   4   5
HETATM    5  C4  UNL     1     -34.400   5.570   3.955  1.00 20.00     0.189 C 
BRANCH   5   6
HETATM    6  O6  UNL     1     -34.494   4.650   5.034  1.00 20.00    -0.394 OA
HETATM    7  C2  UNL     1     -34.522   5.317   6.289  1.00 20.00     0.201 C 
ENDBRANCH   5   6
ENDBRANCH   4   5
ENDBRANCH   2   4
TORSDOF 3
ENDMDL
MODEL 4
REMARK VINA RESULT:      -3.1      2.351      3.010
REMARK  3 active torsions:
REMARK  status: ('A' for Active; 'I' for Inactive)
REMARK    1  A    between atoms: C3_3  and  C4_4 
REMARK    2  A    between atoms: C3_3  and  N5_5 
REMARK    3  A    between atoms: C4_4  and  O6_6 
ROOT
HETATM    1  C1  UNL     1     -34.030   4.954   4.018  1.00 20.00     0.157 C 
HETATM    2  N5  UNL     1     -34.771   4.733   4.901  1.00 20.00    -0.273 NA
HETATM    3  S7  UNL     1     -33.043   5.239   2.800  1.00 20.00    -0.055 SA
ENDROOT
BRANCH   2   4
HETATM    4  C3  UNL     1     -34.388   5.320   6.188  1.00 20.00     0.176 C 
BRANCH   4   5
HETATM    5  C4  UNL     1     -34.417   6.833   6.073  1.00 20.00     0.189 C 
BRANCH   5   6
HETATM    6  O6  UNL     1     -33.086   7.331   6.064  1.00 20.00    -0.394 OA
HETATM    7  C2  UNL     1     -32.908   8.328   5.067  1.00 20.00     0.201 C 
ENDBRANCH   5   6
ENDBRANCH   4   5
ENDBRANCH   2   4
TORSDOF 3
ENDMDL
MODEL 5
REMARK VINA RESULT:      -3.1      2.601      3.461
REMARK  3 active torsions:
REMARK  status: ('A' for Active; 'I' for Inactive)
REMARK    1  A    between atoms: C3_3  and  C4_4 
REMARK    2  A    between atoms: C3_3  and  N5_5 
REMARK    3  A    between atoms: C4_4  and  O6_6 
ROOT
HETATM    1  C1  UNL     1     -32.541   6.796   3.133  1.00 20.00     0.157 C 
HETATM    2  N5  UNL     1     -32.243   7.910   3.355  1.00 20.00    -0.273 NA
HETATM    3  S7  UNL     1     -32.939   5.290   2.802  1.00 20.00    -0.055 SA
ENDROOT
BRANCH   2   4
HETATM    4  C3  UNL     1     -32.383   8.317   4.755  1.00 20.00     0.176 C 
BRANCH   4   5
HETATM    5  C4  UNL     1     -33.748   7.890   5.263  1.00 20.00     0.189 C 
BRANCH   5   6
HETATM    6  O6  UNL     1     -33.586   6.996   6.356  1.00 20.00    -0.394 OA
HETATM    7  C2  UNL     1     -34.493   5.905   6.277  1.00 20.00     0.201 C 
ENDBRANCH   5   6
ENDBRANCH   4   5
ENDBRANCH   2   4
TORSDOF 3
ENDMDL
MODEL 6
REMARK VINA RESULT:      -3.0      2.532      3.090
REMARK  3 active torsions:
REMARK  status: ('A' for Active; 'I' for Inactive)
REMARK    1  A    between atoms: C3_3  and  C4_4 
REMARK    2  A    between atoms: C3_3  and  N5_5 
REMARK    3  A    between atoms: C4_4  and  O6_6 
ROOT
HETATM    1  C1  UNL     1     -34.250   6.320   5.676  1.00 20.00     0.157 C 
HETATM    2  N5  UNL     1     -33.945   7.280   6.279  1.00 20.00    -0.273 NA
HETATM    3  S7  UNL     1     -34.665   5.002   4.884  1.00 20.00    -0.055 SA
ENDROOT
BRANCH   2   4
HETATM    4  C3  UNL     1     -33.735   8.479   5.464  1.00 20.00     0.176 C 
BRANCH   4   5
HETATM    5  C4  UNL     1     -32.384   8.385   4.781  1.00 20.00     0.189 C 
BRANCH   5   6
HETATM    6  O6  UNL     1     -32.562   8.452   3.372  1.00 20.00    -0.394 OA
HETATM    7  C2  UNL     1     -32.198   7.232   2.741  1.00 20.00     0.201 C 
ENDBRANCH   5   6
ENDBRANCH   4   5
ENDBRANCH   2   4
TORSDOF 3
ENDMDL
MODEL 7
REMARK VINA RESULT:      -2.8     13.250     13.520
REMARK  3 active torsions:
REMARK  status: ('A' for Active; 'I' for Inactive)
REMARK    1  A    between atoms: C3_3  and  C4_4 
REMARK    2  A    between atoms: C3_3  and  N5_5 
REMARK    3  A    between atoms: C4_4  and  O6_6 
ROOT
HETATM    1  C1  UNL     1     -31.031  18.609   0.479  1.00 20.00     0.157 C 
HETATM    2  N5  UNL     1     -30.997  18.626  -0.695  1.00 20.00    -0.273 NA
HETATM    3  S7  UNL     1     -31.046  18.579   2.071  1.00 20.00    -0.055 SA
ENDROOT
BRANCH   2   4
HETATM    4  C3  UNL     1     -32.276  18.928  -1.343  1.00 20.00     0.176 C 
BRANCH   4   5
HETATM    5  C4  UNL     1     -33.296  17.877  -0.946  1.00 20.00     0.189 C 
BRANCH   5   6
HETATM    6  O6  UNL     1     -33.283  16.823  -1.899  1.00 20.00    -0.394 OA
HETATM    7  C2  UNL     1     -33.353  17.319  -3.228  1.00 20.00     0.201 C 
ENDBRANCH   5   6
ENDBRANCH   4   5
ENDBRANCH   2   4
TORSDOF 3
ENDMDL
MODEL 8
REMARK VINA RESULT:      -2.8     13.454     13.873
REMARK  3 active torsions:
REMARK  status: ('A' for Active; 'I' for Inactive)
REMARK    1  A    between atoms: C3_3  and  C4_4 
REMARK    2  A    between atoms: C3_3  and  N5_5 
REMARK    3  A    between atoms: C4_4  and  O6_6 
ROOT
HETATM    1  C1  UNL     1     -33.414  15.618  -3.722  1.00 20.00     0.157 C 
HETATM    2  N5  UNL     1     -33.428  14.755  -4.518  1.00 20.00    -0.273 NA
HETATM    3  S7  UNL     1     -33.380  16.770  -2.623  1.00 20.00    -0.055 SA
ENDROOT
BRANCH   2   4
HETATM    4  C3  UNL     1     -34.109  15.084  -5.772  1.00 20.00     0.176 C 
BRANCH   4   5
HETATM    5  C4  UNL     1     -35.557  14.639  -5.683  1.00 20.00     0.189 C 
BRANCH   5   6
HETATM    6  O6  UNL     1     -36.035  14.327  -6.985  1.00 20.00    -0.394 OA
HETATM    7  C2  UNL     1     -35.790  15.386  -7.900  1.00 20.00     0.201 C 
ENDBRANCH   5   6
ENDBRANCH   4   5
ENDBRANCH   2   4
TORSDOF 3
ENDMDL
MODEL 9
REMARK VINA RESULT:      -2.7      2.318      2.824
REMARK  3 active torsions:
REMARK  status: ('A' for Active; 'I' for Inactive)
REMARK    1  A    between atoms: C3_3  and  C4_4 
REMARK    2  A    between atoms: C3_3  and  N5_5 
REMARK    3  A    between atoms: C4_4  and  O6_6 
ROOT
HETATM    1  C1  UNL     1     -33.440   7.625   5.662  1.00 20.00     0.157 C 
HETATM    2  N5  UNL     1     -32.841   8.524   5.203  1.00 20.00    -0.273 NA
HETATM    3  S7  UNL     1     -34.248   6.416   6.313  1.00 20.00    -0.055 SA
ENDROOT
BRANCH   2   4
HETATM    4  C3  UNL     1     -32.770   8.535   3.740  1.00 20.00     0.176 C 
BRANCH   4   5
HETATM    5  C4  UNL     1     -32.003   7.313   3.270  1.00 20.00     0.189 C 
BRANCH   5   6
HETATM    6  O6  UNL     1     -32.799   6.583   2.345  1.00 20.00    -0.394 OA
HETATM    7  C2  UNL     1     -32.889   5.211   2.703  1.00 20.00     0.201 C 
ENDBRANCH   5   6
ENDBRANCH   4   5
ENDBRANCH   2   4
TORSDOF 3
ENDMDL
