MODEL 1
REMARK VINA RESULT:      -4.2      0.000      0.000
REMARK  2 active torsions:
REMARK  status: ('A' for Active; 'I' for Inactive)
REMARK    1  A    between atoms: C6_6  and  C7_7 
REMARK    2  A    between atoms: C6_6  and  C8_8 
ROOT
HETATM    1  C1  UNL     1     -33.589   5.427   3.631  1.00 20.00     0.068 C 
HETATM    2  C4  UNL     1     -35.877   6.023   4.233  1.00 20.00     0.031 C 
HETATM    3  C5  UNL     1     -34.264   5.305   6.000  1.00 20.00     0.031 C 
HETATM    4  C8  UNL     1     -34.401   6.082   4.683  1.00 20.00     0.042 C 
HETATM    5  N9  UNL     1     -32.961   4.910   2.803  1.00 20.00    -0.196 NA
ENDROOT
BRANCH   4   6
HETATM    6  C6  UNL     1     -34.003   7.576   4.841  1.00 20.00     0.027 C 
BRANCH   6   7
HETATM    7  C7  UNL     1     -32.640   8.041   4.273  1.00 20.00    -0.021 C 
HETATM    8  C2  UNL     1     -32.059   9.130   5.186  1.00 20.00     0.009 C 
HETATM    9  C3  UNL     1     -32.715   8.575   2.843  1.00 20.00     0.009 C 
ENDBRANCH   6   7
ENDBRANCH   4   6
TORSDOF 2
ENDMDL
MODEL 2
REMARK VINA RESULT:      -4.0     15.442     16.765
REMARK  2 active torsions:
REMARK  status: ('A' for Active; 'I' for Inactive)
REMARK    1  A    between atoms: C6_6  and  C7_7 
REMARK    2  A    between atoms: C6_6  and  C8_8 
ROOT
HETATM    1  C1  UNL     1     -21.773  17.645   7.562  1.00 20.00     0.068 C 
HETATM    2  C4  UNL     1     -21.293  19.232   9.353  1.00 20.00     0.031 C 
HETATM    3  C5  UNL     1     -23.546  19.205   8.274  1.00 20.00     0.031 C 
HETATM    4  C8  UNL     1     -22.377  18.323   8.733  1.00 20.00     0.042 C 
HETATM    5  N9  UNL     1     -21.293  17.121   6.645  1.00 20.00    -0.196 NA
ENDROOT
BRANCH   4   6
HETATM    6  C6  UNL     1     -22.813  17.288   9.809  1.00 20.00     0.027 C 
BRANCH   6   7
HETATM    7  C7  UNL     1     -23.751  17.757  10.947  1.00 20.00    -0.021 C 
HETATM    8  C2  UNL     1     -22.918  18.461  12.028  1.00 20.00     0.009 C 
HETATM    9  C3  UNL     1     -24.555  16.629  11.591  1.00 20.00     0.009 C 
ENDBRANCH   6   7
ENDBRANCH   4   6
TORSDOF 2
ENDMDL
MODEL 3
REMARK VINA RESULT:      -3.9      1.971      3.922
REMARK  2 active torsions:
REMARK  status: ('A' for Active; 'I' for Inactive)
REMARK    1  A    between atoms: C6_6  and  C7_7 
REMARK    2  A    between atoms: C6_6  and  C8_8 
ROOT
HETATM    1  C1  UNL     1     -32.904   9.211   2.509  1.00 20.00     0.068 C 
HETATM    2  C4  UNL     1     -31.919   7.116   3.281  1.00 20.00     0.031 C 
HETATM    3  C5  UNL     1     -31.917   9.124   4.767  1.00 20.00     0.031 C 
HETATM    4  C8  UNL     1     -32.726   8.361   3.709  1.00 20.00     0.042 C 
HETATM    5  N9  UNL     1     -33.037   9.871   1.564  1.00 20.00    -0.196 NA
ENDROOT
BRANCH   4   6
HETATM    6  C6  UNL     1     -34.099   7.881   4.258  1.00 20.00     0.027 C 
BRANCH   6   7
HETATM    7  C7  UNL     1     -34.149   6.573   5.083  1.00 20.00    -0.021 C 
HETATM    8  C2  UNL     1     -35.313   5.706   4.584  1.00 20.00     0.009 C 
HETATM    9  C3  UNL     1     -34.299   6.795   6.587  1.00 20.00     0.009 C 
ENDBRANCH   6   7
ENDBRANCH   4   6
TORSDOF 2
ENDMDL
MODEL 4
REMARK VINA RESULT:      -3.8      9.123      9.926
REMARK  2 active torsions:
REMARK  status: ('A' for Active; 'I' for Inactive)
REMARK    1  A    between atoms: C6_6  and  C7_7 
REMARK    2  A    between atoms: C6_6  and  C8_8 
ROOT
HETATM    1  C1  UNL     1     -41.843  13.905   4.803  1.00 20.00     0.068 C 
HETATM    2  C4  UNL     1     -40.857  14.352   6.989  1.00 20.00     0.031 C 
HETATM    3  C5  UNL     1     -42.822  12.822   6.791  1.00 20.00     0.031 C 
HETATM    4  C8  UNL     1     -41.525  13.276   6.106  1.00 20.00     0.042 C 
HETATM    5  N9  UNL     1     -42.091  14.407   3.786  1.00 20.00    -0.196 NA
ENDROOT
BRANCH   4   6
HETATM    6  C6  UNL     1     -40.518  12.106   5.925  1.00 20.00     0.027 C 
BRANCH   6   7
HETATM    7  C7  UNL     1     -39.190  12.382   5.180  1.00 20.00    -0.021 C 
HETATM    8  C2  UNL     1     -39.133  11.517   3.914  1.00 20.00     0.009 C 
HETATM    9  C3  UNL     1     -37.942  12.119   6.022  1.00 20.00     0.009 C 
ENDBRANCH   6   7
ENDBRANCH   4   6
TORSDOF 2
ENDMDL
MODEL 5
REMARK VINA RESULT:      -3.8     12.175     13.262
REMARK  2 active torsions:
REMARK  status: ('A' for Active; 'I' for Inactive)
REMARK    1  A    between atoms: C6_6  and  C7_7 
REMARK    2  A    between atoms: C6_6  and  C8_8 
ROOT
HETATM    1  C1  UNL     1     -31.769  18.398  -0.993  1.00 20.00     0.068 C 
HETATM    2  C4  UNL     1     -34.162  18.872  -1.013  1.00 20.00     0.031 C 
HETATM    3  C5  UNL     1     -32.791  19.262  -3.064  1.00 20.00     0.031 C 
HETATM    4  C8  UNL     1     -32.976  18.343  -1.849  1.00 20.00     0.042 C 
HETATM    5  N9  UNL     1     -30.828  18.447  -0.316  1.00 20.00    -0.196 NA
ENDROOT
BRANCH   4   6
HETATM    6  C6  UNL     1     -33.294  16.880  -2.267  1.00 20.00     0.027 C 
BRANCH   6   7
HETATM    7  C7  UNL     1     -33.353  16.538  -3.775  1.00 20.00    -0.021 C 
HETATM    8  C2  UNL     1     -34.756  16.856  -4.309  1.00 20.00     0.009 C 
HETATM    9  C3  UNL     1     -33.014  15.083  -4.094  1.00 20.00     0.009 C 
ENDBRANCH   6   7
ENDBRANCH   4   6
TORSDOF 2
ENDMDL
MODEL 6
REMARK VINA RESULT:      -3.7      9.219     10.038
REMARK  2 active torsions:
REMARK  status: ('A' for Active; 'I' for Inactive)
REMARK    1  A    between atoms: C6_6  and  C7_7 
REMARK    2  A    between atoms: C6_6  and  C8_8 
ROOT
HETATM    1  C1  UNL     1     -40.864  14.336   7.092  1.00 20.00     0.068 C 
HETATM    2  C4  UNL     1     -42.746  12.790   6.960  1.00 20.00     0.031 C 
HETATM    3  C5  UNL     1     -41.974  14.000   4.916  1.00 20.00     0.031 C 
HETATM    4  C8  UNL     1     -41.506  13.330   6.215  1.00 20.00     0.042 C 
HETATM    5  N9  UNL     1     -40.369  15.125   7.785  1.00 20.00    -0.196 NA
ENDROOT
BRANCH   4   6
HETATM    6  C6  UNL     1     -40.547  12.137   5.945  1.00 20.00     0.027 C 
BRANCH   6   7
HETATM    7  C7  UNL     1     -39.216  12.412   5.205  1.00 20.00    -0.021 C 
HETATM    8  C2  UNL     1     -39.164  11.562   3.928  1.00 20.00     0.009 C 
HETATM    9  C3  UNL     1     -37.971  12.130   6.045  1.00 20.00     0.009 C 
ENDBRANCH   6   7
ENDBRANCH   4   6
TORSDOF 2
ENDMDL
MODEL 7
REMARK VINA RESULT:      -3.7     11.668     12.773
REMARK  2 active torsions:
REMARK  status: ('A' for Active; 'I' for Inactive)
REMARK    1  A    between atoms: C6_6  and  C7_7 
REMARK    2  A    between atoms: C6_6  and  C8_8 
ROOT
HETATM    1  C1  UNL     1     -35.338  14.132  -4.719  1.00 20.00     0.068 C 
HETATM    2  C4  UNL     1     -34.055  15.189  -6.505  1.00 20.00     0.031 C 
HETATM    3  C5  UNL     1     -35.839  16.472  -5.316  1.00 20.00     0.031 C 
HETATM    4  C8  UNL     1     -34.736  15.419  -5.138  1.00 20.00     0.042 C 
HETATM    5  N9  UNL     1     -35.809  13.120  -4.401  1.00 20.00    -0.196 NA
ENDROOT
BRANCH   4   6
HETATM    6  C6  UNL     1     -33.649  15.877  -4.127  1.00 20.00     0.027 C 
BRANCH   6   7
HETATM    7  C7  UNL     1     -33.923  17.135  -3.267  1.00 20.00    -0.021 C 
HETATM    8  C2  UNL     1     -33.151  18.324  -3.854  1.00 20.00     0.009 C 
HETATM    9  C3  UNL     1     -33.547  16.972  -1.795  1.00 20.00     0.009 C 
ENDBRANCH   6   7
ENDBRANCH   4   6
TORSDOF 2
ENDMDL
MODEL 8
REMARK VINA RESULT:      -3.7     11.593     12.551
REMARK  2 active torsions:
REMARK  status: ('A' for Active; 'I' for Inactive)
REMARK    1  A    between atoms: C6_6  and  C7_7 
REMARK    2  A    between atoms: C6_6  and  C8_8 
ROOT
HETATM    1  C1  UNL     1     -35.134  14.008  -4.632  1.00 20.00     0.068 C 
HETATM    2  C4  UNL     1     -32.760  14.537  -4.441  1.00 20.00     0.031 C 
HETATM    3  C5  UNL     1     -34.045  15.260  -6.457  1.00 20.00     0.031 C 
HETATM    4  C8  UNL     1     -34.128  15.052  -4.938  1.00 20.00     0.042 C 
HETATM    5  N9  UNL     1     -35.914  13.184  -4.391  1.00 20.00    -0.196 NA
ENDROOT
BRANCH   4   6
HETATM    6  C6  UNL     1     -34.451  16.372  -4.184  1.00 20.00     0.027 C 
BRANCH   6   7
HETATM    7  C7  UNL     1     -33.307  17.092  -3.430  1.00 20.00    -0.021 C 
HETATM    8  C2  UNL     1     -33.562  16.998  -1.920  1.00 20.00     0.009 C 
HETATM    9  C3  UNL     1     -33.136  18.559  -3.819  1.00 20.00     0.009 C 
ENDBRANCH   6   7
ENDBRANCH   4   6
TORSDOF 2
ENDMDL
MODEL 9
REMARK VINA RESULT:      -3.6     11.964     12.846
REMARK  2 active torsions:
REMARK  status: ('A' for Active; 'I' for Inactive)
REMARK    1  A    between atoms: C6_6  and  C7_7 
REMARK    2  A    between atoms: C6_6  and  C8_8 
ROOT
HETATM    1  C1  UNL     1     -34.030  15.152  -6.383  1.00 20.00     0.068 C 
HETATM    2  C4  UNL     1     -35.168  14.088  -4.505  1.00 20.00     0.031 C 
HETATM    3  C5  UNL     1     -32.707  14.502  -4.406  1.00 20.00     0.031 C 
HETATM    4  C8  UNL     1     -34.044  15.068  -4.904  1.00 20.00     0.042 C 
HETATM    5  N9  UNL     1     -34.025  15.209  -7.542  1.00 20.00    -0.196 NA
ENDROOT
BRANCH   4   6
HETATM    6  C6  UNL     1     -34.363  16.453  -4.274  1.00 20.00     0.027 C 
BRANCH   6   7
HETATM    7  C7  UNL     1     -33.259  17.164  -3.454  1.00 20.00    -0.021 C 
HETATM    8  C2  UNL     1     -33.556  16.997  -1.958  1.00 20.00     0.009 C 
HETATM    9  C3  UNL     1     -33.113  18.651  -3.772  1.00 20.00     0.009 C 
ENDBRANCH   6   7
ENDBRANCH   4   6
TORSDOF 2
ENDMDL
