MODEL 1
REMARK VINA RESULT:      -3.9      0.000      0.000
REMARK  1 active torsions:
REMARK  status: ('A' for Active; 'I' for Inactive)
REMARK    1  A    between atoms: C1_1  and  C3_3 
ROOT
HETATM    1  C2  UNL     1     -35.238   6.198   4.170  1.00 20.00     0.067 A 
HETATM    2  C3  UNL     1     -34.104   6.647   5.069  1.00 20.00     0.083 A 
HETATM    3  C4  UNL     1     -33.917   5.482   4.098  1.00 20.00     0.132 A 
HETATM    4  C5  UNL     1     -34.252   6.376   6.548  1.00 20.00     0.030 C 
HETATM    5 CL8  UNL     1     -32.963   5.697   2.624  1.00 20.00    -0.100 Cl
HETATM    6 CL9  UNL     1     -33.845   3.824   4.699  1.00 20.00    -0.100 Cl
ENDROOT
BRANCH   2   7
HETATM    7  C1  UNL     1     -33.467   7.914   4.719  1.00 20.00     0.184 C 
HETATM    8  O6  UNL     1     -32.300   8.073   5.173  1.00 20.00    -0.647 OA
HETATM    9  O7  UNL     1     -34.173   8.681   4.007  1.00 20.00    -0.647 OA
ENDBRANCH   2   7
TORSDOF 1
ENDMDL
MODEL 2
REMARK VINA RESULT:      -3.8     16.330     17.084
REMARK  1 active torsions:
REMARK  status: ('A' for Active; 'I' for Inactive)
REMARK    1  A    between atoms: C1_1  and  C3_3 
ROOT
HETATM    1  C2  UNL     1     -24.074  17.065  10.655  1.00 20.00     0.067 A 
HETATM    2  C3  UNL     1     -23.599  18.293   9.903  1.00 20.00     0.083 A 
HETATM    3  C4  UNL     1     -23.612  18.268  11.431  1.00 20.00     0.132 A 
HETATM    4  C5  UNL     1     -24.644  19.087   9.156  1.00 20.00     0.030 C 
HETATM    5 CL8  UNL     1     -22.097  18.112  12.331  1.00 20.00    -0.100 Cl
HETATM    6 CL9  UNL     1     -24.825  19.185  12.326  1.00 20.00    -0.100 Cl
ENDROOT
BRANCH   2   7
HETATM    7  C1  UNL     1     -22.299  18.183   9.247  1.00 20.00     0.184 C 
HETATM    8  O6  UNL     1     -21.653  19.263   9.147  1.00 20.00    -0.647 OA
HETATM    9  O7  UNL     1     -21.995  17.018   8.867  1.00 20.00    -0.647 OA
ENDBRANCH   2   7
TORSDOF 1
ENDMDL
MODEL 3
REMARK VINA RESULT:      -3.6      2.760      3.635
REMARK  1 active torsions:
REMARK  status: ('A' for Active; 'I' for Inactive)
REMARK    1  A    between atoms: C1_1  and  C3_3 
ROOT
HETATM    1  C2  UNL     1     -34.612   7.264   3.953  1.00 20.00     0.067 A 
HETATM    2  C3  UNL     1     -33.796   5.987   3.979  1.00 20.00     0.083 A 
HETATM    3  C4  UNL     1     -33.411   7.179   4.855  1.00 20.00     0.132 A 
HETATM    4  C5  UNL     1     -32.983   5.666   2.747  1.00 20.00     0.030 C 
HETATM    5 CL8  UNL     1     -33.713   7.138   6.597  1.00 20.00    -0.100 Cl
HETATM    6 CL9  UNL     1     -32.005   8.164   4.447  1.00 20.00    -0.100 Cl
ENDROOT
BRANCH   2   7
HETATM    7  C1  UNL     1     -34.412   4.843   4.647  1.00 20.00     0.184 C 
HETATM    8  O6  UNL     1     -35.566   5.048   5.113  1.00 20.00    -0.647 OA
HETATM    9  O7  UNL     1     -33.702   3.798   4.666  1.00 20.00    -0.647 OA
ENDBRANCH   2   7
TORSDOF 1
ENDMDL
MODEL 4
REMARK VINA RESULT:      -3.6      1.764      2.211
REMARK  1 active torsions:
REMARK  status: ('A' for Active; 'I' for Inactive)
REMARK    1  A    between atoms: C1_1  and  C3_3 
ROOT
HETATM    1  C2  UNL     1     -35.190   6.347   4.141  1.00 20.00     0.067 A 
HETATM    2  C3  UNL     1     -33.795   6.836   4.476  1.00 20.00     0.083 A 
HETATM    3  C4  UNL     1     -34.328   5.531   5.066  1.00 20.00     0.132 A 
HETATM    4  C5  UNL     1     -33.689   8.066   5.347  1.00 20.00     0.030 C 
HETATM    5 CL8  UNL     1     -33.742   3.976   4.459  1.00 20.00    -0.100 Cl
HETATM    6 CL9  UNL     1     -34.794   5.447   6.766  1.00 20.00    -0.100 Cl
ENDROOT
BRANCH   2   7
HETATM    7  C1  UNL     1     -32.801   6.728   3.411  1.00 20.00     0.184 C 
HETATM    8  O6  UNL     1     -33.039   5.847   2.540  1.00 20.00    -0.647 OA
HETATM    9  O7  UNL     1     -31.834   7.535   3.506  1.00 20.00    -0.647 OA
ENDBRANCH   2   7
TORSDOF 1
ENDMDL
MODEL 5
REMARK VINA RESULT:      -3.5     12.783     13.756
REMARK  1 active torsions:
REMARK  status: ('A' for Active; 'I' for Inactive)
REMARK    1  A    between atoms: C1_1  and  C3_3 
ROOT
HETATM    1  C2  UNL     1     -34.496  16.338  -6.157  1.00 20.00     0.067 A 
HETATM    2  C3  UNL     1     -34.820  15.255  -5.147  1.00 20.00     0.083 A 
HETATM    3  C4  UNL     1     -35.303  16.690  -4.936  1.00 20.00     0.132 A 
HETATM    4  C5  UNL     1     -33.673  14.720  -4.323  1.00 20.00     0.030 C 
HETATM    5 CL8  UNL     1     -37.004  17.103  -5.187  1.00 20.00    -0.100 Cl
HETATM    6 CL9  UNL     1     -34.544  17.714  -3.716  1.00 20.00    -0.100 Cl
ENDROOT
BRANCH   2   7
HETATM    7  C1  UNL     1     -35.819  14.271  -5.556  1.00 20.00     0.184 C 
HETATM    8  O6  UNL     1     -36.331  13.601  -4.617  1.00 20.00    -0.647 OA
HETATM    9  O7  UNL     1     -36.036  14.223  -6.799  1.00 20.00    -0.647 OA
ENDBRANCH   2   7
TORSDOF 1
ENDMDL
MODEL 6
REMARK VINA RESULT:      -3.4      2.152      3.004
REMARK  1 active torsions:
REMARK  status: ('A' for Active; 'I' for Inactive)
REMARK    1  A    between atoms: C1_1  and  C3_3 
ROOT
HETATM    1  C2  UNL     1     -34.558   7.742   4.164  1.00 20.00     0.067 A 
HETATM    2  C3  UNL     1     -34.028   6.472   4.798  1.00 20.00     0.083 A 
HETATM    3  C4  UNL     1     -33.073   7.510   4.209  1.00 20.00     0.132 A 
HETATM    4  C5  UNL     1     -34.280   5.179   4.059  1.00 20.00     0.030 C 
HETATM    5 CL8  UNL     1     -32.127   8.555   5.278  1.00 20.00    -0.100 Cl
HETATM    6 CL9  UNL     1     -32.242   7.192   2.685  1.00 20.00    -0.100 Cl
ENDROOT
BRANCH   2   7
HETATM    7  C1  UNL     1     -34.111   6.395   6.254  1.00 20.00     0.184 C 
HETATM    8  O6  UNL     1     -34.401   7.477   6.835  1.00 20.00    -0.647 OA
HETATM    9  O7  UNL     1     -33.881   5.251   6.737  1.00 20.00    -0.647 OA
ENDBRANCH   2   7
TORSDOF 1
ENDMDL
MODEL 7
REMARK VINA RESULT:      -3.3     13.475     14.464
REMARK  1 active torsions:
REMARK  status: ('A' for Active; 'I' for Inactive)
REMARK    1  A    between atoms: C1_1  and  C3_3 
ROOT
HETATM    1  C2  UNL     1     -35.873  16.420  -5.155  1.00 20.00     0.067 A 
HETATM    2  C3  UNL     1     -34.816  16.388  -6.241  1.00 20.00     0.083 A 
HETATM    3  C4  UNL     1     -34.434  16.209  -4.772  1.00 20.00     0.132 A 
HETATM    4  C5  UNL     1     -34.513  17.691  -6.942  1.00 20.00     0.030 C 
HETATM    5 CL8  UNL     1     -33.991  14.611  -4.156  1.00 20.00    -0.100 Cl
HETATM    6 CL9  UNL     1     -33.615  17.507  -3.901  1.00 20.00    -0.100 Cl
ENDROOT
BRANCH   2   7
HETATM    7  C1  UNL     1     -34.794  15.195  -7.084  1.00 20.00     0.184 C 
HETATM    8  O6  UNL     1     -35.863  14.524  -7.094  1.00 20.00    -0.647 OA
HETATM    9  O7  UNL     1     -33.705  14.997  -7.691  1.00 20.00    -0.647 OA
ENDBRANCH   2   7
TORSDOF 1
ENDMDL
MODEL 8
REMARK VINA RESULT:      -3.3      8.996      9.492
REMARK  1 active torsions:
REMARK  status: ('A' for Active; 'I' for Inactive)
REMARK    1  A    between atoms: C1_1  and  C3_3 
ROOT
HETATM    1  C2  UNL     1     -43.286   5.921  -0.488  1.00 20.00     0.067 A 
HETATM    2  C3  UNL     1     -42.663   6.950   0.434  1.00 20.00     0.083 A 
HETATM    3  C4  UNL     1     -42.035   5.566   0.268  1.00 20.00     0.132 A 
HETATM    4  C5  UNL     1     -43.417   7.286   1.698  1.00 20.00     0.030 C 
HETATM    5 CL8  UNL     1     -40.552   5.369  -0.676  1.00 20.00    -0.100 Cl
HETATM    6 CL9  UNL     1     -42.165   4.370   1.559  1.00 20.00    -0.100 Cl
ENDROOT
BRANCH   2   7
HETATM    7  C1  UNL     1     -41.985   8.069  -0.215  1.00 20.00     0.184 C 
HETATM    8  O6  UNL     1     -40.891   8.415   0.310  1.00 20.00    -0.647 OA
HETATM    9  O7  UNL     1     -42.588   8.542  -1.219  1.00 20.00    -0.647 OA
ENDBRANCH   2   7
TORSDOF 1
ENDMDL
MODEL 9
REMARK VINA RESULT:      -3.2     12.223     13.269
REMARK  1 active torsions:
REMARK  status: ('A' for Active; 'I' for Inactive)
REMARK    1  A    between atoms: C1_1  and  C3_3 
ROOT
HETATM    1  C2  UNL     1     -34.234  15.311  -6.229  1.00 20.00     0.067 A 
HETATM    2  C3  UNL     1     -34.257  16.090  -4.930  1.00 20.00     0.083 A 
HETATM    3  C4  UNL     1     -35.431  15.194  -5.326  1.00 20.00     0.132 A 
HETATM    4  C5  UNL     1     -34.390  17.591  -5.031  1.00 20.00     0.030 C 
HETATM    5 CL8  UNL     1     -35.679  13.642  -4.514  1.00 20.00    -0.100 Cl
HETATM    6 CL9  UNL     1     -36.949  15.907  -5.874  1.00 20.00    -0.100 Cl
ENDROOT
BRANCH   2   7
HETATM    7  C1  UNL     1     -33.377  15.603  -3.871  1.00 20.00     0.184 C 
HETATM    8  O6  UNL     1     -33.619  16.056  -2.718  1.00 20.00    -0.647 OA
HETATM    9  O7  UNL     1     -32.488  14.791  -4.253  1.00 20.00    -0.647 OA
ENDBRANCH   2   7
TORSDOF 1
ENDMDL
