MODEL 1
REMARK VINA RESULT:      -4.5      0.000      0.000
REMARK  1 active torsions:
REMARK  status: ('A' for Active; 'I' for Inactive)
REMARK    1  A    between atoms: C6_6  and  C8_8 
ROOT
HETATM    1  C1  UNL     1     -34.698   5.274   6.110  1.00 20.00     0.000 C 
HETATM    2  C2  UNL     1     -34.945   5.355   4.607  1.00 20.00     0.002 C 
HETATM    3  C3  UNL     1     -34.343   6.636   6.700  1.00 20.00     0.002 C 
HETATM    4  C4  UNL     1     -33.763   5.992   3.874  1.00 20.00     0.026 C 
HETATM    5  C5  UNL     1     -33.159   7.275   5.972  1.00 20.00     0.026 C 
HETATM    6  C6  UNL     1     -33.355   7.363   4.447  1.00 20.00     0.037 C 
HETATM    7 CL9  UNL     1     -34.645   8.570   4.079  1.00 20.00    -0.119 Cl
ENDROOT
BRANCH   6   8
HETATM    8  C8  UNL     1     -32.066   7.851   3.777  1.00 20.00     0.021 C 
HETATM    9  C7  UNL     1     -32.101   7.636   2.302  1.00 20.00     0.007 C 
ENDBRANCH   6   8
TORSDOF 1
ENDMDL
MODEL 2
REMARK VINA RESULT:      -4.5      1.424      2.603
REMARK  1 active torsions:
REMARK  status: ('A' for Active; 'I' for Inactive)
REMARK    1  A    between atoms: C6_6  and  C8_8 
ROOT
HETATM    1  C1  UNL     1     -33.573   7.729   6.557  1.00 20.00     0.000 C 
HETATM    2  C2  UNL     1     -34.523   6.575   6.858  1.00 20.00     0.002 C 
HETATM    3  C3  UNL     1     -33.632   8.145   5.090  1.00 20.00     0.002 C 
HETATM    4  C4  UNL     1     -34.278   5.385   5.928  1.00 20.00     0.026 C 
HETATM    5  C5  UNL     1     -33.385   6.960   4.156  1.00 20.00     0.026 C 
HETATM    6  C6  UNL     1     -34.310   5.760   4.434  1.00 20.00     0.037 C 
HETATM    7 CL9  UNL     1     -35.999   6.188   3.963  1.00 20.00    -0.119 Cl
ENDROOT
BRANCH   6   8
HETATM    8  C8  UNL     1     -33.888   4.560   3.580  1.00 20.00     0.021 C 
HETATM    9  C7  UNL     1     -32.876   4.946   2.555  1.00 20.00     0.007 C 
ENDBRANCH   6   8
TORSDOF 1
ENDMDL
MODEL 3
REMARK VINA RESULT:      -4.3      1.179      3.748
REMARK  1 active torsions:
REMARK  status: ('A' for Active; 'I' for Inactive)
REMARK    1  A    between atoms: C6_6  and  C8_8 
ROOT
HETATM    1  C1  UNL     1     -32.141   7.684   3.196  1.00 20.00     0.000 C 
HETATM    2  C2  UNL     1     -33.089   8.243   4.251  1.00 20.00     0.002 C 
HETATM    3  C3  UNL     1     -32.756   6.504   2.448  1.00 20.00     0.002 C 
HETATM    4  C4  UNL     1     -33.565   7.155   5.216  1.00 20.00     0.026 C 
HETATM    5  C5  UNL     1     -33.231   5.412   3.409  1.00 20.00     0.026 C 
HETATM    6  C6  UNL     1     -34.179   5.933   4.505  1.00 20.00     0.037 C 
HETATM    7 CL9  UNL     1     -35.752   6.406   3.759  1.00 20.00    -0.119 Cl
ENDROOT
BRANCH   6   8
HETATM    8  C8  UNL     1     -34.470   4.824   5.521  1.00 20.00     0.021 C 
HETATM    9  C7  UNL     1     -34.778   5.383   6.869  1.00 20.00     0.007 C 
ENDBRANCH   6   8
TORSDOF 1
ENDMDL
MODEL 4
REMARK VINA RESULT:      -4.2      0.707      1.078
REMARK  1 active torsions:
REMARK  status: ('A' for Active; 'I' for Inactive)
REMARK    1  A    between atoms: C6_6  and  C8_8 
ROOT
HETATM    1  C1  UNL     1     -34.641   4.975   6.002  1.00 20.00     0.000 C 
HETATM    2  C2  UNL     1     -34.698   5.105   4.483  1.00 20.00     0.002 C 
HETATM    3  C3  UNL     1     -34.585   6.337   6.686  1.00 20.00     0.002 C 
HETATM    4  C4  UNL     1     -33.544   5.955   3.946  1.00 20.00     0.026 C 
HETATM    5  C5  UNL     1     -33.432   7.190   6.155  1.00 20.00     0.026 C 
HETATM    6  C6  UNL     1     -33.437   7.336   4.622  1.00 20.00     0.037 C 
HETATM    7 CL9  UNL     1     -34.840   8.355   4.124  1.00 20.00    -0.119 Cl
ENDROOT
BRANCH   6   8
HETATM    8  C8  UNL     1     -32.164   8.052   4.157  1.00 20.00     0.021 C 
HETATM    9  C7  UNL     1     -31.965   9.341   4.881  1.00 20.00     0.007 C 
ENDBRANCH   6   8
TORSDOF 1
ENDMDL
MODEL 5
REMARK VINA RESULT:      -3.5      1.535      3.447
REMARK  1 active torsions:
REMARK  status: ('A' for Active; 'I' for Inactive)
REMARK    1  A    between atoms: C6_6  and  C8_8 
ROOT
HETATM    1  C1  UNL     1     -32.631   5.196   2.539  1.00 20.00     0.000 C 
HETATM    2  C2  UNL     1     -33.081   6.635   2.764  1.00 20.00     0.002 C 
HETATM    3  C3  UNL     1     -33.645   4.193   3.080  1.00 20.00     0.002 C 
HETATM    4  C4  UNL     1     -33.403   6.902   4.237  1.00 20.00     0.026 C 
HETATM    5  C5  UNL     1     -33.968   4.453   4.552  1.00 20.00     0.026 C 
HETATM    6  C6  UNL     1     -34.412   5.901   4.833  1.00 20.00     0.037 C 
HETATM    7 CL9  UNL     1     -36.035   6.181   4.097  1.00 20.00    -0.119 Cl
ENDROOT
BRANCH   6   8
HETATM    8  C8  UNL     1     -34.548   6.128   6.342  1.00 20.00     0.021 C 
HETATM    9  C7  UNL     1     -33.968   7.439   6.753  1.00 20.00     0.007 C 
ENDBRANCH   6   8
TORSDOF 1
ENDMDL
MODEL 6
REMARK VINA RESULT:      -3.5      9.934     10.663
REMARK  1 active torsions:
REMARK  status: ('A' for Active; 'I' for Inactive)
REMARK    1  A    between atoms: C6_6  and  C8_8 
ROOT
HETATM    1  C1  UNL     1     -41.889  15.829   6.318  1.00 20.00     0.000 C 
HETATM    2  C2  UNL     1     -41.559  15.104   7.618  1.00 20.00     0.002 C 
HETATM    3  C3  UNL     1     -42.441  14.877   5.261  1.00 20.00     0.002 C 
HETATM    4  C4  UNL     1     -40.615  13.923   7.381  1.00 20.00     0.026 C 
HETATM    5  C5  UNL     1     -41.499  13.696   5.019  1.00 20.00     0.026 C 
HETATM    6  C6  UNL     1     -41.122  12.941   6.307  1.00 20.00     0.037 C 
HETATM    7 CL9  UNL     1     -42.572  12.068   6.934  1.00 20.00    -0.119 Cl
ENDROOT
BRANCH   6   8
HETATM    8  C8  UNL     1     -40.049  11.889   6.007  1.00 20.00     0.021 C 
HETATM    9  C7  UNL     1     -39.517  12.030   4.621  1.00 20.00     0.007 C 
ENDBRANCH   6   8
TORSDOF 1
ENDMDL
MODEL 7
REMARK VINA RESULT:      -3.5      9.614     10.274
REMARK  1 active torsions:
REMARK  status: ('A' for Active; 'I' for Inactive)
REMARK    1  A    between atoms: C6_6  and  C8_8 
ROOT
HETATM    1  C1  UNL     1     -42.633  14.478   8.047  1.00 20.00     0.000 C 
HETATM    2  C2  UNL     1     -43.242  13.415   7.138  1.00 20.00     0.002 C 
HETATM    3  C3  UNL     1     -41.383  15.100   7.433  1.00 20.00     0.002 C 
HETATM    4  C4  UNL     1     -42.216  12.347   6.752  1.00 20.00     0.026 C 
HETATM    5  C5  UNL     1     -40.353  14.037   7.048  1.00 20.00     0.026 C 
HETATM    6  C6  UNL     1     -40.926  12.931   6.143  1.00 20.00     0.037 C 
HETATM    7 CL9  UNL     1     -41.294  13.621   4.517  1.00 20.00    -0.119 Cl
ENDROOT
BRANCH   6   8
HETATM    8  C8  UNL     1     -39.889  11.820   5.945  1.00 20.00     0.021 C 
HETATM    9  C7  UNL     1     -39.343  11.822   4.557  1.00 20.00     0.007 C 
ENDBRANCH   6   8
TORSDOF 1
ENDMDL
MODEL 8
REMARK VINA RESULT:      -3.4     12.412     13.413
REMARK  1 active torsions:
REMARK  status: ('A' for Active; 'I' for Inactive)
REMARK    1  A    between atoms: C6_6  and  C8_8 
ROOT
HETATM    1  C1  UNL     1     -34.330  15.719  -4.695  1.00 20.00     0.000 C 
HETATM    2  C2  UNL     1     -33.143  15.770  -3.739  1.00 20.00     0.002 C 
HETATM    3  C3  UNL     1     -34.850  17.115  -5.027  1.00 20.00     0.002 C 
HETATM    4  C4  UNL     1     -33.471  16.561  -2.471  1.00 20.00     0.026 C 
HETATM    5  C5  UNL     1     -35.183  17.909  -3.763  1.00 20.00     0.026 C 
HETATM    6  C6  UNL     1     -34.018  17.973  -2.758  1.00 20.00     0.037 C 
HETATM    7 CL9  UNL     1     -32.698  18.998  -3.438  1.00 20.00    -0.119 Cl
ENDROOT
BRANCH   6   8
HETATM    8  C8  UNL     1     -34.483  18.632  -1.454  1.00 20.00     0.021 C 
HETATM    9  C7  UNL     1     -33.854  17.991  -0.263  1.00 20.00     0.007 C 
ENDBRANCH   6   8
TORSDOF 1
ENDMDL
MODEL 9
REMARK VINA RESULT:      -3.4     15.470     16.324
REMARK  1 active torsions:
REMARK  status: ('A' for Active; 'I' for Inactive)
REMARK    1  A    between atoms: C6_6  and  C8_8 
ROOT
HETATM    1  C1  UNL     1     -23.271  18.737   8.018  1.00 20.00     0.000 C 
HETATM    2  C2  UNL     1     -22.044  18.134   8.693  1.00 20.00     0.002 C 
HETATM    3  C3  UNL     1     -24.277  19.263   9.037  1.00 20.00     0.002 C 
HETATM    4  C4  UNL     1     -22.430  17.055   9.707  1.00 20.00     0.026 C 
HETATM    5  C5  UNL     1     -24.669  18.187  10.051  1.00 20.00     0.026 C 
HETATM    6  C6  UNL     1     -23.460  17.535  10.747  1.00 20.00     0.037 C 
HETATM    7 CL9  UNL     1     -22.682  18.738  11.845  1.00 20.00    -0.119 Cl
ENDROOT
BRANCH   6   8
HETATM    8  C8  UNL     1     -23.921  16.357  11.613  1.00 20.00     0.021 C 
HETATM    9  C7  UNL     1     -25.196  16.666  12.322  1.00 20.00     0.007 C 
ENDBRANCH   6   8
TORSDOF 1
ENDMDL
