MODEL 1
REMARK VINA RESULT:      -4.4      0.000      0.000
REMARK  2 active torsions:
REMARK  status: ('A' for Active; 'I' for Inactive)
REMARK    1  A    between atoms: C3_3  and  C4_4 
REMARK    2  A    between atoms: C4_4  and  C5_5 
ROOT
HETATM    1  C1  UNL     1     -34.795   4.949   5.089  1.00 20.00     0.012 C 
HETATM    2  C2  UNL     1     -34.385   5.960   5.592  1.00 20.00    -0.117 C 
HETATM    3  C3  UNL     1     -33.885   7.194   6.212  1.00 20.00     0.094 C 
ENDROOT
BRANCH   3   4
HETATM    4  C4  UNL     1     -33.672   8.315   5.190  1.00 20.00     0.027 C 
BRANCH   4   5
HETATM    5  C5  UNL     1     -32.281   8.359   4.557  1.00 20.00     0.115 C 
HETATM    6 CL6  UNL     1     -32.195   7.407   3.058  1.00 20.00    -0.130 Cl
ENDBRANCH   4   5
ENDBRANCH   3   4
TORSDOF 2
ENDMDL
MODEL 2
REMARK VINA RESULT:      -4.4      1.210      2.973
REMARK  2 active torsions:
REMARK  status: ('A' for Active; 'I' for Inactive)
REMARK    1  A    between atoms: C3_3  and  C4_4 
REMARK    2  A    between atoms: C4_4  and  C5_5 
ROOT
HETATM    1  C1  UNL     1     -32.639   8.490   4.836  1.00 20.00     0.012 C 
HETATM    2  C2  UNL     1     -33.337   7.688   5.395  1.00 20.00    -0.117 C 
HETATM    3  C3  UNL     1     -34.188   6.708   6.085  1.00 20.00     0.094 C 
ENDROOT
BRANCH   3   4
HETATM    4  C4  UNL     1     -34.973   5.829   5.107  1.00 20.00     0.027 C 
BRANCH   4   5
HETATM    5  C5  UNL     1     -34.181   4.676   4.492  1.00 20.00     0.115 C 
HETATM    6 CL6  UNL     1     -33.312   5.168   3.021  1.00 20.00    -0.130 Cl
ENDBRANCH   4   5
ENDBRANCH   3   4
TORSDOF 2
ENDMDL
MODEL 3
REMARK VINA RESULT:      -4.4      1.570      3.094
REMARK  2 active torsions:
REMARK  status: ('A' for Active; 'I' for Inactive)
REMARK    1  A    between atoms: C3_3  and  C4_4 
REMARK    2  A    between atoms: C4_4  and  C5_5 
ROOT
HETATM    1  C1  UNL     1     -32.514   8.114   4.316  1.00 20.00     0.012 C 
HETATM    2  C2  UNL     1     -33.181   7.767   5.252  1.00 20.00    -0.117 C 
HETATM    3  C3  UNL     1     -33.995   7.347   6.401  1.00 20.00     0.094 C 
ENDROOT
BRANCH   3   4
HETATM    4  C4  UNL     1     -34.457   5.892   6.286  1.00 20.00     0.027 C 
BRANCH   4   5
HETATM    5  C5  UNL     1     -35.042   5.502   4.929  1.00 20.00     0.115 C 
HETATM    6 CL6  UNL     1     -33.972   4.405   4.027  1.00 20.00    -0.130 Cl
ENDBRANCH   4   5
ENDBRANCH   3   4
TORSDOF 2
ENDMDL
MODEL 4
REMARK VINA RESULT:      -4.3      1.070      1.098
REMARK  2 active torsions:
REMARK  status: ('A' for Active; 'I' for Inactive)
REMARK    1  A    between atoms: C3_3  and  C4_4 
REMARK    2  A    between atoms: C4_4  and  C5_5 
ROOT
HETATM    1  C1  UNL     1     -34.779   5.373   6.142  1.00 20.00     0.012 C 
HETATM    2  C2  UNL     1     -34.185   6.405   5.987  1.00 20.00    -0.117 C 
HETATM    3  C3  UNL     1     -33.458   7.668   5.801  1.00 20.00     0.094 C 
ENDROOT
BRANCH   3   4
HETATM    4  C4  UNL     1     -33.419   8.108   4.335  1.00 20.00     0.027 C 
BRANCH   4   5
HETATM    5  C5  UNL     1     -32.268   7.528   3.514  1.00 20.00     0.115 C 
HETATM    6 CL6  UNL     1     -32.714   6.001   2.719  1.00 20.00    -0.130 Cl
ENDBRANCH   4   5
ENDBRANCH   3   4
TORSDOF 2
ENDMDL
MODEL 5
REMARK VINA RESULT:      -4.3      1.771      3.175
REMARK  2 active torsions:
REMARK  status: ('A' for Active; 'I' for Inactive)
REMARK    1  A    between atoms: C3_3  and  C4_4 
REMARK    2  A    between atoms: C4_4  and  C5_5 
ROOT
HETATM    1  C1  UNL     1     -32.156   7.630   3.243  1.00 20.00     0.012 C 
HETATM    2  C2  UNL     1     -32.859   7.805   4.200  1.00 20.00    -0.117 C 
HETATM    3  C3  UNL     1     -33.721   8.024   5.370  1.00 20.00     0.094 C 
ENDROOT
BRANCH   3   4
HETATM    4  C4  UNL     1     -33.709   6.833   6.333  1.00 20.00     0.027 C 
BRANCH   4   5
HETATM    5  C5  UNL     1     -34.806   5.796   6.096  1.00 20.00     0.115 C 
HETATM    6 CL6  UNL     1     -34.425   4.716   4.735  1.00 20.00    -0.130 Cl
ENDBRANCH   4   5
ENDBRANCH   3   4
TORSDOF 2
ENDMDL
MODEL 6
REMARK VINA RESULT:      -4.1      2.442      2.909
REMARK  2 active torsions:
REMARK  status: ('A' for Active; 'I' for Inactive)
REMARK    1  A    between atoms: C3_3  and  C4_4 
REMARK    2  A    between atoms: C4_4  and  C5_5 
ROOT
HETATM    1  C1  UNL     1     -32.886   5.328   2.614  1.00 20.00     0.012 C 
HETATM    2  C2  UNL     1     -32.744   6.379   3.176  1.00 20.00    -0.117 C 
HETATM    3  C3  UNL     1     -32.565   7.666   3.863  1.00 20.00     0.094 C 
ENDROOT
BRANCH   3   4
HETATM    4  C4  UNL     1     -33.688   7.953   4.863  1.00 20.00     0.027 C 
BRANCH   4   5
HETATM    5  C5  UNL     1     -33.660   7.102   6.132  1.00 20.00     0.115 C 
HETATM    6 CL6  UNL     1     -34.793   5.734   6.047  1.00 20.00    -0.130 Cl
ENDBRANCH   4   5
ENDBRANCH   3   4
TORSDOF 2
ENDMDL
MODEL 7
REMARK VINA RESULT:      -4.1      1.869      2.726
REMARK  2 active torsions:
REMARK  status: ('A' for Active; 'I' for Inactive)
REMARK    1  A    between atoms: C3_3  and  C4_4 
REMARK    2  A    between atoms: C4_4  and  C5_5 
ROOT
HETATM    1  C1  UNL     1     -32.953   5.406   2.692  1.00 20.00     0.012 C 
HETATM    2  C2  UNL     1     -33.623   5.114   3.645  1.00 20.00    -0.117 C 
HETATM    3  C3  UNL     1     -34.443   4.753   4.810  1.00 20.00     0.094 C 
ENDROOT
BRANCH   3   4
HETATM    4  C4  UNL     1     -34.918   5.980   5.592  1.00 20.00     0.027 C 
BRANCH   4   5
HETATM    5  C5  UNL     1     -33.803   6.840   6.188  1.00 20.00     0.115 C 
HETATM    6 CL6  UNL     1     -33.532   8.329   5.254  1.00 20.00    -0.130 Cl
ENDBRANCH   4   5
ENDBRANCH   3   4
TORSDOF 2
ENDMDL
MODEL 8
REMARK VINA RESULT:      -4.1      2.099      3.219
REMARK  2 active torsions:
REMARK  status: ('A' for Active; 'I' for Inactive)
REMARK    1  A    between atoms: C3_3  and  C4_4 
REMARK    2  A    between atoms: C4_4  and  C5_5 
ROOT
HETATM    1  C1  UNL     1     -32.110   7.192   2.514  1.00 20.00     0.012 C 
HETATM    2  C2  UNL     1     -32.323   7.741   3.561  1.00 20.00    -0.117 C 
HETATM    3  C3  UNL     1     -32.580   8.415   4.841  1.00 20.00     0.094 C 
ENDROOT
BRANCH   3   4
HETATM    4  C4  UNL     1     -33.929   8.019   5.448  1.00 20.00     0.027 C 
BRANCH   4   5
HETATM    5  C5  UNL     1     -33.885   6.829   6.407  1.00 20.00     0.115 C 
HETATM    6 CL6  UNL     1     -34.797   5.434   5.786  1.00 20.00    -0.130 Cl
ENDBRANCH   4   5
ENDBRANCH   3   4
TORSDOF 2
ENDMDL
MODEL 9
REMARK VINA RESULT:      -4.0      2.365      3.790
REMARK  2 active torsions:
REMARK  status: ('A' for Active; 'I' for Inactive)
REMARK    1  A    between atoms: C3_3  and  C4_4 
REMARK    2  A    between atoms: C4_4  and  C5_5 
ROOT
HETATM    1  C1  UNL     1     -32.196   7.618   3.349  1.00 20.00     0.012 C 
HETATM    2  C2  UNL     1     -32.688   6.534   3.194  1.00 20.00    -0.117 C 
HETATM    3  C3  UNL     1     -33.289   5.207   2.999  1.00 20.00     0.094 C 
ENDROOT
BRANCH   3   4
HETATM    4  C4  UNL     1     -34.055   4.727   4.236  1.00 20.00     0.027 C 
BRANCH   4   5
HETATM    5  C5  UNL     1     -35.012   5.752   4.844  1.00 20.00     0.115 C 
HETATM    6 CL6  UNL     1     -34.439   6.356   6.415  1.00 20.00    -0.130 Cl
ENDBRANCH   4   5
ENDBRANCH   3   4
TORSDOF 2
ENDMDL
