MODEL 1
REMARK VINA RESULT:      -5.6      0.000      0.000
REMARK  0 active torsions:
REMARK  status: ('A' for Active; 'I' for Inactive)
ROOT
HETATM    1  C1  UNL     1     -33.911   5.438   5.835  1.00 20.00     0.288 C 
HETATM    2  C2  UNL     1     -33.634   6.904   6.238  1.00 20.00     0.288 C 
HETATM    3  C3  UNL     1     -34.467   5.979   4.497  1.00 20.00     0.343 C 
HETATM    4  C4  UNL     1     -33.610   7.247   4.730  1.00 20.00     0.343 C 
HETATM    5  F5  UNL     1     -34.792   4.768   6.612  1.00 20.00    -0.240 F 
HETATM    6  F6  UNL     1     -34.617   7.502   6.949  1.00 20.00    -0.240 F 
HETATM    7  F7  UNL     1     -35.804   6.184   4.470  1.00 20.00    -0.196 F 
HETATM    8  F8  UNL     1     -34.159   5.256   3.398  1.00 20.00    -0.196 F 
HETATM    9  F9  UNL     1     -34.191   8.418   4.385  1.00 20.00    -0.196 F 
HETATM   10  F10 UNL     1     -32.387   7.230   4.151  1.00 20.00    -0.196 F 
ENDROOT
TORSDOF 0
ENDMDL
MODEL 2
REMARK VINA RESULT:      -5.3      0.761      2.778
REMARK  0 active torsions:
REMARK  status: ('A' for Active; 'I' for Inactive)
ROOT
HETATM    1  C1  UNL     1     -34.265   7.000   6.289  1.00 20.00     0.288 C 
HETATM    2  C2  UNL     1     -34.628   5.510   6.106  1.00 20.00     0.288 C 
HETATM    3  C3  UNL     1     -33.932   7.036   4.779  1.00 20.00     0.343 C 
HETATM    4  C4  UNL     1     -34.872   5.818   4.611  1.00 20.00     0.343 C 
HETATM    5  F5  UNL     1     -33.234   7.259   7.125  1.00 20.00    -0.240 F 
HETATM    6  F6  UNL     1     -33.627   4.636   6.360  1.00 20.00    -0.240 F 
HETATM    7  F7  UNL     1     -32.635   6.812   4.468  1.00 20.00    -0.196 F 
HETATM    8  F8  UNL     1     -34.304   8.158   4.122  1.00 20.00    -0.196 F 
HETATM    9  F9  UNL     1     -34.454   4.871   3.741  1.00 20.00    -0.196 F 
HETATM   10  F10 UNL     1     -36.151   6.115   4.281  1.00 20.00    -0.196 F 
ENDROOT
TORSDOF 0
ENDMDL
MODEL 3
REMARK VINA RESULT:      -5.2      1.015      2.661
REMARK  0 active torsions:
REMARK  status: ('A' for Active; 'I' for Inactive)
ROOT
HETATM    1  C1  UNL     1     -34.937   5.920   5.060  1.00 20.00     0.288 C 
HETATM    2  C2  UNL     1     -33.969   6.326   3.926  1.00 20.00     0.288 C 
HETATM    3  C3  UNL     1     -33.999   6.666   6.038  1.00 20.00     0.343 C 
HETATM    4  C4  UNL     1     -33.503   7.494   4.827  1.00 20.00     0.343 C 
HETATM    5  F5  UNL     1     -35.073   4.592   5.272  1.00 20.00    -0.240 F 
HETATM    6  F6  UNL     1     -33.016   5.414   3.626  1.00 20.00    -0.240 F 
HETATM    7  F7  UNL     1     -33.060   5.898   6.635  1.00 20.00    -0.196 F 
HETATM    8  F8  UNL     1     -34.611   7.369   7.016  1.00 20.00    -0.196 F 
HETATM    9  F9  UNL     1     -32.178   7.761   4.803  1.00 20.00    -0.196 F 
HETATM   10  F10 UNL     1     -34.144   8.669   4.629  1.00 20.00    -0.196 F 
ENDROOT
TORSDOF 0
ENDMDL
MODEL 4
REMARK VINA RESULT:      -5.0      1.050      3.223
REMARK  0 active torsions:
REMARK  status: ('A' for Active; 'I' for Inactive)
ROOT
HETATM    1  C1  UNL     1     -33.736   6.905   4.665  1.00 20.00     0.288 C 
HETATM    2  C2  UNL     1     -34.851   5.851   4.482  1.00 20.00     0.288 C 
HETATM    3  C3  UNL     1     -33.879   6.695   6.191  1.00 20.00     0.343 C 
HETATM    4  C4  UNL     1     -34.471   5.300   5.876  1.00 20.00     0.343 C 
HETATM    5  F5  UNL     1     -34.019   8.148   4.213  1.00 20.00    -0.240 F 
HETATM    6  F6  UNL     1     -36.105   6.348   4.381  1.00 20.00    -0.240 F 
HETATM    7  F7  UNL     1     -34.719   7.552   6.815  1.00 20.00    -0.196 F 
HETATM    8  F8  UNL     1     -32.724   6.697   6.894  1.00 20.00    -0.196 F 
HETATM    9  F9  UNL     1     -35.505   4.914   6.657  1.00 20.00    -0.196 F 
HETATM   10  F10 UNL     1     -33.580   4.282   5.874  1.00 20.00    -0.196 F 
ENDROOT
TORSDOF 0
ENDMDL
MODEL 5
REMARK VINA RESULT:      -4.9      0.954      2.706
REMARK  0 active torsions:
REMARK  status: ('A' for Active; 'I' for Inactive)
ROOT
HETATM    1  C1  UNL     1     -33.428   6.000   4.113  1.00 20.00     0.288 C 
HETATM    2  C2  UNL     1     -34.476   5.688   5.204  1.00 20.00     0.288 C 
HETATM    3  C3  UNL     1     -33.311   7.417   4.722  1.00 20.00     0.343 C 
HETATM    4  C4  UNL     1     -33.841   6.818   6.048  1.00 20.00     0.343 C 
HETATM    5  F5  UNL     1     -33.869   5.941   2.837  1.00 20.00    -0.240 F 
HETATM    6  F6  UNL     1     -35.764   5.892   4.843  1.00 20.00    -0.240 F 
HETATM    7  F7  UNL     1     -34.103   8.355   4.155  1.00 20.00    -0.196 F 
HETATM    8  F8  UNL     1     -32.063   7.934   4.769  1.00 20.00    -0.196 F 
HETATM    9  F9  UNL     1     -34.707   7.595   6.735  1.00 20.00    -0.196 F 
HETATM   10  F10 UNL     1     -32.888   6.423   6.924  1.00 20.00    -0.196 F 
ENDROOT
TORSDOF 0
ENDMDL
MODEL 6
REMARK VINA RESULT:      -4.8      1.014      2.642
REMARK  0 active torsions:
REMARK  status: ('A' for Active; 'I' for Inactive)
ROOT
HETATM    1  C1  UNL     1     -33.101   6.791   5.704  1.00 20.00     0.288 C 
HETATM    2  C2  UNL     1     -33.876   7.106   4.405  1.00 20.00     0.288 C 
HETATM    3  C3  UNL     1     -34.316   5.940   6.144  1.00 20.00     0.343 C 
HETATM    4  C4  UNL     1     -34.682   5.808   4.646  1.00 20.00     0.343 C 
HETATM    5  F5  UNL     1     -32.810   7.851   6.490  1.00 20.00    -0.240 F 
HETATM    6  F6  UNL     1     -34.601   8.248   4.428  1.00 20.00    -0.240 F 
HETATM    7  F7  UNL     1     -35.227   6.586   6.906  1.00 20.00    -0.196 F 
HETATM    8  F8  UNL     1     -34.022   4.783   6.779  1.00 20.00    -0.196 F 
HETATM    9  F9  UNL     1     -36.001   5.874   4.358  1.00 20.00    -0.196 F 
HETATM   10  F10 UNL     1     -34.201   4.704   4.029  1.00 20.00    -0.196 F 
ENDROOT
TORSDOF 0
ENDMDL
MODEL 7
REMARK VINA RESULT:      -4.5      1.116      2.889
REMARK  0 active torsions:
REMARK  status: ('A' for Active; 'I' for Inactive)
ROOT
HETATM    1  C1  UNL     1     -34.598   7.607   5.013  1.00 20.00     0.288 C 
HETATM    2  C2  UNL     1     -33.830   7.284   6.314  1.00 20.00     0.288 C 
HETATM    3  C3  UNL     1     -34.648   6.085   4.742  1.00 20.00     0.343 C 
HETATM    4  C4  UNL     1     -34.467   5.876   6.265  1.00 20.00     0.343 C 
HETATM    5  F5  UNL     1     -33.928   8.346   4.100  1.00 20.00    -0.240 F 
HETATM    6  F6  UNL     1     -32.481   7.311   6.210  1.00 20.00    -0.240 F 
HETATM    7  F7  UNL     1     -33.647   5.604   3.970  1.00 20.00    -0.196 F 
HETATM    8  F8  UNL     1     -35.805   5.620   4.220  1.00 20.00    -0.196 F 
HETATM    9  F9  UNL     1     -33.658   4.853   6.623  1.00 20.00    -0.196 F 
HETATM   10  F10 UNL     1     -35.614   5.733   6.969  1.00 20.00    -0.196 F 
ENDROOT
TORSDOF 0
ENDMDL
MODEL 8
REMARK VINA RESULT:      -4.4      1.197      2.835
REMARK  0 active torsions:
REMARK  status: ('A' for Active; 'I' for Inactive)
ROOT
HETATM    1  C1  UNL     1     -33.395   7.269   4.136  1.00 20.00     0.288 C 
HETATM    2  C2  UNL     1     -34.091   6.922   5.471  1.00 20.00     0.288 C 
HETATM    3  C3  UNL     1     -33.626   5.800   3.710  1.00 20.00     0.343 C 
HETATM    4  C4  UNL     1     -34.787   5.755   4.733  1.00 20.00     0.343 C 
HETATM    5  F5  UNL     1     -32.105   7.660   4.228  1.00 20.00    -0.240 F 
HETATM    6  F6  UNL     1     -33.263   6.556   6.476  1.00 20.00    -0.240 F 
HETATM    7  F7  UNL     1     -32.599   4.958   3.967  1.00 20.00    -0.196 F 
HETATM    8  F8  UNL     1     -33.974   5.612   2.418  1.00 20.00    -0.196 F 
HETATM    9  F9  UNL     1     -34.907   4.605   5.433  1.00 20.00    -0.196 F 
HETATM   10  F10 UNL     1     -36.011   6.036   4.228  1.00 20.00    -0.196 F 
ENDROOT
TORSDOF 0
ENDMDL
MODEL 9
REMARK VINA RESULT:      -4.4      8.080      9.518
REMARK  0 active torsions:
REMARK  status: ('A' for Active; 'I' for Inactive)
ROOT
HETATM    1  C1  UNL     1     -42.092   7.370  -0.423  1.00 20.00     0.288 C 
HETATM    2  C2  UNL     1     -43.098   6.881   0.643  1.00 20.00     0.288 C 
HETATM    3  C3  UNL     1     -41.118   6.285   0.093  1.00 20.00     0.343 C 
HETATM    4  C4  UNL     1     -42.354   5.524   0.629  1.00 20.00     0.343 C 
HETATM    5  F5  UNL     1     -41.671   8.649  -0.293  1.00 20.00    -0.240 F 
HETATM    6  F6  UNL     1     -43.062   7.546   1.820  1.00 20.00    -0.240 F 
HETATM    7  F7  UNL     1     -40.240   6.698   1.036  1.00 20.00    -0.196 F 
HETATM    8  F8  UNL     1     -40.400   5.642  -0.856  1.00 20.00    -0.196 F 
HETATM    9  F9  UNL     1     -42.198   4.928   1.833  1.00 20.00    -0.196 F 
HETATM   10  F10 UNL     1     -42.866   4.591  -0.207  1.00 20.00    -0.196 F 
ENDROOT
TORSDOF 0
ENDMDL
