MODEL 1
REMARK VINA RESULT:      -4.0      0.000      0.000
REMARK  1 active torsions:
REMARK  status: ('A' for Active; 'I' for Inactive)
REMARK    1  A    between atoms: C3_3  and  C5_5 
ROOT
HETATM    1  C1  UNL     1     -33.733   7.931   5.455  1.00 20.00     0.065 A 
HETATM    2  C2  UNL     1     -32.158   7.709   3.579  1.00 20.00     0.069 A 
HETATM    3  C3  UNL     1     -33.924   6.761   4.755  1.00 20.00     0.026 A 
HETATM    4  C4  UNL     1     -33.013   6.632   3.668  1.00 20.00     0.031 A 
HETATM    5  S7  UNL     1     -32.457   8.869   4.802  1.00 20.00    -0.111 SA
HETATM    6 BR8  UNL     1     -32.990   5.154   2.495  1.00 20.00    -0.050 Br
ENDROOT
BRANCH   3   7
HETATM    7  C5  UNL     1     -34.948   5.818   5.133  1.00 20.00     0.271 C 
HETATM    8  O6  UNL     1     -34.711   4.658   5.505  1.00 20.00    -0.301 OA
ENDBRANCH   3   7
TORSDOF 1
ENDMDL
MODEL 2
REMARK VINA RESULT:      -3.9      2.682      3.213
REMARK  1 active torsions:
REMARK  status: ('A' for Active; 'I' for Inactive)
REMARK    1  A    between atoms: C3_3  and  C5_5 
ROOT
HETATM    1  C1  UNL     1     -34.339   5.076   4.710  1.00 20.00     0.065 A 
HETATM    2  C2  UNL     1     -34.021   7.009   6.198  1.00 20.00     0.069 A 
HETATM    3  C3  UNL     1     -33.571   6.059   4.126  1.00 20.00     0.026 A 
HETATM    4  C4  UNL     1     -33.388   7.179   4.987  1.00 20.00     0.031 A 
HETATM    5  S7  UNL     1     -34.835   5.506   6.293  1.00 20.00    -0.111 SA
HETATM    6 BR8  UNL     1     -32.390   8.708   4.512  1.00 20.00    -0.050 Br
ENDROOT
BRANCH   3   7
HETATM    7  C5  UNL     1     -33.046   5.907   2.792  1.00 20.00     0.271 C 
HETATM    8  O6  UNL     1     -32.767   4.809   2.284  1.00 20.00    -0.301 OA
ENDBRANCH   3   7
TORSDOF 1
ENDMDL
MODEL 3
REMARK VINA RESULT:      -3.8      2.474      3.025
REMARK  1 active torsions:
REMARK  status: ('A' for Active; 'I' for Inactive)
REMARK    1  A    between atoms: C3_3  and  C5_5 
ROOT
HETATM    1  C1  UNL     1     -33.987   7.171   5.979  1.00 20.00     0.065 A 
HETATM    2  C2  UNL     1     -34.430   5.002   4.907  1.00 20.00     0.069 A 
HETATM    3  C3  UNL     1     -33.393   7.075   4.740  1.00 20.00     0.026 A 
HETATM    4  C4  UNL     1     -33.649   5.819   4.119  1.00 20.00     0.031 A 
HETATM    5  S7  UNL     1     -34.851   5.749   6.388  1.00 20.00    -0.111 SA
HETATM    6 BR8  UNL     1     -32.990   5.343   2.417  1.00 20.00    -0.050 Br
ENDROOT
BRANCH   3   7
HETATM    7  C5  UNL     1     -32.615   8.159   4.195  1.00 20.00     0.271 C 
HETATM    8  O6  UNL     1     -32.237   9.136   4.861  1.00 20.00    -0.301 OA
ENDBRANCH   3   7
TORSDOF 1
ENDMDL
MODEL 4
REMARK VINA RESULT:      -3.7      2.081      2.596
REMARK  1 active torsions:
REMARK  status: ('A' for Active; 'I' for Inactive)
REMARK    1  A    between atoms: C3_3  and  C5_5 
ROOT
HETATM    1  C1  UNL     1     -32.472   7.521   3.394  1.00 20.00     0.065 A 
HETATM    2  C2  UNL     1     -33.310   7.996   5.657  1.00 20.00     0.069 A 
HETATM    3  C3  UNL     1     -33.231   6.486   3.893  1.00 20.00     0.026 A 
HETATM    4  C4  UNL     1     -33.716   6.761   5.204  1.00 20.00     0.031 A 
HETATM    5  S7  UNL     1     -32.347   8.819   4.506  1.00 20.00    -0.111 SA
HETATM    6 BR8  UNL     1     -34.790   5.564   6.191  1.00 20.00    -0.050 Br
ENDROOT
BRANCH   3   7
HETATM    7  C5  UNL     1     -33.468   5.290   3.123  1.00 20.00     0.271 C 
HETATM    8  O6  UNL     1     -32.636   4.799   2.343  1.00 20.00    -0.301 OA
ENDBRANCH   3   7
TORSDOF 1
ENDMDL
MODEL 5
REMARK VINA RESULT:      -3.4      2.429      2.608
REMARK  1 active torsions:
REMARK  status: ('A' for Active; 'I' for Inactive)
REMARK    1  A    between atoms: C3_3  and  C5_5 
ROOT
HETATM    1  C1  UNL     1     -33.948   5.230   3.984  1.00 20.00     0.065 A 
HETATM    2  C2  UNL     1     -32.410   6.800   2.880  1.00 20.00     0.069 A 
HETATM    3  C3  UNL     1     -33.768   6.381   4.719  1.00 20.00     0.026 A 
HETATM    4  C4  UNL     1     -32.876   7.290   4.080  1.00 20.00     0.031 A 
HETATM    5  S7  UNL     1     -33.045   5.250   2.528  1.00 20.00    -0.111 SA
HETATM    6 BR8  UNL     1     -32.400   8.966   4.803  1.00 20.00    -0.050 Br
ENDROOT
BRANCH   3   7
HETATM    7  C5  UNL     1     -34.435   6.577   5.981  1.00 20.00     0.271 C 
HETATM    8  O6  UNL     1     -34.887   5.649   6.671  1.00 20.00    -0.301 OA
ENDBRANCH   3   7
TORSDOF 1
ENDMDL
MODEL 6
REMARK VINA RESULT:      -3.4      2.998      3.496
REMARK  1 active torsions:
REMARK  status: ('A' for Active; 'I' for Inactive)
REMARK    1  A    between atoms: C3_3  and  C5_5 
ROOT
HETATM    1  C1  UNL     1     -32.544   6.946   3.100  1.00 20.00     0.065 A 
HETATM    2  C2  UNL     1     -33.861   5.007   3.846  1.00 20.00     0.069 A 
HETATM    3  C3  UNL     1     -33.121   7.156   4.333  1.00 20.00     0.026 A 
HETATM    4  C4  UNL     1     -33.884   6.033   4.765  1.00 20.00     0.031 A 
HETATM    5  S7  UNL     1     -32.923   5.400   2.469  1.00 20.00    -0.111 SA
HETATM    6 BR8  UNL     1     -34.813   5.971   6.406  1.00 20.00    -0.050 Br
ENDROOT
BRANCH   3   7
HETATM    7  C5  UNL     1     -32.934   8.392   5.050  1.00 20.00     0.271 C 
HETATM    8  O6  UNL     1     -32.137   9.277   4.697  1.00 20.00    -0.301 OA
ENDBRANCH   3   7
TORSDOF 1
ENDMDL
MODEL 7
REMARK VINA RESULT:      -3.1     12.486     13.043
REMARK  1 active torsions:
REMARK  status: ('A' for Active; 'I' for Inactive)
REMARK    1  A    between atoms: C3_3  and  C5_5 
ROOT
HETATM    1  C1  UNL     1     -33.339  16.667  -2.347  1.00 20.00     0.065 A 
HETATM    2  C2  UNL     1     -34.705  18.350  -3.511  1.00 20.00     0.069 A 
HETATM    3  C3  UNL     1     -33.627  16.296  -3.642  1.00 20.00     0.026 A 
HETATM    4  C4  UNL     1     -34.418  17.270  -4.316  1.00 20.00     0.031 A 
HETATM    5  S7  UNL     1     -34.023  18.187  -1.949  1.00 20.00    -0.111 SA
HETATM    6 BR8  UNL     1     -34.997  17.089  -6.102  1.00 20.00    -0.050 Br
ENDROOT
BRANCH   3   7
HETATM    7  C5  UNL     1     -33.150  15.050  -4.189  1.00 20.00     0.271 C 
HETATM    8  O6  UNL     1     -33.822  14.006  -4.209  1.00 20.00    -0.301 OA
ENDBRANCH   3   7
TORSDOF 1
ENDMDL
MODEL 8
REMARK VINA RESULT:      -3.0     12.676     13.326
REMARK  1 active torsions:
REMARK  status: ('A' for Active; 'I' for Inactive)
REMARK    1  A    between atoms: C3_3  and  C5_5 
ROOT
HETATM    1  C1  UNL     1     -34.782  15.973  -5.951  1.00 20.00     0.065 A 
HETATM    2  C2  UNL     1     -34.359  18.085  -4.764  1.00 20.00     0.069 A 
HETATM    3  C3  UNL     1     -34.279  15.764  -4.686  1.00 20.00     0.026 A 
HETATM    4  C4  UNL     1     -34.034  16.987  -3.998  1.00 20.00     0.031 A 
HETATM    5  S7  UNL     1     -34.957  17.640  -6.305  1.00 20.00    -0.111 SA
HETATM    6 BR8  UNL     1     -33.345  17.078  -2.245  1.00 20.00    -0.050 Br
ENDROOT
BRANCH   3   7
HETATM    7  C5  UNL     1     -34.052  14.434  -4.179  1.00 20.00     0.271 C 
HETATM    8  O6  UNL     1     -34.923  13.550  -4.150  1.00 20.00    -0.301 OA
ENDBRANCH   3   7
TORSDOF 1
ENDMDL
MODEL 9
REMARK VINA RESULT:      -3.0     12.788     13.351
REMARK  1 active torsions:
REMARK  status: ('A' for Active; 'I' for Inactive)
REMARK    1  A    between atoms: C3_3  and  C5_5 
ROOT
HETATM    1  C1  UNL     1     -33.325  15.326  -4.044  1.00 20.00     0.065 A 
HETATM    2  C2  UNL     1     -34.891  16.547  -5.496  1.00 20.00     0.069 A 
HETATM    3  C3  UNL     1     -33.660  16.557  -3.525  1.00 20.00     0.026 A 
HETATM    4  C4  UNL     1     -34.566  17.265  -4.366  1.00 20.00     0.031 A 
HETATM    5  S7  UNL     1     -34.104  15.028  -5.540  1.00 20.00    -0.111 SA
HETATM    6 BR8  UNL     1     -35.236  18.983  -3.966  1.00 20.00    -0.050 Br
ENDROOT
BRANCH   3   7
HETATM    7  C5  UNL     1     -33.119  17.015  -2.270  1.00 20.00     0.271 C 
HETATM    8  O6  UNL     1     -33.764  17.034  -1.209  1.00 20.00    -0.301 OA
ENDBRANCH   3   7
TORSDOF 1
ENDMDL
