MODEL 1
REMARK VINA RESULT:      -3.8      0.000      0.000
REMARK  2 active torsions:
REMARK  status: ('A' for Active; 'I' for Inactive)
REMARK    1  A    between atoms: C1_1  and  C5_5 
REMARK    2  A    between atoms: C5_5  and  C6_6 
ROOT
HETATM    1  C5  UNL     1     -34.119   7.708   4.397  1.00 20.00     0.104 C 
ENDROOT
BRANCH   1   2
HETATM    2  C1  UNL     1     -32.657   8.025   4.123  1.00 20.00     0.219 C 
HETATM    3  O7  UNL     1     -31.914   8.447   5.006  1.00 20.00    -0.280 OA
HETATM    4 CL8  UNL     1     -32.193   7.721   2.473  1.00 20.00    -0.044 Cl
ENDBRANCH   1   2
BRANCH   1   5
HETATM    5  C6  UNL     1     -34.409   6.232   4.754  1.00 20.00    -0.044 C 
HETATM    6  C2  UNL     1     -34.252   5.980   6.263  1.00 20.00     0.015 C 
HETATM    7  C3  UNL     1     -35.865   5.923   4.357  1.00 20.00     0.015 C 
HETATM    8  C4  UNL     1     -33.485   5.277   3.981  1.00 20.00     0.015 C 
ENDBRANCH   1   5
TORSDOF 2
ENDMDL
MODEL 2
REMARK VINA RESULT:      -3.7      0.090      1.534
REMARK  2 active torsions:
REMARK  status: ('A' for Active; 'I' for Inactive)
REMARK    1  A    between atoms: C1_1  and  C5_5 
REMARK    2  A    between atoms: C5_5  and  C6_6 
ROOT
HETATM    1  C5  UNL     1     -34.079   7.745   4.363  1.00 20.00     0.104 C 
ENDROOT
BRANCH   1   2
HETATM    2  C1  UNL     1     -32.621   8.031   4.039  1.00 20.00     0.219 C 
HETATM    3  O7  UNL     1     -31.838   8.428   4.899  1.00 20.00    -0.280 OA
HETATM    4 CL8  UNL     1     -32.223   7.732   2.372  1.00 20.00    -0.044 Cl
ENDBRANCH   1   2
BRANCH   1   5
HETATM    5  C6  UNL     1     -34.391   6.271   4.712  1.00 20.00    -0.044 C 
HETATM    6  C2  UNL     1     -33.444   5.310   3.976  1.00 20.00     0.015 C 
HETATM    7  C3  UNL     1     -34.193   6.087   6.229  1.00 20.00     0.015 C 
HETATM    8  C4  UNL     1     -35.846   5.911   4.368  1.00 20.00     0.015 C 
ENDBRANCH   1   5
TORSDOF 2
ENDMDL
MODEL 3
REMARK VINA RESULT:      -3.7      0.126      1.533
REMARK  2 active torsions:
REMARK  status: ('A' for Active; 'I' for Inactive)
REMARK    1  A    between atoms: C1_1  and  C5_5 
REMARK    2  A    between atoms: C5_5  and  C6_6 
ROOT
HETATM    1  C5  UNL     1     -34.084   7.773   4.308  1.00 20.00     0.104 C 
ENDROOT
BRANCH   1   2
HETATM    2  C1  UNL     1     -32.622   8.062   4.006  1.00 20.00     0.219 C 
HETATM    3  O7  UNL     1     -31.848   8.444   4.880  1.00 20.00    -0.280 OA
HETATM    4 CL8  UNL     1     -32.205   7.786   2.338  1.00 20.00    -0.044 Cl
ENDBRANCH   1   2
BRANCH   1   5
HETATM    5  C6  UNL     1     -34.386   6.317   4.733  1.00 20.00    -0.044 C 
HETATM    6  C2  UNL     1     -35.828   5.920   4.377  1.00 20.00     0.015 C 
HETATM    7  C3  UNL     1     -33.421   5.388   3.973  1.00 20.00     0.015 C 
HETATM    8  C4  UNL     1     -34.162   6.116   6.241  1.00 20.00     0.015 C 
ENDBRANCH   1   5
TORSDOF 2
ENDMDL
MODEL 4
REMARK VINA RESULT:      -3.6      2.142      3.077
REMARK  2 active torsions:
REMARK  status: ('A' for Active; 'I' for Inactive)
REMARK    1  A    between atoms: C1_1  and  C5_5 
REMARK    2  A    between atoms: C5_5  and  C6_6 
ROOT
HETATM    1  C5  UNL     1     -34.517   6.664   4.217  1.00 20.00     0.104 C 
ENDROOT
BRANCH   1   2
HETATM    2  C1  UNL     1     -34.034   5.242   3.978  1.00 20.00     0.219 C 
HETATM    3  O7  UNL     1     -34.394   4.312   4.696  1.00 20.00    -0.280 OA
HETATM    4 CL8  UNL     1     -32.960   5.108   2.615  1.00 20.00    -0.044 Cl
ENDBRANCH   1   2
BRANCH   1   5
HETATM    5  C6  UNL     1     -33.588   7.527   5.101  1.00 20.00    -0.044 C 
HETATM    6  C2  UNL     1     -32.270   7.849   4.379  1.00 20.00     0.015 C 
HETATM    7  C3  UNL     1     -34.315   8.851   5.406  1.00 20.00     0.015 C 
HETATM    8  C4  UNL     1     -33.278   6.829   6.436  1.00 20.00     0.015 C 
ENDBRANCH   1   5
TORSDOF 2
ENDMDL
MODEL 5
REMARK VINA RESULT:      -3.6      2.147      3.121
REMARK  2 active torsions:
REMARK  status: ('A' for Active; 'I' for Inactive)
REMARK    1  A    between atoms: C1_1  and  C5_5 
REMARK    2  A    between atoms: C5_5  and  C6_6 
ROOT
HETATM    1  C5  UNL     1     -34.536   6.698   4.214  1.00 20.00     0.104 C 
ENDROOT
BRANCH   1   2
HETATM    2  C1  UNL     1     -34.068   5.268   3.993  1.00 20.00     0.219 C 
HETATM    3  O7  UNL     1     -34.447   4.349   4.716  1.00 20.00    -0.280 OA
HETATM    4 CL8  UNL     1     -32.982   5.108   2.643  1.00 20.00    -0.044 Cl
ENDBRANCH   1   2
BRANCH   1   5
HETATM    5  C6  UNL     1     -33.624   7.547   5.131  1.00 20.00    -0.044 C 
HETATM    6  C2  UNL     1     -33.297   6.804   6.437  1.00 20.00     0.015 C 
HETATM    7  C3  UNL     1     -32.307   7.814   4.378  1.00 20.00     0.015 C 
HETATM    8  C4  UNL     1     -34.272   8.901   5.465  1.00 20.00     0.015 C 
ENDBRANCH   1   5
TORSDOF 2
ENDMDL
MODEL 6
REMARK VINA RESULT:      -3.5      2.179      3.432
REMARK  2 active torsions:
REMARK  status: ('A' for Active; 'I' for Inactive)
REMARK    1  A    between atoms: C1_1  and  C5_5 
REMARK    2  A    between atoms: C5_5  and  C6_6 
ROOT
HETATM    1  C5  UNL     1     -34.196   7.917   4.498  1.00 20.00     0.104 C 
ENDROOT
BRANCH   1   2
HETATM    2  C1  UNL     1     -34.177   6.704   5.415  1.00 20.00     0.219 C 
HETATM    3  O7  UNL     1     -33.674   6.754   6.535  1.00 20.00    -0.280 OA
HETATM    4 CL8  UNL     1     -34.930   5.304   4.708  1.00 20.00    -0.044 Cl
ENDBRANCH   1   2
BRANCH   1   5
HETATM    5  C6  UNL     1     -32.850   8.230   3.804  1.00 20.00    -0.044 C 
HETATM    6  C2  UNL     1     -33.026   9.281   2.695  1.00 20.00     0.015 C 
HETATM    7  C3  UNL     1     -31.886   8.794   4.864  1.00 20.00     0.015 C 
HETATM    8  C4  UNL     1     -32.221   6.961   3.204  1.00 20.00     0.015 C 
ENDBRANCH   1   5
TORSDOF 2
ENDMDL
MODEL 7
REMARK VINA RESULT:      -3.5      2.175      3.332
REMARK  2 active torsions:
REMARK  status: ('A' for Active; 'I' for Inactive)
REMARK    1  A    between atoms: C1_1  and  C5_5 
REMARK    2  A    between atoms: C5_5  and  C6_6 
ROOT
HETATM    1  C5  UNL     1     -34.208   7.874   4.460  1.00 20.00     0.104 C 
ENDROOT
BRANCH   1   2
HETATM    2  C1  UNL     1     -34.170   6.684   5.405  1.00 20.00     0.219 C 
HETATM    3  O7  UNL     1     -33.671   6.768   6.525  1.00 20.00    -0.280 OA
HETATM    4 CL8  UNL     1     -34.895   5.254   4.727  1.00 20.00    -0.044 Cl
ENDBRANCH   1   2
BRANCH   1   5
HETATM    5  C6  UNL     1     -32.847   8.248   3.828  1.00 20.00    -0.044 C 
HETATM    6  C2  UNL     1     -31.877   8.807   4.881  1.00 20.00     0.015 C 
HETATM    7  C3  UNL     1     -32.233   6.970   3.227  1.00 20.00     0.015 C 
HETATM    8  C4  UNL     1     -33.019   9.279   2.699  1.00 20.00     0.015 C 
ENDBRANCH   1   5
TORSDOF 2
ENDMDL
MODEL 8
REMARK VINA RESULT:      -3.5      8.349      9.048
REMARK  2 active torsions:
REMARK  status: ('A' for Active; 'I' for Inactive)
REMARK    1  A    between atoms: C1_1  and  C5_5 
REMARK    2  A    between atoms: C5_5  and  C6_6 
ROOT
HETATM    1  C5  UNL     1     -40.208  11.690   5.902  1.00 20.00     0.104 C 
ENDROOT
BRANCH   1   2
HETATM    2  C1  UNL     1     -38.926  11.981   5.138  1.00 20.00     0.219 C 
HETATM    3  O7  UNL     1     -37.897  12.322   5.716  1.00 20.00    -0.280 OA
HETATM    4 CL8  UNL     1     -39.097  11.772   3.418  1.00 20.00    -0.044 Cl
ENDBRANCH   1   2
BRANCH   1   5
HETATM    5  C6  UNL     1     -41.081  12.930   6.206  1.00 20.00    -0.044 C 
HETATM    6  C2  UNL     1     -41.396  13.719   4.924  1.00 20.00     0.015 C 
HETATM    7  C3  UNL     1     -42.408  12.441   6.817  1.00 20.00     0.015 C 
HETATM    8  C4  UNL     1     -40.396  13.862   7.220  1.00 20.00     0.015 C 
ENDBRANCH   1   5
TORSDOF 2
ENDMDL
MODEL 9
REMARK VINA RESULT:      -3.5      2.178      3.397
REMARK  2 active torsions:
REMARK  status: ('A' for Active; 'I' for Inactive)
REMARK    1  A    between atoms: C1_1  and  C5_5 
REMARK    2  A    between atoms: C5_5  and  C6_6 
ROOT
HETATM    1  C5  UNL     1     -34.196   7.878   4.478  1.00 20.00     0.104 C 
ENDROOT
BRANCH   1   2
HETATM    2  C1  UNL     1     -34.185   6.678   5.412  1.00 20.00     0.219 C 
HETATM    3  O7  UNL     1     -33.708   6.747   6.542  1.00 20.00    -0.280 OA
HETATM    4 CL8  UNL     1     -34.906   5.260   4.705  1.00 20.00    -0.044 Cl
ENDBRANCH   1   2
BRANCH   1   5
HETATM    5  C6  UNL     1     -32.829   8.219   3.840  1.00 20.00    -0.044 C 
HETATM    6  C2  UNL     1     -32.194   6.982   3.185  1.00 20.00     0.015 C 
HETATM    7  C3  UNL     1     -33.064   9.282   2.750  1.00 20.00     0.015 C 
HETATM    8  C4  UNL     1     -31.855   8.799   4.879  1.00 20.00     0.015 C 
ENDBRANCH   1   5
TORSDOF 2
ENDMDL
