MODEL 1
REMARK VINA RESULT:      -4.3      0.000      0.000
REMARK  5 active torsions:
REMARK  status: ('A' for Active; 'I' for Inactive)
REMARK    1  A    between atoms: C1_1  and  C8_8 
REMARK    2  A    between atoms: C4_4  and  C6_6 
REMARK    3  A    between atoms: C5_5  and  C8_8 
REMARK    4  A    between atoms: C6_6  and  C7_7 
REMARK    5  A    between atoms: C7_7  and  C8_8 
ROOT
HETATM    1  C8  UNL     1     -34.017   6.500   4.189  1.00 20.00     0.072 C 
ENDROOT
BRANCH   1   2
HETATM    2  C1  UNL     1     -33.757   5.046   3.796  1.00 20.00     0.223 C 
HETATM    3  O9  UNL     1     -34.188   4.106   4.458  1.00 20.00    -0.279 OA
HETATM    4 CL10 UNL     1     -32.806   4.904   2.344  1.00 20.00    -0.043 Cl
ENDBRANCH   1   2
BRANCH   1   5
HETATM    5  C5  UNL     1     -34.620   6.555   5.604  1.00 20.00     0.009 C 
HETATM    6  C3  UNL     1     -33.804   7.417   6.559  1.00 20.00     0.006 C 
ENDBRANCH   1   5
BRANCH   1   7
HETATM    7  C7  UNL     1     -32.698   7.295   4.141  1.00 20.00     0.013 C 
BRANCH   7   8
HETATM    8  C6  UNL     1     -32.784   8.520   3.221  1.00 20.00     0.000 C 
BRANCH   8   9
HETATM    9  C4  UNL     1     -32.218   8.265   1.823  1.00 20.00    -0.005 C 
HETATM   10  C2  UNL     1     -32.691   9.270   0.784  1.00 20.00     0.005 C 
ENDBRANCH   8   9
ENDBRANCH   7   8
ENDBRANCH   1   7
TORSDOF 5
ENDMDL
MODEL 2
REMARK VINA RESULT:      -4.2      1.791      1.835
REMARK  5 active torsions:
REMARK  status: ('A' for Active; 'I' for Inactive)
REMARK    1  A    between atoms: C1_1  and  C8_8 
REMARK    2  A    between atoms: C4_4  and  C6_6 
REMARK    3  A    between atoms: C5_5  and  C8_8 
REMARK    4  A    between atoms: C6_6  and  C7_7 
REMARK    5  A    between atoms: C7_7  and  C8_8 
ROOT
HETATM    1  C8  UNL     1     -33.845   6.620   4.291  1.00 20.00     0.072 C 
ENDROOT
BRANCH   1   2
HETATM    2  C1  UNL     1     -34.255   5.281   4.905  1.00 20.00     0.223 C 
HETATM    3  O9  UNL     1     -34.209   4.232   4.268  1.00 20.00    -0.279 OA
HETATM    4 CL10 UNL     1     -34.773   5.433   6.560  1.00 20.00    -0.043 Cl
ENDBRANCH   1   2
BRANCH   1   5
HETATM    5  C5  UNL     1     -33.151   7.487   5.357  1.00 20.00     0.009 C 
HETATM    6  C3  UNL     1     -33.828   8.839   5.548  1.00 20.00     0.006 C 
ENDBRANCH   1   5
BRANCH   1   7
HETATM    7  C7  UNL     1     -32.895   6.377   3.102  1.00 20.00     0.013 C 
BRANCH   7   8
HETATM    8  C6  UNL     1     -32.057   7.614   2.757  1.00 20.00     0.000 C 
BRANCH   8   9
HETATM    9  C4  UNL     1     -32.136   8.003   1.279  1.00 20.00    -0.005 C 
HETATM   10  C2  UNL     1     -32.717   9.389   1.046  1.00 20.00     0.005 C 
ENDBRANCH   8   9
ENDBRANCH   7   8
ENDBRANCH   1   7
TORSDOF 5
ENDMDL
MODEL 3
REMARK VINA RESULT:      -4.2      2.600      4.320
REMARK  5 active torsions:
REMARK  status: ('A' for Active; 'I' for Inactive)
REMARK    1  A    between atoms: C1_1  and  C8_8 
REMARK    2  A    between atoms: C4_4  and  C6_6 
REMARK    3  A    between atoms: C5_5  and  C8_8 
REMARK    4  A    between atoms: C6_6  and  C7_7 
REMARK    5  A    between atoms: C7_7  and  C8_8 
ROOT
HETATM    1  C8  UNL     1     -32.947   7.840   3.088  1.00 20.00     0.072 C 
ENDROOT
BRANCH   1   2
HETATM    2  C1  UNL     1     -32.687   8.895   2.013  1.00 20.00     0.223 C 
HETATM    3  O9  UNL     1     -32.988  10.075   2.173  1.00 20.00    -0.279 OA
HETATM    4 CL10 UNL     1     -31.935   8.230   0.590  1.00 20.00    -0.043 Cl
ENDBRANCH   1   2
BRANCH   1   5
HETATM    5  C5  UNL     1     -32.136   6.570   2.775  1.00 20.00     0.009 C 
HETATM    6  C3  UNL     1     -33.005   5.321   2.694  1.00 20.00     0.006 C 
ENDBRANCH   1   5
BRANCH   1   7
HETATM    7  C7  UNL     1     -32.551   8.398   4.470  1.00 20.00     0.013 C 
BRANCH   7   8
HETATM    8  C6  UNL     1     -33.677   8.262   5.502  1.00 20.00     0.000 C 
BRANCH   8   9
HETATM    9  C4  UNL     1     -33.626   6.946   6.281  1.00 20.00    -0.005 C 
HETATM   10  C2  UNL     1     -34.707   5.956   5.873  1.00 20.00     0.005 C 
ENDBRANCH   8   9
ENDBRANCH   7   8
ENDBRANCH   1   7
TORSDOF 5
ENDMDL
MODEL 4
REMARK VINA RESULT:      -4.1      2.056      3.896
REMARK  5 active torsions:
REMARK  status: ('A' for Active; 'I' for Inactive)
REMARK    1  A    between atoms: C1_1  and  C8_8 
REMARK    2  A    between atoms: C4_4  and  C6_6 
REMARK    3  A    between atoms: C5_5  and  C8_8 
REMARK    4  A    between atoms: C6_6  and  C7_7 
REMARK    5  A    between atoms: C7_7  and  C8_8 
ROOT
HETATM    1  C8  UNL     1     -32.603   7.567   3.987  1.00 20.00     0.072 C 
ENDROOT
BRANCH   1   2
HETATM    2  C1  UNL     1     -32.451   6.949   2.598  1.00 20.00     0.223 C 
HETATM    3  O9  UNL     1     -32.094   7.610   1.627  1.00 20.00    -0.279 OA
HETATM    4 CL10 UNL     1     -32.835   5.250   2.575  1.00 20.00    -0.043 Cl
ENDBRANCH   1   2
BRANCH   1   5
HETATM    5  C5  UNL     1     -32.380   9.088   3.905  1.00 20.00     0.009 C 
HETATM    6  C3  UNL     1     -31.898   9.685   5.222  1.00 20.00     0.006 C 
ENDBRANCH   1   5
BRANCH   1   7
HETATM    7  C7  UNL     1     -34.010   7.264   4.540  1.00 20.00     0.013 C 
BRANCH   7   8
HETATM    8  C6  UNL     1     -34.011   7.051   6.058  1.00 20.00     0.000 C 
BRANCH   8   9
HETATM    9  C4  UNL     1     -34.443   5.641   6.469  1.00 20.00    -0.005 C 
HETATM   10  C2  UNL     1     -34.720   4.723   5.288  1.00 20.00     0.005 C 
ENDBRANCH   8   9
ENDBRANCH   7   8
ENDBRANCH   1   7
TORSDOF 5
ENDMDL
MODEL 5
REMARK VINA RESULT:      -4.1      2.775      4.488
REMARK  5 active torsions:
REMARK  status: ('A' for Active; 'I' for Inactive)
REMARK    1  A    between atoms: C1_1  and  C8_8 
REMARK    2  A    between atoms: C4_4  and  C6_6 
REMARK    3  A    between atoms: C5_5  and  C8_8 
REMARK    4  A    between atoms: C6_6  and  C7_7 
REMARK    5  A    between atoms: C7_7  and  C8_8 
ROOT
HETATM    1  C8  UNL     1     -33.052   7.748   3.714  1.00 20.00     0.072 C 
ENDROOT
BRANCH   1   2
HETATM    2  C1  UNL     1     -32.628   9.164   3.324  1.00 20.00     0.223 C 
HETATM    3  O9  UNL     1     -32.139   9.944   4.137  1.00 20.00    -0.279 OA
HETATM    4 CL10 UNL     1     -32.918   9.512   1.643  1.00 20.00    -0.043 Cl
ENDBRANCH   1   2
BRANCH   1   5
HETATM    5  C5  UNL     1     -32.226   6.722   2.918  1.00 20.00     0.009 C 
HETATM    6  C3  UNL     1     -32.983   5.424   2.666  1.00 20.00     0.006 C 
ENDBRANCH   1   5
BRANCH   1   7
HETATM    7  C7  UNL     1     -32.843   7.541   5.227  1.00 20.00     0.013 C 
BRANCH   7   8
HETATM    8  C6  UNL     1     -34.166   7.380   5.986  1.00 20.00     0.000 C 
BRANCH   8   9
HETATM    9  C4  UNL     1     -34.437   5.940   6.428  1.00 20.00    -0.005 C 
HETATM   10  C2  UNL     1     -35.013   5.065   5.326  1.00 20.00     0.005 C 
ENDBRANCH   8   9
ENDBRANCH   7   8
ENDBRANCH   1   7
TORSDOF 5
ENDMDL
MODEL 6
REMARK VINA RESULT:      -4.1      2.072      2.696
REMARK  5 active torsions:
REMARK  status: ('A' for Active; 'I' for Inactive)
REMARK    1  A    between atoms: C1_1  and  C8_8 
REMARK    2  A    between atoms: C4_4  and  C6_6 
REMARK    3  A    between atoms: C5_5  and  C8_8 
REMARK    4  A    between atoms: C6_6  and  C7_7 
REMARK    5  A    between atoms: C7_7  and  C8_8 
ROOT
HETATM    1  C8  UNL     1     -33.391   6.789   4.665  1.00 20.00     0.072 C 
ENDROOT
BRANCH   1   2
HETATM    2  C1  UNL     1     -34.128   6.576   5.987  1.00 20.00     0.223 C 
HETATM    3  O9  UNL     1     -34.268   7.479   6.807  1.00 20.00    -0.279 OA
HETATM    4 CL10 UNL     1     -34.721   4.948   6.169  1.00 20.00    -0.043 Cl
ENDBRANCH   1   2
BRANCH   1   5
HETATM    5  C5  UNL     1     -33.946   5.826   3.601  1.00 20.00     0.009 C 
HETATM    6  C3  UNL     1     -32.858   5.249   2.703  1.00 20.00     0.006 C 
ENDBRANCH   1   5
BRANCH   1   7
HETATM    7  C7  UNL     1     -33.565   8.250   4.204  1.00 20.00     0.013 C 
BRANCH   7   8
HETATM    8  C6  UNL     1     -32.404   8.729   3.323  1.00 20.00     0.000 C 
BRANCH   8   9
HETATM    9  C4  UNL     1     -32.865   9.339   1.998  1.00 20.00    -0.005 C 
HETATM   10  C2  UNL     1     -32.318   8.618   0.775  1.00 20.00     0.005 C 
ENDBRANCH   8   9
ENDBRANCH   7   8
ENDBRANCH   1   7
TORSDOF 5
ENDMDL
MODEL 7
REMARK VINA RESULT:      -4.0      2.607      4.164
REMARK  5 active torsions:
REMARK  status: ('A' for Active; 'I' for Inactive)
REMARK    1  A    between atoms: C1_1  and  C8_8 
REMARK    2  A    between atoms: C4_4  and  C6_6 
REMARK    3  A    between atoms: C5_5  and  C8_8 
REMARK    4  A    between atoms: C6_6  and  C7_7 
REMARK    5  A    between atoms: C7_7  and  C8_8 
ROOT
HETATM    1  C8  UNL     1     -32.296   7.479   3.169  1.00 20.00     0.072 C 
ENDROOT
BRANCH   1   2
HETATM    2  C1  UNL     1     -32.303   8.169   1.805  1.00 20.00     0.223 C 
HETATM    3  O9  UNL     1     -31.851   7.628   0.799  1.00 20.00    -0.279 OA
HETATM    4 CL10 UNL     1     -33.010   9.759   1.862  1.00 20.00    -0.043 Cl
ENDBRANCH   1   2
BRANCH   1   5
HETATM    5  C5  UNL     1     -33.156   8.283   4.161  1.00 20.00     0.009 C 
HETATM    6  C3  UNL     1     -32.329   8.947   5.254  1.00 20.00     0.006 C 
ENDBRANCH   1   5
BRANCH   1   7
HETATM    7  C7  UNL     1     -32.844   6.045   3.028  1.00 20.00     0.013 C 
BRANCH   7   8
HETATM    8  C6  UNL     1     -34.234   5.884   3.656  1.00 20.00     0.000 C 
BRANCH   8   9
HETATM    9  C4  UNL     1     -34.281   4.822   4.756  1.00 20.00    -0.005 C 
HETATM   10  C2  UNL     1     -34.583   5.389   6.135  1.00 20.00     0.005 C 
ENDBRANCH   8   9
ENDBRANCH   7   8
ENDBRANCH   1   7
TORSDOF 5
ENDMDL
MODEL 8
REMARK VINA RESULT:      -4.0     11.830     12.403
REMARK  5 active torsions:
REMARK  status: ('A' for Active; 'I' for Inactive)
REMARK    1  A    between atoms: C1_1  and  C8_8 
REMARK    2  A    between atoms: C4_4  and  C6_6 
REMARK    3  A    between atoms: C5_5  and  C8_8 
REMARK    4  A    between atoms: C6_6  and  C7_7 
REMARK    5  A    between atoms: C7_7  and  C8_8 
ROOT
HETATM    1  C8  UNL     1     -32.844  18.096  -0.319  1.00 20.00     0.072 C 
ENDROOT
BRANCH   1   2
HETATM    2  C1  UNL     1     -31.471  18.455   0.249  1.00 20.00     0.223 C 
HETATM    3  O9  UNL     1     -30.537  18.794  -0.472  1.00 20.00    -0.279 OA
HETATM    4 CL10 UNL     1     -31.409  18.325   1.985  1.00 20.00    -0.043 Cl
ENDBRANCH   1   2
BRANCH   1   5
HETATM    5  C5  UNL     1     -33.822  19.262  -0.088  1.00 20.00     0.009 C 
HETATM    6  C3  UNL     1     -34.727  19.043   1.117  1.00 20.00     0.006 C 
ENDBRANCH   1   5
BRANCH   1   7
HETATM    7  C7  UNL     1     -32.719  17.796  -1.826  1.00 20.00     0.013 C 
BRANCH   7   8
HETATM    8  C6  UNL     1     -33.565  16.591  -2.257  1.00 20.00     0.000 C 
BRANCH   8   9
HETATM    9  C4  UNL     1     -33.239  16.099  -3.668  1.00 20.00    -0.005 C 
HETATM   10  C2  UNL     1     -33.892  14.768  -4.013  1.00 20.00     0.005 C 
ENDBRANCH   8   9
ENDBRANCH   7   8
ENDBRANCH   1   7
TORSDOF 5
ENDMDL
MODEL 9
REMARK VINA RESULT:      -3.7     11.766     12.941
REMARK  5 active torsions:
REMARK  status: ('A' for Active; 'I' for Inactive)
REMARK    1  A    between atoms: C1_1  and  C8_8 
REMARK    2  A    between atoms: C4_4  and  C6_6 
REMARK    3  A    between atoms: C5_5  and  C8_8 
REMARK    4  A    between atoms: C6_6  and  C7_7 
REMARK    5  A    between atoms: C7_7  and  C8_8 
ROOT
HETATM    1  C8  UNL     1     -34.421  15.556  -5.622  1.00 20.00     0.072 C 
ENDROOT
BRANCH   1   2
HETATM    2  C1  UNL     1     -35.505  14.516  -5.903  1.00 20.00     0.223 C 
HETATM    3  O9  UNL     1     -36.014  14.391  -7.014  1.00 20.00    -0.279 OA
HETATM    4 CL10 UNL     1     -35.907  13.570  -4.498  1.00 20.00    -0.043 Cl
ENDBRANCH   1   2
BRANCH   1   5
HETATM    5  C5  UNL     1     -35.032  16.968  -5.669  1.00 20.00     0.009 C 
HETATM    6  C3  UNL     1     -34.577  17.767  -6.883  1.00 20.00     0.006 C 
ENDBRANCH   1   5
BRANCH   1   7
HETATM    7  C7  UNL     1     -33.796  15.293  -4.237  1.00 20.00     0.013 C 
BRANCH   7   8
HETATM    8  C6  UNL     1     -33.223  16.565  -3.600  1.00 20.00     0.000 C 
BRANCH   8   9
HETATM    9  C4  UNL     1     -33.538  16.687  -2.108  1.00 20.00    -0.005 C 
HETATM   10  C2  UNL     1     -32.799  17.826  -1.423  1.00 20.00     0.005 C 
ENDBRANCH   8   9
ENDBRANCH   7   8
ENDBRANCH   1   7
TORSDOF 5
ENDMDL
