MODEL 1
REMARK VINA RESULT:      -5.0      0.000      0.000
REMARK  1 active torsions:
REMARK  status: ('A' for Active; 'I' for Inactive)
REMARK    1  A    between atoms: C2_2  and  C3_3 
ROOT
HETATM    1  C3  UNL     1     -33.961   6.652   4.898  1.00 20.00     0.101 C 
HETATM    2  C4  UNL     1     -34.410   6.311   6.115  1.00 20.00     0.288 C 
HETATM    3  F5  UNL     1     -34.757   5.033   6.387  1.00 20.00    -0.171 F 
HETATM    4  F6  UNL     1     -34.524   7.239   7.090  1.00 20.00    -0.171 F 
HETATM    5 CL7  UNL     1     -33.835   5.414   3.685  1.00 20.00    -0.079 Cl
ENDROOT
BRANCH   1   6
HETATM    6  C2  UNL     1     -33.580   8.014   4.571  1.00 20.00     0.019 C 
HETATM    7  C1  UNL     1     -32.357   8.553   4.642  1.00 20.00     0.013 C 
ENDBRANCH   1   6
TORSDOF 1
ENDMDL
MODEL 2
REMARK VINA RESULT:      -4.8      1.588      2.389
REMARK  1 active torsions:
REMARK  status: ('A' for Active; 'I' for Inactive)
REMARK    1  A    between atoms: C2_2  and  C3_3 
ROOT
HETATM    1  C3  UNL     1     -33.967   6.520   4.813  1.00 20.00     0.101 C 
HETATM    2  C4  UNL     1     -34.444   6.274   6.042  1.00 20.00     0.288 C 
HETATM    3  F5  UNL     1     -34.479   7.252   6.975  1.00 20.00    -0.171 F 
HETATM    4  F6  UNL     1     -34.897   5.045   6.370  1.00 20.00    -0.171 F 
HETATM    5 CL7  UNL     1     -33.399   8.122   4.450  1.00 20.00    -0.079 Cl
ENDROOT
BRANCH   1   6
HETATM    6  C2  UNL     1     -33.913   5.494   3.788  1.00 20.00     0.019 C 
HETATM    7  C1  UNL     1     -32.999   5.364   2.819  1.00 20.00     0.013 C 
ENDBRANCH   1   6
TORSDOF 1
ENDMDL
MODEL 3
REMARK VINA RESULT:      -4.8      2.166      2.443
REMARK  1 active torsions:
REMARK  status: ('A' for Active; 'I' for Inactive)
REMARK    1  A    between atoms: C2_2  and  C3_3 
ROOT
HETATM    1  C3  UNL     1     -34.009   6.444   4.915  1.00 20.00     0.101 C 
HETATM    2  C4  UNL     1     -33.841   5.450   4.032  1.00 20.00     0.288 C 
HETATM    3  F5  UNL     1     -34.176   4.181   4.353  1.00 20.00    -0.171 F 
HETATM    4  F6  UNL     1     -33.333   5.700   2.805  1.00 20.00    -0.171 F 
HETATM    5 CL7  UNL     1     -34.667   6.062   6.477  1.00 20.00    -0.079 Cl
ENDROOT
BRANCH   1   6
HETATM    6  C2  UNL     1     -33.660   7.819   4.604  1.00 20.00     0.019 C 
HETATM    7  C1  UNL     1     -32.446   8.379   4.660  1.00 20.00     0.013 C 
ENDBRANCH   1   6
TORSDOF 1
ENDMDL
MODEL 4
REMARK VINA RESULT:      -4.7      1.931      2.951
REMARK  1 active torsions:
REMARK  status: ('A' for Active; 'I' for Inactive)
REMARK    1  A    between atoms: C2_2  and  C3_3 
ROOT
HETATM    1  C3  UNL     1     -33.643   6.733   4.263  1.00 20.00     0.101 C 
HETATM    2  C4  UNL     1     -33.237   7.972   4.576  1.00 20.00     0.288 C 
HETATM    3  F5  UNL     1     -32.234   8.562   3.887  1.00 20.00    -0.171 F 
HETATM    4  F6  UNL     1     -33.823   8.653   5.585  1.00 20.00    -0.171 F 
HETATM    5 CL7  UNL     1     -32.851   5.907   2.955  1.00 20.00    -0.079 Cl
ENDROOT
BRANCH   1   6
HETATM    6  C2  UNL     1     -34.716   6.070   4.981  1.00 20.00     0.019 C 
HETATM    7  C1  UNL     1     -34.636   5.447   6.164  1.00 20.00     0.013 C 
ENDBRANCH   1   6
TORSDOF 1
ENDMDL
MODEL 5
REMARK VINA RESULT:      -4.7      2.917      3.701
REMARK  1 active torsions:
REMARK  status: ('A' for Active; 'I' for Inactive)
REMARK    1  A    between atoms: C2_2  and  C3_3 
ROOT
HETATM    1  C3  UNL     1     -33.600   6.907   4.416  1.00 20.00     0.101 C 
HETATM    2  C4  UNL     1     -32.802   6.607   3.382  1.00 20.00     0.288 C 
HETATM    3  F5  UNL     1     -31.864   7.485   2.960  1.00 20.00    -0.171 F 
HETATM    4  F6  UNL     1     -32.920   5.423   2.743  1.00 20.00    -0.171 F 
HETATM    5 CL7  UNL     1     -33.400   8.445   5.199  1.00 20.00    -0.079 Cl
ENDROOT
BRANCH   1   6
HETATM    6  C2  UNL     1     -34.617   5.989   4.896  1.00 20.00     0.019 C 
HETATM    7  C1  UNL     1     -34.669   5.389   6.091  1.00 20.00     0.013 C 
ENDBRANCH   1   6
TORSDOF 1
ENDMDL
MODEL 6
REMARK VINA RESULT:      -4.4      2.254      2.911
REMARK  1 active torsions:
REMARK  status: ('A' for Active; 'I' for Inactive)
REMARK    1  A    between atoms: C2_2  and  C3_3 
ROOT
HETATM    1  C3  UNL     1     -33.380   6.597   4.019  1.00 20.00     0.101 C 
HETATM    2  C4  UNL     1     -33.614   5.337   3.625  1.00 20.00     0.288 C 
HETATM    3  F5  UNL     1     -32.952   4.812   2.569  1.00 20.00    -0.171 F 
HETATM    4  F6  UNL     1     -34.516   4.569   4.275  1.00 20.00    -0.171 F 
HETATM    5 CL7  UNL     1     -32.208   7.535   3.144  1.00 20.00    -0.079 Cl
ENDROOT
BRANCH   1   6
HETATM    6  C2  UNL     1     -34.073   7.192   5.147  1.00 20.00     0.019 C 
HETATM    7  C1  UNL     1     -33.983   6.834   6.434  1.00 20.00     0.013 C 
ENDBRANCH   1   6
TORSDOF 1
ENDMDL
MODEL 7
REMARK VINA RESULT:      -4.4      1.798      2.308
REMARK  1 active torsions:
REMARK  status: ('A' for Active; 'I' for Inactive)
REMARK    1  A    between atoms: C2_2  and  C3_3 
ROOT
HETATM    1  C3  UNL     1     -33.836   6.406   4.732  1.00 20.00     0.101 C 
HETATM    2  C4  UNL     1     -33.722   7.427   5.594  1.00 20.00     0.288 C 
HETATM    3  F5  UNL     1     -34.389   7.411   6.770  1.00 20.00    -0.171 F 
HETATM    4  F6  UNL     1     -32.939   8.488   5.303  1.00 20.00    -0.171 F 
HETATM    5 CL7  UNL     1     -34.858   5.068   5.162  1.00 20.00    -0.079 Cl
ENDROOT
BRANCH   1   6
HETATM    6  C2  UNL     1     -33.135   6.390   3.461  1.00 20.00     0.019 C 
HETATM    7  C1  UNL     1     -32.922   5.334   2.666  1.00 20.00     0.013 C 
ENDBRANCH   1   6
TORSDOF 1
ENDMDL
MODEL 8
REMARK VINA RESULT:      -4.4      2.802      3.121
REMARK  1 active torsions:
REMARK  status: ('A' for Active; 'I' for Inactive)
REMARK    1  A    between atoms: C2_2  and  C3_3 
ROOT
HETATM    1  C3  UNL     1     -33.654   6.027   4.150  1.00 20.00     0.101 C 
HETATM    2  C4  UNL     1     -32.940   5.969   3.017  1.00 20.00     0.288 C 
HETATM    3  F5  UNL     1     -32.865   4.820   2.310  1.00 20.00    -0.171 F 
HETATM    4  F6  UNL     1     -32.284   7.059   2.562  1.00 20.00    -0.171 F 
HETATM    5 CL7  UNL     1     -34.478   4.594   4.685  1.00 20.00    -0.079 Cl
ENDROOT
BRANCH   1   6
HETATM    6  C2  UNL     1     -33.757   7.245   4.935  1.00 20.00     0.019 C 
HETATM    7  C1  UNL     1     -33.956   7.344   6.255  1.00 20.00     0.013 C 
ENDBRANCH   1   6
TORSDOF 1
ENDMDL
MODEL 9
REMARK VINA RESULT:      -4.3      1.816      2.236
REMARK  1 active torsions:
REMARK  status: ('A' for Active; 'I' for Inactive)
REMARK    1  A    between atoms: C2_2  and  C3_3 
ROOT
HETATM    1  C3  UNL     1     -33.848   6.550   4.788  1.00 20.00     0.101 C 
HETATM    2  C4  UNL     1     -34.492   5.462   5.235  1.00 20.00     0.288 C 
HETATM    3  F5  UNL     1     -35.154   5.489   6.413  1.00 20.00    -0.171 F 
HETATM    4  F6  UNL     1     -34.490   4.319   4.515  1.00 20.00    -0.171 F 
HETATM    5 CL7  UNL     1     -33.886   7.991   5.758  1.00 20.00    -0.079 Cl
ENDROOT
BRANCH   1   6
HETATM    6  C2  UNL     1     -33.126   6.555   3.529  1.00 20.00     0.019 C 
HETATM    7  C1  UNL     1     -32.207   7.441   3.125  1.00 20.00     0.013 C 
ENDBRANCH   1   6
TORSDOF 1
ENDMDL
