MODEL 1
REMARK VINA RESULT:      -5.0      0.000      0.000
REMARK  2 active torsions:
REMARK  status: ('A' for Active; 'I' for Inactive)
REMARK    1  A    between atoms: C1_1  and  C5_5 
REMARK    2  A    between atoms: C4_4  and  C5_5 
ROOT
HETATM    1  C1  UNL     1     -33.908   6.943   5.632  1.00 20.00     0.164 C 
HETATM    2  C2  UNL     1     -34.824   5.984   5.462  1.00 20.00     0.301 C 
HETATM    3  F7  UNL     1     -33.236   6.971   6.806  1.00 20.00    -0.205 F 
HETATM    4  F8  UNL     1     -35.042   5.087   6.447  1.00 20.00    -0.170 F 
HETATM    5  F9  UNL     1     -35.532   5.903   4.315  1.00 20.00    -0.170 F 
ENDROOT
BRANCH   1   6
HETATM    6  C5  UNL     1     -33.584   7.996   4.614  1.00 20.00     0.110 C 
BRANCH   6   7
HETATM    7  C4  UNL     1     -32.341   7.726   3.821  1.00 20.00     0.151 A 
HETATM    8  C3  UNL     1     -32.319   7.897   2.328  1.00 20.00     0.200 A 
HETATM    9  O6  UNL     1     -32.430   6.601   2.939  1.00 20.00    -0.381 OA
ENDBRANCH   6   7
ENDBRANCH   1   6
TORSDOF 2
ENDMDL
MODEL 2
REMARK VINA RESULT:      -4.6      2.436      3.526
REMARK  2 active torsions:
REMARK  status: ('A' for Active; 'I' for Inactive)
REMARK    1  A    between atoms: C1_1  and  C5_5 
REMARK    2  A    between atoms: C4_4  and  C5_5 
ROOT
HETATM    1  C1  UNL     1     -33.387   8.012   5.221  1.00 20.00     0.164 C 
HETATM    2  C2  UNL     1     -32.765   8.007   4.037  1.00 20.00     0.301 C 
HETATM    3  F7  UNL     1     -33.961   9.167   5.627  1.00 20.00    -0.205 F 
HETATM    4  F8  UNL     1     -32.736   9.135   3.296  1.00 20.00    -0.170 F 
HETATM    5  F9  UNL     1     -32.169   6.888   3.576  1.00 20.00    -0.170 F 
ENDROOT
BRANCH   1   6
HETATM    6  C5  UNL     1     -33.480   6.825   6.134  1.00 20.00     0.110 C 
BRANCH   6   7
HETATM    7  C4  UNL     1     -34.669   5.947   5.887  1.00 20.00     0.151 A 
HETATM    8  C3  UNL     1     -34.611   4.815   4.901  1.00 20.00     0.200 A 
HETATM    9  O6  UNL     1     -35.237   6.067   4.578  1.00 20.00    -0.381 OA
ENDBRANCH   6   7
ENDBRANCH   1   6
TORSDOF 2
ENDMDL
MODEL 3
REMARK VINA RESULT:      -4.5      1.650      2.001
REMARK  2 active torsions:
REMARK  status: ('A' for Active; 'I' for Inactive)
REMARK    1  A    between atoms: C1_1  and  C5_5 
REMARK    2  A    between atoms: C4_4  and  C5_5 
ROOT
HETATM    1  C1  UNL     1     -34.327   5.922   5.075  1.00 20.00     0.164 C 
HETATM    2  C2  UNL     1     -33.974   5.043   4.132  1.00 20.00     0.301 C 
HETATM    3  F7  UNL     1     -34.833   5.437   6.232  1.00 20.00    -0.205 F 
HETATM    4  F8  UNL     1     -34.127   3.721   4.362  1.00 20.00    -0.170 F 
HETATM    5  F9  UNL     1     -33.466   5.461   2.954  1.00 20.00    -0.170 F 
ENDROOT
BRANCH   1   6
HETATM    6  C5  UNL     1     -34.210   7.411   4.932  1.00 20.00     0.110 C 
BRANCH   6   7
HETATM    7  C4  UNL     1     -32.832   7.949   5.174  1.00 20.00     0.151 A 
HETATM    8  C3  UNL     1     -32.357   9.206   4.502  1.00 20.00     0.200 A 
HETATM    9  O6  UNL     1     -31.966   7.905   4.035  1.00 20.00    -0.381 OA
ENDBRANCH   6   7
ENDBRANCH   1   6
TORSDOF 2
ENDMDL
MODEL 4
REMARK VINA RESULT:      -4.5      0.749      1.628
REMARK  2 active torsions:
REMARK  status: ('A' for Active; 'I' for Inactive)
REMARK    1  A    between atoms: C1_1  and  C5_5 
REMARK    2  A    between atoms: C4_4  and  C5_5 
ROOT
HETATM    1  C1  UNL     1     -34.185   6.494   4.921  1.00 20.00     0.164 C 
HETATM    2  C2  UNL     1     -34.502   6.253   6.197  1.00 20.00     0.301 C 
HETATM    3  F7  UNL     1     -34.320   5.479   4.036  1.00 20.00    -0.205 F 
HETATM    4  F8  UNL     1     -34.943   5.029   6.555  1.00 20.00    -0.170 F 
HETATM    5  F9  UNL     1     -34.388   7.221   7.131  1.00 20.00    -0.170 F 
ENDROOT
BRANCH   1   6
HETATM    6  C5  UNL     1     -33.680   7.809   4.406  1.00 20.00     0.110 C 
BRANCH   6   7
HETATM    7  C4  UNL     1     -32.352   7.734   3.716  1.00 20.00     0.151 A 
HETATM    8  C3  UNL     1     -32.197   8.142   2.278  1.00 20.00     0.200 A 
HETATM    9  O6  UNL     1     -32.279   6.761   2.668  1.00 20.00    -0.381 OA
ENDBRANCH   6   7
ENDBRANCH   1   6
TORSDOF 2
ENDMDL
MODEL 5
REMARK VINA RESULT:      -4.3      2.482      3.925
REMARK  2 active torsions:
REMARK  status: ('A' for Active; 'I' for Inactive)
REMARK    1  A    between atoms: C1_1  and  C5_5 
REMARK    2  A    between atoms: C4_4  and  C5_5 
ROOT
HETATM    1  C1  UNL     1     -32.655   7.329   3.526  1.00 20.00     0.164 C 
HETATM    2  C2  UNL     1     -32.536   8.277   4.461  1.00 20.00     0.301 C 
HETATM    3  F7  UNL     1     -32.321   7.652   2.255  1.00 20.00    -0.205 F 
HETATM    4  F8  UNL     1     -32.088   9.503   4.114  1.00 20.00    -0.170 F 
HETATM    5  F9  UNL     1     -32.856   8.022   5.746  1.00 20.00    -0.170 F 
ENDROOT
BRANCH   1   6
HETATM    6  C5  UNL     1     -33.146   5.936   3.789  1.00 20.00     0.110 C 
BRANCH   6   7
HETATM    7  C4  UNL     1     -34.476   5.869   4.475  1.00 20.00     0.151 A 
HETATM    8  C3  UNL     1     -34.598   5.380   5.891  1.00 20.00     0.200 A 
HETATM    9  O6  UNL     1     -34.928   4.543   4.771  1.00 20.00    -0.381 OA
ENDBRANCH   6   7
ENDBRANCH   1   6
TORSDOF 2
ENDMDL
MODEL 6
REMARK VINA RESULT:      -4.3      2.820      4.174
REMARK  2 active torsions:
REMARK  status: ('A' for Active; 'I' for Inactive)
REMARK    1  A    between atoms: C1_1  and  C5_5 
REMARK    2  A    between atoms: C4_4  and  C5_5 
ROOT
HETATM    1  C1  UNL     1     -32.766   6.820   3.275  1.00 20.00     0.164 C 
HETATM    2  C2  UNL     1     -32.404   7.897   2.570  1.00 20.00     0.301 C 
HETATM    3  F7  UNL     1     -32.568   5.605   2.715  1.00 20.00    -0.205 F 
HETATM    4  F8  UNL     1     -31.858   7.741   1.346  1.00 20.00    -0.170 F 
HETATM    5  F9  UNL     1     -32.577   9.139   3.071  1.00 20.00    -0.170 F 
ENDROOT
BRANCH   1   6
HETATM    6  C5  UNL     1     -33.386   6.869   4.640  1.00 20.00     0.110 C 
BRANCH   6   7
HETATM    7  C4  UNL     1     -34.623   6.036   4.787  1.00 20.00     0.151 A 
HETATM    8  C3  UNL     1     -34.887   5.248   6.038  1.00 20.00     0.200 A 
HETATM    9  O6  UNL     1     -34.388   4.625   4.844  1.00 20.00    -0.381 OA
ENDBRANCH   6   7
ENDBRANCH   1   6
TORSDOF 2
ENDMDL
MODEL 7
REMARK VINA RESULT:      -4.2      2.740      3.763
REMARK  2 active torsions:
REMARK  status: ('A' for Active; 'I' for Inactive)
REMARK    1  A    between atoms: C1_1  and  C5_5 
REMARK    2  A    between atoms: C4_4  and  C5_5 
ROOT
HETATM    1  C1  UNL     1     -32.865   8.112   4.192  1.00 20.00     0.164 C 
HETATM    2  C2  UNL     1     -32.471   7.261   3.239  1.00 20.00     0.301 C 
HETATM    3  F7  UNL     1     -32.187   9.276   4.317  1.00 20.00    -0.205 F 
HETATM    4  F8  UNL     1     -31.430   7.586   2.443  1.00 20.00    -0.170 F 
HETATM    5  F9  UNL     1     -33.103   6.081   3.064  1.00 20.00    -0.170 F 
ENDROOT
BRANCH   1   6
HETATM    6  C5  UNL     1     -34.002   7.858   5.138  1.00 20.00     0.110 C 
BRANCH   6   7
HETATM    7  C4  UNL     1     -33.767   6.731   6.097  1.00 20.00     0.151 A 
HETATM    8  C3  UNL     1     -34.552   5.453   6.004  1.00 20.00     0.200 A 
HETATM    9  O6  UNL     1     -34.863   6.462   6.979  1.00 20.00    -0.381 OA
ENDBRANCH   6   7
ENDBRANCH   1   6
TORSDOF 2
ENDMDL
MODEL 8
REMARK VINA RESULT:      -4.1      2.449      3.270
REMARK  2 active torsions:
REMARK  status: ('A' for Active; 'I' for Inactive)
REMARK    1  A    between atoms: C1_1  and  C5_5 
REMARK    2  A    between atoms: C4_4  and  C5_5 
ROOT
HETATM    1  C1  UNL     1     -33.821   5.313   3.856  1.00 20.00     0.164 C 
HETATM    2  C2  UNL     1     -33.003   5.406   2.803  1.00 20.00     0.301 C 
HETATM    3  F7  UNL     1     -34.121   4.076   4.314  1.00 20.00    -0.205 F 
HETATM    4  F8  UNL     1     -32.507   4.283   2.242  1.00 20.00    -0.170 F 
HETATM    5  F9  UNL     1     -32.668   6.611   2.295  1.00 20.00    -0.170 F 
ENDROOT
BRANCH   1   6
HETATM    6  C5  UNL     1     -34.438   6.487   4.558  1.00 20.00     0.110 C 
BRANCH   6   7
HETATM    7  C4  UNL     1     -33.529   7.170   5.535  1.00 20.00     0.151 A 
HETATM    8  C3  UNL     1     -33.521   8.666   5.676  1.00 20.00     0.200 A 
HETATM    9  O6  UNL     1     -32.504   7.971   4.937  1.00 20.00    -0.381 OA
ENDBRANCH   6   7
ENDBRANCH   1   6
TORSDOF 2
ENDMDL
MODEL 9
REMARK VINA RESULT:      -4.1      1.560      1.581
REMARK  2 active torsions:
REMARK  status: ('A' for Active; 'I' for Inactive)
REMARK    1  A    between atoms: C1_1  and  C5_5 
REMARK    2  A    between atoms: C4_4  and  C5_5 
ROOT
HETATM    1  C1  UNL     1     -34.194   6.533   5.740  1.00 20.00     0.164 C 
HETATM    2  C2  UNL     1     -34.682   5.297   5.883  1.00 20.00     0.301 C 
HETATM    3  F7  UNL     1     -34.371   7.403   6.760  1.00 20.00    -0.205 F 
HETATM    4  F8  UNL     1     -35.321   4.960   7.023  1.00 20.00    -0.170 F 
HETATM    5  F9  UNL     1     -34.541   4.382   4.901  1.00 20.00    -0.170 F 
ENDROOT
BRANCH   1   6
HETATM    6  C5  UNL     1     -33.472   7.024   4.519  1.00 20.00     0.110 C 
BRANCH   6   7
HETATM    7  C4  UNL     1     -33.364   8.515   4.423  1.00 20.00     0.151 A 
HETATM    8  C3  UNL     1     -32.367   9.166   3.506  1.00 20.00     0.200 A 
HETATM    9  O6  UNL     1     -32.134   9.056   4.920  1.00 20.00    -0.381 OA
ENDBRANCH   6   7
ENDBRANCH   1   6
TORSDOF 2
ENDMDL
