MODEL 1
REMARK VINA RESULT:      -3.8      0.000      0.000
REMARK  0 active torsions:
REMARK  status: ('A' for Active; 'I' for Inactive)
ROOT
HETATM    1  C1  UNL     1     -33.319   6.374   3.982  1.00 20.00     0.134 C 
HETATM    2  C2  UNL     1     -33.762   6.836   6.301  1.00 20.00     0.134 C 
HETATM    3  C3  UNL     1     -34.355   5.256   4.037  1.00 20.00     0.183 C 
HETATM    4  C4  UNL     1     -34.788   5.708   6.302  1.00 20.00     0.183 C 
HETATM    5  N5  UNL     1     -33.652   7.417   4.958  1.00 20.00    -0.224 NA
HETATM    6  O6  UNL     1     -34.423   4.705   5.352  1.00 20.00    -0.389 OA
HETATM    7 CL7  UNL     1     -32.502   8.758   4.910  1.00 20.00    -0.022 Cl
ENDROOT
TORSDOF 0
ENDMDL
MODEL 2
REMARK VINA RESULT:      -3.7      0.469      1.857
REMARK  0 active torsions:
REMARK  status: ('A' for Active; 'I' for Inactive)
ROOT
HETATM    1  C1  UNL     1     -34.192   6.888   6.257  1.00 20.00     0.134 C 
HETATM    2  C2  UNL     1     -33.662   6.506   3.941  1.00 20.00     0.134 C 
HETATM    3  C3  UNL     1     -34.547   5.411   6.390  1.00 20.00     0.183 C 
HETATM    4  C4  UNL     1     -34.028   5.037   4.128  1.00 20.00     0.183 C 
HETATM    5  N5  UNL     1     -33.184   7.072   5.208  1.00 20.00    -0.224 NA
HETATM    6  O6  UNL     1     -35.023   4.899   5.145  1.00 20.00    -0.389 OA
HETATM    7 CL7  UNL     1     -32.708   8.765   5.037  1.00 20.00    -0.022 Cl
ENDROOT
TORSDOF 0
ENDMDL
MODEL 3
REMARK VINA RESULT:      -3.6      2.148      2.605
REMARK  0 active torsions:
REMARK  status: ('A' for Active; 'I' for Inactive)
ROOT
HETATM    1  C1  UNL     1     -34.152   5.045   4.997  1.00 20.00     0.134 C 
HETATM    2  C2  UNL     1     -33.073   7.099   4.362  1.00 20.00     0.134 C 
HETATM    3  C3  UNL     1     -34.883   5.803   6.101  1.00 20.00     0.183 C 
HETATM    4  C4  UNL     1     -33.829   7.810   5.480  1.00 20.00     0.183 C 
HETATM    5  N5  UNL     1     -33.846   5.948   3.884  1.00 20.00    -0.224 NA
HETATM    6  O6  UNL     1     -34.095   6.905   6.553  1.00 20.00    -0.389 OA
HETATM    7 CL7  UNL     1     -33.032   5.110   2.558  1.00 20.00    -0.022 Cl
ENDROOT
TORSDOF 0
ENDMDL
MODEL 4
REMARK VINA RESULT:      -3.6      2.686      3.528
REMARK  0 active torsions:
REMARK  status: ('A' for Active; 'I' for Inactive)
ROOT
HETATM    1  C1  UNL     1     -33.552   7.288   5.589  1.00 20.00     0.134 C 
HETATM    2  C2  UNL     1     -33.018   6.177   3.523  1.00 20.00     0.134 C 
HETATM    3  C3  UNL     1     -32.831   8.529   5.075  1.00 20.00     0.183 C 
HETATM    4  C4  UNL     1     -32.310   7.445   3.056  1.00 20.00     0.183 C 
HETATM    5  N5  UNL     1     -34.090   6.516   4.465  1.00 20.00    -0.224 NA
HETATM    6  O6  UNL     1     -31.785   8.161   4.175  1.00 20.00    -0.389 OA
HETATM    7 CL7  UNL     1     -34.970   5.083   5.007  1.00 20.00    -0.022 Cl
ENDROOT
TORSDOF 0
ENDMDL
MODEL 5
REMARK VINA RESULT:      -3.6      1.389      2.103
REMARK  0 active torsions:
REMARK  status: ('A' for Active; 'I' for Inactive)
ROOT
HETATM    1  C1  UNL     1     -33.527   7.669   5.146  1.00 20.00     0.134 C 
HETATM    2  C2  UNL     1     -33.965   5.746   3.768  1.00 20.00     0.134 C 
HETATM    3  C3  UNL     1     -34.063   6.895   6.346  1.00 20.00     0.183 C 
HETATM    4  C4  UNL     1     -34.491   5.016   5.000  1.00 20.00     0.183 C 
HETATM    5  N5  UNL     1     -32.962   6.741   4.161  1.00 20.00    -0.224 NA
HETATM    6  O6  UNL     1     -35.047   5.948   5.929  1.00 20.00    -0.389 OA
HETATM    7 CL7  UNL     1     -32.291   7.590   2.763  1.00 20.00    -0.022 Cl
ENDROOT
TORSDOF 0
ENDMDL
MODEL 6
REMARK VINA RESULT:      -3.6      2.604      2.961
REMARK  0 active torsions:
REMARK  status: ('A' for Active; 'I' for Inactive)
ROOT
HETATM    1  C1  UNL     1     -32.504   7.675   3.482  1.00 20.00     0.134 C 
HETATM    2  C2  UNL     1     -34.127   6.334   4.647  1.00 20.00     0.134 C 
HETATM    3  C3  UNL     1     -32.394   8.563   4.717  1.00 20.00     0.183 C 
HETATM    4  C4  UNL     1     -33.979   7.252   5.856  1.00 20.00     0.183 C 
HETATM    5  N5  UNL     1     -32.881   6.313   3.873  1.00 20.00    -0.224 NA
HETATM    6  O6  UNL     1     -33.628   8.572   5.436  1.00 20.00    -0.389 OA
HETATM    7 CL7  UNL     1     -32.987   5.231   2.480  1.00 20.00    -0.022 Cl
ENDROOT
TORSDOF 0
ENDMDL
MODEL 7
REMARK VINA RESULT:      -3.5      2.643      3.021
REMARK  0 active torsions:
REMARK  status: ('A' for Active; 'I' for Inactive)
ROOT
HETATM    1  C1  UNL     1     -33.618   6.232   3.897  1.00 20.00     0.134 C 
HETATM    2  C2  UNL     1     -33.579   8.042   5.482  1.00 20.00     0.134 C 
HETATM    3  C3  UNL     1     -32.474   6.903   3.145  1.00 20.00     0.183 C 
HETATM    4  C4  UNL     1     -32.435   8.672   4.693  1.00 20.00     0.183 C 
HETATM    5  N5  UNL     1     -33.561   6.584   5.320  1.00 20.00    -0.224 NA
HETATM    6  O6  UNL     1     -32.532   8.320   3.312  1.00 20.00    -0.389 OA
HETATM    7 CL7  UNL     1     -34.845   5.801   6.246  1.00 20.00    -0.022 Cl
ENDROOT
TORSDOF 0
ENDMDL
MODEL 8
REMARK VINA RESULT:      -3.4      1.026      1.099
REMARK  0 active torsions:
REMARK  status: ('A' for Active; 'I' for Inactive)
ROOT
HETATM    1  C1  UNL     1     -32.548   6.684   3.480  1.00 20.00     0.134 C 
HETATM    2  C2  UNL     1     -33.980   6.829   5.408  1.00 20.00     0.134 C 
HETATM    3  C3  UNL     1     -33.399   5.525   2.971  1.00 20.00     0.183 C 
HETATM    4  C4  UNL     1     -34.798   5.667   4.854  1.00 20.00     0.183 C 
HETATM    5  N5  UNL     1     -33.361   7.579   4.309  1.00 20.00    -0.224 NA
HETATM    6  O6  UNL     1     -33.971   4.809   4.066  1.00 20.00    -0.389 OA
HETATM    7 CL7  UNL     1     -32.432   8.963   4.895  1.00 20.00    -0.022 Cl
ENDROOT
TORSDOF 0
ENDMDL
MODEL 9
REMARK VINA RESULT:      -3.4      2.447      2.856
REMARK  0 active torsions:
REMARK  status: ('A' for Active; 'I' for Inactive)
ROOT
HETATM    1  C1  UNL     1     -33.979   5.515   3.966  1.00 20.00     0.134 C 
HETATM    2  C2  UNL     1     -33.232   7.690   4.674  1.00 20.00     0.134 C 
HETATM    3  C3  UNL     1     -32.909   5.533   2.879  1.00 20.00     0.183 C 
HETATM    4  C4  UNL     1     -32.179   7.658   3.571  1.00 20.00     0.183 C 
HETATM    5  N5  UNL     1     -33.548   6.325   5.110  1.00 20.00    -0.224 NA
HETATM    6  O6  UNL     1     -32.639   6.874   2.468  1.00 20.00    -0.389 OA
HETATM    7 CL7  UNL     1     -34.737   6.307   6.417  1.00 20.00    -0.022 Cl
ENDROOT
TORSDOF 0
ENDMDL
