MODEL 1
REMARK VINA RESULT:      -3.4      0.000      0.000
REMARK  2 active torsions:
REMARK  status: ('A' for Active; 'I' for Inactive)
REMARK    1  A    between atoms: C2_2  and  C3_3 
REMARK    2  A    between atoms: C2_2  and  N4_4 
ROOT
HETATM    1  C1  UNL     1     -33.399   7.635   5.420  1.00 20.00     0.157 C 
HETATM    2  N4  UNL     1     -34.068   7.293   6.323  1.00 20.00    -0.274 NA
HETATM    3  S5  UNL     1     -32.492   8.126   4.207  1.00 20.00    -0.055 SA
ENDROOT
BRANCH   2   4
HETATM    4  C2  UNL     1     -34.447   5.879   6.309  1.00 20.00     0.165 C 
BRANCH   4   5
HETATM    5  C3  UNL     1     -35.010   5.509   4.948  1.00 20.00     0.136 C 
HETATM    6 CL6  UNL     1     -33.982   4.310   4.126  1.00 20.00    -0.129 Cl
ENDBRANCH   4   5
ENDBRANCH   2   4
TORSDOF 2
ENDMDL
MODEL 2
REMARK VINA RESULT:      -3.0      2.401      3.098
REMARK  2 active torsions:
REMARK  status: ('A' for Active; 'I' for Inactive)
REMARK    1  A    between atoms: C2_2  and  C3_3 
REMARK    2  A    between atoms: C2_2  and  N4_4 
ROOT
HETATM    1  C1  UNL     1     -34.166   6.375   5.591  1.00 20.00     0.157 C 
HETATM    2  N4  UNL     1     -33.760   7.372   6.064  1.00 20.00    -0.274 NA
HETATM    3  S5  UNL     1     -34.715   5.012   4.978  1.00 20.00    -0.055 SA
ENDROOT
BRANCH   2   4
HETATM    4  C2  UNL     1     -33.559   8.467   5.114  1.00 20.00     0.165 C 
BRANCH   4   5
HETATM    5  C3  UNL     1     -32.175   8.367   4.497  1.00 20.00     0.136 C 
HETATM    6 CL6  UNL     1     -32.221   7.495   2.944  1.00 20.00    -0.129 Cl
ENDBRANCH   4   5
ENDBRANCH   2   4
TORSDOF 2
ENDMDL
MODEL 3
REMARK VINA RESULT:      -3.0      2.127      2.278
REMARK  2 active torsions:
REMARK  status: ('A' for Active; 'I' for Inactive)
REMARK    1  A    between atoms: C2_2  and  C3_3 
REMARK    2  A    between atoms: C2_2  and  N4_4 
ROOT
HETATM    1  C1  UNL     1     -32.776   7.092   3.696  1.00 20.00     0.157 C 
HETATM    2  N4  UNL     1     -33.037   6.124   3.084  1.00 20.00    -0.274 NA
HETATM    3  S5  UNL     1     -32.409   8.417   4.501  1.00 20.00    -0.055 SA
ENDROOT
BRANCH   2   4
HETATM    4  C2  UNL     1     -33.761   5.097   3.837  1.00 20.00     0.165 C 
BRANCH   4   5
HETATM    5  C3  UNL     1     -34.917   5.729   4.591  1.00 20.00     0.136 C 
HETATM    6 CL6  UNL     1     -34.723   5.538   6.351  1.00 20.00    -0.129 Cl
ENDBRANCH   4   5
ENDBRANCH   2   4
TORSDOF 2
ENDMDL
MODEL 4
REMARK VINA RESULT:      -3.0      2.366      2.950
REMARK  2 active torsions:
REMARK  status: ('A' for Active; 'I' for Inactive)
REMARK    1  A    between atoms: C2_2  and  C3_3 
REMARK    2  A    between atoms: C2_2  and  N4_4 
ROOT
HETATM    1  C1  UNL     1     -33.975   7.182   5.412  1.00 20.00     0.157 C 
HETATM    2  N4  UNL     1     -33.623   8.096   4.763  1.00 20.00    -0.274 NA
HETATM    3  S5  UNL     1     -34.479   5.957   6.296  1.00 20.00    -0.055 SA
ENDROOT
BRANCH   2   4
HETATM    4  C2  UNL     1     -32.259   7.992   4.241  1.00 20.00     0.165 C 
BRANCH   4   5
HETATM    5  C3  UNL     1     -32.294   7.516   2.800  1.00 20.00     0.136 C 
HETATM    6 CL6  UNL     1     -32.710   5.787   2.699  1.00 20.00    -0.129 Cl
ENDBRANCH   4   5
ENDBRANCH   2   4
TORSDOF 2
ENDMDL
MODEL 5
REMARK VINA RESULT:      -3.0      2.582      2.901
REMARK  2 active torsions:
REMARK  status: ('A' for Active; 'I' for Inactive)
REMARK    1  A    between atoms: C2_2  and  C3_3 
REMARK    2  A    between atoms: C2_2  and  N4_4 
ROOT
HETATM    1  C1  UNL     1     -33.864   4.933   4.011  1.00 20.00     0.157 C 
HETATM    2  N4  UNL     1     -34.497   4.663   4.964  1.00 20.00    -0.274 NA
HETATM    3  S5  UNL     1     -33.003   5.268   2.715  1.00 20.00    -0.055 SA
ENDROOT
BRANCH   2   4
HETATM    4  C2  UNL     1     -35.042   5.814   5.687  1.00 20.00     0.165 C 
BRANCH   4   5
HETATM    5  C3  UNL     1     -33.910   6.629   6.287  1.00 20.00     0.136 C 
HETATM    6 CL6  UNL     1     -33.654   8.143   5.385  1.00 20.00    -0.129 Cl
ENDBRANCH   4   5
ENDBRANCH   2   4
TORSDOF 2
ENDMDL
MODEL 6
REMARK VINA RESULT:      -3.0      2.893      3.236
REMARK  2 active torsions:
REMARK  status: ('A' for Active; 'I' for Inactive)
REMARK    1  A    between atoms: C2_2  and  C3_3 
REMARK    2  A    between atoms: C2_2  and  N4_4 
ROOT
HETATM    1  C1  UNL     1     -32.523   6.793   3.119  1.00 20.00     0.157 C 
HETATM    2  N4  UNL     1     -32.187   7.898   3.338  1.00 20.00    -0.274 NA
HETATM    3  S5  UNL     1     -32.970   5.300   2.794  1.00 20.00    -0.055 SA
ENDROOT
BRANCH   2   4
HETATM    4  C2  UNL     1     -32.340   8.324   4.730  1.00 20.00     0.165 C 
BRANCH   4   5
HETATM    5  C3  UNL     1     -33.772   8.100   5.183  1.00 20.00     0.136 C 
HETATM    6 CL6  UNL     1     -33.863   6.847   6.446  1.00 20.00    -0.129 Cl
ENDBRANCH   4   5
ENDBRANCH   2   4
TORSDOF 2
ENDMDL
MODEL 7
REMARK VINA RESULT:      -2.9     13.125     13.376
REMARK  2 active torsions:
REMARK  status: ('A' for Active; 'I' for Inactive)
REMARK    1  A    between atoms: C2_2  and  C3_3 
REMARK    2  A    between atoms: C2_2  and  N4_4 
ROOT
HETATM    1  C1  UNL     1     -30.961  18.615   0.481  1.00 20.00     0.157 C 
HETATM    2  N4  UNL     1     -30.964  18.663  -0.693  1.00 20.00    -0.274 NA
HETATM    3  S5  UNL     1     -30.926  18.545   2.072  1.00 20.00    -0.055 SA
ENDROOT
BRANCH   2   4
HETATM    4  C2  UNL     1     -32.258  18.996  -1.291  1.00 20.00     0.165 C 
BRANCH   4   5
HETATM    5  C3  UNL     1     -33.296  17.964  -0.885  1.00 20.00     0.136 C 
HETATM    6 CL6  UNL     1     -33.443  16.679  -2.109  1.00 20.00    -0.129 Cl
ENDBRANCH   4   5
ENDBRANCH   2   4
TORSDOF 2
ENDMDL
MODEL 8
REMARK VINA RESULT:      -2.6      9.385      9.490
REMARK  2 active torsions:
REMARK  status: ('A' for Active; 'I' for Inactive)
REMARK    1  A    between atoms: C2_2  and  C3_3 
REMARK    2  A    between atoms: C2_2  and  N4_4 
ROOT
HETATM    1  C1  UNL     1     -40.831  14.062   7.543  1.00 20.00     0.157 C 
HETATM    2  N4  UNL     1     -41.084  12.925   7.389  1.00 20.00    -0.274 NA
HETATM    3  S5  UNL     1     -40.496  15.600   7.781  1.00 20.00    -0.055 SA
ENDROOT
BRANCH   2   4
HETATM    4  C2  UNL     1     -40.845  12.418   6.036  1.00 20.00     0.165 C 
BRANCH   4   5
HETATM    5  C3  UNL     1     -39.400  11.970   5.901  1.00 20.00     0.136 C 
HETATM    6 CL6  UNL     1     -38.976  11.656   4.200  1.00 20.00    -0.129 Cl
ENDBRANCH   4   5
ENDBRANCH   2   4
TORSDOF 2
ENDMDL
MODEL 9
REMARK VINA RESULT:      -2.6      3.381      3.910
REMARK  2 active torsions:
REMARK  status: ('A' for Active; 'I' for Inactive)
REMARK    1  A    between atoms: C2_2  and  C3_3 
REMARK    2  A    between atoms: C2_2  and  N4_4 
ROOT
HETATM    1  C1  UNL     1     -33.699   5.647   3.709  1.00 20.00     0.157 C 
HETATM    2  N4  UNL     1     -32.973   5.898   2.820  1.00 20.00    -0.274 NA
HETATM    3  S5  UNL     1     -34.693   5.282   4.899  1.00 20.00    -0.055 SA
ENDROOT
BRANCH   2   4
HETATM    4  C2  UNL     1     -32.110   7.060   3.040  1.00 20.00     0.165 C 
BRANCH   4   5
HETATM    5  C3  UNL     1     -32.947   8.246   3.486  1.00 20.00     0.136 C 
HETATM    6 CL6  UNL     1     -32.368   8.898   5.040  1.00 20.00    -0.129 Cl
ENDBRANCH   4   5
ENDBRANCH   2   4
TORSDOF 2
ENDMDL
