MODEL 1
REMARK VINA RESULT:      -4.2      0.000      0.000
REMARK  4 active torsions:
REMARK  status: ('A' for Active; 'I' for Inactive)
REMARK    1  A    between atoms: C1_1  and  C5_5 
REMARK    2  A    between atoms: C1_1  and  C8_8 
REMARK    3  A    between atoms: C6_6  and  C8_8 
REMARK    4  A    between atoms: C7_7  and  C8_8 
ROOT
HETATM    1  C8  UNL     1     -33.418   7.317   3.771  1.00 20.00     0.054 C 
ENDROOT
BRANCH   1   2
HETATM    2  C1  UNL     1     -33.955   5.909   4.052  1.00 20.00     0.130 C 
HETATM    3  O9  UNL     1     -33.515   4.920   3.467  1.00 20.00    -0.298 OA
BRANCH   2   4
HETATM    4  C5  UNL     1     -35.042   5.803   5.111  1.00 20.00     0.074 C 
HETATM    5  C2  UNL     1     -34.542   5.173   6.399  1.00 20.00     0.013 C 
ENDBRANCH   2   4
ENDBRANCH   1   2
BRANCH   1   6
HETATM    6  C6  UNL     1     -32.100   7.282   2.979  1.00 20.00     0.007 C 
HETATM    7  C3  UNL     1     -32.214   7.981   1.630  1.00 20.00     0.006 C 
ENDBRANCH   1   6
BRANCH   1   8
HETATM    8  C7  UNL     1     -33.298   8.110   5.085  1.00 20.00     0.007 C 
HETATM    9  C4  UNL     1     -32.189   9.155   5.107  1.00 20.00     0.006 C 
ENDBRANCH   1   8
TORSDOF 4
ENDMDL
MODEL 2
REMARK VINA RESULT:      -4.2      0.844      3.600
REMARK  4 active torsions:
REMARK  status: ('A' for Active; 'I' for Inactive)
REMARK    1  A    between atoms: C1_1  and  C5_5 
REMARK    2  A    between atoms: C1_1  and  C8_8 
REMARK    3  A    between atoms: C6_6  and  C8_8 
REMARK    4  A    between atoms: C7_7  and  C8_8 
ROOT
HETATM    1  C8  UNL     1     -33.951   6.620   4.357  1.00 20.00     0.054 C 
ENDROOT
BRANCH   1   2
HETATM    2  C1  UNL     1     -32.962   6.274   3.240  1.00 20.00     0.130 C 
HETATM    3  O9  UNL     1     -33.006   5.197   2.645  1.00 20.00    -0.298 OA
BRANCH   2   4
HETATM    4  C5  UNL     1     -31.939   7.346   2.892  1.00 20.00     0.074 C 
HETATM    5  C2  UNL     1     -32.260   8.056   1.588  1.00 20.00     0.013 C 
ENDBRANCH   2   4
ENDBRANCH   1   2
BRANCH   1   6
HETATM    6  C6  UNL     1     -33.278   7.402   5.498  1.00 20.00     0.007 C 
HETATM    7  C3  UNL     1     -33.700   8.866   5.527  1.00 20.00     0.006 C 
ENDBRANCH   1   6
BRANCH   1   8
HETATM    8  C7  UNL     1     -34.660   5.347   4.851  1.00 20.00     0.007 C 
HETATM    9  C4  UNL     1     -34.653   5.151   6.362  1.00 20.00     0.006 C 
ENDBRANCH   1   8
TORSDOF 4
ENDMDL
MODEL 3
REMARK VINA RESULT:      -4.1      0.540      2.157
REMARK  4 active torsions:
REMARK  status: ('A' for Active; 'I' for Inactive)
REMARK    1  A    between atoms: C1_1  and  C5_5 
REMARK    2  A    between atoms: C1_1  and  C8_8 
REMARK    3  A    between atoms: C6_6  and  C8_8 
REMARK    4  A    between atoms: C7_7  and  C8_8 
ROOT
HETATM    1  C8  UNL     1     -32.715   6.986   3.770  1.00 20.00     0.054 C 
ENDROOT
BRANCH   1   2
HETATM    2  C1  UNL     1     -33.691   5.807   3.828  1.00 20.00     0.130 C 
HETATM    3  O9  UNL     1     -33.507   4.780   3.174  1.00 20.00    -0.298 OA
BRANCH   2   4
HETATM    4  C5  UNL     1     -34.884   5.968   4.758  1.00 20.00     0.074 C 
HETATM    5  C2  UNL     1     -34.618   5.417   6.148  1.00 20.00     0.013 C 
ENDBRANCH   2   4
ENDBRANCH   1   2
BRANCH   1   6
HETATM    6  C6  UNL     1     -33.351   8.286   4.292  1.00 20.00     0.007 C 
HETATM    7  C3  UNL     1     -32.440   9.033   5.258  1.00 20.00     0.006 C 
ENDBRANCH   1   6
BRANCH   1   8
HETATM    8  C7  UNL     1     -32.148   7.136   2.347  1.00 20.00     0.007 C 
HETATM    9  C4  UNL     1     -32.449   8.468   1.671  1.00 20.00     0.006 C 
ENDBRANCH   1   8
TORSDOF 4
ENDMDL
MODEL 4
REMARK VINA RESULT:      -4.0      1.590      3.234
REMARK  4 active torsions:
REMARK  status: ('A' for Active; 'I' for Inactive)
REMARK    1  A    between atoms: C1_1  and  C5_5 
REMARK    2  A    between atoms: C1_1  and  C8_8 
REMARK    3  A    between atoms: C6_6  and  C8_8 
REMARK    4  A    between atoms: C7_7  and  C8_8 
ROOT
HETATM    1  C8  UNL     1     -33.727   6.748   5.128  1.00 20.00     0.054 C 
ENDROOT
BRANCH   1   2
HETATM    2  C1  UNL     1     -34.576   5.873   4.199  1.00 20.00     0.130 C 
HETATM    3  O9  UNL     1     -35.786   6.052   4.066  1.00 20.00    -0.298 OA
BRANCH   2   4
HETATM    4  C5  UNL     1     -33.832   4.787   3.435  1.00 20.00     0.074 C 
HETATM    5  C2  UNL     1     -32.778   5.351   2.499  1.00 20.00     0.013 C 
ENDBRANCH   2   4
ENDBRANCH   1   2
BRANCH   1   6
HETATM    6  C6  UNL     1     -34.188   6.647   6.592  1.00 20.00     0.007 C 
HETATM    7  C3  UNL     1     -34.727   5.264   6.938  1.00 20.00     0.006 C 
ENDBRANCH   1   6
BRANCH   1   8
HETATM    8  C7  UNL     1     -33.705   8.199   4.615  1.00 20.00     0.007 C 
HETATM    9  C4  UNL     1     -32.325   8.734   4.256  1.00 20.00     0.006 C 
ENDBRANCH   1   8
TORSDOF 4
ENDMDL
MODEL 5
REMARK VINA RESULT:      -4.0      1.727      4.139
REMARK  4 active torsions:
REMARK  status: ('A' for Active; 'I' for Inactive)
REMARK    1  A    between atoms: C1_1  and  C5_5 
REMARK    2  A    between atoms: C1_1  and  C8_8 
REMARK    3  A    between atoms: C6_6  and  C8_8 
REMARK    4  A    between atoms: C7_7  and  C8_8 
ROOT
HETATM    1  C8  UNL     1     -34.140   6.396   4.172  1.00 20.00     0.054 C 
ENDROOT
BRANCH   1   2
HETATM    2  C1  UNL     1     -33.482   7.669   4.714  1.00 20.00     0.130 C 
HETATM    3  O9  UNL     1     -33.946   8.278   5.678  1.00 20.00    -0.298 OA
BRANCH   2   4
HETATM    4  C5  UNL     1     -32.211   8.121   4.010  1.00 20.00     0.074 C 
HETATM    5  C2  UNL     1     -32.494   8.867   2.718  1.00 20.00     0.013 C 
ENDBRANCH   2   4
ENDBRANCH   1   2
BRANCH   1   6
HETATM    6  C6  UNL     1     -35.151   5.802   5.167  1.00 20.00     0.007 C 
HETATM    7  C3  UNL     1     -34.471   5.091   6.331  1.00 20.00     0.006 C 
ENDBRANCH   1   6
BRANCH   1   8
HETATM    8  C7  UNL     1     -33.062   5.381   3.748  1.00 20.00     0.007 C 
HETATM    9  C4  UNL     1     -33.012   5.081   2.255  1.00 20.00     0.006 C 
ENDBRANCH   1   8
TORSDOF 4
ENDMDL
MODEL 6
REMARK VINA RESULT:      -3.9      1.691      2.517
REMARK  4 active torsions:
REMARK  status: ('A' for Active; 'I' for Inactive)
REMARK    1  A    between atoms: C1_1  and  C5_5 
REMARK    2  A    between atoms: C1_1  and  C8_8 
REMARK    3  A    between atoms: C6_6  and  C8_8 
REMARK    4  A    between atoms: C7_7  and  C8_8 
ROOT
HETATM    1  C8  UNL     1     -32.757   6.945   3.726  1.00 20.00     0.054 C 
ENDROOT
BRANCH   1   2
HETATM    2  C1  UNL     1     -33.778   7.248   4.827  1.00 20.00     0.130 C 
HETATM    3  O9  UNL     1     -33.747   8.298   5.470  1.00 20.00    -0.298 OA
BRANCH   2   4
HETATM    4  C5  UNL     1     -34.846   6.191   5.062  1.00 20.00     0.074 C 
HETATM    5  C2  UNL     1     -34.567   5.342   6.290  1.00 20.00     0.013 C 
ENDBRANCH   2   4
ENDBRANCH   1   2
BRANCH   1   6
HETATM    6  C6  UNL     1     -32.204   8.230   3.086  1.00 20.00     0.007 C 
HETATM    7  C3  UNL     1     -32.180   8.157   1.564  1.00 20.00     0.006 C 
ENDBRANCH   1   6
BRANCH   1   8
HETATM    8  C7  UNL     1     -33.364   5.983   2.690  1.00 20.00     0.007 C 
HETATM    9  C4  UNL     1     -32.719   4.604   2.637  1.00 20.00     0.006 C 
ENDBRANCH   1   8
TORSDOF 4
ENDMDL
MODEL 7
REMARK VINA RESULT:      -3.9      2.011      2.917
REMARK  4 active torsions:
REMARK  status: ('A' for Active; 'I' for Inactive)
REMARK    1  A    between atoms: C1_1  and  C5_5 
REMARK    2  A    between atoms: C1_1  and  C8_8 
REMARK    3  A    between atoms: C6_6  and  C8_8 
REMARK    4  A    between atoms: C7_7  and  C8_8 
ROOT
HETATM    1  C8  UNL     1     -32.988   8.005   3.122  1.00 20.00     0.054 C 
ENDROOT
BRANCH   1   2
HETATM    2  C1  UNL     1     -32.891   8.387   4.602  1.00 20.00     0.130 C 
HETATM    3  O9  UNL     1     -31.918   8.991   5.054  1.00 20.00    -0.298 OA
BRANCH   2   4
HETATM    4  C5  UNL     1     -34.075   7.998   5.475  1.00 20.00     0.074 C 
HETATM    5  C2  UNL     1     -33.804   6.758   6.308  1.00 20.00     0.013 C 
ENDBRANCH   2   4
ENDBRANCH   1   2
BRANCH   1   6
HETATM    6  C6  UNL     1     -32.140   6.765   2.791  1.00 20.00     0.007 C 
HETATM    7  C3  UNL     1     -32.969   5.487   2.753  1.00 20.00     0.006 C 
ENDBRANCH   1   6
BRANCH   1   8
HETATM    8  C7  UNL     1     -32.634   9.215   2.238  1.00 20.00     0.007 C 
HETATM    9  C4  UNL     1     -32.561   8.922   0.745  1.00 20.00     0.006 C 
ENDBRANCH   1   8
TORSDOF 4
ENDMDL
MODEL 8
REMARK VINA RESULT:      -3.9      1.903      3.756
REMARK  4 active torsions:
REMARK  status: ('A' for Active; 'I' for Inactive)
REMARK    1  A    between atoms: C1_1  and  C5_5 
REMARK    2  A    between atoms: C1_1  and  C8_8 
REMARK    3  A    between atoms: C6_6  and  C8_8 
REMARK    4  A    between atoms: C7_7  and  C8_8 
ROOT
HETATM    1  C8  UNL     1     -33.075   6.831   4.520  1.00 20.00     0.054 C 
ENDROOT
BRANCH   1   2
HETATM    2  C1  UNL     1     -32.545   8.161   3.975  1.00 20.00     0.130 C 
HETATM    3  O9  UNL     1     -32.357   9.133   4.707  1.00 20.00    -0.298 OA
BRANCH   2   4
HETATM    4  C5  UNL     1     -32.242   8.204   2.485  1.00 20.00     0.074 C 
HETATM    5  C2  UNL     1     -32.863   9.408   1.798  1.00 20.00     0.013 C 
ENDBRANCH   2   4
ENDBRANCH   1   2
BRANCH   1   6
HETATM    6  C6  UNL     1     -33.831   6.030   3.446  1.00 20.00     0.007 C 
HETATM    7  C3  UNL     1     -32.953   4.978   2.779  1.00 20.00     0.006 C 
ENDBRANCH   1   6
BRANCH   1   8
HETATM    8  C7  UNL     1     -33.923   7.074   5.781  1.00 20.00     0.007 C 
HETATM    9  C4  UNL     1     -34.543   5.823   6.392  1.00 20.00     0.006 C 
ENDBRANCH   1   8
TORSDOF 4
ENDMDL
MODEL 9
REMARK VINA RESULT:      -3.8      0.740      3.494
REMARK  4 active torsions:
REMARK  status: ('A' for Active; 'I' for Inactive)
REMARK    1  A    between atoms: C1_1  and  C5_5 
REMARK    2  A    between atoms: C1_1  and  C8_8 
REMARK    3  A    between atoms: C6_6  and  C8_8 
REMARK    4  A    between atoms: C7_7  and  C8_8 
ROOT
HETATM    1  C8  UNL     1     -33.455   6.714   4.484  1.00 20.00     0.054 C 
ENDROOT
BRANCH   1   2
HETATM    2  C1  UNL     1     -32.808   6.396   3.133  1.00 20.00     0.130 C 
HETATM    3  O9  UNL     1     -33.046   5.350   2.530  1.00 20.00    -0.298 OA
BRANCH   2   4
HETATM    4  C5  UNL     1     -31.874   7.457   2.568  1.00 20.00     0.074 C 
HETATM    5  C2  UNL     1     -32.317   7.957   1.204  1.00 20.00     0.013 C 
ENDBRANCH   2   4
ENDBRANCH   1   2
BRANCH   1   6
HETATM    6  C6  UNL     1     -34.749   5.912   4.705  1.00 20.00     0.007 C 
HETATM    7  C3  UNL     1     -34.812   5.280   6.090  1.00 20.00     0.006 C 
ENDBRANCH   1   6
BRANCH   1   8
HETATM    8  C7  UNL     1     -33.670   8.232   4.625  1.00 20.00     0.007 C 
HETATM    9  C4  UNL     1     -32.550   8.978   5.338  1.00 20.00     0.006 C 
ENDBRANCH   1   8
TORSDOF 4
ENDMDL
