MODEL 1
REMARK VINA RESULT:      -5.4      0.000      0.000
REMARK  3 active torsions:
REMARK  status: ('A' for Active; 'I' for Inactive)
REMARK    1  A    between atoms: C2_2  and  C3_3 
REMARK    2  A    between atoms: C2_2  and  C4_4 
REMARK    3  A    between atoms: C3_3  and  O5_5 
ROOT
HETATM    1  C2  UNL     1     -34.252   6.870   5.961  1.00 20.00     0.379 C 
HETATM    2  F6  UNL     1     -33.227   6.414   6.734  1.00 20.00    -0.231 F 
ENDROOT
BRANCH   1   3
HETATM    3  C3  UNL     1     -33.754   8.082   5.196  1.00 20.00     0.393 C 
HETATM    4  F7  UNL     1     -34.020   9.204   5.914  1.00 20.00    -0.172 F 
HETATM    5  F8  UNL     1     -34.404   8.188   4.013  1.00 20.00    -0.172 F 
BRANCH   3   6
HETATM    6  O5  UNL     1     -32.355   8.007   4.963  1.00 20.00    -0.329 OA
HETATM    7  C1  UNL     1     -32.031   7.984   3.579  1.00 20.00     0.208 C 
ENDBRANCH   3   6
ENDBRANCH   1   3
BRANCH   1   8
HETATM    8  C4  UNL     1     -34.710   5.731   5.079  1.00 20.00     0.426 C 
HETATM    9  F9  UNL     1     -34.854   4.601   5.806  1.00 20.00    -0.168 F 
HETATM   10  F10 UNL     1     -33.818   5.471   4.101  1.00 20.00    -0.168 F 
HETATM   11  F11 UNL     1     -35.897   6.002   4.498  1.00 20.00    -0.168 F 
ENDBRANCH   1   8
TORSDOF 3
ENDMDL
MODEL 2
REMARK VINA RESULT:      -5.3      1.414      2.276
REMARK  3 active torsions:
REMARK  status: ('A' for Active; 'I' for Inactive)
REMARK    1  A    between atoms: C2_2  and  C3_3 
REMARK    2  A    between atoms: C2_2  and  C4_4 
REMARK    3  A    between atoms: C3_3  and  O5_5 
ROOT
HETATM    1  C2  UNL     1     -34.232   6.122   4.853  1.00 20.00     0.379 C 
HETATM    2  F6  UNL     1     -35.479   6.300   4.330  1.00 20.00    -0.231 F 
ENDROOT
BRANCH   1   3
HETATM    3  C3  UNL     1     -33.379   7.304   4.432  1.00 20.00     0.393 C 
HETATM    4  F7  UNL     1     -32.556   7.648   5.455  1.00 20.00    -0.172 F 
HETATM    5  F8  UNL     1     -34.163   8.373   4.158  1.00 20.00    -0.172 F 
BRANCH   3   6
HETATM    6  O5  UNL     1     -32.590   6.991   3.293  1.00 20.00    -0.329 OA
HETATM    7  C1  UNL     1     -32.831   5.680   2.801  1.00 20.00     0.208 C 
ENDBRANCH   3   6
ENDBRANCH   1   3
BRANCH   1   8
HETATM    8  C4  UNL     1     -34.376   5.969   6.350  1.00 20.00     0.426 C 
HETATM    9  F9  UNL     1     -35.414   5.154   6.642  1.00 20.00    -0.168 F 
HETATM   10  F10 UNL     1     -34.611   7.154   6.951  1.00 20.00    -0.168 F 
HETATM   11  F11 UNL     1     -33.266   5.435   6.901  1.00 20.00    -0.168 F 
ENDBRANCH   1   8
TORSDOF 3
ENDMDL
MODEL 3
REMARK VINA RESULT:      -5.3      0.020      1.135
REMARK  3 active torsions:
REMARK  status: ('A' for Active; 'I' for Inactive)
REMARK    1  A    between atoms: C2_2  and  C3_3 
REMARK    2  A    between atoms: C2_2  and  C4_4 
REMARK    3  A    between atoms: C3_3  and  O5_5 
ROOT
HETATM    1  C2  UNL     1     -34.238   6.871   5.970  1.00 20.00     0.379 C 
HETATM    2  F6  UNL     1     -33.210   6.418   6.743  1.00 20.00    -0.231 F 
ENDROOT
BRANCH   1   3
HETATM    3  C3  UNL     1     -33.745   8.085   5.206  1.00 20.00     0.393 C 
HETATM    4  F7  UNL     1     -34.013   9.205   5.924  1.00 20.00    -0.172 F 
HETATM    5  F8  UNL     1     -34.396   8.189   4.023  1.00 20.00    -0.172 F 
BRANCH   3   6
HETATM    6  O5  UNL     1     -32.345   8.014   4.971  1.00 20.00    -0.329 OA
HETATM    7  C1  UNL     1     -32.023   7.995   3.587  1.00 20.00     0.208 C 
ENDBRANCH   3   6
ENDBRANCH   1   3
BRANCH   1   8
HETATM    8  C4  UNL     1     -34.692   5.730   5.089  1.00 20.00     0.426 C 
HETATM    9  F9  UNL     1     -35.885   6.018   4.523  1.00 20.00    -0.168 F 
HETATM   10  F10 UNL     1     -34.841   4.588   5.791  1.00 20.00    -0.168 F 
HETATM   11  F11 UNL     1     -33.811   5.495   4.093  1.00 20.00    -0.168 F 
ENDBRANCH   1   8
TORSDOF 3
ENDMDL
MODEL 4
REMARK VINA RESULT:      -5.1      1.011      1.673
REMARK  3 active torsions:
REMARK  status: ('A' for Active; 'I' for Inactive)
REMARK    1  A    between atoms: C2_2  and  C3_3 
REMARK    2  A    between atoms: C2_2  and  C4_4 
REMARK    3  A    between atoms: C3_3  and  O5_5 
ROOT
HETATM    1  C2  UNL     1     -33.494   6.176   4.766  1.00 20.00     0.379 C 
HETATM    2  F6  UNL     1     -33.245   6.193   3.426  1.00 20.00    -0.231 F 
ENDROOT
BRANCH   1   3
HETATM    3  C3  UNL     1     -33.694   7.609   5.221  1.00 20.00     0.393 C 
HETATM    4  F7  UNL     1     -34.269   7.613   6.450  1.00 20.00    -0.172 F 
HETATM    5  F8  UNL     1     -34.530   8.256   4.374  1.00 20.00    -0.172 F 
BRANCH   3   6
HETATM    6  O5  UNL     1     -32.458   8.306   5.290  1.00 20.00    -0.329 OA
HETATM    7  C1  UNL     1     -32.240   9.149   4.166  1.00 20.00     0.208 C 
ENDBRANCH   3   6
ENDBRANCH   1   3
BRANCH   1   8
HETATM    8  C4  UNL     1     -34.691   5.283   5.003  1.00 20.00     0.426 C 
HETATM    9  F9  UNL     1     -34.513   4.087   4.398  1.00 20.00    -0.168 F 
HETATM   10  F10 UNL     1     -35.822   5.824   4.504  1.00 20.00    -0.168 F 
HETATM   11  F11 UNL     1     -34.884   5.053   6.318  1.00 20.00    -0.168 F 
ENDBRANCH   1   8
TORSDOF 3
ENDMDL
MODEL 5
REMARK VINA RESULT:      -5.1      1.667      3.128
REMARK  3 active torsions:
REMARK  status: ('A' for Active; 'I' for Inactive)
REMARK    1  A    between atoms: C2_2  and  C3_3 
REMARK    2  A    between atoms: C2_2  and  C4_4 
REMARK    3  A    between atoms: C3_3  and  O5_5 
ROOT
HETATM    1  C2  UNL     1     -34.094   5.817   5.835  1.00 20.00     0.379 C 
HETATM    2  F6  UNL     1     -35.167   5.479   6.604  1.00 20.00    -0.231 F 
ENDROOT
BRANCH   1   3
HETATM    3  C3  UNL     1     -34.368   5.343   4.420  1.00 20.00     0.393 C 
HETATM    4  F7  UNL     1     -35.661   5.607   4.103  1.00 20.00    -0.172 F 
HETATM    5  F8  UNL     1     -34.189   4.003   4.332  1.00 20.00    -0.172 F 
BRANCH   3   6
HETATM    6  O5  UNL     1     -33.523   5.996   3.483  1.00 20.00    -0.329 OA
HETATM    7  C1  UNL     1     -32.901   5.090   2.582  1.00 20.00     0.208 C 
ENDBRANCH   3   6
ENDBRANCH   1   3
BRANCH   1   8
HETATM    8  C4  UNL     1     -33.889   7.309   5.955  1.00 20.00     0.426 C 
HETATM    9  F9  UNL     1     -34.413   7.764   7.115  1.00 20.00    -0.168 F 
HETATM   10  F10 UNL     1     -34.493   7.977   4.950  1.00 20.00    -0.168 F 
HETATM   11  F11 UNL     1     -32.579   7.632   5.941  1.00 20.00    -0.168 F 
ENDBRANCH   1   8
TORSDOF 3
ENDMDL
MODEL 6
REMARK VINA RESULT:      -5.0      1.189      1.814
REMARK  3 active torsions:
REMARK  status: ('A' for Active; 'I' for Inactive)
REMARK    1  A    between atoms: C2_2  and  C3_3 
REMARK    2  A    between atoms: C2_2  and  C4_4 
REMARK    3  A    between atoms: C3_3  and  O5_5 
ROOT
HETATM    1  C2  UNL     1     -33.489   6.111   4.535  1.00 20.00     0.379 C 
HETATM    2  F6  UNL     1     -33.702   5.649   3.270  1.00 20.00    -0.231 F 
ENDROOT
BRANCH   1   3
HETATM    3  C3  UNL     1     -33.105   7.575   4.437  1.00 20.00     0.393 C 
HETATM    4  F7  UNL     1     -32.521   7.963   5.599  1.00 20.00    -0.172 F 
HETATM    5  F8  UNL     1     -34.211   8.337   4.258  1.00 20.00    -0.172 F 
BRANCH   3   6
HETATM    6  O5  UNL     1     -32.197   7.801   3.368  1.00 20.00    -0.329 OA
HETATM    7  C1  UNL     1     -32.604   8.864   2.518  1.00 20.00     0.208 C 
ENDBRANCH   3   6
ENDBRANCH   1   3
BRANCH   1   8
HETATM    8  C4  UNL     1     -34.744   5.856   5.338  1.00 20.00     0.426 C 
HETATM    9  F9  UNL     1     -34.769   4.579   5.781  1.00 20.00    -0.168 F 
HETATM   10  F10 UNL     1     -35.856   6.048   4.597  1.00 20.00    -0.168 F 
HETATM   11  F11 UNL     1     -34.816   6.666   6.414  1.00 20.00    -0.168 F 
ENDBRANCH   1   8
TORSDOF 3
ENDMDL
MODEL 7
REMARK VINA RESULT:      -5.0      0.910      1.840
REMARK  3 active torsions:
REMARK  status: ('A' for Active; 'I' for Inactive)
REMARK    1  A    between atoms: C2_2  and  C3_3 
REMARK    2  A    between atoms: C2_2  and  C4_4 
REMARK    3  A    between atoms: C3_3  and  O5_5 
ROOT
HETATM    1  C2  UNL     1     -34.147   6.507   4.891  1.00 20.00     0.379 C 
HETATM    2  F6  UNL     1     -35.436   6.409   4.459  1.00 20.00    -0.231 F 
ENDROOT
BRANCH   1   3
HETATM    3  C3  UNL     1     -33.690   7.937   4.669  1.00 20.00     0.393 C 
HETATM    4  F7  UNL     1     -33.853   8.642   5.817  1.00 20.00    -0.172 F 
HETATM    5  F8  UNL     1     -34.448   8.527   3.714  1.00 20.00    -0.172 F 
BRANCH   3   6
HETATM    6  O5  UNL     1     -32.323   7.989   4.287  1.00 20.00    -0.329 OA
HETATM    7  C1  UNL     1     -32.076   7.343   3.045  1.00 20.00     0.208 C 
ENDBRANCH   3   6
ENDBRANCH   1   3
BRANCH   1   8
HETATM    8  C4  UNL     1     -34.109   6.067   6.337  1.00 20.00     0.426 C 
HETATM    9  F9  UNL     1     -32.988   6.521   6.938  1.00 20.00    -0.168 F 
HETATM   10  F10 UNL     1     -34.111   4.722   6.447  1.00 20.00    -0.168 F 
HETATM   11  F11 UNL     1     -35.168   6.542   7.026  1.00 20.00    -0.168 F 
ENDBRANCH   1   8
TORSDOF 3
ENDMDL
MODEL 8
REMARK VINA RESULT:      -4.9      1.346      1.730
REMARK  3 active torsions:
REMARK  status: ('A' for Active; 'I' for Inactive)
REMARK    1  A    between atoms: C2_2  and  C3_3 
REMARK    2  A    between atoms: C2_2  and  C4_4 
REMARK    3  A    between atoms: C3_3  and  O5_5 
ROOT
HETATM    1  C2  UNL     1     -34.655   5.842   5.989  1.00 20.00     0.379 C 
HETATM    2  F6  UNL     1     -34.025   4.877   6.717  1.00 20.00    -0.231 F 
ENDROOT
BRANCH   1   3
HETATM    3  C3  UNL     1     -33.948   7.158   6.253  1.00 20.00     0.393 C 
HETATM    4  F7  UNL     1     -32.679   6.910   6.666  1.00 20.00    -0.172 F 
HETATM    5  F8  UNL     1     -34.577   7.836   7.244  1.00 20.00    -0.172 F 
BRANCH   3   6
HETATM    6  O5  UNL     1     -33.902   7.964   5.084  1.00 20.00    -0.329 OA
HETATM    7  C1  UNL     1     -32.665   8.649   4.939  1.00 20.00     0.208 C 
ENDBRANCH   3   6
ENDBRANCH   1   3
BRANCH   1   8
HETATM    8  C4  UNL     1     -34.637   5.414   4.540  1.00 20.00     0.426 C 
HETATM    9  F9  UNL     1     -34.546   4.069   4.447  1.00 20.00    -0.168 F 
HETATM   10  F10 UNL     1     -33.582   5.937   3.880  1.00 20.00    -0.168 F 
HETATM   11  F11 UNL     1     -35.760   5.796   3.897  1.00 20.00    -0.168 F 
ENDBRANCH   1   8
TORSDOF 3
ENDMDL
MODEL 9
REMARK VINA RESULT:      -4.9      1.890      3.586
REMARK  3 active torsions:
REMARK  status: ('A' for Active; 'I' for Inactive)
REMARK    1  A    between atoms: C2_2  and  C3_3 
REMARK    2  A    between atoms: C2_2  and  C4_4 
REMARK    3  A    between atoms: C3_3  and  O5_5 
ROOT
HETATM    1  C2  UNL     1     -33.563   7.485   4.215  1.00 20.00     0.379 C 
HETATM    2  F6  UNL     1     -33.199   6.272   3.709  1.00 20.00    -0.231 F 
ENDROOT
BRANCH   1   3
HETATM    3  C3  UNL     1     -33.932   7.288   5.673  1.00 20.00     0.393 C 
HETATM    4  F7  UNL     1     -34.383   8.463   6.182  1.00 20.00    -0.172 F 
HETATM    5  F8  UNL     1     -32.840   6.923   6.387  1.00 20.00    -0.172 F 
BRANCH   3   6
HETATM    6  O5  UNL     1     -34.945   6.304   5.821  1.00 20.00    -0.329 OA
HETATM    7  C1  UNL     1     -34.457   5.096   6.390  1.00 20.00     0.208 C 
ENDBRANCH   3   6
ENDBRANCH   1   3
BRANCH   1   8
HETATM    8  C4  UNL     1     -32.413   8.441   3.994  1.00 20.00     0.426 C 
HETATM    9  F9  UNL     1     -32.627   9.188   2.888  1.00 20.00    -0.168 F 
HETATM   10  F10 UNL     1     -31.247   7.785   3.819  1.00 20.00    -0.168 F 
HETATM   11  F11 UNL     1     -32.263   9.283   5.038  1.00 20.00    -0.168 F 
ENDBRANCH   1   8
TORSDOF 3
ENDMDL
