MODEL 1
REMARK VINA RESULT:      -3.9      0.000      0.000
REMARK  0 active torsions:
REMARK  status: ('A' for Active; 'I' for Inactive)
ROOT
HETATM    1  C1  UNL     1     -32.971   4.691   1.998  1.00 20.00     0.014 C 
HETATM    2  C2  UNL     1     -33.464   5.193   2.972  1.00 20.00    -0.091 C 
HETATM    3  C3  UNL     1     -34.524   6.823   6.806  1.00 20.00     0.000 C 
HETATM    4  C4  UNL     1     -33.862   7.772   5.805  1.00 20.00     0.003 C 
HETATM    5  C5  UNL     1     -33.958   5.414   6.717  1.00 20.00     0.003 C 
HETATM    6  C6  UNL     1     -33.293   7.071   4.568  1.00 20.00     0.039 C 
HETATM    7  C7  UNL     1     -34.122   4.793   5.325  1.00 20.00     0.039 C 
HETATM    8  C8  UNL     1     -34.068   5.809   4.166  1.00 20.00     0.099 C 
HETATM    9 CL9  UNL     1     -35.740   6.268   3.671  1.00 20.00    -0.105 Cl
ENDROOT
TORSDOF 0
ENDMDL
MODEL 2
REMARK VINA RESULT:      -3.7      1.475      3.042
REMARK  0 active torsions:
REMARK  status: ('A' for Active; 'I' for Inactive)
ROOT
HETATM    1  C1  UNL     1     -31.776   9.333   4.833  1.00 20.00     0.014 C 
HETATM    2  C2  UNL     1     -32.584   8.445   4.809  1.00 20.00    -0.091 C 
HETATM    3  C3  UNL     1     -34.850   4.793   4.885  1.00 20.00     0.000 C 
HETATM    4  C4  UNL     1     -34.692   5.541   6.210  1.00 20.00     0.003 C 
HETATM    5  C5  UNL     1     -33.600   4.886   4.024  1.00 20.00     0.003 C 
HETATM    6  C6  UNL     1     -33.677   6.688   6.158  1.00 20.00     0.039 C 
HETATM    7  C7  UNL     1     -33.216   6.331   3.686  1.00 20.00     0.039 C 
HETATM    8  C8  UNL     1     -33.576   7.356   4.780  1.00 20.00     0.099 C 
HETATM    9 CL9  UNL     1     -35.146   8.151   4.386  1.00 20.00    -0.105 Cl
ENDROOT
TORSDOF 0
ENDMDL
MODEL 3
REMARK VINA RESULT:      -3.7      1.889      2.743
REMARK  0 active torsions:
REMARK  status: ('A' for Active; 'I' for Inactive)
ROOT
HETATM    1  C1  UNL     1     -32.641   9.295   2.853  1.00 20.00     0.014 C 
HETATM    2  C2  UNL     1     -32.995   8.312   3.446  1.00 20.00    -0.091 C 
HETATM    3  C3  UNL     1     -34.707   5.307   5.998  1.00 20.00     0.000 C 
HETATM    4  C4  UNL     1     -35.467   5.644   4.714  1.00 20.00     0.003 C 
HETATM    5  C5  UNL     1     -34.052   6.533   6.614  1.00 20.00     0.003 C 
HETATM    6  C6  UNL     1     -34.936   6.883   3.986  1.00 20.00     0.039 C 
HETATM    7  C7  UNL     1     -33.061   7.218   5.666  1.00 20.00     0.039 C 
HETATM    8  C8  UNL     1     -33.429   7.107   4.173  1.00 20.00     0.099 C 
HETATM    9 CL9  UNL     1     -32.526   5.742   3.416  1.00 20.00    -0.105 Cl
ENDROOT
TORSDOF 0
ENDMDL
MODEL 4
REMARK VINA RESULT:      -3.6      9.603     10.720
REMARK  0 active torsions:
REMARK  status: ('A' for Active; 'I' for Inactive)
ROOT
HETATM    1  C1  UNL     1     -39.304  11.759   4.787  1.00 20.00     0.014 C 
HETATM    2  C2  UNL     1     -40.141  12.449   5.303  1.00 20.00    -0.091 C 
HETATM    3  C3  UNL     1     -42.891  14.577   7.830  1.00 20.00     0.000 C 
HETATM    4  C4  UNL     1     -41.522  15.218   7.597  1.00 20.00     0.003 C 
HETATM    5  C5  UNL     1     -42.804  13.061   7.921  1.00 20.00     0.003 C 
HETATM    6  C6  UNL     1     -40.517  14.297   6.898  1.00 20.00     0.039 C 
HETATM    7  C7  UNL     1     -42.213  12.423   6.658  1.00 20.00     0.039 C 
HETATM    8  C8  UNL     1     -41.168  13.296   5.935  1.00 20.00     0.099 C 
HETATM    9 CL9  UNL     1     -41.947  14.193   4.579  1.00 20.00    -0.105 Cl
ENDROOT
TORSDOF 0
ENDMDL
MODEL 5
REMARK VINA RESULT:      -3.6      9.790     10.989
REMARK  0 active torsions:
REMARK  status: ('A' for Active; 'I' for Inactive)
ROOT
HETATM    1  C1  UNL     1     -39.339  11.760   4.743  1.00 20.00     0.014 C 
HETATM    2  C2  UNL     1     -40.148  12.460   5.288  1.00 20.00    -0.091 C 
HETATM    3  C3  UNL     1     -42.601  15.572   6.954  1.00 20.00     0.000 C 
HETATM    4  C4  UNL     1     -42.950  15.090   5.545  1.00 20.00     0.003 C 
HETATM    5  C5  UNL     1     -41.100  15.585   7.197  1.00 20.00     0.003 C 
HETATM    6  C6  UNL     1     -41.896  14.167   4.925  1.00 20.00     0.039 C 
HETATM    7  C7  UNL     1     -40.455  14.206   7.017  1.00 20.00     0.039 C 
HETATM    8  C8  UNL     1     -41.140  13.319   5.957  1.00 20.00     0.099 C 
HETATM    9 CL9  UNL     1     -42.292  12.185   6.756  1.00 20.00    -0.105 Cl
ENDROOT
TORSDOF 0
ENDMDL
MODEL 6
REMARK VINA RESULT:      -3.6      1.290      3.348
REMARK  0 active torsions:
REMARK  status: ('A' for Active; 'I' for Inactive)
ROOT
HETATM    1  C1  UNL     1     -34.749   5.003   6.823  1.00 20.00     0.014 C 
HETATM    2  C2  UNL     1     -34.431   5.699   5.897  1.00 20.00    -0.091 C 
HETATM    3  C3  UNL     1     -32.559   8.148   2.902  1.00 20.00     0.000 C 
HETATM    4  C4  UNL     1     -32.588   6.640   2.648  1.00 20.00     0.003 C 
HETATM    5  C5  UNL     1     -32.364   8.478   4.373  1.00 20.00     0.003 C 
HETATM    6  C6  UNL     1     -33.042   5.817   3.858  1.00 20.00     0.039 C 
HETATM    7  C7  UNL     1     -33.461   7.888   5.266  1.00 20.00     0.039 C 
HETATM    8  C8  UNL     1     -34.042   6.552   4.761  1.00 20.00     0.099 C 
HETATM    9 CL9  UNL     1     -35.566   6.850   3.844  1.00 20.00    -0.105 Cl
ENDROOT
TORSDOF 0
ENDMDL
MODEL 7
REMARK VINA RESULT:      -3.4     13.145     14.305
REMARK  0 active torsions:
REMARK  status: ('A' for Active; 'I' for Inactive)
ROOT
HETATM    1  C1  UNL     1     -33.685  18.152   0.505  1.00 20.00     0.014 C 
HETATM    2  C2  UNL     1     -33.707  18.081  -0.693  1.00 20.00    -0.091 C 
HETATM    3  C3  UNL     1     -34.303  17.228  -4.864  1.00 20.00     0.000 C 
HETATM    4  C4  UNL     1     -35.251  18.240  -4.219  1.00 20.00     0.003 C 
HETATM    5  C5  UNL     1     -33.934  16.102  -3.911  1.00 20.00     0.003 C 
HETATM    6  C6  UNL     1     -35.141  18.308  -2.692  1.00 20.00     0.039 C 
HETATM    7  C7  UNL     1     -33.258  16.604  -2.630  1.00 20.00     0.039 C 
HETATM    8  C8  UNL     1     -33.734  17.996  -2.164  1.00 20.00     0.099 C 
HETATM    9 CL9  UNL     1     -32.587  19.263  -2.737  1.00 20.00    -0.105 Cl
ENDROOT
TORSDOF 0
ENDMDL
MODEL 8
REMARK VINA RESULT:      -3.4      9.328      9.847
REMARK  0 active torsions:
REMARK  status: ('A' for Active; 'I' for Inactive)
ROOT
HETATM    1  C1  UNL     1     -43.417   3.697  -2.027  1.00 20.00     0.014 C 
HETATM    2  C2  UNL     1     -43.009   4.474  -1.208  1.00 20.00    -0.091 C 
HETATM    3  C3  UNL     1     -41.447   7.748   1.099  1.00 20.00     0.000 C 
HETATM    4  C4  UNL     1     -42.962   7.704   0.892  1.00 20.00     0.003 C 
HETATM    5  C5  UNL     1     -40.688   7.261  -0.125  1.00 20.00     0.003 C 
HETATM    6  C6  UNL     1     -43.417   6.662  -0.135  1.00 20.00     0.039 C 
HETATM    7  C7  UNL     1     -41.051   5.824  -0.517  1.00 20.00     0.039 C 
HETATM    8  C8  UNL     1     -42.508   5.428  -0.202  1.00 20.00     0.099 C 
HETATM    9 CL9  UNL     1     -42.581   4.546   1.369  1.00 20.00    -0.105 Cl
ENDROOT
TORSDOF 0
ENDMDL
MODEL 9
REMARK VINA RESULT:      -3.3     13.746     14.680
REMARK  0 active torsions:
REMARK  status: ('A' for Active; 'I' for Inactive)
ROOT
HETATM    1  C1  UNL     1     -31.388  18.513  -0.411  1.00 20.00     0.014 C 
HETATM    2  C2  UNL     1     -32.269  18.352  -1.211  1.00 20.00    -0.091 C 
HETATM    3  C3  UNL     1     -35.523  18.570  -4.012  1.00 20.00     0.000 C 
HETATM    4  C4  UNL     1     -34.110  18.733  -4.573  1.00 20.00     0.003 C 
HETATM    5  C5  UNL     1     -35.669  19.205  -2.638  1.00 20.00     0.003 C 
HETATM    6  C6  UNL     1     -33.029  18.891  -3.498  1.00 20.00     0.039 C 
HETATM    7  C7  UNL     1     -34.699  18.619  -1.605  1.00 20.00     0.039 C 
HETATM    8  C8  UNL     1     -33.351  18.154  -2.191  1.00 20.00     0.099 C 
HETATM    9 CL9  UNL     1     -33.394  16.379  -2.503  1.00 20.00    -0.105 Cl
ENDROOT
TORSDOF 0
ENDMDL
