MODEL 1
REMARK VINA RESULT:      -4.5      0.000      0.000
REMARK  2 active torsions:
REMARK  status: ('A' for Active; 'I' for Inactive)
REMARK    1  A    between atoms: C3_3  and  C7_7 
REMARK    2  A    between atoms: C7_7  and  C8_8 
ROOT
HETATM    1  C1  UNL     1     -32.964   8.190   4.969  1.00 20.00     0.263 C 
HETATM    2  C2  UNL     1     -33.725   6.182   4.036  1.00 20.00     0.046 C 
HETATM    3  C3  UNL     1     -33.220   7.552   3.626  1.00 20.00     0.088 C 
HETATM    4  C4  UNL     1     -34.459   6.491   5.323  1.00 20.00     0.128 C 
HETATM    5  C5  UNL     1     -34.553   5.302   6.258  1.00 20.00     0.040 C 
HETATM    6  O9  UNL     1     -32.255   9.161   5.181  1.00 20.00    -0.265 OA
HETATM    7  O10 UNL     1     -33.679   7.530   5.933  1.00 20.00    -0.316 OA
ENDROOT
BRANCH   3   8
HETATM    8  C7  UNL     1     -31.977   7.485   2.760  1.00 20.00     0.014 C 
BRANCH   8   9
HETATM    9  C8  UNL     1     -32.218   8.101   1.382  1.00 20.00    -0.004 C 
HETATM   10  C6  UNL     1     -32.856   9.477   1.487  1.00 20.00     0.005 C 
ENDBRANCH   8   9
ENDBRANCH   3   8
TORSDOF 2
ENDMDL
MODEL 2
REMARK VINA RESULT:      -4.1      1.955      4.215
REMARK  2 active torsions:
REMARK  status: ('A' for Active; 'I' for Inactive)
REMARK    1  A    between atoms: C3_3  and  C7_7 
REMARK    2  A    between atoms: C7_7  and  C8_8 
ROOT
HETATM    1  C1  UNL     1     -32.991   6.138   3.221  1.00 20.00     0.263 C 
HETATM    2  C2  UNL     1     -33.962   7.568   4.800  1.00 20.00     0.046 C 
HETATM    3  C3  UNL     1     -34.315   6.406   3.891  1.00 20.00     0.088 C 
HETATM    4  C4  UNL     1     -32.915   8.296   3.984  1.00 20.00     0.128 C 
HETATM    5  C5  UNL     1     -31.963   9.119   4.830  1.00 20.00     0.040 C 
HETATM    6  O9  UNL     1     -32.668   5.107   2.650  1.00 20.00    -0.265 OA
HETATM    7  O10 UNL     1     -32.194   7.248   3.319  1.00 20.00    -0.316 OA
ENDROOT
BRANCH   3   8
HETATM    8  C7  UNL     1     -34.844   5.205   4.652  1.00 20.00     0.014 C 
BRANCH   8   9
HETATM    9  C8  UNL     1     -34.872   5.462   6.159  1.00 20.00    -0.004 C 
HETATM   10  C6  UNL     1     -33.566   5.054   6.821  1.00 20.00     0.005 C 
ENDBRANCH   8   9
ENDBRANCH   3   8
TORSDOF 2
ENDMDL
MODEL 3
REMARK VINA RESULT:      -4.1      1.024      4.083
REMARK  2 active torsions:
REMARK  status: ('A' for Active; 'I' for Inactive)
REMARK    1  A    between atoms: C3_3  and  C7_7 
REMARK    2  A    between atoms: C7_7  and  C8_8 
ROOT
HETATM    1  C1  UNL     1     -33.249   7.946   4.303  1.00 20.00     0.263 C 
HETATM    2  C2  UNL     1     -32.938   6.504   2.484  1.00 20.00     0.046 C 
HETATM    3  C3  UNL     1     -33.276   6.476   3.962  1.00 20.00     0.088 C 
HETATM    4  C4  UNL     1     -32.000   7.690   2.400  1.00 20.00     0.128 C 
HETATM    5  C5  UNL     1     -31.966   8.330   1.026  1.00 20.00     0.040 C 
HETATM    6  O9  UNL     1     -33.766   8.468   5.278  1.00 20.00    -0.265 OA
HETATM    7  O10 UNL     1     -32.522   8.621   3.358  1.00 20.00    -0.316 OA
ENDROOT
BRANCH   3   8
HETATM    8  C7  UNL     1     -34.619   5.830   4.245  1.00 20.00     0.014 C 
BRANCH   8   9
HETATM    9  C8  UNL     1     -34.526   4.820   5.388  1.00 20.00    -0.004 C 
HETATM   10  C6  UNL     1     -34.578   5.502   6.746  1.00 20.00     0.005 C 
ENDBRANCH   8   9
ENDBRANCH   3   8
TORSDOF 2
ENDMDL
MODEL 4
REMARK VINA RESULT:      -3.9     11.321     12.055
REMARK  2 active torsions:
REMARK  status: ('A' for Active; 'I' for Inactive)
REMARK    1  A    between atoms: C3_3  and  C7_7 
REMARK    2  A    between atoms: C7_7  and  C8_8 
ROOT
HETATM    1  C1  UNL     1     -33.238  18.772   0.344  1.00 20.00     0.263 C 
HETATM    2  C2  UNL     1     -30.974  18.501  -0.189  1.00 20.00     0.046 C 
HETATM    3  C3  UNL     1     -32.356  18.223  -0.749  1.00 20.00     0.088 C 
HETATM    4  C4  UNL     1     -31.201  18.337   1.298  1.00 20.00     0.128 C 
HETATM    5  C5  UNL     1     -30.208  19.109   2.144  1.00 20.00     0.040 C 
HETATM    6  O9  UNL     1     -34.415  19.080   0.234  1.00 20.00    -0.265 OA
HETATM    7  O10 UNL     1     -32.525  18.848   1.512  1.00 20.00    -0.316 OA
ENDROOT
BRANCH   3   8
HETATM    8  C7  UNL     1     -32.592  18.895  -2.089  1.00 20.00     0.014 C 
BRANCH   8   9
HETATM    9  C8  UNL     1     -33.320  17.968  -3.062  1.00 20.00    -0.004 C 
HETATM   10  C6  UNL     1     -33.342  16.533  -2.560  1.00 20.00     0.005 C 
ENDBRANCH   8   9
ENDBRANCH   3   8
TORSDOF 2
ENDMDL
MODEL 5
REMARK VINA RESULT:      -3.8     11.674     12.706
REMARK  2 active torsions:
REMARK  status: ('A' for Active; 'I' for Inactive)
REMARK    1  A    between atoms: C3_3  and  C7_7 
REMARK    2  A    between atoms: C7_7  and  C8_8 
ROOT
HETATM    1  C1  UNL     1     -32.999  18.852  -3.543  1.00 20.00     0.263 C 
HETATM    2  C2  UNL     1     -33.371  17.453  -1.703  1.00 20.00     0.046 C 
HETATM    3  C3  UNL     1     -34.037  17.911  -2.986  1.00 20.00     0.088 C 
HETATM    4  C4  UNL     1     -32.599  18.689  -1.294  1.00 20.00     0.128 C 
HETATM    5  C5  UNL     1     -31.397  18.383  -0.421  1.00 20.00     0.040 C 
HETATM    6  O9  UNL     1     -32.913  19.225  -4.703  1.00 20.00    -0.265 OA
HETATM    7  O10 UNL     1     -32.165  19.262  -2.536  1.00 20.00    -0.316 OA
ENDROOT
BRANCH   3   8
HETATM    8  C7  UNL     1     -34.354  16.762  -3.925  1.00 20.00     0.014 C 
BRANCH   8   9
HETATM    9  C8  UNL     1     -33.286  15.670  -3.859  1.00 20.00    -0.004 C 
HETATM   10  C6  UNL     1     -33.741  14.398  -4.556  1.00 20.00     0.005 C 
ENDBRANCH   8   9
ENDBRANCH   3   8
TORSDOF 2
ENDMDL
MODEL 6
REMARK VINA RESULT:      -3.8     11.695     12.440
REMARK  2 active torsions:
REMARK  status: ('A' for Active; 'I' for Inactive)
REMARK    1  A    between atoms: C3_3  and  C7_7 
REMARK    2  A    between atoms: C7_7  and  C8_8 
ROOT
HETATM    1  C1  UNL     1     -34.728  18.218  -2.780  1.00 20.00     0.263 C 
HETATM    2  C2  UNL     1     -33.307  16.358  -2.706  1.00 20.00     0.046 C 
HETATM    3  C3  UNL     1     -33.495  17.721  -2.067  1.00 20.00     0.088 C 
HETATM    4  C4  UNL     1     -33.803  16.602  -4.115  1.00 20.00     0.128 C 
HETATM    5  C5  UNL     1     -34.296  15.344  -4.802  1.00 20.00     0.040 C 
HETATM    6  O9  UNL     1     -35.467  19.114  -2.402  1.00 20.00    -0.265 OA
HETATM    7  O10 UNL     1     -34.889  17.526  -3.952  1.00 20.00    -0.316 OA
ENDROOT
BRANCH   3   8
HETATM    8  C7  UNL     1     -33.675  17.645  -0.563  1.00 20.00     0.014 C 
BRANCH   8   9
HETATM    9  C8  UNL     1     -32.767  18.636   0.163  1.00 20.00    -0.004 C 
HETATM   10  C6  UNL     1     -31.332  18.548  -0.332  1.00 20.00     0.005 C 
ENDBRANCH   8   9
ENDBRANCH   3   8
TORSDOF 2
ENDMDL
MODEL 7
REMARK VINA RESULT:      -3.8     11.501     12.073
REMARK  2 active torsions:
REMARK  status: ('A' for Active; 'I' for Inactive)
REMARK    1  A    between atoms: C3_3  and  C7_7 
REMARK    2  A    between atoms: C7_7  and  C8_8 
ROOT
HETATM    1  C1  UNL     1     -34.096  18.768   0.376  1.00 20.00     0.263 C 
HETATM    2  C2  UNL     1     -32.065  18.200  -0.642  1.00 20.00     0.046 C 
HETATM    3  C3  UNL     1     -32.631  19.125   0.418  1.00 20.00     0.088 C 
HETATM    4  C4  UNL     1     -33.205  18.128  -1.635  1.00 20.00     0.128 C 
HETATM    5  C5  UNL     1     -33.195  16.860  -2.467  1.00 20.00     0.040 C 
HETATM    6  O9  UNL     1     -34.918  18.996   1.250  1.00 20.00    -0.265 OA
HETATM    7  O10 UNL     1     -34.386  18.167  -0.821  1.00 20.00    -0.316 OA
ENDROOT
BRANCH   3   8
HETATM    8  C7  UNL     1     -32.010  18.904   1.784  1.00 20.00     0.014 C 
BRANCH   8   9
HETATM    9  C8  UNL     1     -30.626  18.264   1.675  1.00 20.00    -0.004 C 
HETATM   10  C6  UNL     1     -29.711  18.712   2.804  1.00 20.00     0.005 C 
ENDBRANCH   8   9
ENDBRANCH   3   8
TORSDOF 2
ENDMDL
MODEL 8
REMARK VINA RESULT:      -3.8     11.413     12.808
REMARK  2 active torsions:
REMARK  status: ('A' for Active; 'I' for Inactive)
REMARK    1  A    between atoms: C3_3  and  C7_7 
REMARK    2  A    between atoms: C7_7  and  C8_8 
ROOT
HETATM    1  C1  UNL     1     -33.800  14.959  -4.735  1.00 20.00     0.263 C 
HETATM    2  C2  UNL     1     -34.272  17.236  -5.011  1.00 20.00     0.046 C 
HETATM    3  C3  UNL     1     -34.126  16.189  -3.925  1.00 20.00     0.088 C 
HETATM    4  C4  UNL     1     -34.843  16.425  -6.153  1.00 20.00     0.128 C 
HETATM    5  C5  UNL     1     -34.547  17.018  -7.517  1.00 20.00     0.040 C 
HETATM    6  O9  UNL     1     -33.279  13.938  -4.316  1.00 20.00    -0.265 OA
HETATM    7  O10 UNL     1     -34.207  15.144  -6.030  1.00 20.00    -0.316 OA
ENDROOT
BRANCH   3   8
HETATM    8  C7  UNL     1     -33.046  16.534  -2.917  1.00 20.00     0.014 C 
BRANCH   8   9
HETATM    9  C8  UNL     1     -33.630  17.202  -1.672  1.00 20.00    -0.004 C 
HETATM   10  C6  UNL     1     -32.613  18.102  -0.990  1.00 20.00     0.005 C 
ENDBRANCH   8   9
ENDBRANCH   3   8
TORSDOF 2
ENDMDL
MODEL 9
REMARK VINA RESULT:      -3.8      1.692      2.401
REMARK  2 active torsions:
REMARK  status: ('A' for Active; 'I' for Inactive)
REMARK    1  A    between atoms: C3_3  and  C7_7 
REMARK    2  A    between atoms: C7_7  and  C8_8 
ROOT
HETATM    1  C1  UNL     1     -32.940   6.168   3.281  1.00 20.00     0.263 C 
HETATM    2  C2  UNL     1     -32.602   8.363   4.022  1.00 20.00     0.046 C 
HETATM    3  C3  UNL     1     -32.033   7.351   3.047  1.00 20.00     0.088 C 
HETATM    4  C4  UNL     1     -33.070   7.477   5.156  1.00 20.00     0.128 C 
HETATM    5  C5  UNL     1     -34.185   8.094   5.978  1.00 20.00     0.040 C 
HETATM    6  O9  UNL     1     -33.103   5.225   2.522  1.00 20.00    -0.265 OA
HETATM    7  O10 UNL     1     -33.545   6.290   4.504  1.00 20.00    -0.316 OA
ENDROOT
BRANCH   3   8
HETATM    8  C7  UNL     1     -32.060   7.839   1.611  1.00 20.00     0.014 C 
BRANCH   8   9
HETATM    9  C8  UNL     1     -32.735   9.205   1.494  1.00 20.00    -0.004 C 
HETATM   10  C6  UNL     1     -33.014   9.570   0.045  1.00 20.00     0.005 C 
ENDBRANCH   8   9
ENDBRANCH   3   8
TORSDOF 2
ENDMDL
