MODEL 1
REMARK VINA RESULT:      -4.3      0.000      0.000
REMARK  1 active torsions:
REMARK  status: ('A' for Active; 'I' for Inactive)
REMARK    1  A    between atoms: C2_2  and  C7_7 
ROOT
HETATM    1  C1  UNL     1     -32.997   7.932   4.796  1.00 20.00    -0.110 C 
HETATM    2  C2  UNL     1     -33.679   6.944   4.845  1.00 20.00    -0.098 C 
HETATM    3  C3  UNL     1     -32.168   9.135   4.738  1.00 20.00     0.112 C 
ENDROOT
BRANCH   2   4
HETATM    4  C7  UNL     1     -34.519   5.727   4.905  1.00 20.00     0.013 C 
HETATM    5  C4  UNL     1     -35.886   6.020   4.272  1.00 20.00     0.028 C 
HETATM    6  C5  UNL     1     -34.710   5.310   6.369  1.00 20.00     0.028 C 
HETATM    7  C6  UNL     1     -33.829   4.593   4.134  1.00 20.00     0.028 C 
ENDBRANCH   2   4
TORSDOF 1
ENDMDL
MODEL 2
REMARK VINA RESULT:      -4.3      0.004      1.642
REMARK  1 active torsions:
REMARK  status: ('A' for Active; 'I' for Inactive)
REMARK    1  A    between atoms: C2_2  and  C7_7 
ROOT
HETATM    1  C1  UNL     1     -32.997   7.936   4.799  1.00 20.00    -0.110 C 
HETATM    2  C2  UNL     1     -33.680   6.948   4.846  1.00 20.00    -0.098 C 
HETATM    3  C3  UNL     1     -32.168   9.139   4.741  1.00 20.00     0.112 C 
ENDROOT
BRANCH   2   4
HETATM    4  C7  UNL     1     -34.520   5.731   4.905  1.00 20.00     0.013 C 
HETATM    5  C4  UNL     1     -33.828   4.597   4.135  1.00 20.00     0.028 C 
HETATM    6  C5  UNL     1     -35.886   6.023   4.271  1.00 20.00     0.028 C 
HETATM    7  C6  UNL     1     -34.711   5.313   6.369  1.00 20.00     0.028 C 
ENDBRANCH   2   4
TORSDOF 1
ENDMDL
MODEL 3
REMARK VINA RESULT:      -4.3      0.001      1.642
REMARK  1 active torsions:
REMARK  status: ('A' for Active; 'I' for Inactive)
REMARK    1  A    between atoms: C2_2  and  C7_7 
ROOT
HETATM    1  C1  UNL     1     -32.998   7.933   4.797  1.00 20.00    -0.110 C 
HETATM    2  C2  UNL     1     -33.679   6.944   4.845  1.00 20.00    -0.098 C 
HETATM    3  C3  UNL     1     -32.168   9.135   4.739  1.00 20.00     0.112 C 
ENDROOT
BRANCH   2   4
HETATM    4  C7  UNL     1     -34.519   5.727   4.904  1.00 20.00     0.013 C 
HETATM    5  C4  UNL     1     -34.710   5.311   6.369  1.00 20.00     0.028 C 
HETATM    6  C5  UNL     1     -33.829   4.593   4.134  1.00 20.00     0.028 C 
HETATM    7  C6  UNL     1     -35.887   6.020   4.272  1.00 20.00     0.028 C 
ENDBRANCH   2   4
TORSDOF 1
ENDMDL
MODEL 4
REMARK VINA RESULT:      -3.3     12.175     13.235
REMARK  1 active torsions:
REMARK  status: ('A' for Active; 'I' for Inactive)
REMARK    1  A    between atoms: C2_2  and  C7_7 
ROOT
HETATM    1  C1  UNL     1     -33.328  16.063  -3.127  1.00 20.00    -0.110 C 
HETATM    2  C2  UNL     1     -33.298  16.947  -2.314  1.00 20.00    -0.098 C 
HETATM    3  C3  UNL     1     -33.367  14.988  -4.117  1.00 20.00     0.112 C 
ENDROOT
BRANCH   2   4
HETATM    4  C7  UNL     1     -33.260  18.036  -1.312  1.00 20.00     0.013 C 
HETATM    5  C4  UNL     1     -33.934  17.560  -0.017  1.00 20.00     0.028 C 
HETATM    6  C5  UNL     1     -34.006  19.259  -1.860  1.00 20.00     0.028 C 
HETATM    7  C6  UNL     1     -31.800  18.411  -1.022  1.00 20.00     0.028 C 
ENDBRANCH   2   4
TORSDOF 1
ENDMDL
MODEL 5
REMARK VINA RESULT:      -3.3      9.024     10.026
REMARK  1 active torsions:
REMARK  status: ('A' for Active; 'I' for Inactive)
REMARK    1  A    between atoms: C2_2  and  C7_7 
ROOT
HETATM    1  C1  UNL     1     -39.868  12.228   4.916  1.00 20.00    -0.110 C 
HETATM    2  C2  UNL     1     -40.670  12.758   5.636  1.00 20.00    -0.098 C 
HETATM    3  C3  UNL     1     -38.891  11.584   4.039  1.00 20.00     0.112 C 
ENDROOT
BRANCH   2   4
HETATM    4  C7  UNL     1     -41.659  13.411   6.523  1.00 20.00     0.013 C 
HETATM    5  C4  UNL     1     -42.665  12.364   7.022  1.00 20.00     0.028 C 
HETATM    6  C5  UNL     1     -42.401  14.504   5.743  1.00 20.00     0.028 C 
HETATM    7  C6  UNL     1     -40.934  14.037   7.722  1.00 20.00     0.028 C 
ENDBRANCH   2   4
TORSDOF 1
ENDMDL
MODEL 6
REMARK VINA RESULT:      -3.3      9.023      9.951
REMARK  1 active torsions:
REMARK  status: ('A' for Active; 'I' for Inactive)
REMARK    1  A    between atoms: C2_2  and  C7_7 
ROOT
HETATM    1  C1  UNL     1     -39.865  12.229   4.914  1.00 20.00    -0.110 C 
HETATM    2  C2  UNL     1     -40.666  12.760   5.636  1.00 20.00    -0.098 C 
HETATM    3  C3  UNL     1     -38.890  11.585   4.036  1.00 20.00     0.112 C 
ENDROOT
BRANCH   2   4
HETATM    4  C7  UNL     1     -41.653  13.413   6.525  1.00 20.00     0.013 C 
HETATM    5  C4  UNL     1     -42.394  14.509   5.745  1.00 20.00     0.028 C 
HETATM    6  C5  UNL     1     -40.926  14.037   7.723  1.00 20.00     0.028 C 
HETATM    7  C6  UNL     1     -42.661  12.368   7.022  1.00 20.00     0.028 C 
ENDBRANCH   2   4
TORSDOF 1
ENDMDL
MODEL 7
REMARK VINA RESULT:      -3.3     12.107     13.263
REMARK  1 active torsions:
REMARK  status: ('A' for Active; 'I' for Inactive)
REMARK    1  A    between atoms: C2_2  and  C7_7 
ROOT
HETATM    1  C1  UNL     1     -33.416  16.207  -3.046  1.00 20.00    -0.110 C 
HETATM    2  C2  UNL     1     -33.392  17.069  -2.209  1.00 20.00    -0.098 C 
HETATM    3  C3  UNL     1     -33.447  15.159  -4.065  1.00 20.00     0.112 C 
ENDROOT
BRANCH   2   4
HETATM    4  C7  UNL     1     -33.361  18.130  -1.178  1.00 20.00     0.013 C 
HETATM    5  C4  UNL     1     -31.940  18.704  -1.080  1.00 20.00     0.028 C 
HETATM    6  C5  UNL     1     -33.769  17.536   0.177  1.00 20.00     0.028 C 
HETATM    7  C6  UNL     1     -34.339  19.247  -1.566  1.00 20.00     0.028 C 
ENDBRANCH   2   4
TORSDOF 1
ENDMDL
MODEL 8
REMARK VINA RESULT:      -3.1     12.672     13.542
REMARK  1 active torsions:
REMARK  status: ('A' for Active; 'I' for Inactive)
REMARK    1  A    between atoms: C2_2  and  C7_7 
ROOT
HETATM    1  C1  UNL     1     -31.674  18.490  -0.216  1.00 20.00    -0.110 C 
HETATM    2  C2  UNL     1     -32.419  18.291  -1.137  1.00 20.00    -0.098 C 
HETATM    3  C3  UNL     1     -30.767  18.733   0.906  1.00 20.00     0.112 C 
ENDROOT
BRANCH   2   4
HETATM    4  C7  UNL     1     -33.337  18.046  -2.271  1.00 20.00     0.013 C 
HETATM    5  C4  UNL     1     -34.757  18.479  -1.880  1.00 20.00     0.028 C 
HETATM    6  C5  UNL     1     -33.333  16.551  -2.617  1.00 20.00     0.028 C 
HETATM    7  C6  UNL     1     -32.871  18.856  -3.489  1.00 20.00     0.028 C 
ENDBRANCH   2   4
TORSDOF 1
ENDMDL
MODEL 9
REMARK VINA RESULT:      -3.1     12.650     13.521
REMARK  1 active torsions:
REMARK  status: ('A' for Active; 'I' for Inactive)
REMARK    1  A    between atoms: C2_2  and  C7_7 
ROOT
HETATM    1  C1  UNL     1     -31.673  18.489  -0.186  1.00 20.00    -0.110 C 
HETATM    2  C2  UNL     1     -32.419  18.291  -1.107  1.00 20.00    -0.098 C 
HETATM    3  C3  UNL     1     -30.766  18.730   0.935  1.00 20.00     0.112 C 
ENDROOT
BRANCH   2   4
HETATM    4  C7  UNL     1     -33.338  18.048  -2.241  1.00 20.00     0.013 C 
HETATM    5  C4  UNL     1     -32.862  18.847  -3.462  1.00 20.00     0.028 C 
HETATM    6  C5  UNL     1     -34.754  18.495  -1.855  1.00 20.00     0.028 C 
HETATM    7  C6  UNL     1     -33.346  16.551  -2.579  1.00 20.00     0.028 C 
ENDBRANCH   2   4
TORSDOF 1
ENDMDL
