MODEL 1
REMARK VINA RESULT:      -3.7      0.000      0.000
REMARK  5 active torsions:
REMARK  status: ('A' for Active; 'I' for Inactive)
REMARK    1  A    between atoms: C1_1  and  C2_2 
REMARK    2  A    between atoms: C1_1  and  C3_3 
REMARK    3  A    between atoms: C2_2  and  P11_11 
REMARK    4  A    between atoms: C8_8  and  P11_11 
REMARK    5  A    between atoms: C9_9  and  P11_11 
ROOT
HETATM    1  O10 UNL     1     -33.685  15.042  -7.282  1.00 20.00    -0.317 OA
HETATM    2  P11 UNL     1     -34.352  15.369  -5.971  1.00 20.00     0.105 P 
ENDROOT
BRANCH   2   3
HETATM    3  C2  UNL     1     -33.566  15.192  -4.432  1.00 20.00     0.096 C 
BRANCH   3   4
HETATM    4  C1  UNL     1     -33.458  16.239  -3.670  1.00 20.00    -0.141 C 
BRANCH   4   5
HETATM    5  C3  UNL     1     -33.350  17.286  -2.899  1.00 20.00     0.026 C 
HETATM    6  C4  UNL     1     -32.940  18.632  -3.424  1.00 20.00     0.030 C 
HETATM    7  C5  UNL     1     -33.627  17.227  -1.424  1.00 20.00     0.030 C 
ENDBRANCH   4   5
ENDBRANCH   3   4
ENDBRANCH   2   3
BRANCH   2   8
HETATM    8  C8  UNL     1     -35.868  14.427  -5.778  1.00 20.00     0.073 C 
HETATM    9  C6  UNL     1     -35.866  13.580  -4.523  1.00 20.00     0.013 C 
ENDBRANCH   2   8
BRANCH   2  10
HETATM   10  C9  UNL     1     -34.925  17.070  -5.957  1.00 20.00     0.073 C 
HETATM   11  C7  UNL     1     -34.350  17.882  -7.099  1.00 20.00     0.013 C 
ENDBRANCH   2  10
TORSDOF 5
ENDMDL
MODEL 2
REMARK VINA RESULT:      -3.6      1.424      1.962
REMARK  5 active torsions:
REMARK  status: ('A' for Active; 'I' for Inactive)
REMARK    1  A    between atoms: C1_1  and  C2_2 
REMARK    2  A    between atoms: C1_1  and  C3_3 
REMARK    3  A    between atoms: C2_2  and  P11_11 
REMARK    4  A    between atoms: C8_8  and  P11_11 
REMARK    5  A    between atoms: C9_9  and  P11_11 
ROOT
HETATM    1  O10 UNL     1     -36.038  14.122  -6.777  1.00 20.00    -0.317 OA
HETATM    2  P11 UNL     1     -35.184  15.210  -6.179  1.00 20.00     0.105 P 
ENDROOT
BRANCH   2   3
HETATM    3  C2  UNL     1     -34.153  14.963  -4.803  1.00 20.00     0.096 C 
BRANCH   3   4
HETATM    4  C1  UNL     1     -33.848  15.988  -4.067  1.00 20.00    -0.141 C 
BRANCH   4   5
HETATM    5  C3  UNL     1     -33.546  17.022  -3.330  1.00 20.00     0.026 C 
HETATM    6  C4  UNL     1     -33.451  16.941  -1.833  1.00 20.00     0.030 C 
HETATM    7  C5  UNL     1     -33.270  18.375  -3.921  1.00 20.00     0.030 C 
ENDBRANCH   4   5
ENDBRANCH   3   4
ENDBRANCH   2   3
BRANCH   2   8
HETATM    8  C8  UNL     1     -36.190  16.617  -5.702  1.00 20.00     0.073 C 
HETATM    9  C6  UNL     1     -37.608  16.220  -5.350  1.00 20.00     0.013 C 
ENDBRANCH   2   8
BRANCH   2  10
HETATM   10  C9  UNL     1     -34.078  15.899  -7.414  1.00 20.00     0.073 C 
HETATM   11  C7  UNL     1     -34.344  17.367  -7.672  1.00 20.00     0.013 C 
ENDBRANCH   2  10
TORSDOF 5
ENDMDL
MODEL 3
REMARK VINA RESULT:      -3.5     12.451     13.933
REMARK  5 active torsions:
REMARK  status: ('A' for Active; 'I' for Inactive)
REMARK    1  A    between atoms: C1_1  and  C2_2 
REMARK    2  A    between atoms: C1_1  and  C3_3 
REMARK    3  A    between atoms: C2_2  and  P11_11 
REMARK    4  A    between atoms: C8_8  and  P11_11 
REMARK    5  A    between atoms: C9_9  and  P11_11 
ROOT
HETATM    1  O10 UNL     1     -43.027  15.929   6.717  1.00 20.00    -0.317 OA
HETATM    2  P11 UNL     1     -42.095  14.744   6.706  1.00 20.00     0.105 P 
ENDROOT
BRANCH   2   3
HETATM    3  C2  UNL     1     -41.723  13.839   5.271  1.00 20.00     0.096 C 
BRANCH   3   4
HETATM    4  C1  UNL     1     -40.675  13.072   5.279  1.00 20.00    -0.141 C 
BRANCH   4   5
HETATM    5  C3  UNL     1     -39.626  12.296   5.289  1.00 20.00     0.026 C 
HETATM    6  C4  UNL     1     -39.066  11.686   4.036  1.00 20.00     0.030 C 
HETATM    7  C5  UNL     1     -38.896  11.951   6.555  1.00 20.00     0.030 C 
ENDBRANCH   4   5
ENDBRANCH   3   4
ENDBRANCH   2   3
BRANCH   2   8
HETATM    8  C8  UNL     1     -42.652  13.489   7.862  1.00 20.00     0.073 C 
HETATM    9  C6  UNL     1     -43.286  12.304   7.166  1.00 20.00     0.013 C 
ENDBRANCH   2   8
BRANCH   2  10
HETATM   10  C9  UNL     1     -40.481  15.201   7.345  1.00 20.00     0.073 C 
HETATM   11  C7  UNL     1     -40.249  14.685   8.749  1.00 20.00     0.013 C 
ENDBRANCH   2  10
TORSDOF 5
ENDMDL
MODEL 4
REMARK VINA RESULT:      -3.5     12.529     14.164
REMARK  5 active torsions:
REMARK  status: ('A' for Active; 'I' for Inactive)
REMARK    1  A    between atoms: C1_1  and  C2_2 
REMARK    2  A    between atoms: C1_1  and  C3_3 
REMARK    3  A    between atoms: C2_2  and  P11_11 
REMARK    4  A    between atoms: C8_8  and  P11_11 
REMARK    5  A    between atoms: C9_9  and  P11_11 
ROOT
HETATM    1  O10 UNL     1     -40.332  13.791   8.456  1.00 20.00    -0.317 OA
HETATM    2  P11 UNL     1     -41.457  13.933   7.463  1.00 20.00     0.105 P 
ENDROOT
BRANCH   2   3
HETATM    3  C2  UNL     1     -41.414  13.243   5.870  1.00 20.00     0.096 C 
BRANCH   3   4
HETATM    4  C1  UNL     1     -40.309  12.696   5.463  1.00 20.00    -0.141 C 
BRANCH   4   5
HETATM    5  C3  UNL     1     -39.197  12.151   5.050  1.00 20.00     0.026 C 
HETATM    6  C4  UNL     1     -37.972  12.070   5.914  1.00 20.00     0.030 C 
HETATM    7  C5  UNL     1     -39.056  11.563   3.675  1.00 20.00     0.030 C 
ENDBRANCH   4   5
ENDBRANCH   3   4
ENDBRANCH   2   3
BRANCH   2   8
HETATM    8  C8  UNL     1     -41.821  15.665   7.160  1.00 20.00     0.073 C 
HETATM    9  C6  UNL     1     -40.812  16.589   7.809  1.00 20.00     0.013 C 
ENDBRANCH   2   8
BRANCH   2  10
HETATM   10  C9  UNL     1     -42.993  13.308   8.151  1.00 20.00     0.073 C 
HETATM   11  C7  UNL     1     -43.410  11.991   7.530  1.00 20.00     0.013 C 
ENDBRANCH   2  10
TORSDOF 5
ENDMDL
MODEL 5
REMARK VINA RESULT:      -3.4     12.373     13.926
REMARK  5 active torsions:
REMARK  status: ('A' for Active; 'I' for Inactive)
REMARK    1  A    between atoms: C1_1  and  C2_2 
REMARK    2  A    between atoms: C1_1  and  C3_3 
REMARK    3  A    between atoms: C2_2  and  P11_11 
REMARK    4  A    between atoms: C8_8  and  P11_11 
REMARK    5  A    between atoms: C9_9  and  P11_11 
ROOT
HETATM    1  O10 UNL     1     -42.334  12.823   8.248  1.00 20.00    -0.317 OA
HETATM    2  P11 UNL     1     -41.881  13.843   7.236  1.00 20.00     0.105 P 
ENDROOT
BRANCH   2   3
HETATM    3  C2  UNL     1     -41.527  13.450   5.582  1.00 20.00     0.096 C 
BRANCH   3   4
HETATM    4  C1  UNL     1     -40.414  12.835   5.317  1.00 20.00    -0.141 C 
BRANCH   4   5
HETATM    5  C3  UNL     1     -39.297  12.217   5.045  1.00 20.00     0.026 C 
HETATM    6  C4  UNL     1     -39.036  11.581   3.710  1.00 20.00     0.030 C 
HETATM    7  C5  UNL     1     -38.185  12.094   6.046  1.00 20.00     0.030 C 
ENDBRANCH   4   5
ENDBRANCH   3   4
ENDBRANCH   2   3
BRANCH   2   8
HETATM    8  C8  UNL     1     -40.393  14.677   7.797  1.00 20.00     0.073 C 
HETATM    9  C6  UNL     1     -40.327  14.787   9.305  1.00 20.00     0.013 C 
ENDBRANCH   2   8
BRANCH   2  10
HETATM   10  C9  UNL     1     -43.072  15.180   7.104  1.00 20.00     0.073 C 
HETATM   11  C7  UNL     1     -42.552  16.338   6.280  1.00 20.00     0.013 C 
ENDBRANCH   2  10
TORSDOF 5
ENDMDL
MODEL 6
REMARK VINA RESULT:      -3.4      2.451      3.216
REMARK  5 active torsions:
REMARK  status: ('A' for Active; 'I' for Inactive)
REMARK    1  A    between atoms: C1_1  and  C2_2 
REMARK    2  A    between atoms: C1_1  and  C3_3 
REMARK    3  A    between atoms: C2_2  and  P11_11 
REMARK    4  A    between atoms: C8_8  and  P11_11 
REMARK    5  A    between atoms: C9_9  and  P11_11 
ROOT
HETATM    1  O10 UNL     1     -33.141  18.746  -4.554  1.00 20.00    -0.317 OA
HETATM    2  P11 UNL     1     -33.953  17.693  -3.843  1.00 20.00     0.105 P 
ENDROOT
BRANCH   2   3
HETATM    3  C2  UNL     1     -33.395  16.855  -2.428  1.00 20.00     0.096 C 
BRANCH   3   4
HETATM    4  C1  UNL     1     -33.048  17.556  -1.392  1.00 20.00    -0.141 C 
BRANCH   4   5
HETATM    5  C3  UNL     1     -32.702  18.265  -0.352  1.00 20.00     0.026 C 
HETATM    6  C4  UNL     1     -33.684  18.653   0.717  1.00 20.00     0.030 C 
HETATM    7  C5  UNL     1     -31.296  18.748  -0.142  1.00 20.00     0.030 C 
ENDBRANCH   4   5
ENDBRANCH   3   4
ENDBRANCH   2   3
BRANCH   2   8
HETATM    8  C8  UNL     1     -34.396  16.367  -4.969  1.00 20.00     0.073 C 
HETATM    9  C6  UNL     1     -34.011  15.003  -4.436  1.00 20.00     0.013 C 
ENDBRANCH   2   8
BRANCH   2  10
HETATM   10  C9  UNL     1     -35.546  18.351  -3.341  1.00 20.00     0.073 C 
HETATM   11  C7  UNL     1     -36.604  18.179  -4.409  1.00 20.00     0.013 C 
ENDBRANCH   2  10
TORSDOF 5
ENDMDL
MODEL 7
REMARK VINA RESULT:      -3.3      2.285      3.714
REMARK  5 active torsions:
REMARK  status: ('A' for Active; 'I' for Inactive)
REMARK    1  A    between atoms: C1_1  and  C2_2 
REMARK    2  A    between atoms: C1_1  and  C3_3 
REMARK    3  A    between atoms: C2_2  and  P11_11 
REMARK    4  A    between atoms: C8_8  and  P11_11 
REMARK    5  A    between atoms: C9_9  and  P11_11 
ROOT
HETATM    1  O10 UNL     1     -35.817  18.152  -3.564  1.00 20.00    -0.317 OA
HETATM    2  P11 UNL     1     -34.491  17.652  -4.078  1.00 20.00     0.105 P 
ENDROOT
BRANCH   2   3
HETATM    3  C2  UNL     1     -33.294  16.911  -3.062  1.00 20.00     0.096 C 
BRANCH   3   4
HETATM    4  C1  UNL     1     -33.039  17.454  -1.910  1.00 20.00    -0.141 C 
BRANCH   4   5
HETATM    5  C3  UNL     1     -32.780  18.005  -0.755  1.00 20.00     0.026 C 
HETATM    6  C4  UNL     1     -33.824  18.161   0.313  1.00 20.00     0.030 C 
HETATM    7  C5  UNL     1     -31.415  18.525  -0.405  1.00 20.00     0.030 C 
ENDBRANCH   4   5
ENDBRANCH   3   4
ENDBRANCH   2   3
BRANCH   2   8
HETATM    8  C8  UNL     1     -33.590  18.971  -4.896  1.00 20.00     0.073 C 
HETATM    9  C6  UNL     1     -33.997  19.138  -6.344  1.00 20.00     0.013 C 
ENDBRANCH   2   8
BRANCH   2  10
HETATM   10  C9  UNL     1     -34.732  16.449  -5.389  1.00 20.00     0.073 C 
HETATM   11  C7  UNL     1     -34.178  15.087  -5.031  1.00 20.00     0.013 C 
ENDBRANCH   2  10
TORSDOF 5
ENDMDL
MODEL 8
REMARK VINA RESULT:      -3.3      1.736      2.287
REMARK  5 active torsions:
REMARK  status: ('A' for Active; 'I' for Inactive)
REMARK    1  A    between atoms: C1_1  and  C2_2 
REMARK    2  A    between atoms: C1_1  and  C3_3 
REMARK    3  A    between atoms: C2_2  and  P11_11 
REMARK    4  A    between atoms: C8_8  and  P11_11 
REMARK    5  A    between atoms: C9_9  and  P11_11 
ROOT
HETATM    1  O10 UNL     1     -36.722  14.369  -5.458  1.00 20.00    -0.317 OA
HETATM    2  P11 UNL     1     -35.656  15.411  -5.680  1.00 20.00     0.105 P 
ENDROOT
BRANCH   2   3
HETATM    3  C2  UNL     1     -34.092  15.349  -4.928  1.00 20.00     0.096 C 
BRANCH   3   4
HETATM    4  C1  UNL     1     -33.777  16.280  -4.078  1.00 20.00    -0.141 C 
BRANCH   4   5
HETATM    5  C3  UNL     1     -33.467  17.215  -3.222  1.00 20.00     0.026 C 
HETATM    6  C4  UNL     1     -33.061  18.595  -3.652  1.00 20.00     0.030 C 
HETATM    7  C5  UNL     1     -33.491  16.982  -1.739  1.00 20.00     0.030 C 
ENDBRANCH   4   5
ENDBRANCH   3   4
ENDBRANCH   2   3
BRANCH   2   8
HETATM    8  C8  UNL     1     -36.265  17.044  -5.249  1.00 20.00     0.073 C 
HETATM    9  C6  UNL     1     -36.249  17.996  -6.426  1.00 20.00     0.013 C 
ENDBRANCH   2   8
BRANCH   2  10
HETATM   10  C9  UNL     1     -35.275  15.567  -7.428  1.00 20.00     0.073 C 
HETATM   11  C7  UNL     1     -33.789  15.477  -7.705  1.00 20.00     0.013 C 
ENDBRANCH   2  10
TORSDOF 5
ENDMDL
MODEL 9
REMARK VINA RESULT:      -3.2     12.864     14.306
REMARK  5 active torsions:
REMARK  status: ('A' for Active; 'I' for Inactive)
REMARK    1  A    between atoms: C1_1  and  C2_2 
REMARK    2  A    between atoms: C1_1  and  C3_3 
REMARK    3  A    between atoms: C2_2  and  P11_11 
REMARK    4  A    between atoms: C8_8  and  P11_11 
REMARK    5  A    between atoms: C9_9  and  P11_11 
ROOT
HETATM    1  O10 UNL     1     -42.003  12.038   6.851  1.00 20.00    -0.317 OA
HETATM    2  P11 UNL     1     -40.945  12.993   6.361  1.00 20.00     0.105 P 
ENDROOT
BRANCH   2   3
HETATM    3  C2  UNL     1     -40.422  14.379   7.266  1.00 20.00     0.096 C 
BRANCH   3   4
HETATM    4  C1  UNL     1     -40.698  14.429   8.535  1.00 20.00    -0.141 C 
BRANCH   4   5
HETATM    5  C3  UNL     1     -40.979  14.483   9.808  1.00 20.00     0.026 C 
HETATM    6  C4  UNL     1     -42.182  13.801  10.394  1.00 20.00     0.030 C 
HETATM    7  C5  UNL     1     -40.122  15.233  10.787  1.00 20.00     0.030 C 
ENDBRANCH   4   5
ENDBRANCH   3   4
ENDBRANCH   2   3
BRANCH   2   8
HETATM    8  C8  UNL     1     -41.399  13.680   4.766  1.00 20.00     0.073 C 
HETATM    9  C6  UNL     1     -42.438  14.774   4.883  1.00 20.00     0.013 C 
ENDBRANCH   2   8
BRANCH   2  10
HETATM   10  C9  UNL     1     -39.416  12.120   6.009  1.00 20.00     0.073 C 
HETATM   11  C7  UNL     1     -39.276  11.769   4.543  1.00 20.00     0.013 C 
ENDBRANCH   2  10
TORSDOF 5
ENDMDL
