MODEL 1
REMARK VINA RESULT:      -4.5      0.000      0.000
REMARK  4 active torsions:
REMARK  status: ('A' for Active; 'I' for Inactive)
REMARK    1  A    between atoms: C1_1  and  C4_4 
REMARK    2  A    between atoms: C2_2  and  C8_8 
REMARK    3  A    between atoms: C8_8  and  C9_9 
REMARK    4  A    between atoms: C8_8  and  O10_10 
ROOT
HETATM    1  C8  UNL     1     -33.628  14.949  -4.104  1.00 20.00     0.200 C 
ENDROOT
BRANCH   1   2
HETATM    2  C2  UNL     1     -33.464  16.026  -3.117  1.00 20.00    -0.069 C 
HETATM    3  C1  UNL     1     -33.329  16.908  -2.312  1.00 20.00    -0.070 C 
BRANCH   3   4
HETATM    4  C4  UNL     1     -33.169  17.956  -1.356  1.00 20.00    -0.018 C 
HETATM    5  C3  UNL     1     -32.376  18.997  -1.652  1.00 20.00     0.028 C 
HETATM    6  C5  UNL     1     -33.894  17.861  -0.046  1.00 20.00     0.057 C 
ENDBRANCH   3   4
ENDBRANCH   1   2
BRANCH   1   7
HETATM    7  C9  UNL     1     -34.690  15.263  -5.179  1.00 20.00     0.018 C 
HETATM    8  C6  UNL     1     -35.882  14.299  -5.148  1.00 20.00     0.013 C 
HETATM    9  C7  UNL     1     -34.087  15.318  -6.584  1.00 20.00     0.013 C 
ENDBRANCH   1   7
BRANCH   1  10
HETATM   10  O10 UNL     1     -32.369  14.703  -4.726  1.00 20.00    -0.383 OA
HETATM   11  H24 UNL     1     -31.982  15.571  -4.918  1.00 20.00     0.211 HD
ENDBRANCH   1  10
TORSDOF 4
ENDMDL
MODEL 2
REMARK VINA RESULT:      -4.4      0.895      1.346
REMARK  4 active torsions:
REMARK  status: ('A' for Active; 'I' for Inactive)
REMARK    1  A    between atoms: C1_1  and  C4_4 
REMARK    2  A    between atoms: C2_2  and  C8_8 
REMARK    3  A    between atoms: C8_8  and  C9_9 
REMARK    4  A    between atoms: C8_8  and  O10_10 
ROOT
HETATM    1  C8  UNL     1     -33.534  15.370  -4.174  1.00 20.00     0.200 C 
ENDROOT
BRANCH   1   2
HETATM    2  C2  UNL     1     -33.343  16.270  -3.028  1.00 20.00    -0.069 C 
HETATM    3  C1  UNL     1     -33.190  17.006  -2.090  1.00 20.00    -0.070 C 
BRANCH   3   4
HETATM    4  C4  UNL     1     -33.008  17.880  -0.977  1.00 20.00    -0.018 C 
HETATM    5  C3  UNL     1     -34.039  18.110  -0.150  1.00 20.00     0.028 C 
HETATM    6  C5  UNL     1     -31.667  18.517  -0.766  1.00 20.00     0.057 C 
ENDBRANCH   3   4
ENDBRANCH   1   2
BRANCH   1   7
HETATM    7  C9  UNL     1     -34.188  16.059  -5.390  1.00 20.00     0.018 C 
HETATM    8  C6  UNL     1     -35.637  16.490  -5.131  1.00 20.00     0.013 C 
HETATM    9  C7  UNL     1     -34.107  15.198  -6.653  1.00 20.00     0.013 C 
ENDBRANCH   1   7
BRANCH   1  10
HETATM   10  O10 UNL     1     -32.267  14.832  -4.548  1.00 20.00    -0.383 OA
HETATM   11  H24 UNL     1     -32.223  14.877  -5.515  1.00 20.00     0.211 HD
ENDBRANCH   1  10
TORSDOF 4
ENDMDL
MODEL 3
REMARK VINA RESULT:      -4.1      2.496      5.675
REMARK  4 active torsions:
REMARK  status: ('A' for Active; 'I' for Inactive)
REMARK    1  A    between atoms: C1_1  and  C4_4 
REMARK    2  A    between atoms: C2_2  and  C8_8 
REMARK    3  A    between atoms: C8_8  and  C9_9 
REMARK    4  A    between atoms: C8_8  and  O10_10 
ROOT
HETATM    1  C8  UNL     1     -32.032  18.781  -0.536  1.00 20.00     0.200 C 
ENDROOT
BRANCH   1   2
HETATM    2  C2  UNL     1     -32.618  18.007  -1.641  1.00 20.00    -0.069 C 
HETATM    3  C1  UNL     1     -33.096  17.376  -2.545  1.00 20.00    -0.070 C 
BRANCH   3   4
HETATM    4  C4  UNL     1     -33.665  16.628  -3.618  1.00 20.00    -0.018 C 
HETATM    5  C3  UNL     1     -33.213  15.389  -3.865  1.00 20.00     0.028 C 
HETATM    6  C5  UNL     1     -34.753  17.251  -4.441  1.00 20.00     0.057 C 
ENDBRANCH   3   4
ENDBRANCH   1   2
BRANCH   1   7
HETATM    7  C9  UNL     1     -32.654  18.451   0.838  1.00 20.00     0.018 C 
HETATM    8  C6  UNL     1     -34.148  18.788   0.919  1.00 20.00     0.013 C 
HETATM    9  C7  UNL     1     -31.894  19.118   1.987  1.00 20.00     0.013 C 
ENDBRANCH   1   7
BRANCH   1  10
HETATM   10  O10 UNL     1     -30.628  18.536  -0.502  1.00 20.00    -0.383 OA
HETATM   11  H24 UNL     1     -30.211  19.253  -1.005  1.00 20.00     0.211 HD
ENDBRANCH   1  10
TORSDOF 4
ENDMDL
MODEL 4
REMARK VINA RESULT:      -3.9      1.624      2.222
REMARK  4 active torsions:
REMARK  status: ('A' for Active; 'I' for Inactive)
REMARK    1  A    between atoms: C1_1  and  C4_4 
REMARK    2  A    between atoms: C2_2  and  C8_8 
REMARK    3  A    between atoms: C8_8  and  C9_9 
REMARK    4  A    between atoms: C8_8  and  O10_10 
ROOT
HETATM    1  C8  UNL     1     -34.291  16.837  -4.487  1.00 20.00     0.200 C 
ENDROOT
BRANCH   1   2
HETATM    2  C2  UNL     1     -33.815  17.255  -3.160  1.00 20.00    -0.069 C 
HETATM    3  C1  UNL     1     -33.429  17.596  -2.075  1.00 20.00    -0.070 C 
BRANCH   3   4
HETATM    4  C4  UNL     1     -32.970  18.001  -0.786  1.00 20.00    -0.018 C 
HETATM    5  C3  UNL     1     -33.827  17.996   0.246  1.00 20.00     0.028 C 
HETATM    6  C5  UNL     1     -31.539  18.423  -0.624  1.00 20.00     0.057 C 
ENDBRANCH   3   4
ENDBRANCH   1   2
BRANCH   1   7
HETATM    7  C9  UNL     1     -33.724  15.475  -4.939  1.00 20.00     0.018 C 
HETATM    8  C6  UNL     1     -34.062  15.134  -6.395  1.00 20.00     0.013 C 
HETATM    9  C7  UNL     1     -34.156  14.336  -4.012  1.00 20.00     0.013 C 
ENDBRANCH   1   7
BRANCH   1  10
HETATM   10  O10 UNL     1     -35.716  16.785  -4.466  1.00 20.00    -0.383 OA
HETATM   11  H24 UNL     1     -35.991  17.124  -3.601  1.00 20.00     0.211 HD
ENDBRANCH   1  10
TORSDOF 4
ENDMDL
MODEL 5
REMARK VINA RESULT:      -3.6     11.401     12.948
REMARK  4 active torsions:
REMARK  status: ('A' for Active; 'I' for Inactive)
REMARK    1  A    between atoms: C1_1  and  C4_4 
REMARK    2  A    between atoms: C2_2  and  C8_8 
REMARK    3  A    between atoms: C8_8  and  C9_9 
REMARK    4  A    between atoms: C8_8  and  O10_10 
ROOT
HETATM    1  C8  UNL     1     -41.106  12.520   6.159  1.00 20.00     0.200 C 
ENDROOT
BRANCH   1   2
HETATM    2  C2  UNL     1     -40.875  13.675   7.039  1.00 20.00    -0.069 C 
HETATM    3  C1  UNL     1     -40.687  14.618   7.760  1.00 20.00    -0.070 C 
BRANCH   3   4
HETATM    4  C4  UNL     1     -40.464  15.738   8.615  1.00 20.00    -0.018 C 
HETATM    5  C3  UNL     1     -40.072  15.527   9.881  1.00 20.00     0.028 C 
HETATM    6  C5  UNL     1     -40.676  17.120   8.072  1.00 20.00     0.057 C 
ENDBRANCH   3   4
ENDBRANCH   1   2
BRANCH   1   7
HETATM    7  C9  UNL     1     -39.823  11.720   5.851  1.00 20.00     0.018 C 
HETATM    8  C6  UNL     1     -38.636  12.121   6.736  1.00 20.00     0.013 C 
HETATM    9  C7  UNL     1     -39.436  11.800   4.373  1.00 20.00     0.013 C 
ENDBRANCH   1   7
BRANCH   1  10
HETATM   10  O10 UNL     1     -42.072  11.667   6.771  1.00 20.00    -0.383 OA
HETATM   11  H24 UNL     1     -41.856  10.763   6.494  1.00 20.00     0.211 HD
ENDBRANCH   1  10
TORSDOF 4
ENDMDL
MODEL 6
REMARK VINA RESULT:      -3.5     11.340     12.179
REMARK  4 active torsions:
REMARK  status: ('A' for Active; 'I' for Inactive)
REMARK    1  A    between atoms: C1_1  and  C4_4 
REMARK    2  A    between atoms: C2_2  and  C8_8 
REMARK    3  A    between atoms: C8_8  and  C9_9 
REMARK    4  A    between atoms: C8_8  and  O10_10 
ROOT
HETATM    1  C8  UNL     1     -33.911   7.428   5.595  1.00 20.00     0.200 C 
ENDROOT
BRANCH   1   2
HETATM    2  C2  UNL     1     -33.431   7.916   4.294  1.00 20.00    -0.069 C 
HETATM    3  C1  UNL     1     -33.042   8.316   3.229  1.00 20.00    -0.070 C 
BRANCH   3   4
HETATM    4  C4  UNL     1     -32.579   8.790   1.965  1.00 20.00    -0.018 C 
HETATM    5  C3  UNL     1     -31.853   7.974   1.186  1.00 20.00     0.028 C 
HETATM    6  C5  UNL     1     -32.919  10.189   1.546  1.00 20.00     0.057 C 
ENDBRANCH   3   4
ENDBRANCH   1   2
BRANCH   1   7
HETATM    7  C9  UNL     1     -34.693   6.101   5.499  1.00 20.00     0.018 C 
HETATM    8  C6  UNL     1     -34.465   5.178   6.702  1.00 20.00     0.013 C 
HETATM    9  C7  UNL     1     -34.404   5.356   4.194  1.00 20.00     0.013 C 
ENDBRANCH   1   7
BRANCH   1  10
HETATM   10  O10 UNL     1     -32.791   7.267   6.463  1.00 20.00    -0.383 OA
HETATM   11  H24 UNL     1     -32.878   6.389   6.865  1.00 20.00     0.211 HD
ENDBRANCH   1  10
TORSDOF 4
ENDMDL
MODEL 7
REMARK VINA RESULT:      -3.4      1.714      5.025
REMARK  4 active torsions:
REMARK  status: ('A' for Active; 'I' for Inactive)
REMARK    1  A    between atoms: C1_1  and  C4_4 
REMARK    2  A    between atoms: C2_2  and  C8_8 
REMARK    3  A    between atoms: C8_8  and  C9_9 
REMARK    4  A    between atoms: C8_8  and  O10_10 
ROOT
HETATM    1  C8  UNL     1     -33.045  17.042  -2.339  1.00 20.00     0.200 C 
ENDROOT
BRANCH   1   2
HETATM    2  C2  UNL     1     -33.610  16.356  -3.511  1.00 20.00    -0.069 C 
HETATM    3  C1  UNL     1     -34.072  15.795  -4.468  1.00 20.00    -0.070 C 
BRANCH   3   4
HETATM    4  C4  UNL     1     -34.621  15.128  -5.603  1.00 20.00    -0.018 C 
HETATM    5  C3  UNL     1     -33.976  15.195  -6.777  1.00 20.00     0.028 C 
HETATM    6  C5  UNL     1     -35.907  14.371  -5.449  1.00 20.00     0.057 C 
ENDBRANCH   3   4
ENDBRANCH   1   2
BRANCH   1   7
HETATM    7  C9  UNL     1     -32.830  18.554  -2.561  1.00 20.00     0.018 C 
HETATM    8  C6  UNL     1     -32.233  19.263  -1.339  1.00 20.00     0.013 C 
HETATM    9  C7  UNL     1     -34.113  19.257  -3.010  1.00 20.00     0.013 C 
ENDBRANCH   1   7
BRANCH   1  10
HETATM   10  O10 UNL     1     -33.913  16.835  -1.227  1.00 20.00    -0.383 OA
HETATM   11  H24 UNL     1     -34.573  16.183  -1.510  1.00 20.00     0.211 HD
ENDBRANCH   1  10
TORSDOF 4
ENDMDL
MODEL 8
REMARK VINA RESULT:      -3.4     12.021     12.755
REMARK  4 active torsions:
REMARK  status: ('A' for Active; 'I' for Inactive)
REMARK    1  A    between atoms: C1_1  and  C4_4 
REMARK    2  A    between atoms: C2_2  and  C8_8 
REMARK    3  A    between atoms: C8_8  and  C9_9 
REMARK    4  A    between atoms: C8_8  and  O10_10 
ROOT
HETATM    1  C8  UNL     1     -40.670  13.825   7.346  1.00 20.00     0.200 C 
ENDROOT
BRANCH   1   2
HETATM    2  C2  UNL     1     -40.689  15.288   7.489  1.00 20.00    -0.069 C 
HETATM    3  C1  UNL     1     -40.703  16.484   7.604  1.00 20.00    -0.070 C 
BRANCH   3   4
HETATM    4  C4  UNL     1     -40.718  17.905   7.743  1.00 20.00    -0.018 C 
HETATM    5  C3  UNL     1     -40.220  18.664   6.755  1.00 20.00     0.028 C 
HETATM    6  C5  UNL     1     -41.291  18.506   8.991  1.00 20.00     0.057 C 
ENDBRANCH   3   4
ENDBRANCH   1   2
BRANCH   1   7
HETATM    7  C9  UNL     1     -40.392  13.356   5.902  1.00 20.00     0.018 C 
HETATM    8  C6  UNL     1     -41.529  13.692   4.930  1.00 20.00     0.013 C 
HETATM    9  C7  UNL     1     -40.059  11.863   5.837  1.00 20.00     0.013 C 
ENDBRANCH   1   7
BRANCH   1  10
HETATM   10  O10 UNL     1     -39.682  13.293   8.226  1.00 20.00    -0.383 OA
HETATM   11  H24 UNL     1     -38.890  13.841   8.115  1.00 20.00     0.211 HD
ENDBRANCH   1  10
TORSDOF 4
ENDMDL
MODEL 9
REMARK VINA RESULT:      -3.3     11.482     13.236
REMARK  4 active torsions:
REMARK  status: ('A' for Active; 'I' for Inactive)
REMARK    1  A    between atoms: C1_1  and  C4_4 
REMARK    2  A    between atoms: C2_2  and  C8_8 
REMARK    3  A    between atoms: C8_8  and  C9_9 
REMARK    4  A    between atoms: C8_8  and  O10_10 
ROOT
HETATM    1  C8  UNL     1     -42.554  12.905   7.192  1.00 20.00     0.200 C 
ENDROOT
BRANCH   1   2
HETATM    2  C2  UNL     1     -41.305  12.596   6.481  1.00 20.00    -0.069 C 
HETATM    3  C1  UNL     1     -40.283  12.345   5.902  1.00 20.00    -0.070 C 
BRANCH   3   4
HETATM    4  C4  UNL     1     -39.069  12.046   5.214  1.00 20.00    -0.018 C 
HETATM    5  C3  UNL     1     -37.908  12.088   5.885  1.00 20.00     0.028 C 
HETATM    6  C5  UNL     1     -39.128  11.695   3.757  1.00 20.00     0.057 C 
ENDBRANCH   3   4
ENDBRANCH   1   2
BRANCH   1   7
HETATM    7  C9  UNL     1     -43.277  14.154   6.643  1.00 20.00     0.018 C 
HETATM    8  C6  UNL     1     -43.298  14.212   5.110  1.00 20.00     0.013 C 
HETATM    9  C7  UNL     1     -42.702  15.451   7.217  1.00 20.00     0.013 C 
ENDBRANCH   1   7
BRANCH   1  10
HETATM   10  O10 UNL     1     -43.417  11.773   7.112  1.00 20.00    -0.383 OA
HETATM   11  H24 UNL     1     -43.239  11.350   6.258  1.00 20.00     0.211 HD
ENDBRANCH   1  10
TORSDOF 4
ENDMDL
