MODEL 1
REMARK VINA RESULT:      -5.3      0.000      0.000
REMARK  3 active torsions:
REMARK  status: ('A' for Active; 'I' for Inactive)
REMARK    1  A    between atoms: C2_2  and  O5_5 
REMARK    2  A    between atoms: C3_3  and  C4_4 
REMARK    3  A    between atoms: C3_3  and  O5_5 
ROOT
HETATM    1  C3  UNL     1     -34.014   6.924   5.932  1.00 20.00     0.454 C 
HETATM    2  F6  UNL     1     -32.790   6.569   6.393  1.00 20.00    -0.166 F 
HETATM    3  F7  UNL     1     -34.718   7.436   6.970  1.00 20.00    -0.166 F 
ENDROOT
BRANCH   1   4
HETATM    4  C4  UNL     1     -34.720   5.719   5.380  1.00 20.00     0.484 C 
HETATM    5  F8  UNL     1     -35.136   4.908   6.375  1.00 20.00    -0.163 F 
HETATM    6  F9  UNL     1     -35.803   6.078   4.659  1.00 20.00    -0.163 F 
HETATM    7  F10 UNL     1     -33.905   5.004   4.576  1.00 20.00    -0.163 F 
ENDBRANCH   1   4
BRANCH   1   8
HETATM    8  O5  UNL     1     -33.867   7.919   4.927  1.00 20.00    -0.319 OA
BRANCH   8   9
HETATM    9  C2  UNL     1     -32.506   8.170   4.603  1.00 20.00     0.170 C 
HETATM   10  C1  UNL     1     -32.201   7.563   3.250  1.00 20.00     0.033 C 
ENDBRANCH   8   9
ENDBRANCH   1   8
TORSDOF 3
ENDMDL
MODEL 2
REMARK VINA RESULT:      -5.3      0.003      1.195
REMARK  3 active torsions:
REMARK  status: ('A' for Active; 'I' for Inactive)
REMARK    1  A    between atoms: C2_2  and  O5_5 
REMARK    2  A    between atoms: C3_3  and  C4_4 
REMARK    3  A    between atoms: C3_3  and  O5_5 
ROOT
HETATM    1  C3  UNL     1     -34.014   6.925   5.932  1.00 20.00     0.454 C 
HETATM    2  F6  UNL     1     -32.791   6.569   6.392  1.00 20.00    -0.166 F 
HETATM    3  F7  UNL     1     -34.716   7.439   6.969  1.00 20.00    -0.166 F 
ENDROOT
BRANCH   1   4
HETATM    4  C4  UNL     1     -34.722   5.720   5.383  1.00 20.00     0.484 C 
HETATM    5  F8  UNL     1     -33.906   5.007   4.579  1.00 20.00    -0.163 F 
HETATM    6  F9  UNL     1     -35.139   4.906   6.376  1.00 20.00    -0.163 F 
HETATM    7  F10 UNL     1     -35.805   6.078   4.660  1.00 20.00    -0.163 F 
ENDBRANCH   1   4
BRANCH   1   8
HETATM    8  O5  UNL     1     -33.868   7.917   4.924  1.00 20.00    -0.319 OA
BRANCH   8   9
HETATM    9  C2  UNL     1     -32.507   8.169   4.600  1.00 20.00     0.170 C 
HETATM   10  C1  UNL     1     -32.201   7.560   3.248  1.00 20.00     0.033 C 
ENDBRANCH   8   9
ENDBRANCH   1   8
TORSDOF 3
ENDMDL
MODEL 3
REMARK VINA RESULT:      -5.2      2.331      3.627
REMARK  3 active torsions:
REMARK  status: ('A' for Active; 'I' for Inactive)
REMARK    1  A    between atoms: C2_2  and  O5_5 
REMARK    2  A    between atoms: C3_3  and  C4_4 
REMARK    3  A    between atoms: C3_3  and  O5_5 
ROOT
HETATM    1  C3  UNL     1     -33.062   8.170   4.810  1.00 20.00     0.454 C 
HETATM    2  F6  UNL     1     -34.361   8.406   4.507  1.00 20.00    -0.166 F 
HETATM    3  F7  UNL     1     -32.519   9.329   5.252  1.00 20.00    -0.166 F 
ENDROOT
BRANCH   1   4
HETATM    4  C4  UNL     1     -32.331   7.697   3.586  1.00 20.00     0.484 C 
HETATM    5  F8  UNL     1     -32.568   8.515   2.539  1.00 20.00    -0.163 F 
HETATM    6  F9  UNL     1     -30.998   7.670   3.796  1.00 20.00    -0.163 F 
HETATM    7  F10 UNL     1     -32.721   6.453   3.236  1.00 20.00    -0.163 F 
ENDBRANCH   1   4
BRANCH   1   8
HETATM    8  O5  UNL     1     -32.989   7.193   5.840  1.00 20.00    -0.319 OA
BRANCH   8   9
HETATM    9  C2  UNL     1     -34.265   6.875   6.381  1.00 20.00     0.170 C 
HETATM   10  C1  UNL     1     -34.592   5.432   6.058  1.00 20.00     0.033 C 
ENDBRANCH   8   9
ENDBRANCH   1   8
TORSDOF 3
ENDMDL
MODEL 4
REMARK VINA RESULT:      -5.2      0.770      2.268
REMARK  3 active torsions:
REMARK  status: ('A' for Active; 'I' for Inactive)
REMARK    1  A    between atoms: C2_2  and  O5_5 
REMARK    2  A    between atoms: C3_3  and  C4_4 
REMARK    3  A    between atoms: C3_3  and  O5_5 
ROOT
HETATM    1  C3  UNL     1     -34.573   6.175   4.796  1.00 20.00     0.454 C 
HETATM    2  F6  UNL     1     -35.852   5.941   4.417  1.00 20.00    -0.166 F 
HETATM    3  F7  UNL     1     -33.780   5.276   4.166  1.00 20.00    -0.166 F 
ENDROOT
BRANCH   1   4
HETATM    4  C4  UNL     1     -34.445   6.014   6.284  1.00 20.00     0.484 C 
HETATM    5  F8  UNL     1     -34.574   7.202   6.909  1.00 20.00    -0.163 F 
HETATM    6  F9  UNL     1     -35.397   5.187   6.767  1.00 20.00    -0.163 F 
HETATM    7  F10 UNL     1     -33.242   5.499   6.617  1.00 20.00    -0.163 F 
ENDBRANCH   1   4
BRANCH   1   8
HETATM    8  O5  UNL     1     -34.198   7.489   4.405  1.00 20.00    -0.319 OA
BRANCH   8   9
HETATM    9  C2  UNL     1     -32.821   7.585   4.066  1.00 20.00     0.170 C 
HETATM   10  C1  UNL     1     -32.222   8.784   4.771  1.00 20.00     0.033 C 
ENDBRANCH   8   9
ENDBRANCH   1   8
TORSDOF 3
ENDMDL
MODEL 5
REMARK VINA RESULT:      -5.2      0.767      2.389
REMARK  3 active torsions:
REMARK  status: ('A' for Active; 'I' for Inactive)
REMARK    1  A    between atoms: C2_2  and  O5_5 
REMARK    2  A    between atoms: C3_3  and  C4_4 
REMARK    3  A    between atoms: C3_3  and  O5_5 
ROOT
HETATM    1  C3  UNL     1     -34.567   6.170   4.794  1.00 20.00     0.454 C 
HETATM    2  F6  UNL     1     -35.846   5.934   4.413  1.00 20.00    -0.166 F 
HETATM    3  F7  UNL     1     -33.773   5.270   4.168  1.00 20.00    -0.166 F 
ENDROOT
BRANCH   1   4
HETATM    4  C4  UNL     1     -34.442   6.015   6.282  1.00 20.00     0.484 C 
HETATM    5  F8  UNL     1     -35.394   5.187   6.761  1.00 20.00    -0.163 F 
HETATM    6  F9  UNL     1     -33.240   5.501   6.619  1.00 20.00    -0.163 F 
HETATM    7  F10 UNL     1     -34.575   7.204   6.909  1.00 20.00    -0.163 F 
ENDBRANCH   1   4
BRANCH   1   8
HETATM    8  O5  UNL     1     -34.193   7.483   4.398  1.00 20.00    -0.319 OA
BRANCH   8   9
HETATM    9  C2  UNL     1     -32.816   7.578   4.056  1.00 20.00     0.170 C 
HETATM   10  C1  UNL     1     -32.217   8.782   4.751  1.00 20.00     0.033 C 
ENDBRANCH   8   9
ENDBRANCH   1   8
TORSDOF 3
ENDMDL
MODEL 6
REMARK VINA RESULT:      -5.0      2.049      3.388
REMARK  3 active torsions:
REMARK  status: ('A' for Active; 'I' for Inactive)
REMARK    1  A    between atoms: C2_2  and  O5_5 
REMARK    2  A    between atoms: C3_3  and  C4_4 
REMARK    3  A    between atoms: C3_3  and  O5_5 
ROOT
HETATM    1  C3  UNL     1     -33.531   7.750   5.159  1.00 20.00     0.454 C 
HETATM    2  F6  UNL     1     -33.992   8.957   5.566  1.00 20.00    -0.166 F 
HETATM    3  F7  UNL     1     -32.909   7.165   6.211  1.00 20.00    -0.166 F 
ENDROOT
BRANCH   1   4
HETATM    4  C4  UNL     1     -32.560   7.931   4.028  1.00 20.00     0.484 C 
HETATM    5  F8  UNL     1     -31.339   8.271   4.491  1.00 20.00    -0.163 F 
HETATM    6  F9  UNL     1     -32.429   6.794   3.312  1.00 20.00    -0.163 F 
HETATM    7  F10 UNL     1     -32.969   8.905   3.187  1.00 20.00    -0.163 F 
ENDBRANCH   1   4
BRANCH   1   8
HETATM    8  O5  UNL     1     -34.626   6.941   4.750  1.00 20.00    -0.319 OA
BRANCH   8   9
HETATM    9  C2  UNL     1     -34.769   5.774   5.548  1.00 20.00     0.170 C 
HETATM   10  C1  UNL     1     -34.356   4.566   4.734  1.00 20.00     0.033 C 
ENDBRANCH   8   9
ENDBRANCH   1   8
TORSDOF 3
ENDMDL
MODEL 7
REMARK VINA RESULT:      -4.9      2.310      3.776
REMARK  3 active torsions:
REMARK  status: ('A' for Active; 'I' for Inactive)
REMARK    1  A    between atoms: C2_2  and  O5_5 
REMARK    2  A    between atoms: C3_3  and  C4_4 
REMARK    3  A    between atoms: C3_3  and  O5_5 
ROOT
HETATM    1  C3  UNL     1     -33.350   7.526   4.536  1.00 20.00     0.454 C 
HETATM    2  F6  UNL     1     -33.294   6.448   3.718  1.00 20.00    -0.166 F 
HETATM    3  F7  UNL     1     -34.581   8.077   4.417  1.00 20.00    -0.166 F 
ENDROOT
BRANCH   1   4
HETATM    4  C4  UNL     1     -32.302   8.525   4.135  1.00 20.00     0.484 C 
HETATM    5  F8  UNL     1     -32.140   9.463   5.091  1.00 20.00    -0.163 F 
HETATM    6  F9  UNL     1     -31.109   7.925   3.937  1.00 20.00    -0.163 F 
HETATM    7  F10 UNL     1     -32.644   9.155   2.991  1.00 20.00    -0.163 F 
ENDBRANCH   1   4
BRANCH   1   8
HETATM    8  O5  UNL     1     -33.149   7.108   5.880  1.00 20.00    -0.319 OA
BRANCH   8   9
HETATM    9  C2  UNL     1     -34.360   6.731   6.520  1.00 20.00     0.170 C 
HETATM   10  C1  UNL     1     -34.611   5.258   6.272  1.00 20.00     0.033 C 
ENDBRANCH   8   9
ENDBRANCH   1   8
TORSDOF 3
ENDMDL
MODEL 8
REMARK VINA RESULT:      -4.6      1.541      2.807
REMARK  3 active torsions:
REMARK  status: ('A' for Active; 'I' for Inactive)
REMARK    1  A    between atoms: C2_2  and  O5_5 
REMARK    2  A    between atoms: C3_3  and  C4_4 
REMARK    3  A    between atoms: C3_3  and  O5_5 
ROOT
HETATM    1  C3  UNL     1     -34.723   5.798   5.467  1.00 20.00     0.454 C 
HETATM    2  F6  UNL     1     -35.759   6.020   4.622  1.00 20.00    -0.166 F 
HETATM    3  F7  UNL     1     -35.212   5.189   6.574  1.00 20.00    -0.166 F 
ENDROOT
BRANCH   1   4
HETATM    4  C4  UNL     1     -34.083   7.104   5.842  1.00 20.00     0.484 C 
HETATM    5  F8  UNL     1     -32.750   6.960   5.995  1.00 20.00    -0.163 F 
HETATM    6  F9  UNL     1     -34.292   8.039   4.891  1.00 20.00    -0.163 F 
HETATM    7  F10 UNL     1     -34.584   7.576   7.003  1.00 20.00    -0.163 F 
ENDBRANCH   1   4
BRANCH   1   8
HETATM    8  O5  UNL     1     -33.777   4.943   4.838  1.00 20.00    -0.319 OA
BRANCH   8   9
HETATM    9  C2  UNL     1     -33.938   4.897   3.427  1.00 20.00     0.170 C 
HETATM   10  C1  UNL     1     -32.772   5.610   2.775  1.00 20.00     0.033 C 
ENDBRANCH   8   9
ENDBRANCH   1   8
TORSDOF 3
ENDMDL
MODEL 9
REMARK VINA RESULT:      -4.4      1.415      1.861
REMARK  3 active torsions:
REMARK  status: ('A' for Active; 'I' for Inactive)
REMARK    1  A    between atoms: C2_2  and  O5_5 
REMARK    2  A    between atoms: C3_3  and  C4_4 
REMARK    3  A    between atoms: C3_3  and  O5_5 
ROOT
HETATM    1  C3  UNL     1     -33.867   6.936   5.148  1.00 20.00     0.454 C 
HETATM    2  F6  UNL     1     -33.492   7.452   6.343  1.00 20.00    -0.166 F 
HETATM    3  F7  UNL     1     -34.463   7.923   4.436  1.00 20.00    -0.166 F 
ENDROOT
BRANCH   1   4
HETATM    4  C4  UNL     1     -34.832   5.805   5.361  1.00 20.00     0.484 C 
HETATM    5  F8  UNL     1     -34.229   4.615   5.165  1.00 20.00    -0.163 F 
HETATM    6  F9  UNL     1     -35.326   5.818   6.618  1.00 20.00    -0.163 F 
HETATM    7  F10 UNL     1     -35.874   5.887   4.506  1.00 20.00    -0.163 F 
ENDBRANCH   1   4
BRANCH   1   8
HETATM    8  O5  UNL     1     -32.715   6.481   4.449  1.00 20.00    -0.319 OA
BRANCH   8   9
HETATM    9  C2  UNL     1     -32.829   6.651   3.042  1.00 20.00     0.170 C 
HETATM   10  C1  UNL     1     -32.854   5.288   2.382  1.00 20.00     0.033 C 
ENDBRANCH   8   9
ENDBRANCH   1   8
TORSDOF 3
ENDMDL
