MODEL 1
REMARK VINA RESULT:      -4.8      0.000      0.000
REMARK  2 active torsions:
REMARK  status: ('A' for Active; 'I' for Inactive)
REMARK    1  A    between atoms: C1_1  and  C2_2 
REMARK    2  A    between atoms: C1_1  and  C3_3 
ROOT
HETATM    1  C1  UNL     1     -33.999   6.852   5.330  1.00 20.00     0.245 C 
HETATM    2  O4  UNL     1     -34.119   7.304   6.468  1.00 20.00    -0.287 OA
ENDROOT
BRANCH   1   3
HETATM    3  C2  UNL     1     -33.114   7.473   4.272  1.00 20.00     0.202 C 
HETATM    4 CL8  UNL     1     -32.328   8.931   4.891  1.00 20.00    -0.122 Cl
ENDBRANCH   1   3
BRANCH   1   5
HETATM    5  C3  UNL     1     -34.749   5.619   4.913  1.00 20.00     0.452 C 
HETATM    6  F5  UNL     1     -35.000   4.802   5.967  1.00 20.00    -0.163 F 
HETATM    7  F6  UNL     1     -34.055   4.891   4.004  1.00 20.00    -0.163 F 
HETATM    8  F7  UNL     1     -35.948   5.914   4.349  1.00 20.00    -0.163 F 
ENDBRANCH   1   5
TORSDOF 2
ENDMDL
MODEL 2
REMARK VINA RESULT:      -4.8      0.027      1.338
REMARK  2 active torsions:
REMARK  status: ('A' for Active; 'I' for Inactive)
REMARK    1  A    between atoms: C1_1  and  C2_2 
REMARK    2  A    between atoms: C1_1  and  C3_3 
ROOT
HETATM    1  C1  UNL     1     -34.000   6.855   5.347  1.00 20.00     0.245 C 
HETATM    2  O4  UNL     1     -34.114   7.310   6.484  1.00 20.00    -0.287 OA
ENDROOT
BRANCH   1   3
HETATM    3  C2  UNL     1     -33.129   7.479   4.280  1.00 20.00     0.202 C 
HETATM    4 CL8  UNL     1     -32.326   8.929   4.897  1.00 20.00    -0.122 Cl
ENDBRANCH   1   3
BRANCH   1   5
HETATM    5  C3  UNL     1     -34.743   5.614   4.941  1.00 20.00     0.452 C 
HETATM    6  F5  UNL     1     -35.939   5.906   4.372  1.00 20.00    -0.163 F 
HETATM    7  F6  UNL     1     -34.995   4.809   6.003  1.00 20.00    -0.163 F 
HETATM    8  F7  UNL     1     -34.049   4.872   4.041  1.00 20.00    -0.163 F 
ENDBRANCH   1   5
TORSDOF 2
ENDMDL
MODEL 3
REMARK VINA RESULT:      -4.8      0.022      1.332
REMARK  2 active torsions:
REMARK  status: ('A' for Active; 'I' for Inactive)
REMARK    1  A    between atoms: C1_1  and  C2_2 
REMARK    2  A    between atoms: C1_1  and  C3_3 
ROOT
HETATM    1  C1  UNL     1     -34.004   6.853   5.343  1.00 20.00     0.245 C 
HETATM    2  O4  UNL     1     -34.112   7.296   6.485  1.00 20.00    -0.287 OA
ENDROOT
BRANCH   1   3
HETATM    3  C2  UNL     1     -33.143   7.489   4.276  1.00 20.00     0.202 C 
HETATM    4 CL8  UNL     1     -32.331   8.930   4.904  1.00 20.00    -0.122 Cl
ENDBRANCH   1   3
BRANCH   1   5
HETATM    5  C3  UNL     1     -34.747   5.613   4.931  1.00 20.00     0.452 C 
HETATM    6  F5  UNL     1     -34.044   4.881   4.031  1.00 20.00    -0.163 F 
HETATM    7  F6  UNL     1     -35.940   5.909   4.357  1.00 20.00    -0.163 F 
HETATM    8  F7  UNL     1     -35.008   4.797   5.984  1.00 20.00    -0.163 F 
ENDBRANCH   1   5
TORSDOF 2
ENDMDL
MODEL 4
REMARK VINA RESULT:      -4.5      1.913      2.226
REMARK  2 active torsions:
REMARK  status: ('A' for Active; 'I' for Inactive)
REMARK    1  A    between atoms: C1_1  and  C2_2 
REMARK    2  A    between atoms: C1_1  and  C3_3 
ROOT
HETATM    1  C1  UNL     1     -33.979   6.370   4.822  1.00 20.00     0.245 C 
HETATM    2  O4  UNL     1     -34.215   5.522   3.963  1.00 20.00    -0.287 OA
ENDROOT
BRANCH   1   3
HETATM    3  C2  UNL     1     -33.335   7.705   4.526  1.00 20.00     0.202 C 
HETATM    4 CL8  UNL     1     -32.165   7.557   3.208  1.00 20.00    -0.122 Cl
ENDBRANCH   1   3
BRANCH   1   5
HETATM    5  C3  UNL     1     -34.328   6.117   6.262  1.00 20.00     0.452 C 
HETATM    6  F5  UNL     1     -33.344   5.443   6.908  1.00 20.00    -0.163 F 
HETATM    7  F6  UNL     1     -35.460   5.380   6.383  1.00 20.00    -0.163 F 
HETATM    8  F7  UNL     1     -34.533   7.269   6.950  1.00 20.00    -0.163 F 
ENDBRANCH   1   5
TORSDOF 2
ENDMDL
MODEL 5
REMARK VINA RESULT:      -4.5      1.917      2.398
REMARK  2 active torsions:
REMARK  status: ('A' for Active; 'I' for Inactive)
REMARK    1  A    between atoms: C1_1  and  C2_2 
REMARK    2  A    between atoms: C1_1  and  C3_3 
ROOT
HETATM    1  C1  UNL     1     -33.945   6.354   4.811  1.00 20.00     0.245 C 
HETATM    2  O4  UNL     1     -34.167   5.501   3.954  1.00 20.00    -0.287 OA
ENDROOT
BRANCH   1   3
HETATM    3  C2  UNL     1     -33.290   7.685   4.519  1.00 20.00     0.202 C 
HETATM    4 CL8  UNL     1     -32.166   7.543   3.160  1.00 20.00    -0.122 Cl
ENDBRANCH   1   3
BRANCH   1   5
HETATM    5  C3  UNL     1     -34.325   6.114   6.245  1.00 20.00     0.452 C 
HETATM    6  F5  UNL     1     -35.480   5.410   6.350  1.00 20.00    -0.163 F 
HETATM    7  F6  UNL     1     -34.506   7.276   6.920  1.00 20.00    -0.163 F 
HETATM    8  F7  UNL     1     -33.376   5.413   6.917  1.00 20.00    -0.163 F 
ENDBRANCH   1   5
TORSDOF 2
ENDMDL
MODEL 6
REMARK VINA RESULT:      -4.5      2.858      3.476
REMARK  2 active torsions:
REMARK  status: ('A' for Active; 'I' for Inactive)
REMARK    1  A    between atoms: C1_1  and  C2_2 
REMARK    2  A    between atoms: C1_1  and  C3_3 
ROOT
HETATM    1  C1  UNL     1     -33.570   7.591   4.737  1.00 20.00     0.245 C 
HETATM    2  O4  UNL     1     -33.808   8.475   5.559  1.00 20.00    -0.287 OA
ENDROOT
BRANCH   1   3
HETATM    3  C2  UNL     1     -34.313   6.276   4.684  1.00 20.00     0.202 C 
HETATM    4 CL8  UNL     1     -34.601   5.654   6.314  1.00 20.00    -0.122 Cl
ENDBRANCH   1   3
BRANCH   1   5
HETATM    5  C3  UNL     1     -32.491   7.775   3.707  1.00 20.00     0.452 C 
HETATM    6  F5  UNL     1     -31.293   8.060   4.277  1.00 20.00    -0.163 F 
HETATM    7  F6  UNL     1     -32.777   8.790   2.855  1.00 20.00    -0.163 F 
HETATM    8  F7  UNL     1     -32.312   6.663   2.949  1.00 20.00    -0.163 F 
ENDBRANCH   1   5
TORSDOF 2
ENDMDL
MODEL 7
REMARK VINA RESULT:      -4.5      2.864      3.426
REMARK  2 active torsions:
REMARK  status: ('A' for Active; 'I' for Inactive)
REMARK    1  A    between atoms: C1_1  and  C2_2 
REMARK    2  A    between atoms: C1_1  and  C3_3 
ROOT
HETATM    1  C1  UNL     1     -33.571   7.566   4.745  1.00 20.00     0.245 C 
HETATM    2  O4  UNL     1     -33.819   8.431   5.584  1.00 20.00    -0.287 OA
ENDROOT
BRANCH   1   3
HETATM    3  C2  UNL     1     -34.289   6.237   4.676  1.00 20.00     0.202 C 
HETATM    4 CL8  UNL     1     -34.606   5.612   6.301  1.00 20.00    -0.122 Cl
ENDBRANCH   1   3
BRANCH   1   5
HETATM    5  C3  UNL     1     -32.507   7.789   3.708  1.00 20.00     0.452 C 
HETATM    6  F5  UNL     1     -32.360   6.711   2.897  1.00 20.00    -0.163 F 
HETATM    7  F6  UNL     1     -31.297   8.029   4.272  1.00 20.00    -0.163 F 
HETATM    8  F7  UNL     1     -32.785   8.849   2.908  1.00 20.00    -0.163 F 
ENDBRANCH   1   5
TORSDOF 2
ENDMDL
MODEL 8
REMARK VINA RESULT:      -4.4      2.251      2.647
REMARK  2 active torsions:
REMARK  status: ('A' for Active; 'I' for Inactive)
REMARK    1  A    between atoms: C1_1  and  C2_2 
REMARK    2  A    between atoms: C1_1  and  C3_3 
ROOT
HETATM    1  C1  UNL     1     -33.971   6.550   4.846  1.00 20.00     0.245 C 
HETATM    2  O4  UNL     1     -33.611   7.656   4.445  1.00 20.00    -0.287 OA
ENDROOT
BRANCH   1   3
HETATM    3  C2  UNL     1     -34.173   5.356   3.940  1.00 20.00     0.202 C 
HETATM    4 CL8  UNL     1     -32.924   5.302   2.688  1.00 20.00    -0.122 Cl
ENDBRANCH   1   3
BRANCH   1   5
HETATM    5  C3  UNL     1     -34.239   6.315   6.305  1.00 20.00     0.452 C 
HETATM    6  F5  UNL     1     -33.162   5.782   6.936  1.00 20.00    -0.163 F 
HETATM    7  F6  UNL     1     -35.274   5.460   6.496  1.00 20.00    -0.163 F 
HETATM    8  F7  UNL     1     -34.550   7.463   6.961  1.00 20.00    -0.163 F 
ENDBRANCH   1   5
TORSDOF 2
ENDMDL
MODEL 9
REMARK VINA RESULT:      -4.4      2.246      2.776
REMARK  2 active torsions:
REMARK  status: ('A' for Active; 'I' for Inactive)
REMARK    1  A    between atoms: C1_1  and  C2_2 
REMARK    2  A    between atoms: C1_1  and  C3_3 
ROOT
HETATM    1  C1  UNL     1     -33.978   6.511   4.841  1.00 20.00     0.245 C 
HETATM    2  O4  UNL     1     -33.614   7.622   4.458  1.00 20.00    -0.287 OA
ENDROOT
BRANCH   1   3
HETATM    3  C2  UNL     1     -34.154   5.325   3.921  1.00 20.00     0.202 C 
HETATM    4 CL8  UNL     1     -32.909   5.319   2.663  1.00 20.00    -0.122 Cl
ENDBRANCH   1   3
BRANCH   1   5
HETATM    5  C3  UNL     1     -34.277   6.263   6.292  1.00 20.00     0.452 C 
HETATM    6  F5  UNL     1     -35.371   5.477   6.454  1.00 20.00    -0.163 F 
HETATM    7  F6  UNL     1     -34.516   7.418   6.962  1.00 20.00    -0.163 F 
HETATM    8  F7  UNL     1     -33.251   5.644   6.929  1.00 20.00    -0.163 F 
ENDBRANCH   1   5
TORSDOF 2
ENDMDL
