MODEL 1
REMARK VINA RESULT:      -3.1      0.000      0.000
REMARK  0 active torsions:
REMARK  status: ('A' for Active; 'I' for Inactive)
REMARK       I    between atoms: C2_2  and  N4_4 
ROOT
HETATM    1  C1  UNL     1     -33.072   7.852   4.603  1.00 20.00     0.166 C 
HETATM    2  C2  UNL     1     -34.216   6.083   5.200  1.00 20.00     0.240 C 
HETATM    3  C3  UNL     1     -34.795   5.405   6.400  1.00 20.00     0.119 C 
HETATM    4  N4  UNL     1     -33.556   7.258   5.493  1.00 20.00    -0.200 NA
HETATM    5  O5  UNL     1     -34.366   5.565   4.098  1.00 20.00    -0.272 OA
HETATM    6  S6  UNL     1     -32.403   8.685   3.421  1.00 20.00    -0.055 SA
ENDROOT
TORSDOF 0
ENDMDL
MODEL 2
REMARK VINA RESULT:      -3.1      2.345      3.274
REMARK  0 active torsions:
REMARK  status: ('A' for Active; 'I' for Inactive)
REMARK       I    between atoms: C2_2  and  N4_4 
ROOT
HETATM    1  C1  UNL     1     -34.109   6.466   5.166  1.00 20.00     0.166 C 
HETATM    2  C2  UNL     1     -32.666   7.953   4.455  1.00 20.00     0.240 C 
HETATM    3  C3  UNL     1     -32.109   9.302   4.777  1.00 20.00     0.119 C 
HETATM    4  N4  UNL     1     -33.621   7.520   5.350  1.00 20.00    -0.200 NA
HETATM    5  O5  UNL     1     -32.247   7.362   3.465  1.00 20.00    -0.272 OA
HETATM    6  S6  UNL     1     -34.790   5.044   4.949  1.00 20.00    -0.055 SA
ENDROOT
TORSDOF 0
ENDMDL
MODEL 3
REMARK VINA RESULT:      -3.1      1.464      1.464
REMARK  0 active torsions:
REMARK  status: ('A' for Active; 'I' for Inactive)
REMARK       I    between atoms: C2_2  and  N4_4 
ROOT
HETATM    1  C1  UNL     1     -33.004   7.781   4.541  1.00 20.00     0.166 C 
HETATM    2  C2  UNL     1     -34.317   6.305   5.488  1.00 20.00     0.240 C 
HETATM    3  C3  UNL     1     -35.047   5.030   5.213  1.00 20.00     0.119 C 
HETATM    4  N4  UNL     1     -33.606   6.782   4.406  1.00 20.00    -0.200 NA
HETATM    5  O5  UNL     1     -34.401   6.806   6.605  1.00 20.00    -0.272 OA
HETATM    6  S6  UNL     1     -32.175   9.133   4.688  1.00 20.00    -0.055 SA
ENDROOT
TORSDOF 0
ENDMDL
MODEL 4
REMARK VINA RESULT:      -3.0     12.758     12.864
REMARK  0 active torsions:
REMARK  status: ('A' for Active; 'I' for Inactive)
REMARK       I    between atoms: C2_2  and  N4_4 
ROOT
HETATM    1  C1  UNL     1     -30.715  18.605   2.216  1.00 20.00     0.166 C 
HETATM    2  C2  UNL     1     -31.565  18.486   0.201  1.00 20.00     0.240 C 
HETATM    3  C3  UNL     1     -32.852  18.254  -0.523  1.00 20.00     0.119 C 
HETATM    4  N4  UNL     1     -31.684  18.433   1.573  1.00 20.00    -0.200 NA
HETATM    5  O5  UNL     1     -30.548  18.697  -0.454  1.00 20.00    -0.272 OA
HETATM    6  S6  UNL     1     -29.424  18.834   3.119  1.00 20.00    -0.055 SA
ENDROOT
TORSDOF 0
ENDMDL
MODEL 5
REMARK VINA RESULT:      -2.9      9.241      9.374
REMARK  0 active torsions:
REMARK  status: ('A' for Active; 'I' for Inactive)
REMARK       I    between atoms: C2_2  and  N4_4 
ROOT
HETATM    1  C1  UNL     1     -41.412  13.288   6.441  1.00 20.00     0.166 C 
HETATM    2  C2  UNL     1     -39.721  12.147   5.643  1.00 20.00     0.240 C 
HETATM    3  C3  UNL     1     -39.090  11.719   4.357  1.00 20.00     0.119 C 
HETATM    4  N4  UNL     1     -40.856  12.912   5.476  1.00 20.00    -0.200 NA
HETATM    5  O5  UNL     1     -39.201  11.801   6.700  1.00 20.00    -0.272 OA
HETATM    6  S6  UNL     1     -42.190  13.816   7.726  1.00 20.00    -0.055 SA
ENDROOT
TORSDOF 0
ENDMDL
MODEL 6
REMARK VINA RESULT:      -2.9     12.886     12.949
REMARK  0 active torsions:
REMARK  status: ('A' for Active; 'I' for Inactive)
REMARK       I    between atoms: C2_2  and  N4_4 
ROOT
HETATM    1  C1  UNL     1     -33.275  18.364  -0.239  1.00 20.00     0.166 C 
HETATM    2  C2  UNL     1     -31.258  18.552   0.594  1.00 20.00     0.240 C 
HETATM    3  C3  UNL     1     -30.518  18.580   1.893  1.00 20.00     0.119 C 
HETATM    4  N4  UNL     1     -32.621  18.396   0.736  1.00 20.00    -0.200 NA
HETATM    5  O5  UNL     1     -30.624  18.663  -0.451  1.00 20.00    -0.272 OA
HETATM    6  S6  UNL     1     -34.193  18.316  -1.540  1.00 20.00    -0.055 SA
ENDROOT
TORSDOF 0
ENDMDL
MODEL 7
REMARK VINA RESULT:      -2.9     12.804     12.982
REMARK  0 active torsions:
REMARK  status: ('A' for Active; 'I' for Inactive)
REMARK       I    between atoms: C2_2  and  N4_4 
ROOT
HETATM    1  C1  UNL     1     -33.091  17.713  -1.190  1.00 20.00     0.166 C 
HETATM    2  C2  UNL     1     -31.621  18.637   0.145  1.00 20.00     0.240 C 
HETATM    3  C3  UNL     1     -31.486  19.262   1.496  1.00 20.00     0.119 C 
HETATM    4  N4  UNL     1     -32.902  18.216  -0.145  1.00 20.00    -0.200 NA
HETATM    5  O5  UNL     1     -30.626  18.551  -0.569  1.00 20.00    -0.272 OA
HETATM    6  S6  UNL     1     -33.386  17.027  -2.597  1.00 20.00    -0.055 SA
ENDROOT
TORSDOF 0
ENDMDL
MODEL 8
REMARK VINA RESULT:      -2.9      2.681      3.550
REMARK  0 active torsions:
REMARK  status: ('A' for Active; 'I' for Inactive)
REMARK       I    between atoms: C2_2  and  N4_4 
ROOT
HETATM    1  C1  UNL     1     -33.995   6.204   4.978  1.00 20.00     0.166 C 
HETATM    2  C2  UNL     1     -32.705   7.646   3.953  1.00 20.00     0.240 C 
HETATM    3  C3  UNL     1     -32.161   7.988   2.602  1.00 20.00     0.119 C 
HETATM    4  N4  UNL     1     -33.526   6.539   3.954  1.00 20.00    -0.200 NA
HETATM    5  O5  UNL     1     -32.393   8.347   4.910  1.00 20.00    -0.272 OA
HETATM    6  S6  UNL     1     -34.648   5.722   6.348  1.00 20.00    -0.055 SA
ENDROOT
TORSDOF 0
ENDMDL
MODEL 9
REMARK VINA RESULT:      -2.9      9.636      9.788
REMARK  0 active torsions:
REMARK  status: ('A' for Active; 'I' for Inactive)
REMARK       I    between atoms: C2_2  and  N4_4 
ROOT
HETATM    1  C1  UNL     1     -41.921  12.579   6.714  1.00 20.00     0.166 C 
HETATM    2  C2  UNL     1     -40.244  12.530   5.306  1.00 20.00     0.240 C 
HETATM    3  C3  UNL     1     -38.842  12.032   5.161  1.00 20.00     0.119 C 
HETATM    4  N4  UNL     1     -40.819  12.221   6.521  1.00 20.00    -0.200 NA
HETATM    5  O5  UNL     1     -40.752  13.147   4.374  1.00 20.00    -0.272 OA
HETATM    6  S6  UNL     1     -43.415  13.046   7.010  1.00 20.00    -0.055 SA
ENDROOT
TORSDOF 0
ENDMDL
