MODEL 1
REMARK VINA RESULT:      -4.9      0.000      0.000
REMARK  3 active torsions:
REMARK  status: ('A' for Active; 'I' for Inactive)
REMARK    1  A    between atoms: C3_3  and  C5_5 
REMARK    2  A    between atoms: C4_4  and  C6_6 
REMARK    3  A    between atoms: C5_5  and  C6_6 
ROOT
HETATM    1  C1  UNL     1     -34.357   4.843   5.244  1.00 20.00     0.059 C 
HETATM    2  C4  UNL     1     -34.571   5.623   6.471  1.00 20.00     0.124 C 
HETATM    3  N7  UNL     1     -34.190   4.225   4.276  1.00 20.00    -0.197 NA
ENDROOT
BRANCH   2   4
HETATM    4  C6  UNL     1     -34.005   7.040   6.361  1.00 20.00     0.020 C 
BRANCH   4   5
HETATM    5  C5  UNL     1     -34.159   7.633   4.953  1.00 20.00     0.051 C 
BRANCH   5   6
HETATM    6  C3  UNL     1     -32.843   8.062   4.368  1.00 20.00     0.002 C 
HETATM    7  C2  UNL     1     -32.113   9.083   4.832  1.00 20.00     0.032 C 
HETATM    8 CL8  UNL     1     -32.255   7.111   3.046  1.00 20.00    -0.090 Cl
ENDBRANCH   5   6
ENDBRANCH   4   5
ENDBRANCH   2   4
TORSDOF 3
ENDMDL
MODEL 2
REMARK VINA RESULT:      -4.8      1.186      1.348
REMARK  3 active torsions:
REMARK  status: ('A' for Active; 'I' for Inactive)
REMARK    1  A    between atoms: C3_3  and  C5_5 
REMARK    2  A    between atoms: C4_4  and  C6_6 
REMARK    3  A    between atoms: C5_5  and  C6_6 
ROOT
HETATM    1  C1  UNL     1     -34.376   4.861   5.249  1.00 20.00     0.059 C 
HETATM    2  C4  UNL     1     -34.631   5.719   6.414  1.00 20.00     0.124 C 
HETATM    3  N7  UNL     1     -34.175   4.182   4.329  1.00 20.00    -0.197 NA
ENDROOT
BRANCH   2   4
HETATM    4  C6  UNL     1     -33.922   7.070   6.304  1.00 20.00     0.020 C 
BRANCH   4   5
HETATM    5  C5  UNL     1     -34.081   7.712   4.919  1.00 20.00     0.051 C 
BRANCH   5   6
HETATM    6  C3  UNL     1     -32.758   8.057   4.295  1.00 20.00     0.002 C 
HETATM    7  C2  UNL     1     -32.236   7.416   3.242  1.00 20.00     0.032 C 
HETATM    8 CL8  UNL     1     -31.923   9.409   4.983  1.00 20.00    -0.090 Cl
ENDBRANCH   5   6
ENDBRANCH   4   5
ENDBRANCH   2   4
TORSDOF 3
ENDMDL
MODEL 3
REMARK VINA RESULT:      -4.5      1.338      1.807
REMARK  3 active torsions:
REMARK  status: ('A' for Active; 'I' for Inactive)
REMARK    1  A    between atoms: C3_3  and  C5_5 
REMARK    2  A    between atoms: C4_4  and  C6_6 
REMARK    3  A    between atoms: C5_5  and  C6_6 
ROOT
HETATM    1  C1  UNL     1     -34.462   5.684   5.586  1.00 20.00     0.059 C 
HETATM    2  C4  UNL     1     -33.988   6.871   6.310  1.00 20.00     0.124 C 
HETATM    3  N7  UNL     1     -34.836   4.745   5.015  1.00 20.00    -0.197 NA
ENDROOT
BRANCH   2   4
HETATM    4  C6  UNL     1     -33.852   8.090   5.396  1.00 20.00     0.020 C 
BRANCH   4   5
HETATM    5  C5  UNL     1     -32.457   8.209   4.767  1.00 20.00     0.051 C 
BRANCH   5   6
HETATM    6  C3  UNL     1     -32.466   7.902   3.296  1.00 20.00     0.002 C 
HETATM    7  C2  UNL     1     -32.350   6.669   2.787  1.00 20.00     0.032 C 
HETATM    8 CL8  UNL     1     -32.697   9.254   2.239  1.00 20.00    -0.090 Cl
ENDBRANCH   5   6
ENDBRANCH   4   5
ENDBRANCH   2   4
TORSDOF 3
ENDMDL
MODEL 4
REMARK VINA RESULT:      -4.4      2.017      3.545
REMARK  3 active torsions:
REMARK  status: ('A' for Active; 'I' for Inactive)
REMARK    1  A    between atoms: C3_3  and  C5_5 
REMARK    2  A    between atoms: C4_4  and  C6_6 
REMARK    3  A    between atoms: C5_5  and  C6_6 
ROOT
HETATM    1  C1  UNL     1     -32.257   7.655   3.353  1.00 20.00     0.059 C 
HETATM    2  C4  UNL     1     -32.385   8.455   4.579  1.00 20.00     0.124 C 
HETATM    3  N7  UNL     1     -32.153   7.024   2.384  1.00 20.00    -0.197 NA
ENDROOT
BRANCH   2   4
HETATM    4  C6  UNL     1     -33.788   8.364   5.184  1.00 20.00     0.020 C 
BRANCH   4   5
HETATM    5  C5  UNL     1     -33.891   7.301   6.286  1.00 20.00     0.051 C 
BRANCH   5   6
HETATM    6  C3  UNL     1     -34.512   6.025   5.792  1.00 20.00     0.002 C 
HETATM    7  C2  UNL     1     -34.397   4.845   6.414  1.00 20.00     0.032 C 
HETATM    8 CL8  UNL     1     -35.468   6.153   4.354  1.00 20.00    -0.090 Cl
ENDBRANCH   5   6
ENDBRANCH   4   5
ENDBRANCH   2   4
TORSDOF 3
ENDMDL
MODEL 5
REMARK VINA RESULT:      -4.3      2.249      3.552
REMARK  3 active torsions:
REMARK  status: ('A' for Active; 'I' for Inactive)
REMARK    1  A    between atoms: C3_3  and  C5_5 
REMARK    2  A    between atoms: C4_4  and  C6_6 
REMARK    3  A    between atoms: C5_5  and  C6_6 
ROOT
HETATM    1  C1  UNL     1     -32.667   7.983   4.349  1.00 20.00     0.059 C 
HETATM    2  C4  UNL     1     -33.679   8.058   5.412  1.00 20.00     0.124 C 
HETATM    3  N7  UNL     1     -31.869   7.925   3.508  1.00 20.00    -0.197 NA
ENDROOT
BRANCH   2   4
HETATM    4  C6  UNL     1     -33.524   6.935   6.438  1.00 20.00     0.020 C 
BRANCH   4   5
HETATM    5  C5  UNL     1     -34.639   5.884   6.341  1.00 20.00     0.051 C 
BRANCH   5   6
HETATM    6  C3  UNL     1     -34.810   5.361   4.942  1.00 20.00     0.002 C 
HETATM    7  C2  UNL     1     -34.021   4.433   4.387  1.00 20.00     0.032 C 
HETATM    8 CL8  UNL     1     -36.157   5.993   4.055  1.00 20.00    -0.090 Cl
ENDBRANCH   5   6
ENDBRANCH   4   5
ENDBRANCH   2   4
TORSDOF 3
ENDMDL
MODEL 6
REMARK VINA RESULT:      -4.2      2.374      3.611
REMARK  3 active torsions:
REMARK  status: ('A' for Active; 'I' for Inactive)
REMARK    1  A    between atoms: C3_3  and  C5_5 
REMARK    2  A    between atoms: C4_4  and  C6_6 
REMARK    3  A    between atoms: C5_5  and  C6_6 
ROOT
HETATM    1  C1  UNL     1     -32.206   7.736   3.321  1.00 20.00     0.059 C 
HETATM    2  C4  UNL     1     -32.301   8.373   4.641  1.00 20.00     0.124 C 
HETATM    3  N7  UNL     1     -32.129   7.232   2.278  1.00 20.00    -0.197 NA
ENDROOT
BRANCH   2   4
HETATM    4  C6  UNL     1     -33.742   8.437   5.151  1.00 20.00     0.020 C 
BRANCH   4   5
HETATM    5  C5  UNL     1     -34.037   7.386   6.230  1.00 20.00     0.051 C 
BRANCH   5   6
HETATM    6  C3  UNL     1     -34.559   6.102   5.649  1.00 20.00     0.002 C 
HETATM    7  C2  UNL     1     -35.320   6.032   4.549  1.00 20.00     0.032 C 
HETATM    8 CL8  UNL     1     -34.075   4.649   6.457  1.00 20.00    -0.090 Cl
ENDBRANCH   5   6
ENDBRANCH   4   5
ENDBRANCH   2   4
TORSDOF 3
ENDMDL
MODEL 7
REMARK VINA RESULT:      -4.1      2.527      3.709
REMARK  3 active torsions:
REMARK  status: ('A' for Active; 'I' for Inactive)
REMARK    1  A    between atoms: C3_3  and  C5_5 
REMARK    2  A    between atoms: C4_4  and  C6_6 
REMARK    3  A    between atoms: C5_5  and  C6_6 
ROOT
HETATM    1  C1  UNL     1     -32.464   6.681   2.917  1.00 20.00     0.059 C 
HETATM    2  C4  UNL     1     -32.917   5.313   2.629  1.00 20.00     0.124 C 
HETATM    3  N7  UNL     1     -32.106   7.762   3.143  1.00 20.00    -0.197 NA
ENDROOT
BRANCH   2   4
HETATM    4  C6  UNL     1     -33.822   4.760   3.731  1.00 20.00     0.020 C 
BRANCH   4   5
HETATM    5  C5  UNL     1     -34.793   5.812   4.286  1.00 20.00     0.051 C 
BRANCH   5   6
HETATM    6  C3  UNL     1     -34.524   6.130   5.730  1.00 20.00     0.002 C 
HETATM    7  C2  UNL     1     -34.623   5.240   6.725  1.00 20.00     0.032 C 
HETATM    8 CL8  UNL     1     -34.006   7.747   6.068  1.00 20.00    -0.090 Cl
ENDBRANCH   5   6
ENDBRANCH   4   5
ENDBRANCH   2   4
TORSDOF 3
ENDMDL
MODEL 8
REMARK VINA RESULT:      -4.0      2.736      3.891
REMARK  3 active torsions:
REMARK  status: ('A' for Active; 'I' for Inactive)
REMARK    1  A    between atoms: C3_3  and  C5_5 
REMARK    2  A    between atoms: C4_4  and  C6_6 
REMARK    3  A    between atoms: C5_5  and  C6_6 
ROOT
HETATM    1  C1  UNL     1     -32.243   7.989   1.736  1.00 20.00     0.059 C 
HETATM    2  C4  UNL     1     -32.223   7.195   2.972  1.00 20.00     0.124 C 
HETATM    3  N7  UNL     1     -32.258   8.615   0.758  1.00 20.00    -0.197 NA
ENDROOT
BRANCH   2   4
HETATM    4  C6  UNL     1     -32.359   8.067   4.221  1.00 20.00     0.020 C 
BRANCH   4   5
HETATM    5  C5  UNL     1     -33.794   8.105   4.765  1.00 20.00     0.051 C 
BRANCH   5   6
HETATM    6  C3  UNL     1     -34.208   6.796   5.375  1.00 20.00     0.002 C 
HETATM    7  C2  UNL     1     -33.907   6.422   6.624  1.00 20.00     0.032 C 
HETATM    8 CL8  UNL     1     -35.179   5.766   4.376  1.00 20.00    -0.090 Cl
ENDBRANCH   5   6
ENDBRANCH   4   5
ENDBRANCH   2   4
TORSDOF 3
ENDMDL
MODEL 9
REMARK VINA RESULT:      -3.9      2.218      2.888
REMARK  3 active torsions:
REMARK  status: ('A' for Active; 'I' for Inactive)
REMARK    1  A    between atoms: C3_3  and  C5_5 
REMARK    2  A    between atoms: C4_4  and  C6_6 
REMARK    3  A    between atoms: C5_5  and  C6_6 
ROOT
HETATM    1  C1  UNL     1     -34.140   6.901   6.380  1.00 20.00     0.059 C 
HETATM    2  C4  UNL     1     -34.528   5.485   6.429  1.00 20.00     0.124 C 
HETATM    3  N7  UNL     1     -33.834   8.020   6.343  1.00 20.00    -0.197 NA
ENDROOT
BRANCH   2   4
HETATM    4  C6  UNL     1     -34.533   4.839   5.042  1.00 20.00     0.020 C 
BRANCH   4   5
HETATM    5  C5  UNL     1     -34.517   5.871   3.906  1.00 20.00     0.051 C 
BRANCH   5   6
HETATM    6  C3  UNL     1     -33.224   5.856   3.140  1.00 20.00     0.002 C 
HETATM    7  C2  UNL     1     -32.807   4.827   2.393  1.00 20.00     0.032 C 
HETATM    8 CL8  UNL     1     -32.278   7.305   3.220  1.00 20.00    -0.090 Cl
ENDBRANCH   5   6
ENDBRANCH   4   5
ENDBRANCH   2   4
TORSDOF 3
ENDMDL
