MODEL 1
REMARK VINA RESULT:      -5.3      0.000      0.000
REMARK  0 active torsions:
REMARK  status: ('A' for Active; 'I' for Inactive)
ROOT
HETATM    1  C1  UNL     1     -32.207   8.367   4.154  1.00 20.00     0.000 C 
HETATM    2  C2  UNL     1     -33.273   8.486   5.244  1.00 20.00     0.001 C 
HETATM    3  C3  UNL     1     -32.630   7.382   3.063  1.00 20.00     0.001 C 
HETATM    4  C4  UNL     1     -33.623   7.120   5.834  1.00 20.00     0.009 C 
HETATM    5  C5  UNL     1     -32.980   6.015   3.649  1.00 20.00     0.009 C 
HETATM    6  C6  UNL     1     -35.477   6.038   4.368  1.00 20.00     0.010 A 
HETATM    7  C7  UNL     1     -34.809   4.927   5.126  1.00 20.00     0.010 A 
HETATM    8  C8  UNL     1     -34.015   6.153   4.741  1.00 20.00    -0.040 A 
ENDROOT
TORSDOF 0
ENDMDL
MODEL 2
REMARK VINA RESULT:      -5.2      0.912      3.434
REMARK  0 active torsions:
REMARK  status: ('A' for Active; 'I' for Inactive)
ROOT
HETATM    1  C1  UNL     1     -34.707   5.047   5.546  1.00 20.00     0.000 C 
HETATM    2  C2  UNL     1     -34.522   5.475   4.090  1.00 20.00     0.001 C 
HETATM    3  C3  UNL     1     -34.657   6.248   6.492  1.00 20.00     0.001 C 
HETATM    4  C4  UNL     1     -33.235   6.278   3.903  1.00 20.00     0.009 C 
HETATM    5  C5  UNL     1     -33.372   7.052   6.309  1.00 20.00     0.009 C 
HETATM    6  C6  UNL     1     -33.742   8.778   4.402  1.00 20.00     0.010 A 
HETATM    7  C7  UNL     1     -32.259   8.590   4.547  1.00 20.00     0.010 A 
HETATM    8  C8  UNL     1     -33.192   7.445   4.861  1.00 20.00    -0.040 A 
ENDROOT
TORSDOF 0
ENDMDL
MODEL 3
REMARK VINA RESULT:      -5.2      0.987      2.156
REMARK  0 active torsions:
REMARK  status: ('A' for Active; 'I' for Inactive)
ROOT
HETATM    1  C1  UNL     1     -32.413   7.866   3.315  1.00 20.00     0.000 C 
HETATM    2  C2  UNL     1     -32.658   6.360   3.221  1.00 20.00     0.001 C 
HETATM    3  C3  UNL     1     -32.497   8.356   4.762  1.00 20.00     0.001 C 
HETATM    4  C4  UNL     1     -33.988   5.968   3.864  1.00 20.00     0.009 C 
HETATM    5  C5  UNL     1     -33.825   7.968   5.408  1.00 20.00     0.009 C 
HETATM    6  C6  UNL     1     -33.593   5.579   6.404  1.00 20.00     0.010 A 
HETATM    7  C7  UNL     1     -35.061   5.840   6.219  1.00 20.00     0.010 A 
HETATM    8  C8  UNL     1     -34.063   6.481   5.284  1.00 20.00    -0.040 A 
ENDROOT
TORSDOF 0
ENDMDL
MODEL 4
REMARK VINA RESULT:      -5.0      1.091      3.016
REMARK  0 active torsions:
REMARK  status: ('A' for Active; 'I' for Inactive)
ROOT
HETATM    1  C1  UNL     1     -34.704   5.479   5.956  1.00 20.00     0.000 C 
HETATM    2  C2  UNL     1     -33.943   6.662   6.553  1.00 20.00     0.001 C 
HETATM    3  C3  UNL     1     -34.136   5.080   4.592  1.00 20.00     0.001 C 
HETATM    4  C4  UNL     1     -33.916   7.851   5.593  1.00 20.00     0.009 C 
HETATM    5  C5  UNL     1     -34.109   6.265   3.629  1.00 20.00     0.009 C 
HETATM    6  C6  UNL     1     -31.891   7.570   3.988  1.00 20.00     0.010 A 
HETATM    7  C7  UNL     1     -32.855   8.511   3.323  1.00 20.00     0.010 A 
HETATM    8  C8  UNL     1     -33.376   7.434   4.245  1.00 20.00    -0.040 A 
ENDROOT
TORSDOF 0
ENDMDL
MODEL 5
REMARK VINA RESULT:      -4.5      1.070      2.711
REMARK  0 active torsions:
REMARK  status: ('A' for Active; 'I' for Inactive)
ROOT
HETATM    1  C1  UNL     1     -34.305   6.865   6.538  1.00 20.00     0.000 C 
HETATM    2  C2  UNL     1     -33.190   7.491   5.700  1.00 20.00     0.001 C 
HETATM    3  C3  UNL     1     -34.567   5.416   6.126  1.00 20.00     0.001 C 
HETATM    4  C4  UNL     1     -33.487   7.384   4.205  1.00 20.00     0.009 C 
HETATM    5  C5  UNL     1     -34.866   5.304   4.632  1.00 20.00     0.009 C 
HETATM    6  C6  UNL     1     -32.614   5.089   3.353  1.00 20.00     0.010 A 
HETATM    7  C7  UNL     1     -33.639   5.566   2.365  1.00 20.00     0.010 A 
HETATM    8  C8  UNL     1     -33.767   5.950   3.820  1.00 20.00    -0.040 A 
ENDROOT
TORSDOF 0
ENDMDL
MODEL 6
REMARK VINA RESULT:      -3.7      1.118      2.498
REMARK  0 active torsions:
REMARK  status: ('A' for Active; 'I' for Inactive)
ROOT
HETATM    1  C1  UNL     1     -34.228   7.112   6.407  1.00 20.00     0.000 C 
HETATM    2  C2  UNL     1     -34.839   5.785   5.959  1.00 20.00     0.001 C 
HETATM    3  C3  UNL     1     -33.773   7.950   5.211  1.00 20.00     0.001 C 
HETATM    4  C4  UNL     1     -33.879   5.001   5.064  1.00 20.00     0.009 C 
HETATM    5  C5  UNL     1     -32.813   7.171   4.315  1.00 20.00     0.009 C 
HETATM    6  C6  UNL     1     -34.208   5.792   2.610  1.00 20.00     0.010 A 
HETATM    7  C7  UNL     1     -32.851   5.153   2.691  1.00 20.00     0.010 A 
HETATM    8  C8  UNL     1     -33.423   5.852   3.902  1.00 20.00    -0.040 A 
ENDROOT
TORSDOF 0
ENDMDL
MODEL 7
REMARK VINA RESULT:      -3.7     15.546     16.642
REMARK  0 active torsions:
REMARK  status: ('A' for Active; 'I' for Inactive)
ROOT
HETATM    1  C1  UNL     1     -21.984  18.558  10.269  1.00 20.00     0.000 C 
HETATM    2  C2  UNL     1     -22.069  18.564  11.795  1.00 20.00     0.001 C 
HETATM    3  C3  UNL     1     -23.310  18.977   9.633  1.00 20.00     0.001 C 
HETATM    4  C4  UNL     1     -23.223  17.694  12.294  1.00 20.00     0.009 C 
HETATM    5  C5  UNL     1     -24.466  18.110  10.128  1.00 20.00     0.009 C 
HETATM    6  C6  UNL     1     -25.385  19.136  12.332  1.00 20.00     0.010 A 
HETATM    7  C7  UNL     1     -25.813  17.697  12.302  1.00 20.00     0.010 A 
HETATM    8  C8  UNL     1     -24.520  18.107  11.638  1.00 20.00    -0.040 A 
ENDROOT
TORSDOF 0
ENDMDL
MODEL 8
REMARK VINA RESULT:      -3.6     15.876     17.001
REMARK  0 active torsions:
REMARK  status: ('A' for Active; 'I' for Inactive)
ROOT
HETATM    1  C1  UNL     1     -24.417  18.523  11.911  1.00 20.00     0.000 C 
HETATM    2  C2  UNL     1     -23.047  17.873  12.106  1.00 20.00     0.001 C 
HETATM    3  C3  UNL     1     -24.842  18.503  10.442  1.00 20.00     0.001 C 
HETATM    4  C4  UNL     1     -21.989  18.522  11.213  1.00 20.00     0.009 C 
HETATM    5  C5  UNL     1     -23.788  19.151   9.546  1.00 20.00     0.009 C 
HETATM    6  C6  UNL     1     -22.034  17.348   8.895  1.00 20.00     0.010 A 
HETATM    7  C7  UNL     1     -21.384  18.687   8.699  1.00 20.00     0.010 A 
HETATM    8  C8  UNL     1     -22.436  18.515   9.770  1.00 20.00    -0.040 A 
ENDROOT
TORSDOF 0
ENDMDL
MODEL 9
REMARK VINA RESULT:      -3.6      8.313      9.698
REMARK  0 active torsions:
REMARK  status: ('A' for Active; 'I' for Inactive)
ROOT
HETATM    1  C1  UNL     1     -41.603   8.284  -0.269  1.00 20.00     0.000 C 
HETATM    2  C2  UNL     1     -40.782   7.464   0.725  1.00 20.00     0.001 C 
HETATM    3  C3  UNL     1     -43.101   8.016  -0.113  1.00 20.00     0.001 C 
HETATM    4  C4  UNL     1     -41.094   5.972   0.612  1.00 20.00     0.009 C 
HETATM    5  C5  UNL     1     -43.417   6.526  -0.227  1.00 20.00     0.009 C 
HETATM    6  C6  UNL     1     -43.144   5.442   2.119  1.00 20.00     0.010 A 
HETATM    7  C7  UNL     1     -43.042   4.337   1.107  1.00 20.00     0.010 A 
HETATM    8  C8  UNL     1     -42.579   5.729   0.745  1.00 20.00    -0.040 A 
ENDROOT
TORSDOF 0
ENDMDL
