MODEL 1
REMARK VINA RESULT:      -4.1      0.000      0.000
REMARK  4 active torsions:
REMARK  status: ('A' for Active; 'I' for Inactive)
REMARK    1  A    between atoms: C1_1  and  C4_4 
REMARK    2  A    between atoms: C2_2  and  C6_6 
REMARK    3  A    between atoms: C6_6  and  C7_7 
REMARK    4  A    between atoms: C7_7  and  O8_8 
ROOT
HETATM    1  C1  UNL     1     -33.413  16.584  -2.788  1.00 20.00    -0.072 C 
HETATM    2  C2  UNL     1     -33.561  15.630  -3.503  1.00 20.00    -0.099 C 
ENDROOT
BRANCH   2   3
HETATM    3  C6  UNL     1     -33.743  14.461  -4.377  1.00 20.00     0.120 C 
BRANCH   3   4
HETATM    4  C7  UNL     1     -35.206  14.271  -4.755  1.00 20.00     0.176 C 
BRANCH   4   5
HETATM    5  O8  UNL     1     -35.617  12.950  -4.428  1.00 20.00    -0.400 OA
HETATM    6  H18 UNL     1     -36.062  12.594  -5.214  1.00 20.00     0.209 HD
ENDBRANCH   4   5
ENDBRANCH   3   4
ENDBRANCH   2   3
BRANCH   1   7
HETATM    7  C4  UNL     1     -33.240  17.717  -1.939  1.00 20.00    -0.018 C 
HETATM    8  C3  UNL     1     -32.616  18.805  -2.415  1.00 20.00     0.028 C 
HETATM    9  C5  UNL     1     -33.764  17.658  -0.535  1.00 20.00     0.057 C 
ENDBRANCH   1   7
TORSDOF 4
ENDMDL
MODEL 2
REMARK VINA RESULT:      -4.1      1.383      1.953
REMARK  4 active torsions:
REMARK  status: ('A' for Active; 'I' for Inactive)
REMARK    1  A    between atoms: C1_1  and  C4_4 
REMARK    2  A    between atoms: C2_2  and  C6_6 
REMARK    3  A    between atoms: C6_6  and  C7_7 
REMARK    4  A    between atoms: C7_7  and  O8_8 
ROOT
HETATM    1  C1  UNL     1     -33.213  17.272  -1.997  1.00 20.00    -0.072 C 
HETATM    2  C2  UNL     1     -33.463  16.702  -3.025  1.00 20.00    -0.099 C 
ENDROOT
BRANCH   2   3
HETATM    3  C6  UNL     1     -33.770  16.006  -4.283  1.00 20.00     0.120 C 
BRANCH   3   4
HETATM    4  C7  UNL     1     -34.027  14.523  -4.050  1.00 20.00     0.176 C 
BRANCH   4   5
HETATM    5  O8  UNL     1     -32.948  13.762  -4.576  1.00 20.00    -0.400 OA
HETATM    6  H18 UNL     1     -33.038  12.865  -4.217  1.00 20.00     0.209 HD
ENDBRANCH   4   5
ENDBRANCH   3   4
ENDBRANCH   2   3
BRANCH   1   7
HETATM    7  C4  UNL     1     -32.916  17.951  -0.778  1.00 20.00    -0.018 C 
HETATM    8  C3  UNL     1     -33.880  18.096   0.143  1.00 20.00     0.028 C 
HETATM    9  C5  UNL     1     -31.530  18.483  -0.562  1.00 20.00     0.057 C 
ENDBRANCH   1   7
TORSDOF 4
ENDMDL
MODEL 3
REMARK VINA RESULT:      -4.1      1.475      1.924
REMARK  4 active torsions:
REMARK  status: ('A' for Active; 'I' for Inactive)
REMARK    1  A    between atoms: C1_1  and  C4_4 
REMARK    2  A    between atoms: C2_2  and  C6_6 
REMARK    3  A    between atoms: C6_6  and  C7_7 
REMARK    4  A    between atoms: C7_7  and  O8_8 
ROOT
HETATM    1  C1  UNL     1     -33.337  16.676  -2.666  1.00 20.00    -0.072 C 
HETATM    2  C2  UNL     1     -33.428  15.767  -3.446  1.00 20.00    -0.099 C 
ENDROOT
BRANCH   2   3
HETATM    3  C6  UNL     1     -33.538  14.654  -4.401  1.00 20.00     0.120 C 
BRANCH   3   4
HETATM    4  C7  UNL     1     -34.113  15.117  -5.732  1.00 20.00     0.176 C 
BRANCH   4   5
HETATM    5  O8  UNL     1     -33.259  14.704  -6.791  1.00 20.00    -0.400 OA
HETATM    6  H18 UNL     1     -32.829  15.505  -7.132  1.00 20.00     0.209 HD
ENDBRANCH   4   5
ENDBRANCH   3   4
ENDBRANCH   2   3
BRANCH   1   7
HETATM    7  C4  UNL     1     -33.228  17.754  -1.738  1.00 20.00    -0.018 C 
HETATM    8  C3  UNL     1     -33.778  17.632  -0.522  1.00 20.00     0.028 C 
HETATM    9  C5  UNL     1     -32.496  18.997  -2.153  1.00 20.00     0.057 C 
ENDBRANCH   1   7
TORSDOF 4
ENDMDL
MODEL 4
REMARK VINA RESULT:      -3.9     11.653     12.172
REMARK  4 active torsions:
REMARK  status: ('A' for Active; 'I' for Inactive)
REMARK    1  A    between atoms: C1_1  and  C4_4 
REMARK    2  A    between atoms: C2_2  and  C6_6 
REMARK    3  A    between atoms: C6_6  and  C7_7 
REMARK    4  A    between atoms: C7_7  and  O8_8 
ROOT
HETATM    1  C1  UNL     1     -33.242   7.677   4.495  1.00 20.00    -0.072 C 
HETATM    2  C2  UNL     1     -33.774   7.148   5.434  1.00 20.00    -0.099 C 
ENDROOT
BRANCH   2   3
HETATM    3  C6  UNL     1     -34.426   6.500   6.582  1.00 20.00     0.120 C 
BRANCH   3   4
HETATM    4  C7  UNL     1     -34.601   5.005   6.352  1.00 20.00     0.176 C 
BRANCH   4   5
HETATM    5  O8  UNL     1     -35.268   4.787   5.115  1.00 20.00    -0.400 OA
HETATM    6  H18 UNL     1     -35.492   5.663   4.760  1.00 20.00     0.209 HD
ENDBRANCH   4   5
ENDBRANCH   3   4
ENDBRANCH   2   3
BRANCH   1   7
HETATM    7  C4  UNL     1     -32.609   8.302   3.380  1.00 20.00    -0.018 C 
HETATM    8  C3  UNL     1     -32.496   9.638   3.354  1.00 20.00     0.028 C 
HETATM    9  C5  UNL     1     -32.084   7.443   2.268  1.00 20.00     0.057 C 
ENDBRANCH   1   7
TORSDOF 4
ENDMDL
MODEL 5
REMARK VINA RESULT:      -3.8      3.217      5.071
REMARK  4 active torsions:
REMARK  status: ('A' for Active; 'I' for Inactive)
REMARK    1  A    between atoms: C1_1  and  C4_4 
REMARK    2  A    between atoms: C2_2  and  C6_6 
REMARK    3  A    between atoms: C6_6  and  C7_7 
REMARK    4  A    between atoms: C7_7  and  O8_8 
ROOT
HETATM    1  C1  UNL     1     -33.452  16.748  -2.713  1.00 20.00    -0.072 C 
HETATM    2  C2  UNL     1     -33.243  17.346  -1.693  1.00 20.00    -0.099 C 
ENDROOT
BRANCH   2   3
HETATM    3  C6  UNL     1     -32.987  18.078  -0.443  1.00 20.00     0.120 C 
BRANCH   3   4
HETATM    4  C7  UNL     1     -31.934  19.160  -0.637  1.00 20.00     0.176 C 
BRANCH   4   5
HETATM    5  O8  UNL     1     -30.637  18.596  -0.493  1.00 20.00    -0.400 OA
HETATM    6  H18 UNL     1     -30.566  17.885  -1.151  1.00 20.00     0.209 HD
ENDBRANCH   4   5
ENDBRANCH   3   4
ENDBRANCH   2   3
BRANCH   1   7
HETATM    7  C4  UNL     1     -33.701  16.035  -3.924  1.00 20.00    -0.018 C 
HETATM    8  C3  UNL     1     -33.029  14.900  -4.166  1.00 20.00     0.028 C 
HETATM    9  C5  UNL     1     -34.711  16.577  -4.891  1.00 20.00     0.057 C 
ENDBRANCH   1   7
TORSDOF 4
ENDMDL
MODEL 6
REMARK VINA RESULT:      -3.7     10.972     11.628
REMARK  4 active torsions:
REMARK  status: ('A' for Active; 'I' for Inactive)
REMARK    1  A    between atoms: C1_1  and  C4_4 
REMARK    2  A    between atoms: C2_2  and  C6_6 
REMARK    3  A    between atoms: C6_6  and  C7_7 
REMARK    4  A    between atoms: C7_7  and  O8_8 
ROOT
HETATM    1  C1  UNL     1     -33.559   7.189   4.550  1.00 20.00    -0.072 C 
HETATM    2  C2  UNL     1     -32.979   7.951   3.825  1.00 20.00    -0.099 C 
ENDROOT
BRANCH   2   3
HETATM    3  C6  UNL     1     -32.269   8.885   2.938  1.00 20.00     0.120 C 
BRANCH   3   4
HETATM    4  C7  UNL     1     -32.283   8.400   1.494  1.00 20.00     0.176 C 
BRANCH   4   5
HETATM    5  O8  UNL     1     -32.686   9.460   0.637  1.00 20.00    -0.400 OA
HETATM    6  H18 UNL     1     -31.890   9.762   0.171  1.00 20.00     0.209 HD
ENDBRANCH   4   5
ENDBRANCH   3   4
ENDBRANCH   2   3
BRANCH   1   7
HETATM    7  C4  UNL     1     -34.245   6.285   5.414  1.00 20.00    -0.018 C 
HETATM    8  C3  UNL     1     -34.427   6.617   6.701  1.00 20.00     0.028 C 
HETATM    9  C5  UNL     1     -34.747   4.987   4.854  1.00 20.00     0.057 C 
ENDBRANCH   1   7
TORSDOF 4
ENDMDL
MODEL 7
REMARK VINA RESULT:      -3.7      1.648      1.773
REMARK  4 active torsions:
REMARK  status: ('A' for Active; 'I' for Inactive)
REMARK    1  A    between atoms: C1_1  and  C4_4 
REMARK    2  A    between atoms: C2_2  and  C6_6 
REMARK    3  A    between atoms: C6_6  and  C7_7 
REMARK    4  A    between atoms: C7_7  and  O8_8 
ROOT
HETATM    1  C1  UNL     1     -33.150  17.131  -1.884  1.00 20.00    -0.072 C 
HETATM    2  C2  UNL     1     -33.375  16.383  -2.797  1.00 20.00    -0.099 C 
ENDROOT
BRANCH   2   3
HETATM    3  C6  UNL     1     -33.650  15.468  -3.915  1.00 20.00     0.120 C 
BRANCH   3   4
HETATM    4  C7  UNL     1     -34.405  16.169  -5.036  1.00 20.00     0.176 C 
BRANCH   4   5
HETATM    5  O8  UNL     1     -35.775  16.299  -4.680  1.00 20.00    -0.400 OA
HETATM    6  H18 UNL     1     -35.802  16.455  -3.723  1.00 20.00     0.209 HD
ENDBRANCH   4   5
ENDBRANCH   3   4
ENDBRANCH   2   3
BRANCH   1   7
HETATM    7  C4  UNL     1     -32.885  18.017  -0.798  1.00 20.00    -0.018 C 
HETATM    8  C3  UNL     1     -31.723  18.686  -0.765  1.00 20.00     0.028 C 
HETATM    9  C5  UNL     1     -33.918  18.174   0.279  1.00 20.00     0.057 C 
ENDBRANCH   1   7
TORSDOF 4
ENDMDL
MODEL 8
REMARK VINA RESULT:      -3.5      4.018      5.748
REMARK  4 active torsions:
REMARK  status: ('A' for Active; 'I' for Inactive)
REMARK    1  A    between atoms: C1_1  and  C4_4 
REMARK    2  A    between atoms: C2_2  and  C6_6 
REMARK    3  A    between atoms: C6_6  and  C7_7 
REMARK    4  A    between atoms: C7_7  and  O8_8 
ROOT
HETATM    1  C1  UNL     1     -32.628  18.109  -1.223  1.00 20.00    -0.072 C 
HETATM    2  C2  UNL     1     -31.847  18.554  -0.427  1.00 20.00    -0.099 C 
ENDROOT
BRANCH   2   3
HETATM    3  C6  UNL     1     -30.891  19.098   0.549  1.00 20.00     0.120 C 
BRANCH   3   4
HETATM    4  C7  UNL     1     -30.772  18.200   1.772  1.00 20.00     0.176 C 
BRANCH   4   5
HETATM    5  O8  UNL     1     -31.868  18.436   2.647  1.00 20.00    -0.400 OA
HETATM    6  H18 UNL     1     -32.554  18.878   2.121  1.00 20.00     0.209 HD
ENDBRANCH   4   5
ENDBRANCH   3   4
ENDBRANCH   2   3
BRANCH   1   7
HETATM    7  C4  UNL     1     -33.555  17.577  -2.169  1.00 20.00    -0.018 C 
HETATM    8  C3  UNL     1     -33.320  16.374  -2.712  1.00 20.00     0.028 C 
HETATM    9  C5  UNL     1     -34.769  18.382  -2.526  1.00 20.00     0.057 C 
ENDBRANCH   1   7
TORSDOF 4
ENDMDL
MODEL 9
REMARK VINA RESULT:      -3.4     10.073     11.224
REMARK  4 active torsions:
REMARK  status: ('A' for Active; 'I' for Inactive)
REMARK    1  A    between atoms: C1_1  and  C4_4 
REMARK    2  A    between atoms: C2_2  and  C6_6 
REMARK    3  A    between atoms: C6_6  and  C7_7 
REMARK    4  A    between atoms: C7_7  and  O8_8 
ROOT
HETATM    1  C1  UNL     1     -40.711  13.071   4.946  1.00 20.00    -0.072 C 
HETATM    2  C2  UNL     1     -41.639  13.815   4.775  1.00 20.00    -0.099 C 
ENDROOT
BRANCH   2   3
HETATM    3  C6  UNL     1     -42.775  14.725   4.567  1.00 20.00     0.120 C 
BRANCH   3   4
HETATM    4  C7  UNL     1     -42.578  15.587   3.327  1.00 20.00     0.176 C 
BRANCH   4   5
HETATM    5  O8  UNL     1     -41.903  14.836   2.326  1.00 20.00    -0.400 OA
HETATM    6  H18 UNL     1     -42.033  15.309   1.488  1.00 20.00     0.209 HD
ENDBRANCH   4   5
ENDBRANCH   3   4
ENDBRANCH   2   3
BRANCH   1   7
HETATM    7  C4  UNL     1     -39.608  12.190   5.151  1.00 20.00    -0.018 C 
HETATM    8  C3  UNL     1     -39.213  11.914   6.402  1.00 20.00     0.028 C 
HETATM    9  C5  UNL     1     -38.923  11.596   3.956  1.00 20.00     0.057 C 
ENDBRANCH   1   7
TORSDOF 4
ENDMDL
