MODEL 1
REMARK VINA RESULT:      -4.1      0.000      0.000
REMARK  0 active torsions:
REMARK  status: ('A' for Active; 'I' for Inactive)
ROOT
HETATM    1  C1  UNL     1     -32.965   6.193   3.982  1.00 20.00     0.027 A 
HETATM    2  C2  UNL     1     -33.465   7.608   4.123  1.00 20.00     0.027 A 
HETATM    3  C3  UNL     1     -34.198   6.477   4.816  1.00 20.00     0.120 A 
HETATM    4  C4  UNL     1     -33.025   5.513   2.657  1.00 20.00     0.014 C 
HETATM    5  C5  UNL     1     -32.649   8.613   4.862  1.00 20.00     0.014 C 
HETATM    6 CL6  UNL     1     -35.797   6.050   4.205  1.00 20.00    -0.101 Cl
HETATM    7 CL7  UNL     1     -34.063   6.272   6.562  1.00 20.00    -0.101 Cl
ENDROOT
TORSDOF 0
ENDMDL
MODEL 2
REMARK VINA RESULT:      -4.1      0.021      2.699
REMARK  0 active torsions:
REMARK  status: ('A' for Active; 'I' for Inactive)
ROOT
HETATM    1  C1  UNL     1     -33.469   7.591   4.111  1.00 20.00     0.027 A 
HETATM    2  C2  UNL     1     -32.974   6.174   3.973  1.00 20.00     0.027 A 
HETATM    3  C3  UNL     1     -34.202   6.465   4.813  1.00 20.00     0.120 A 
HETATM    4  C4  UNL     1     -32.646   8.597   4.840  1.00 20.00     0.014 C 
HETATM    5  C5  UNL     1     -33.044   5.489   2.651  1.00 20.00     0.014 C 
HETATM    6 CL6  UNL     1     -34.057   6.268   6.560  1.00 20.00    -0.101 Cl
HETATM    7 CL7  UNL     1     -35.805   6.041   4.214  1.00 20.00    -0.101 Cl
ENDROOT
TORSDOF 0
ENDMDL
MODEL 3
REMARK VINA RESULT:      -3.7     16.093     16.733
REMARK  0 active torsions:
REMARK  status: ('A' for Active; 'I' for Inactive)
ROOT
HETATM    1  C1  UNL     1     -23.907  17.040  10.584  1.00 20.00     0.027 A 
HETATM    2  C2  UNL     1     -24.247  18.504  10.466  1.00 20.00     0.027 A 
HETATM    3  C3  UNL     1     -22.816  18.082  10.737  1.00 20.00     0.120 A 
HETATM    4  C4  UNL     1     -24.433  16.247  11.731  1.00 20.00     0.014 C 
HETATM    5  C5  UNL     1     -24.689  19.059   9.155  1.00 20.00     0.014 C 
HETATM    6 CL6  UNL     1     -22.152  18.440  12.331  1.00 20.00    -0.101 Cl
HETATM    7 CL7  UNL     1     -21.606  18.184   9.459  1.00 20.00    -0.101 Cl
ENDROOT
TORSDOF 0
ENDMDL
MODEL 4
REMARK VINA RESULT:      -3.6     16.144     16.770
REMARK  0 active torsions:
REMARK  status: ('A' for Active; 'I' for Inactive)
ROOT
HETATM    1  C1  UNL     1     -24.262  18.539  10.495  1.00 20.00     0.027 A 
HETATM    2  C2  UNL     1     -23.885  17.083  10.594  1.00 20.00     0.027 A 
HETATM    3  C3  UNL     1     -22.818  18.149  10.744  1.00 20.00     0.120 A 
HETATM    4  C4  UNL     1     -24.736  19.095   9.196  1.00 20.00     0.014 C 
HETATM    5  C5  UNL     1     -24.375  16.266  11.741  1.00 20.00     0.014 C 
HETATM    6 CL6  UNL     1     -21.627  18.294   9.450  1.00 20.00    -0.101 Cl
HETATM    7 CL7  UNL     1     -22.142  18.510  12.331  1.00 20.00    -0.101 Cl
ENDROOT
TORSDOF 0
ENDMDL
MODEL 5
REMARK VINA RESULT:      -3.4     15.718     16.493
REMARK  0 active torsions:
REMARK  status: ('A' for Active; 'I' for Inactive)
ROOT
HETATM    1  C1  UNL     1     -25.009  17.236  11.447  1.00 20.00     0.027 A 
HETATM    2  C2  UNL     1     -25.081  18.511  12.247  1.00 20.00     0.027 A 
HETATM    3  C3  UNL     1     -24.242  18.460  10.985  1.00 20.00     0.120 A 
HETATM    4  C4  UNL     1     -24.341  16.035  12.024  1.00 20.00     0.014 C 
HETATM    5  C5  UNL     1     -26.365  19.263  12.331  1.00 20.00     0.014 C 
HETATM    6 CL6  UNL     1     -22.489  18.528  11.172  1.00 20.00    -0.101 Cl
HETATM    7 CL7  UNL     1     -24.799  19.262   9.518  1.00 20.00    -0.101 Cl
ENDROOT
TORSDOF 0
ENDMDL
MODEL 6
REMARK VINA RESULT:      -3.4     15.795     16.391
REMARK  0 active torsions:
REMARK  status: ('A' for Active; 'I' for Inactive)
ROOT
HETATM    1  C1  UNL     1     -24.181  18.281  10.505  1.00 20.00     0.027 A 
HETATM    2  C2  UNL     1     -23.696  18.686  11.874  1.00 20.00     0.027 A 
HETATM    3  C3  UNL     1     -24.787  17.643  11.740  1.00 20.00     0.120 A 
HETATM    4  C4  UNL     1     -24.917  19.263   9.659  1.00 20.00     0.014 C 
HETATM    5  C5  UNL     1     -22.306  18.351  12.298  1.00 20.00     0.014 C 
HETATM    6 CL6  UNL     1     -26.410  18.094  12.262  1.00 20.00    -0.101 Cl
HETATM    7 CL7  UNL     1     -24.428  15.942  12.034  1.00 20.00    -0.101 Cl
ENDROOT
TORSDOF 0
ENDMDL
MODEL 7
REMARK VINA RESULT:      -3.4     15.920     16.910
REMARK  0 active torsions:
REMARK  status: ('A' for Active; 'I' for Inactive)
ROOT
HETATM    1  C1  UNL     1     -22.907  18.120  12.331  1.00 20.00     0.027 A 
HETATM    2  C2  UNL     1     -24.086  18.723  11.613  1.00 20.00     0.027 A 
HETATM    3  C3  UNL     1     -23.555  17.369  11.185  1.00 20.00     0.120 A 
HETATM    4  C4  UNL     1     -21.565  18.759  12.222  1.00 20.00     0.014 C 
HETATM    5  C5  UNL     1     -25.383  18.891  12.328  1.00 20.00     0.014 C 
HETATM    6 CL6  UNL     1     -22.745  17.271   9.621  1.00 20.00    -0.101 Cl
HETATM    7 CL7  UNL     1     -24.450  15.902  11.578  1.00 20.00    -0.101 Cl
ENDROOT
TORSDOF 0
ENDMDL
MODEL 8
REMARK VINA RESULT:      -3.4     15.875     16.486
REMARK  0 active torsions:
REMARK  status: ('A' for Active; 'I' for Inactive)
ROOT
HETATM    1  C1  UNL     1     -22.735  17.398   9.993  1.00 20.00     0.027 A 
HETATM    2  C2  UNL     1     -22.746  18.574  10.935  1.00 20.00     0.027 A 
HETATM    3  C3  UNL     1     -24.056  17.983  10.452  1.00 20.00     0.120 A 
HETATM    4  C4  UNL     1     -22.217  17.564   8.605  1.00 20.00     0.014 C 
HETATM    5  C5  UNL     1     -22.254  18.410  12.332  1.00 20.00     0.014 C 
HETATM    6 CL6  UNL     1     -25.026  18.954   9.344  1.00 20.00    -0.101 Cl
HETATM    7 CL7  UNL     1     -25.042  17.008  11.540  1.00 20.00    -0.101 Cl
ENDROOT
TORSDOF 0
ENDMDL
MODEL 9
REMARK VINA RESULT:      -3.2     12.230     12.847
REMARK  0 active torsions:
REMARK  status: ('A' for Active; 'I' for Inactive)
ROOT
HETATM    1  C1  UNL     1     -33.208  17.151  -1.596  1.00 20.00     0.027 A 
HETATM    2  C2  UNL     1     -32.444  18.442  -1.451  1.00 20.00     0.027 A 
HETATM    3  C3  UNL     1     -33.902  18.380  -1.042  1.00 20.00     0.120 A 
HETATM    4  C4  UNL     1     -33.492  16.606  -2.953  1.00 20.00     0.014 C 
HETATM    5  C5  UNL     1     -31.333  18.540  -0.462  1.00 20.00     0.014 C 
HETATM    6 CL6  UNL     1     -35.063  19.263  -2.035  1.00 20.00    -0.101 Cl
HETATM    7 CL7  UNL     1     -34.344  18.364   0.664  1.00 20.00    -0.101 Cl
ENDROOT
TORSDOF 0
ENDMDL
