MODEL 1
REMARK VINA RESULT:      -4.9      0.000      0.000
REMARK  2 active torsions:
REMARK  status: ('A' for Active; 'I' for Inactive)
REMARK    1  A    between atoms: C2_2  and  C3_3 
REMARK    2  A    between atoms: C3_3  and  C4_4 
ROOT
HETATM    1  C1  UNL     1     -32.793   7.719   4.080  1.00 20.00     0.059 C 
HETATM    2  C2  UNL     1     -33.735   7.981   5.177  1.00 20.00     0.132 C 
HETATM    3  N5  UNL     1     -32.050   7.512   3.213  1.00 20.00    -0.197 NA
ENDROOT
BRANCH   2   4
HETATM    4  C3  UNL     1     -33.808   6.793   6.134  1.00 20.00     0.131 C 
BRANCH   4   5
HETATM    5  C4  UNL     1     -34.704   5.694   5.603  1.00 20.00     0.388 C 
HETATM    6  F6  UNL     1     -35.651   6.187   4.776  1.00 20.00    -0.171 F 
HETATM    7  F7  UNL     1     -33.995   4.769   4.922  1.00 20.00    -0.171 F 
HETATM    8  F8  UNL     1     -35.333   5.063   6.619  1.00 20.00    -0.171 F 
ENDBRANCH   4   5
ENDBRANCH   2   4
TORSDOF 2
ENDMDL
MODEL 2
REMARK VINA RESULT:      -4.8      2.615      3.407
REMARK  2 active torsions:
REMARK  status: ('A' for Active; 'I' for Inactive)
REMARK    1  A    between atoms: C2_2  and  C3_3 
REMARK    2  A    between atoms: C3_3  and  C4_4 
ROOT
HETATM    1  C1  UNL     1     -34.442   5.151   5.174  1.00 20.00     0.059 C 
HETATM    2  C2  UNL     1     -34.658   6.315   6.045  1.00 20.00     0.132 C 
HETATM    3  N5  UNL     1     -34.272   4.231   4.488  1.00 20.00    -0.197 NA
ENDROOT
BRANCH   2   4
HETATM    4  C3  UNL     1     -33.385   7.149   6.172  1.00 20.00     0.131 C 
BRANCH   4   5
HETATM    5  C4  UNL     1     -33.135   7.990   4.938  1.00 20.00     0.388 C 
HETATM    6  F6  UNL     1     -32.365   7.334   4.043  1.00 20.00    -0.171 F 
HETATM    7  F7  UNL     1     -34.292   8.324   4.328  1.00 20.00    -0.171 F 
HETATM    8  F8  UNL     1     -32.498   9.136   5.266  1.00 20.00    -0.171 F 
ENDBRANCH   4   5
ENDBRANCH   2   4
TORSDOF 2
ENDMDL
MODEL 3
REMARK VINA RESULT:      -4.8      2.598      3.275
REMARK  2 active torsions:
REMARK  status: ('A' for Active; 'I' for Inactive)
REMARK    1  A    between atoms: C2_2  and  C3_3 
REMARK    2  A    between atoms: C3_3  and  C4_4 
ROOT
HETATM    1  C1  UNL     1     -34.448   5.139   5.199  1.00 20.00     0.059 C 
HETATM    2  C2  UNL     1     -34.663   6.295   6.080  1.00 20.00     0.132 C 
HETATM    3  N5  UNL     1     -34.279   4.226   4.505  1.00 20.00    -0.197 NA
ENDROOT
BRANCH   2   4
HETATM    4  C3  UNL     1     -33.396   7.139   6.198  1.00 20.00     0.131 C 
BRANCH   4   5
HETATM    5  C4  UNL     1     -33.156   7.975   4.958  1.00 20.00     0.388 C 
HETATM    6  F6  UNL     1     -32.513   9.124   5.255  1.00 20.00    -0.171 F 
HETATM    7  F7  UNL     1     -32.416   7.304   4.050  1.00 20.00    -0.171 F 
HETATM    8  F8  UNL     1     -34.329   8.299   4.371  1.00 20.00    -0.171 F 
ENDBRANCH   4   5
ENDBRANCH   2   4
TORSDOF 2
ENDMDL
MODEL 4
REMARK VINA RESULT:      -4.8      2.598      3.330
REMARK  2 active torsions:
REMARK  status: ('A' for Active; 'I' for Inactive)
REMARK    1  A    between atoms: C2_2  and  C3_3 
REMARK    2  A    between atoms: C3_3  and  C4_4 
ROOT
HETATM    1  C1  UNL     1     -34.450   5.155   5.230  1.00 20.00     0.059 C 
HETATM    2  C2  UNL     1     -34.648   6.308   6.121  1.00 20.00     0.132 C 
HETATM    3  N5  UNL     1     -34.295   4.245   4.528  1.00 20.00    -0.197 NA
ENDROOT
BRANCH   2   4
HETATM    4  C3  UNL     1     -33.380   7.154   6.213  1.00 20.00     0.131 C 
BRANCH   4   5
HETATM    5  C4  UNL     1     -33.162   7.983   4.965  1.00 20.00     0.388 C 
HETATM    6  F6  UNL     1     -34.332   8.285   4.364  1.00 20.00    -0.171 F 
HETATM    7  F7  UNL     1     -32.526   9.139   5.249  1.00 20.00    -0.171 F 
HETATM    8  F8  UNL     1     -32.404   7.307   4.074  1.00 20.00    -0.171 F 
ENDBRANCH   4   5
ENDBRANCH   2   4
TORSDOF 2
ENDMDL
MODEL 5
REMARK VINA RESULT:      -4.7      2.041      2.581
REMARK  2 active torsions:
REMARK  status: ('A' for Active; 'I' for Inactive)
REMARK    1  A    between atoms: C2_2  and  C3_3 
REMARK    2  A    between atoms: C3_3  and  C4_4 
ROOT
HETATM    1  C1  UNL     1     -33.522   5.136   3.367  1.00 20.00     0.059 C 
HETATM    2  C2  UNL     1     -34.454   4.850   4.467  1.00 20.00     0.132 C 
HETATM    3  N5  UNL     1     -32.786   5.360   2.499  1.00 20.00    -0.197 NA
ENDROOT
BRANCH   2   4
HETATM    4  C3  UNL     1     -34.928   6.139   5.134  1.00 20.00     0.131 C 
BRANCH   4   5
HETATM    5  C4  UNL     1     -34.048   6.526   6.304  1.00 20.00     0.388 C 
HETATM    6  F6  UNL     1     -32.953   7.202   5.895  1.00 20.00    -0.171 F 
HETATM    7  F7  UNL     1     -34.715   7.303   7.184  1.00 20.00    -0.171 F 
HETATM    8  F8  UNL     1     -33.628   5.425   6.966  1.00 20.00    -0.171 F 
ENDBRANCH   4   5
ENDBRANCH   2   4
TORSDOF 2
ENDMDL
MODEL 6
REMARK VINA RESULT:      -4.6      2.052      2.553
REMARK  2 active torsions:
REMARK  status: ('A' for Active; 'I' for Inactive)
REMARK    1  A    between atoms: C2_2  and  C3_3 
REMARK    2  A    between atoms: C3_3  and  C4_4 
ROOT
HETATM    1  C1  UNL     1     -33.524   5.110   3.373  1.00 20.00     0.059 C 
HETATM    2  C2  UNL     1     -34.464   4.842   4.470  1.00 20.00     0.132 C 
HETATM    3  N5  UNL     1     -32.780   5.320   2.508  1.00 20.00    -0.197 NA
ENDROOT
BRANCH   2   4
HETATM    4  C3  UNL     1     -34.923   6.141   5.129  1.00 20.00     0.131 C 
BRANCH   4   5
HETATM    5  C4  UNL     1     -34.056   6.510   6.314  1.00 20.00     0.388 C 
HETATM    6  F6  UNL     1     -34.722   7.296   7.186  1.00 20.00    -0.171 F 
HETATM    7  F7  UNL     1     -33.638   5.411   6.978  1.00 20.00    -0.171 F 
HETATM    8  F8  UNL     1     -32.959   7.185   5.907  1.00 20.00    -0.171 F 
ENDBRANCH   4   5
ENDBRANCH   2   4
TORSDOF 2
ENDMDL
MODEL 7
REMARK VINA RESULT:      -4.6      2.062      2.572
REMARK  2 active torsions:
REMARK  status: ('A' for Active; 'I' for Inactive)
REMARK    1  A    between atoms: C2_2  and  C3_3 
REMARK    2  A    between atoms: C3_3  and  C4_4 
ROOT
HETATM    1  C1  UNL     1     -33.545   5.082   3.396  1.00 20.00     0.059 C 
HETATM    2  C2  UNL     1     -34.499   4.888   4.497  1.00 20.00     0.132 C 
HETATM    3  N5  UNL     1     -32.792   5.234   2.527  1.00 20.00    -0.197 NA
ENDROOT
BRANCH   2   4
HETATM    4  C3  UNL     1     -34.897   6.224   5.121  1.00 20.00     0.131 C 
BRANCH   4   5
HETATM    5  C4  UNL     1     -34.014   6.583   6.297  1.00 20.00     0.388 C 
HETATM    6  F6  UNL     1     -33.584   5.481   6.946  1.00 20.00    -0.171 F 
HETATM    7  F7  UNL     1     -32.930   7.285   5.902  1.00 20.00    -0.171 F 
HETATM    8  F8  UNL     1     -34.693   7.344   7.184  1.00 20.00    -0.171 F 
ENDBRANCH   4   5
ENDBRANCH   2   4
TORSDOF 2
ENDMDL
MODEL 8
REMARK VINA RESULT:      -4.4      2.970      3.706
REMARK  2 active torsions:
REMARK  status: ('A' for Active; 'I' for Inactive)
REMARK    1  A    between atoms: C2_2  and  C3_3 
REMARK    2  A    between atoms: C3_3  and  C4_4 
ROOT
HETATM    1  C1  UNL     1     -34.095   6.541   6.039  1.00 20.00     0.059 C 
HETATM    2  C2  UNL     1     -33.265   7.693   5.660  1.00 20.00     0.132 C 
HETATM    3  N5  UNL     1     -34.749   5.631   6.339  1.00 20.00    -0.197 NA
ENDROOT
BRANCH   2   4
HETATM    4  C3  UNL     1     -33.479   8.065   4.194  1.00 20.00     0.131 C 
BRANCH   4   5
HETATM    5  C4  UNL     1     -32.354   7.563   3.314  1.00 20.00     0.388 C 
HETATM    6  F6  UNL     1     -32.333   8.205   2.127  1.00 20.00    -0.171 F 
HETATM    7  F7  UNL     1     -31.153   7.736   3.905  1.00 20.00    -0.171 F 
HETATM    8  F8  UNL     1     -32.501   6.243   3.064  1.00 20.00    -0.171 F 
ENDBRANCH   4   5
ENDBRANCH   2   4
TORSDOF 2
ENDMDL
MODEL 9
REMARK VINA RESULT:      -4.2      1.521      2.007
REMARK  2 active torsions:
REMARK  status: ('A' for Active; 'I' for Inactive)
REMARK    1  A    between atoms: C2_2  and  C3_3 
REMARK    2  A    between atoms: C3_3  and  C4_4 
ROOT
HETATM    1  C1  UNL     1     -32.633   8.080   4.462  1.00 20.00     0.059 C 
HETATM    2  C2  UNL     1     -33.126   6.739   4.119  1.00 20.00     0.132 C 
HETATM    3  N5  UNL     1     -32.242   9.139   4.732  1.00 20.00    -0.197 NA
ENDROOT
BRANCH   2   4
HETATM    4  C3  UNL     1     -34.489   6.476   4.755  1.00 20.00     0.131 C 
BRANCH   4   5
HETATM    5  C4  UNL     1     -34.376   6.197   6.239  1.00 20.00     0.388 C 
HETATM    6  F6  UNL     1     -33.162   5.701   6.556  1.00 20.00    -0.171 F 
HETATM    7  F7  UNL     1     -34.572   7.318   6.966  1.00 20.00    -0.171 F 
HETATM    8  F8  UNL     1     -35.303   5.293   6.623  1.00 20.00    -0.171 F 
ENDBRANCH   4   5
ENDBRANCH   2   4
TORSDOF 2
ENDMDL
