MODEL 1
REMARK VINA RESULT:      -3.7      0.000      0.000
REMARK  0 active torsions:
REMARK  status: ('A' for Active; 'I' for Inactive)
ROOT
HETATM    1  C1  UNL     1     -34.313   5.969   6.052  1.00 20.00     0.135 C 
HETATM    2  C2  UNL     1     -33.369   7.101   6.367  1.00 20.00     0.088 C 
HETATM    3  C3  UNL     1     -33.539   6.807   3.961  1.00 20.00     0.025 C 
HETATM    4  C4  UNL     1     -34.461   5.726   4.560  1.00 20.00     0.014 C 
HETATM    5  C5  UNL     1     -33.317   7.883   5.048  1.00 20.00    -0.040 C 
HETATM    6  C6  UNL     1     -33.958   4.324   4.210  1.00 20.00     0.023 C 
HETATM    7  C7  UNL     1     -35.919   5.880   4.128  1.00 20.00     0.023 C 
HETATM    8  C8  UNL     1     -31.951   8.558   4.864  1.00 20.00     0.015 C 
HETATM    9  C9  UNL     1     -34.403   8.970   5.014  1.00 20.00     0.015 C 
HETATM   10  O10 UNL     1     -34.863   5.295   6.917  1.00 20.00    -0.297 OA
ENDROOT
TORSDOF 0
ENDMDL
MODEL 2
REMARK VINA RESULT:      -3.7      1.961      3.655
REMARK  0 active torsions:
REMARK  status: ('A' for Active; 'I' for Inactive)
ROOT
HETATM    1  C1  UNL     1     -32.829   6.892   3.425  1.00 20.00     0.135 C 
HETATM    2  C2  UNL     1     -33.322   5.560   3.929  1.00 20.00     0.088 C 
HETATM    3  C3  UNL     1     -33.904   7.311   5.509  1.00 20.00     0.025 C 
HETATM    4  C4  UNL     1     -33.155   8.035   4.372  1.00 20.00     0.014 C 
HETATM    5  C5  UNL     1     -34.393   5.955   4.954  1.00 20.00    -0.040 C 
HETATM    6  C6  UNL     1     -31.860   8.667   4.886  1.00 20.00     0.023 C 
HETATM    7  C7  UNL     1     -34.010   9.091   3.672  1.00 20.00     0.023 C 
HETATM    8  C8  UNL     1     -34.483   4.915   6.080  1.00 20.00     0.015 C 
HETATM    9  C9  UNL     1     -35.773   6.067   4.287  1.00 20.00     0.015 C 
HETATM   10  O10 UNL     1     -32.196   7.022   2.383  1.00 20.00    -0.297 OA
ENDROOT
TORSDOF 0
ENDMDL
MODEL 3
REMARK VINA RESULT:      -3.7      1.607      2.500
REMARK  0 active torsions:
REMARK  status: ('A' for Active; 'I' for Inactive)
ROOT
HETATM    1  C1  UNL     1     -33.402   5.822   3.826  1.00 20.00     0.135 C 
HETATM    2  C2  UNL     1     -32.640   6.822   2.994  1.00 20.00     0.088 C 
HETATM    3  C3  UNL     1     -34.259   7.971   4.395  1.00 20.00     0.025 C 
HETATM    4  C4  UNL     1     -34.440   6.475   4.724  1.00 20.00     0.014 C 
HETATM    5  C5  UNL     1     -32.867   8.140   3.746  1.00 20.00    -0.040 C 
HETATM    6  C6  UNL     1     -35.839   5.995   4.333  1.00 20.00     0.023 C 
HETATM    7  C7  UNL     1     -34.167   6.151   6.192  1.00 20.00     0.023 C 
HETATM    8  C8  UNL     1     -32.866   9.330   2.777  1.00 20.00     0.015 C 
HETATM    9  C9  UNL     1     -31.766   8.368   4.794  1.00 20.00     0.015 C 
HETATM   10  O10 UNL     1     -33.226   4.611   3.747  1.00 20.00    -0.297 OA
ENDROOT
TORSDOF 0
ENDMDL
MODEL 4
REMARK VINA RESULT:      -3.6     12.747     13.780
REMARK  0 active torsions:
REMARK  status: ('A' for Active; 'I' for Inactive)
ROOT
HETATM    1  C1  UNL     1     -34.040  15.254  -4.247  1.00 20.00     0.135 C 
HETATM    2  C2  UNL     1     -33.346  16.300  -3.414  1.00 20.00     0.088 C 
HETATM    3  C3  UNL     1     -34.322  17.327  -5.387  1.00 20.00     0.025 C 
HETATM    4  C4  UNL     1     -34.670  15.829  -5.505  1.00 20.00     0.014 C 
HETATM    5  C5  UNL     1     -33.975  17.609  -3.908  1.00 20.00    -0.040 C 
HETATM    6  C6  UNL     1     -34.015  15.212  -6.742  1.00 20.00     0.023 C 
HETATM    7  C7  UNL     1     -36.176  15.567  -5.526  1.00 20.00     0.023 C 
HETATM    8  C8  UNL     1     -32.978  18.771  -3.802  1.00 20.00     0.015 C 
HETATM    9  C9  UNL     1     -35.221  17.963  -3.080  1.00 20.00     0.015 C 
HETATM   10  O10 UNL     1     -34.053  14.063  -3.955  1.00 20.00    -0.297 OA
ENDROOT
TORSDOF 0
ENDMDL
MODEL 5
REMARK VINA RESULT:      -3.4      9.187     10.668
REMARK  0 active torsions:
REMARK  status: ('A' for Active; 'I' for Inactive)
ROOT
HETATM    1  C1  UNL     1     -42.256  12.973   7.121  1.00 20.00     0.135 C 
HETATM    2  C2  UNL     1     -42.136  13.739   8.414  1.00 20.00     0.088 C 
HETATM    3  C3  UNL     1     -40.284  14.298   6.943  1.00 20.00     0.025 C 
HETATM    4  C4  UNL     1     -41.122  13.271   6.155  1.00 20.00     0.014 C 
HETATM    5  C5  UNL     1     -41.191  14.890   8.045  1.00 20.00    -0.040 C 
HETATM    6  C6  UNL     1     -40.318  11.996   5.890  1.00 20.00     0.023 C 
HETATM    7  C7  UNL     1     -41.664  13.829   4.839  1.00 20.00     0.023 C 
HETATM    8  C8  UNL     1     -40.353  15.321   9.257  1.00 20.00     0.015 C 
HETATM    9  C9  UNL     1     -41.983  16.110   7.547  1.00 20.00     0.015 C 
HETATM   10  O10 UNL     1     -43.152  12.165   6.902  1.00 20.00    -0.297 OA
ENDROOT
TORSDOF 0
ENDMDL
MODEL 6
REMARK VINA RESULT:      -3.4      9.595     11.141
REMARK  0 active torsions:
REMARK  status: ('A' for Active; 'I' for Inactive)
ROOT
HETATM    1  C1  UNL     1     -40.690  14.045   7.538  1.00 20.00     0.135 C 
HETATM    2  C2  UNL     1     -40.856  15.542   7.600  1.00 20.00     0.088 C 
HETATM    3  C3  UNL     1     -42.102  14.646   5.716  1.00 20.00     0.025 C 
HETATM    4  C4  UNL     1     -41.441  13.419   6.375  1.00 20.00     0.014 C 
HETATM    5  C5  UNL     1     -42.119  15.783   6.762  1.00 20.00    -0.040 C 
HETATM    6  C6  UNL     1     -40.450  12.752   5.418  1.00 20.00     0.023 C 
HETATM    7  C7  UNL     1     -42.456  12.392   6.875  1.00 20.00     0.023 C 
HETATM    8  C8  UNL     1     -42.064  17.152   6.070  1.00 20.00     0.015 C 
HETATM    9  C9  UNL     1     -43.377  15.738   7.644  1.00 20.00     0.015 C 
HETATM   10  O10 UNL     1     -39.987  13.416   8.322  1.00 20.00    -0.297 OA
ENDROOT
TORSDOF 0
ENDMDL
MODEL 7
REMARK VINA RESULT:      -3.3      9.759     11.565
REMARK  0 active torsions:
REMARK  status: ('A' for Active; 'I' for Inactive)
ROOT
HETATM    1  C1  UNL     1     -42.145  15.285   6.050  1.00 20.00     0.135 C 
HETATM    2  C2  UNL     1     -41.783  14.029   5.301  1.00 20.00     0.088 C 
HETATM    3  C3  UNL     1     -40.796  13.983   7.520  1.00 20.00     0.025 C 
HETATM    4  C4  UNL     1     -41.552  15.326   7.449  1.00 20.00     0.014 C 
HETATM    5  C5  UNL     1     -41.375  13.064   6.422  1.00 20.00    -0.040 C 
HETATM    6  C6  UNL     1     -40.585  16.505   7.568  1.00 20.00     0.023 C 
HETATM    7  C7  UNL     1     -42.654  15.445   8.501  1.00 20.00     0.023 C 
HETATM    8  C8  UNL     1     -40.309  12.074   5.932  1.00 20.00     0.015 C 
HETATM    9  C9  UNL     1     -42.587  12.262   6.921  1.00 20.00     0.015 C 
HETATM   10  O10 UNL     1     -42.810  16.191   5.559  1.00 20.00    -0.297 OA
ENDROOT
TORSDOF 0
ENDMDL
MODEL 8
REMARK VINA RESULT:      -3.3      9.514     11.312
REMARK  0 active torsions:
REMARK  status: ('A' for Active; 'I' for Inactive)
ROOT
HETATM    1  C1  UNL     1     -42.383  13.379   8.122  1.00 20.00     0.135 C 
HETATM    2  C2  UNL     1     -42.623  12.989   6.687  1.00 20.00     0.088 C 
HETATM    3  C3  UNL     1     -41.364  15.064   6.781  1.00 20.00     0.025 C 
HETATM    4  C4  UNL     1     -41.603  14.677   8.254  1.00 20.00     0.014 C 
HETATM    5  C5  UNL     1     -41.558  13.790   5.928  1.00 20.00    -0.040 C 
HETATM    6  C6  UNL     1     -42.460  15.727   8.963  1.00 20.00     0.023 C 
HETATM    7  C7  UNL     1     -40.305  14.452   9.029  1.00 20.00     0.023 C 
HETATM    8  C8  UNL     1     -42.047  14.156   4.519  1.00 20.00     0.015 C 
HETATM    9  C9  UNL     1     -40.258  12.981   5.794  1.00 20.00     0.015 C 
HETATM   10  O10 UNL     1     -42.812  12.735   9.073  1.00 20.00    -0.297 OA
ENDROOT
TORSDOF 0
ENDMDL
MODEL 9
REMARK VINA RESULT:      -3.3     15.546     16.664
REMARK  0 active torsions:
REMARK  status: ('A' for Active; 'I' for Inactive)
ROOT
HETATM    1  C1  UNL     1     -23.907  18.608   9.196  1.00 20.00     0.135 C 
HETATM    2  C2  UNL     1     -25.040  18.239  10.119  1.00 20.00     0.088 C 
HETATM    3  C3  UNL     1     -22.960  17.286  10.937  1.00 20.00     0.025 C 
HETATM    4  C4  UNL     1     -22.573  18.036   9.647  1.00 20.00     0.014 C 
HETATM    5  C5  UNL     1     -24.316  17.851  11.415  1.00 20.00    -0.040 C 
HETATM    6  C6  UNL     1     -22.040  17.067   8.590  1.00 20.00     0.023 C 
HETATM    7  C7  UNL     1     -21.559  19.154   9.890  1.00 20.00     0.023 C 
HETATM    8  C8  UNL     1     -25.104  16.781  12.184  1.00 20.00     0.015 C 
HETATM    9  C9  UNL     1     -24.142  19.073  12.331  1.00 20.00     0.015 C 
HETATM   10  O10 UNL     1     -24.063  19.263   8.172  1.00 20.00    -0.297 OA
ENDROOT
TORSDOF 0
ENDMDL
