MODEL 1
REMARK VINA RESULT:      -5.6      0.000      0.000
REMARK  1 active torsions:
REMARK  status: ('A' for Active; 'I' for Inactive)
REMARK    1  A    between atoms: C1_1  and  C3_3 
ROOT
HETATM    1  C2  UNL     1     -33.114   6.742   6.060  1.00 20.00     0.110 C 
HETATM    2  C3  UNL     1     -33.669   7.024   4.635  1.00 20.00     0.110 C 
HETATM    3  C4  UNL     1     -34.367   5.896   6.360  1.00 20.00     0.310 C 
HETATM    4  C5  UNL     1     -34.587   5.771   4.831  1.00 20.00     0.323 C 
HETATM    5  C6  UNL     1     -34.446   8.340   4.539  1.00 20.00     0.031 C 
HETATM    6  F8  UNL     1     -35.350   6.535   7.034  1.00 20.00    -0.200 F 
HETATM    7  F9  UNL     1     -34.142   4.732   7.011  1.00 20.00    -0.200 F 
HETATM    8  F10 UNL     1     -34.122   4.621   4.287  1.00 20.00    -0.198 F 
HETATM    9  F11 UNL     1     -35.867   5.902   4.416  1.00 20.00    -0.198 F 
ENDROOT
BRANCH   2  10
HETATM   10  C1  UNL     1     -32.632   6.911   3.483  1.00 20.00     0.233 C 
HETATM   11  O7  UNL     1     -31.761   7.759   3.312  1.00 20.00    -0.279 OA
HETATM   12 CL12 UNL     1     -32.874   5.483   2.523  1.00 20.00    -0.043 Cl
ENDBRANCH   2  10
TORSDOF 1
ENDMDL
MODEL 2
REMARK VINA RESULT:      -5.5      2.903      3.591
REMARK  1 active torsions:
REMARK  status: ('A' for Active; 'I' for Inactive)
REMARK    1  A    between atoms: C1_1  and  C3_3 
ROOT
HETATM    1  C2  UNL     1     -33.017   6.440   3.510  1.00 20.00     0.110 C 
HETATM    2  C3  UNL     1     -34.203   6.305   4.508  1.00 20.00     0.110 C 
HETATM    3  C4  UNL     1     -32.728   7.845   4.074  1.00 20.00     0.310 C 
HETATM    4  C5  UNL     1     -33.529   7.447   5.339  1.00 20.00     0.323 C 
HETATM    5  C6  UNL     1     -35.550   6.705   3.902  1.00 20.00     0.031 C 
HETATM    6  F8  UNL     1     -33.245   8.872   3.363  1.00 20.00    -0.200 F 
HETATM    7  F9  UNL     1     -31.423   8.133   4.281  1.00 20.00    -0.200 F 
HETATM    8  F10 UNL     1     -32.769   7.034   6.381  1.00 20.00    -0.198 F 
HETATM    9  F11 UNL     1     -34.360   8.397   5.824  1.00 20.00    -0.198 F 
ENDROOT
BRANCH   2  10
HETATM   10  C1  UNL     1     -34.310   4.934   5.232  1.00 20.00     0.233 C 
HETATM   11  O7  UNL     1     -34.023   3.881   4.668  1.00 20.00    -0.279 OA
HETATM   12 CL12 UNL     1     -34.864   5.100   6.870  1.00 20.00    -0.043 Cl
ENDBRANCH   2  10
TORSDOF 1
ENDMDL
MODEL 3
REMARK VINA RESULT:      -5.5      2.218      2.810
REMARK  1 active torsions:
REMARK  status: ('A' for Active; 'I' for Inactive)
REMARK    1  A    between atoms: C1_1  and  C3_3 
ROOT
HETATM    1  C2  UNL     1     -33.392   7.477   4.012  1.00 20.00     0.110 C 
HETATM    2  C3  UNL     1     -34.273   6.301   4.520  1.00 20.00     0.110 C 
HETATM    3  C4  UNL     1     -33.468   8.114   5.414  1.00 20.00     0.310 C 
HETATM    4  C5  UNL     1     -33.860   6.722   5.970  1.00 20.00     0.323 C 
HETATM    5  C6  UNL     1     -35.764   6.494   4.230  1.00 20.00     0.031 C 
HETATM    6  F8  UNL     1     -34.404   9.079   5.561  1.00 20.00    -0.200 F 
HETATM    7  F9  UNL     1     -32.308   8.622   5.887  1.00 20.00    -0.200 F 
HETATM    8  F10 UNL     1     -32.834   6.020   6.507  1.00 20.00    -0.198 F 
HETATM    9  F11 UNL     1     -34.849   6.722   6.892  1.00 20.00    -0.198 F 
ENDROOT
BRANCH   2  10
HETATM   10  C1  UNL     1     -33.807   4.883   4.085  1.00 20.00     0.233 C 
HETATM   11  O7  UNL     1     -34.116   3.878   4.719  1.00 20.00    -0.279 OA
HETATM   12 CL12 UNL     1     -32.835   4.928   2.645  1.00 20.00    -0.043 Cl
ENDBRANCH   2  10
TORSDOF 1
ENDMDL
MODEL 4
REMARK VINA RESULT:      -5.0     12.923     13.990
REMARK  1 active torsions:
REMARK  status: ('A' for Active; 'I' for Inactive)
REMARK    1  A    between atoms: C1_1  and  C3_3 
ROOT
HETATM    1  C2  UNL     1     -34.461  14.484  -4.228  1.00 20.00     0.110 C 
HETATM    2  C3  UNL     1     -34.846  15.385  -5.436  1.00 20.00     0.110 C 
HETATM    3  C4  UNL     1     -33.591  15.630  -3.675  1.00 20.00     0.310 C 
HETATM    4  C5  UNL     1     -34.401  16.607  -4.564  1.00 20.00     0.323 C 
HETATM    5  C6  UNL     1     -33.961  15.158  -6.664  1.00 20.00     0.031 C 
HETATM    6  F8  UNL     1     -32.272  15.547  -3.963  1.00 20.00    -0.200 F 
HETATM    7  F9  UNL     1     -33.685  15.844  -2.343  1.00 20.00    -0.200 F 
HETATM    8  F10 UNL     1     -35.402  17.255  -3.922  1.00 20.00    -0.198 F 
HETATM    9  F11 UNL     1     -33.675  17.554  -5.198  1.00 20.00    -0.198 F 
ENDROOT
BRANCH   2  10
HETATM   10  C1  UNL     1     -36.349  15.364  -5.828  1.00 20.00     0.233 C 
HETATM   11  O7  UNL     1     -37.165  14.671  -5.226  1.00 20.00    -0.279 OA
HETATM   12 CL12 UNL     1     -36.689  16.410  -7.174  1.00 20.00    -0.043 Cl
ENDBRANCH   2  10
TORSDOF 1
ENDMDL
MODEL 5
REMARK VINA RESULT:      -4.8      2.937      3.784
REMARK  1 active torsions:
REMARK  status: ('A' for Active; 'I' for Inactive)
REMARK    1  A    between atoms: C1_1  and  C3_3 
ROOT
HETATM    1  C2  UNL     1     -34.285   8.453   4.280  1.00 20.00     0.110 C 
HETATM    2  C3  UNL     1     -33.746   7.062   4.720  1.00 20.00     0.110 C 
HETATM    3  C4  UNL     1     -32.897   8.785   3.698  1.00 20.00     0.310 C 
HETATM    4  C5  UNL     1     -32.598   7.265   3.676  1.00 20.00     0.323 C 
HETATM    5  C6  UNL     1     -33.254   7.036   6.169  1.00 20.00     0.031 C 
HETATM    6  F8  UNL     1     -32.093   9.519   4.501  1.00 20.00    -0.200 F 
HETATM    7  F9  UNL     1     -32.901   9.394   2.491  1.00 20.00    -0.200 F 
HETATM    8  F10 UNL     1     -32.795   6.670   2.475  1.00 20.00    -0.198 F 
HETATM    9  F11 UNL     1     -31.358   6.911   4.080  1.00 20.00    -0.198 F 
ENDROOT
BRANCH   2  10
HETATM   10  C1  UNL     1     -34.692   5.862   4.437  1.00 20.00     0.233 C 
HETATM   11  O7  UNL     1     -35.897   6.019   4.254  1.00 20.00    -0.279 OA
HETATM   12 CL12 UNL     1     -33.842   4.347   4.420  1.00 20.00    -0.043 Cl
ENDBRANCH   2  10
TORSDOF 1
ENDMDL
MODEL 6
REMARK VINA RESULT:      -4.7     13.599     14.610
REMARK  1 active torsions:
REMARK  status: ('A' for Active; 'I' for Inactive)
REMARK    1  A    between atoms: C1_1  and  C3_3 
ROOT
HETATM    1  C2  UNL     1     -36.084  15.004  -5.516  1.00 20.00     0.110 C 
HETATM    2  C3  UNL     1     -34.863  15.886  -5.128  1.00 20.00     0.110 C 
HETATM    3  C4  UNL     1     -35.940  15.481  -6.975  1.00 20.00     0.310 C 
HETATM    4  C5  UNL     1     -34.480  15.885  -6.646  1.00 20.00     0.323 C 
HETATM    5  C6  UNL     1     -35.258  17.267  -4.601  1.00 20.00     0.031 C 
HETATM    6  F8  UNL     1     -36.753  16.499  -7.335  1.00 20.00    -0.200 F 
HETATM    7  F9  UNL     1     -36.078  14.521  -7.918  1.00 20.00    -0.200 F 
HETATM    8  F10 UNL     1     -33.548  14.971  -7.008  1.00 20.00    -0.198 F 
HETATM    9  F11 UNL     1     -34.076  17.069  -7.158  1.00 20.00    -0.198 F 
ENDROOT
BRANCH   2  10
HETATM   10  C1  UNL     1     -33.828  15.211  -4.185  1.00 20.00     0.233 C 
HETATM   11  O7  UNL     1     -33.551  14.019  -4.277  1.00 20.00    -0.279 OA
HETATM   12 CL12 UNL     1     -33.157  16.333  -3.040  1.00 20.00    -0.043 Cl
ENDBRANCH   2  10
TORSDOF 1
ENDMDL
MODEL 7
REMARK VINA RESULT:      -4.7     11.724     12.488
REMARK  1 active torsions:
REMARK  status: ('A' for Active; 'I' for Inactive)
REMARK    1  A    between atoms: C1_1  and  C3_3 
ROOT
HETATM    1  C2  UNL     1     -27.957  -1.052  12.332  1.00 20.00     0.110 C 
HETATM    2  C3  UNL     1     -27.983  -2.361  11.491  1.00 20.00     0.110 C 
HETATM    3  C4  UNL     1     -26.637  -0.658  11.640  1.00 20.00     0.310 C 
HETATM    4  C5  UNL     1     -26.990  -1.655  10.508  1.00 20.00     0.323 C 
HETATM    5  C6  UNL     1     -27.370  -3.559  12.221  1.00 20.00     0.031 C 
HETATM    6  F8  UNL     1     -25.511  -0.945  12.332  1.00 20.00    -0.200 F 
HETATM    7  F9  UNL     1     -26.541   0.637  11.263  1.00 20.00    -0.200 F 
HETATM    8  F10 UNL     1     -27.560  -1.090   9.417  1.00 20.00    -0.198 F 
HETATM    9  F11 UNL     1     -25.964  -2.411  10.058  1.00 20.00    -0.198 F 
ENDROOT
BRANCH   2  10
HETATM   10  C1  UNL     1     -29.364  -2.733  10.884  1.00 20.00     0.233 C 
HETATM   11  O7  UNL     1     -30.390  -2.136  11.198  1.00 20.00    -0.279 OA
HETATM   12 CL12 UNL     1     -29.249  -4.047   9.753  1.00 20.00    -0.043 Cl
ENDBRANCH   2  10
TORSDOF 1
ENDMDL
MODEL 8
REMARK VINA RESULT:      -4.7      8.892      9.869
REMARK  1 active torsions:
REMARK  status: ('A' for Active; 'I' for Inactive)
REMARK    1  A    between atoms: C1_1  and  C3_3 
ROOT
HETATM    1  C2  UNL     1     -42.637   7.579  -0.445  1.00 20.00     0.110 C 
HETATM    2  C3  UNL     1     -42.526   6.270   0.388  1.00 20.00     0.110 C 
HETATM    3  C4  UNL     1     -41.169   7.899  -0.102  1.00 20.00     0.310 C 
HETATM    4  C5  UNL     1     -40.973   6.399   0.235  1.00 20.00     0.323 C 
HETATM    5  C6  UNL     1     -43.012   6.428   1.830  1.00 20.00     0.031 C 
HETATM    6  F8  UNL     1     -40.988   8.751   0.933  1.00 20.00    -0.200 F 
HETATM    7  F9  UNL     1     -40.420   8.366  -1.126  1.00 20.00    -0.200 F 
HETATM    8  F10 UNL     1     -40.425   5.665  -0.762  1.00 20.00    -0.198 F 
HETATM    9  F11 UNL     1     -40.245   6.143   1.345  1.00 20.00    -0.198 F 
ENDROOT
BRANCH   2  10
HETATM   10  C1  UNL     1     -43.152   5.008  -0.270  1.00 20.00     0.233 C 
HETATM   11  O7  UNL     1     -43.412   4.966  -1.469  1.00 20.00    -0.279 OA
HETATM   12 CL12 UNL     1     -43.416   3.733   0.881  1.00 20.00    -0.043 Cl
ENDBRANCH   2  10
TORSDOF 1
ENDMDL
MODEL 9
REMARK VINA RESULT:      -4.6     12.726     13.951
REMARK  1 active torsions:
REMARK  status: ('A' for Active; 'I' for Inactive)
REMARK    1  A    between atoms: C1_1  and  C3_3 
ROOT
HETATM    1  C2  UNL     1     -35.678  16.693  -4.962  1.00 20.00     0.110 C 
HETATM    2  C3  UNL     1     -34.724  15.544  -5.398  1.00 20.00     0.110 C 
HETATM    3  C4  UNL     1     -36.842  15.966  -5.662  1.00 20.00     0.310 C 
HETATM    4  C5  UNL     1     -36.003  14.665  -5.596  1.00 20.00     0.323 C 
HETATM    5  C6  UNL     1     -33.979  15.840  -6.702  1.00 20.00     0.031 C 
HETATM    6  F8  UNL     1     -37.132  16.402  -6.908  1.00 20.00    -0.200 F 
HETATM    7  F9  UNL     1     -38.008  15.940  -4.978  1.00 20.00    -0.200 F 
HETATM    8  F10 UNL     1     -36.311  13.848  -4.560  1.00 20.00    -0.198 F 
HETATM    9  F11 UNL     1     -36.031  13.899  -6.709  1.00 20.00    -0.198 F 
ENDROOT
BRANCH   2  10
HETATM   10  C1  UNL     1     -33.740  15.045  -4.303  1.00 20.00     0.233 C 
HETATM   11  O7  UNL     1     -33.230  13.929  -4.354  1.00 20.00    -0.279 OA
HETATM   12 CL12 UNL     1     -33.482  16.234  -3.063  1.00 20.00    -0.043 Cl
ENDBRANCH   2  10
TORSDOF 1
ENDMDL
