MODEL 1
REMARK VINA RESULT:      -5.2      0.000      0.000
REMARK  0 active torsions:
REMARK  status: ('A' for Active; 'I' for Inactive)
ROOT
HETATM    1  C1  UNL     1     -32.833   7.047   3.463  1.00 20.00     0.131 C 
HETATM    2  C2  UNL     1     -33.340   5.673   3.831  1.00 20.00     0.087 C 
HETATM    3  C3  UNL     1     -33.838   7.260   5.583  1.00 20.00     0.021 C 
HETATM    4  C4  UNL     1     -33.311   8.113   4.425  1.00 20.00     0.052 C 
HETATM    5  C5  UNL     1     -34.375   5.972   4.929  1.00 20.00    -0.041 C 
HETATM    6  C6  UNL     1     -32.206   9.062   4.848  1.00 20.00     0.018 C 
HETATM    7  C7  UNL     1     -35.770   6.196   4.320  1.00 20.00     0.015 C 
HETATM    8  C8  UNL     1     -34.451   4.831   5.947  1.00 20.00     0.015 C 
HETATM    9  O9  UNL     1     -32.116   7.264   2.493  1.00 20.00    -0.298 OA
ENDROOT
TORSDOF 0
ENDMDL
MODEL 2
REMARK VINA RESULT:      -3.9      9.061      9.997
REMARK  0 active torsions:
REMARK  status: ('A' for Active; 'I' for Inactive)
ROOT
HETATM    1  C1  UNL     1     -39.723  12.526   6.632  1.00 20.00     0.131 C 
HETATM    2  C2  UNL     1     -40.488  13.711   7.171  1.00 20.00     0.087 C 
HETATM    3  C3  UNL     1     -41.080  13.294   4.867  1.00 20.00     0.021 C 
HETATM    4  C4  UNL     1     -40.217  12.094   5.269  1.00 20.00     0.052 C 
HETATM    5  C5  UNL     1     -41.663  13.837   6.186  1.00 20.00    -0.041 C 
HETATM    6  C6  UNL     1     -39.089  11.826   4.291  1.00 20.00     0.018 C 
HETATM    7  C7  UNL     1     -42.863  12.996   6.654  1.00 20.00     0.015 C 
HETATM    8  C8  UNL     1     -42.103  15.295   6.031  1.00 20.00     0.015 C 
HETATM    9  O9  UNL     1     -38.805  11.983   7.237  1.00 20.00    -0.298 OA
ENDROOT
TORSDOF 0
ENDMDL
MODEL 3
REMARK VINA RESULT:      -3.8      2.017      3.646
REMARK  0 active torsions:
REMARK  status: ('A' for Active; 'I' for Inactive)
ROOT
HETATM    1  C1  UNL     1     -34.358   5.997   5.878  1.00 20.00     0.131 C 
HETATM    2  C2  UNL     1     -33.631   7.277   6.214  1.00 20.00     0.087 C 
HETATM    3  C3  UNL     1     -33.228   6.649   3.916  1.00 20.00     0.021 C 
HETATM    4  C4  UNL     1     -34.314   5.681   4.398  1.00 20.00     0.052 C 
HETATM    5  C5  UNL     1     -33.348   7.885   4.828  1.00 20.00    -0.041 C 
HETATM    6  C6  UNL     1     -33.977   4.230   4.116  1.00 20.00     0.018 C 
HETATM    7  C7  UNL     1     -34.506   8.796   4.384  1.00 20.00     0.015 C 
HETATM    8  C8  UNL     1     -32.048   8.693   4.831  1.00 20.00     0.015 C 
HETATM    9  O9  UNL     1     -34.918   5.299   6.716  1.00 20.00    -0.298 OA
ENDROOT
TORSDOF 0
ENDMDL
MODEL 4
REMARK VINA RESULT:      -3.8      1.254      2.285
REMARK  0 active torsions:
REMARK  status: ('A' for Active; 'I' for Inactive)
ROOT
HETATM    1  C1  UNL     1     -32.924   8.010   4.632  1.00 20.00     0.131 C 
HETATM    2  C2  UNL     1     -34.224   7.551   5.248  1.00 20.00     0.087 C 
HETATM    3  C3  UNL     1     -33.624   6.141   3.381  1.00 20.00     0.021 C 
HETATM    4  C4  UNL     1     -32.398   7.033   3.602  1.00 20.00     0.052 C 
HETATM    5  C5  UNL     1     -34.353   6.105   4.738  1.00 20.00    -0.041 C 
HETATM    6  C6  UNL     1     -31.928   7.714   2.332  1.00 20.00     0.018 C 
HETATM    7  C7  UNL     1     -33.679   5.119   5.708  1.00 20.00     0.015 C 
HETATM    8  C8  UNL     1     -35.821   5.708   4.561  1.00 20.00     0.015 C 
HETATM    9  O9  UNL     1     -32.366   9.058   4.937  1.00 20.00    -0.298 OA
ENDROOT
TORSDOF 0
ENDMDL
MODEL 5
REMARK VINA RESULT:      -3.7     15.360     16.353
REMARK  0 active torsions:
REMARK  status: ('A' for Active; 'I' for Inactive)
ROOT
HETATM    1  C1  UNL     1     -24.288  16.878  11.407  1.00 20.00     0.131 C 
HETATM    2  C2  UNL     1     -23.543  16.801  10.096  1.00 20.00     0.087 C 
HETATM    3  C3  UNL     1     -24.201  19.077  10.568  1.00 20.00     0.021 C 
HETATM    4  C4  UNL     1     -24.529  18.305  11.850  1.00 20.00     0.052 C 
HETATM    5  C5  UNL     1     -23.100  18.258   9.868  1.00 20.00    -0.041 C 
HETATM    6  C6  UNL     1     -25.948  18.539  12.332  1.00 20.00     0.018 C 
HETATM    7  C7  UNL     1     -21.723  18.517  10.503  1.00 20.00     0.015 C 
HETATM    8  C8  UNL     1     -23.034  18.591   8.375  1.00 20.00     0.015 C 
HETATM    9  O9  UNL     1     -24.653  15.890  12.034  1.00 20.00    -0.298 OA
ENDROOT
TORSDOF 0
ENDMDL
MODEL 6
REMARK VINA RESULT:      -3.7     12.157     13.236
REMARK  0 active torsions:
REMARK  status: ('A' for Active; 'I' for Inactive)
ROOT
HETATM    1  C1  UNL     1     -34.585  17.409  -3.972  1.00 20.00     0.131 C 
HETATM    2  C2  UNL     1     -34.876  18.351  -2.828  1.00 20.00     0.087 C 
HETATM    3  C3  UNL     1     -33.322  16.634  -2.141  1.00 20.00     0.021 C 
HETATM    4  C4  UNL     1     -33.457  16.451  -3.657  1.00 20.00     0.052 C 
HETATM    5  C5  UNL     1     -33.695  18.105  -1.873  1.00 20.00    -0.041 C 
HETATM    6  C6  UNL     1     -33.771  15.021  -4.052  1.00 20.00     0.018 C 
HETATM    7  C7  UNL     1     -32.522  19.046  -2.198  1.00 20.00     0.015 C 
HETATM    8  C8  UNL     1     -34.110  18.307  -0.413  1.00 20.00     0.015 C 
HETATM    9  O9  UNL     1     -35.200  17.426  -5.033  1.00 20.00    -0.298 OA
ENDROOT
TORSDOF 0
ENDMDL
MODEL 7
REMARK VINA RESULT:      -3.6     12.224     13.112
REMARK  0 active torsions:
REMARK  status: ('A' for Active; 'I' for Inactive)
ROOT
HETATM    1  C1  UNL     1     -33.983  18.707   0.275  1.00 20.00     0.131 C 
HETATM    2  C2  UNL     1     -34.386  18.885  -1.170  1.00 20.00     0.087 C 
HETATM    3  C3  UNL     1     -31.998  18.565  -0.986  1.00 20.00     0.021 C 
HETATM    4  C4  UNL     1     -32.536  18.288   0.421  1.00 20.00     0.052 C 
HETATM    5  C5  UNL     1     -33.184  18.303  -1.935  1.00 20.00    -0.041 C 
HETATM    6  C6  UNL     1     -31.804  19.069   1.496  1.00 20.00     0.018 C 
HETATM    7  C7  UNL     1     -33.374  16.797  -2.189  1.00 20.00     0.015 C 
HETATM    8  C8  UNL     1     -32.981  19.015  -3.275  1.00 20.00     0.015 C 
HETATM    9  O9  UNL     1     -34.749  18.885   1.215  1.00 20.00    -0.298 OA
ENDROOT
TORSDOF 0
ENDMDL
MODEL 8
REMARK VINA RESULT:      -3.6     12.265     13.359
REMARK  0 active torsions:
REMARK  status: ('A' for Active; 'I' for Inactive)
ROOT
HETATM    1  C1  UNL     1     -33.982  14.939  -4.556  1.00 20.00     0.131 C 
HETATM    2  C2  UNL     1     -35.166  14.874  -5.492  1.00 20.00     0.087 C 
HETATM    3  C3  UNL     1     -34.929  17.096  -4.575  1.00 20.00     0.021 C 
HETATM    4  C4  UNL     1     -33.664  16.355  -4.128  1.00 20.00     0.052 C 
HETATM    5  C5  UNL     1     -35.413  16.354  -5.835  1.00 20.00    -0.041 C 
HETATM    6  C6  UNL     1     -33.406  16.476  -2.639  1.00 20.00     0.018 C 
HETATM    7  C7  UNL     1     -34.602  16.771  -7.075  1.00 20.00     0.015 C 
HETATM    8  C8  UNL     1     -36.897  16.623  -6.094  1.00 20.00     0.015 C 
HETATM    9  O9  UNL     1     -33.357  13.950  -4.189  1.00 20.00    -0.298 OA
ENDROOT
TORSDOF 0
ENDMDL
MODEL 9
REMARK VINA RESULT:      -3.4      1.343      3.430
REMARK  0 active torsions:
REMARK  status: ('A' for Active; 'I' for Inactive)
ROOT
HETATM    1  C1  UNL     1     -33.121   5.966   3.411  1.00 20.00     0.131 C 
HETATM    2  C2  UNL     1     -32.478   7.132   2.699  1.00 20.00     0.087 C 
HETATM    3  C3  UNL     1     -34.097   7.910   4.314  1.00 20.00     0.021 C 
HETATM    4  C4  UNL     1     -33.979   6.406   4.578  1.00 20.00     0.052 C 
HETATM    5  C5  UNL     1     -32.770   8.312   3.643  1.00 20.00    -0.041 C 
HETATM    6  C6  UNL     1     -35.324   5.707   4.616  1.00 20.00     0.018 C 
HETATM    7  C7  UNL     1     -31.646   8.475   4.681  1.00 20.00     0.015 C 
HETATM    8  C8  UNL     1     -32.924   9.621   2.863  1.00 20.00     0.015 C 
HETATM    9  O9  UNL     1     -32.962   4.798   3.073  1.00 20.00    -0.298 OA
ENDROOT
TORSDOF 0
ENDMDL
