MODEL 1
REMARK VINA RESULT:      -5.0      0.000      0.000
REMARK  1 active torsions:
REMARK  status: ('A' for Active; 'I' for Inactive)
REMARK    1  A    between atoms: C1_1  and  C6_6 
ROOT
HETATM    1  C2  UNL     1     -34.001   5.009   6.029  1.00 20.00     0.005 C 
HETATM    2  C3  UNL     1     -34.258   6.476   6.402  1.00 20.00     0.006 C 
HETATM    3  C4  UNL     1     -33.326   5.682   3.714  1.00 20.00     0.016 C 
HETATM    4  C5  UNL     1     -35.565   5.947   4.497  1.00 20.00     0.010 C 
HETATM    5  C6  UNL     1     -33.582   7.162   4.044  1.00 20.00     0.051 C 
HETATM    6  C7  UNL     1     -34.401   4.956   4.545  1.00 20.00    -0.013 C 
HETATM    7  C8  UNL     1     -34.730   7.095   5.072  1.00 20.00    -0.003 C 
ENDROOT
BRANCH   5   8
HETATM    8  C1  UNL     1     -32.366   7.877   4.544  1.00 20.00     0.236 C 
HETATM    9  O9  UNL     1     -32.372   9.048   4.906  1.00 20.00    -0.306 OA
ENDBRANCH   5   8
TORSDOF 1
ENDMDL
MODEL 2
REMARK VINA RESULT:      -4.0      8.811     10.049
REMARK  1 active torsions:
REMARK  status: ('A' for Active; 'I' for Inactive)
REMARK    1  A    between atoms: C1_1  and  C6_6 
ROOT
HETATM    1  C2  UNL     1     -41.930   8.291  -0.734  1.00 20.00     0.005 C 
HETATM    2  C3  UNL     1     -43.067   7.882   0.214  1.00 20.00     0.006 C 
HETATM    3  C4  UNL     1     -40.893   6.022  -0.519  1.00 20.00     0.016 C 
HETATM    4  C5  UNL     1     -41.003   7.533   1.326  1.00 20.00     0.010 C 
HETATM    5  C6  UNL     1     -42.007   5.577   0.442  1.00 20.00     0.051 C 
HETATM    6  C7  UNL     1     -40.724   7.516  -0.179  1.00 20.00    -0.013 C 
HETATM    7  C8  UNL     1     -42.382   6.885   1.168  1.00 20.00    -0.003 C 
ENDROOT
BRANCH   5   8
HETATM    8  C1  UNL     1     -43.160   4.921  -0.251  1.00 20.00     0.236 C 
HETATM    9  O9  UNL     1     -43.231   4.791  -1.469  1.00 20.00    -0.306 OA
ENDBRANCH   5   8
TORSDOF 1
ENDMDL
MODEL 3
REMARK VINA RESULT:      -3.9     15.621     16.628
REMARK  1 active torsions:
REMARK  status: ('A' for Active; 'I' for Inactive)
REMARK    1  A    between atoms: C1_1  and  C6_6 
ROOT
HETATM    1  C2  UNL     1     -24.354  18.898  12.332  1.00 20.00     0.005 C 
HETATM    2  C3  UNL     1     -25.159  18.541  11.074  1.00 20.00     0.006 C 
HETATM    3  C4  UNL     1     -22.221  18.265  11.185  1.00 20.00     0.016 C 
HETATM    4  C5  UNL     1     -23.891  16.644  11.714  1.00 20.00     0.010 C 
HETATM    5  C6  UNL     1     -22.991  17.887   9.909  1.00 20.00     0.051 C 
HETATM    6  C7  UNL     1     -23.205  17.878  12.305  1.00 20.00    -0.013 C 
HETATM    7  C8  UNL     1     -24.345  17.389  10.455  1.00 20.00    -0.003 C 
ENDROOT
BRANCH   5   8
HETATM    8  C1  UNL     1     -23.113  19.016   8.934  1.00 20.00     0.236 C 
HETATM    9  O9  UNL     1     -23.299  18.854   7.732  1.00 20.00    -0.306 OA
ENDBRANCH   5   8
TORSDOF 1
ENDMDL
MODEL 4
REMARK VINA RESULT:      -3.7     15.377     16.543
REMARK  1 active torsions:
REMARK  status: ('A' for Active; 'I' for Inactive)
REMARK    1  A    between atoms: C1_1  and  C6_6 
ROOT
HETATM    1  C2  UNL     1     -25.047  16.995  11.602  1.00 20.00     0.005 C 
HETATM    2  C3  UNL     1     -23.593  16.645  11.954  1.00 20.00     0.006 C 
HETATM    3  C4  UNL     1     -24.268  18.735   9.979  1.00 20.00     0.016 C 
HETATM    4  C5  UNL     1     -23.917  18.963  12.329  1.00 20.00     0.010 C 
HETATM    5  C6  UNL     1     -22.800  18.422  10.310  1.00 20.00     0.051 C 
HETATM    6  C7  UNL     1     -24.979  18.506  11.327  1.00 20.00    -0.013 C 
HETATM    7  C8  UNL     1     -22.862  17.991  11.790  1.00 20.00    -0.003 C 
ENDROOT
BRANCH   5   8
HETATM    8  C1  UNL     1     -22.195  17.392   9.408  1.00 20.00     0.236 C 
HETATM    9  O9  UNL     1     -22.409  17.342   8.202  1.00 20.00    -0.306 OA
ENDBRANCH   5   8
TORSDOF 1
ENDMDL
MODEL 5
REMARK VINA RESULT:      -3.7      2.010      3.326
REMARK  1 active torsions:
REMARK  status: ('A' for Active; 'I' for Inactive)
REMARK    1  A    between atoms: C1_1  and  C6_6 
ROOT
HETATM    1  C2  UNL     1     -32.179   7.757   4.453  1.00 20.00     0.005 C 
HETATM    2  C3  UNL     1     -32.979   6.845   3.511  1.00 20.00     0.006 C 
HETATM    3  C4  UNL     1     -33.660   7.126   6.371  1.00 20.00     0.016 C 
HETATM    4  C5  UNL     1     -34.477   8.383   4.514  1.00 20.00     0.010 C 
HETATM    5  C6  UNL     1     -34.492   6.210   5.459  1.00 20.00     0.051 C 
HETATM    6  C7  UNL     1     -33.253   8.272   5.425  1.00 20.00    -0.013 C 
HETATM    7  C8  UNL     1     -34.405   6.913   4.089  1.00 20.00    -0.003 C 
ENDROOT
BRANCH   5   8
HETATM    8  C1  UNL     1     -34.009   4.794   5.441  1.00 20.00     0.236 C 
HETATM    9  O9  UNL     1     -34.204   4.025   4.506  1.00 20.00    -0.306 OA
ENDBRANCH   5   8
TORSDOF 1
ENDMDL
MODEL 6
REMARK VINA RESULT:      -3.7      9.168     10.293
REMARK  1 active torsions:
REMARK  status: ('A' for Active; 'I' for Inactive)
REMARK    1  A    between atoms: C1_1  and  C6_6 
ROOT
HETATM    1  C2  UNL     1     -43.208   6.023   2.129  1.00 20.00     0.005 C 
HETATM    2  C3  UNL     1     -42.199   4.987   1.612  1.00 20.00     0.006 C 
HETATM    3  C4  UNL     1     -43.416   7.009  -0.163  1.00 20.00     0.016 C 
HETATM    4  C5  UNL     1     -41.387   7.150   1.085  1.00 20.00     0.010 C 
HETATM    5  C6  UNL     1     -42.402   5.995  -0.718  1.00 20.00     0.051 C 
HETATM    6  C7  UNL     1     -42.902   7.259   1.268  1.00 20.00    -0.013 C 
HETATM    7  C8  UNL     1     -41.470   5.743   0.485  1.00 20.00    -0.003 C 
ENDROOT
BRANCH   5   8
HETATM    8  C1  UNL     1     -43.040   4.754  -1.257  1.00 20.00     0.236 C 
HETATM    9  O9  UNL     1     -42.745   4.258  -2.339  1.00 20.00    -0.306 OA
ENDBRANCH   5   8
TORSDOF 1
ENDMDL
MODEL 7
REMARK VINA RESULT:      -3.6     12.343     13.669
REMARK  1 active torsions:
REMARK  status: ('A' for Active; 'I' for Inactive)
REMARK    1  A    between atoms: C1_1  and  C6_6 
ROOT
HETATM    1  C2  UNL     1     -33.224  16.926  -3.336  1.00 20.00     0.005 C 
HETATM    2  C3  UNL     1     -33.645  16.656  -1.884  1.00 20.00     0.006 C 
HETATM    3  C4  UNL     1     -32.543  19.260  -2.738  1.00 20.00     0.016 C 
HETATM    4  C5  UNL     1     -34.823  18.559  -2.663  1.00 20.00     0.010 C 
HETATM    5  C6  UNL     1     -32.961  19.033  -1.276  1.00 20.00     0.051 C 
HETATM    6  C7  UNL     1     -33.564  18.414  -3.521  1.00 20.00    -0.013 C 
HETATM    7  C8  UNL     1     -34.131  18.036  -1.401  1.00 20.00    -0.003 C 
ENDROOT
BRANCH   5   8
HETATM    8  C1  UNL     1     -31.843  18.546  -0.408  1.00 20.00     0.236 C 
HETATM    9  O9  UNL     1     -30.678  18.475  -0.784  1.00 20.00    -0.306 OA
ENDBRANCH   5   8
TORSDOF 1
ENDMDL
MODEL 8
REMARK VINA RESULT:      -3.6      8.654     10.129
REMARK  1 active torsions:
REMARK  status: ('A' for Active; 'I' for Inactive)
REMARK    1  A    between atoms: C1_1  and  C6_6 
ROOT
HETATM    1  C2  UNL     1     -40.620   6.767   0.872  1.00 20.00     0.005 C 
HETATM    2  C3  UNL     1     -40.932   5.995  -0.418  1.00 20.00     0.006 C 
HETATM    3  C4  UNL     1     -43.045   6.771   1.494  1.00 20.00     0.016 C 
HETATM    4  C5  UNL     1     -42.232   7.976  -0.398  1.00 20.00     0.010 C 
HETATM    5  C6  UNL     1     -43.401   6.006   0.209  1.00 20.00     0.051 C 
HETATM    6  C7  UNL     1     -41.863   7.654   1.051  1.00 20.00    -0.013 C 
HETATM    7  C8  UNL     1     -42.338   6.500  -0.794  1.00 20.00    -0.003 C 
ENDROOT
BRANCH   5   8
HETATM    8  C1  UNL     1     -43.416   4.521   0.388  1.00 20.00     0.236 C 
HETATM    9  O9  UNL     1     -43.185   3.966   1.457  1.00 20.00    -0.306 OA
ENDBRANCH   5   8
TORSDOF 1
ENDMDL
MODEL 9
REMARK VINA RESULT:      -3.5      0.952      2.093
REMARK  1 active torsions:
REMARK  status: ('A' for Active; 'I' for Inactive)
REMARK    1  A    between atoms: C1_1  and  C6_6 
ROOT
HETATM    1  C2  UNL     1     -35.713   5.808   4.551  1.00 20.00     0.005 C 
HETATM    2  C3  UNL     1     -34.529   6.103   3.617  1.00 20.00     0.006 C 
HETATM    3  C4  UNL     1     -34.439   6.717   6.505  1.00 20.00     0.016 C 
HETATM    4  C5  UNL     1     -33.764   4.722   5.384  1.00 20.00     0.010 C 
HETATM    5  C6  UNL     1     -33.228   7.019   5.606  1.00 20.00     0.051 C 
HETATM    6  C7  UNL     1     -35.023   5.439   5.874  1.00 20.00    -0.013 C 
HETATM    7  C8  UNL     1     -33.307   5.912   4.535  1.00 20.00    -0.003 C 
ENDROOT
BRANCH   5   8
HETATM    8  C1  UNL     1     -33.240   8.405   5.043  1.00 20.00     0.236 C 
HETATM    9  O9  UNL     1     -32.239   8.965   4.607  1.00 20.00    -0.306 OA
ENDBRANCH   5   8
TORSDOF 1
ENDMDL
