MODEL 1
REMARK VINA RESULT:      -3.9      0.000      0.000
REMARK  0 active torsions:
REMARK  status: ('A' for Active; 'I' for Inactive)
ROOT
HETATM    1  C1  UNL     1     -34.285   4.708   5.385  1.00 20.00     0.072 C 
HETATM    2  C2  UNL     1     -34.569   5.476   6.668  1.00 20.00     0.173 C 
HETATM    3  C3  UNL     1     -33.518   6.902   5.156  1.00 20.00     0.255 C 
HETATM    4  C4  UNL     1     -34.230   5.817   4.348  1.00 20.00     0.154 C 
HETATM    5  O5  UNL     1     -34.015   6.792   6.502  1.00 20.00    -0.367 OA
HETATM    6 CL6  UNL     1     -33.703   8.554   4.551  1.00 20.00    -0.092 Cl
HETATM    7 CL7  UNL     1     -33.318   5.337   2.906  1.00 20.00    -0.098 Cl
HETATM    8 CL8  UNL     1     -35.900   6.272   3.874  1.00 20.00    -0.098 Cl
ENDROOT
TORSDOF 0
ENDMDL
MODEL 2
REMARK VINA RESULT:      -3.9      1.816      2.726
REMARK  0 active torsions:
REMARK  status: ('A' for Active; 'I' for Inactive)
ROOT
HETATM    1  C1  UNL     1     -34.028   7.458   5.865  1.00 20.00     0.072 C 
HETATM    2  C2  UNL     1     -33.508   8.403   4.792  1.00 20.00     0.173 C 
HETATM    3  C3  UNL     1     -33.050   6.213   4.149  1.00 20.00     0.255 C 
HETATM    4  C4  UNL     1     -34.259   6.175   5.084  1.00 20.00     0.154 C 
HETATM    5  O5  UNL     1     -32.856   7.595   3.799  1.00 20.00    -0.367 OA
HETATM    6 CL6  UNL     1     -33.173   5.209   2.697  1.00 20.00    -0.092 Cl
HETATM    7 CL7  UNL     1     -34.260   4.746   6.133  1.00 20.00    -0.098 Cl
HETATM    8 CL8  UNL     1     -35.825   6.280   4.217  1.00 20.00    -0.098 Cl
ENDROOT
TORSDOF 0
ENDMDL
MODEL 3
REMARK VINA RESULT:      -3.6     16.257     16.945
REMARK  0 active torsions:
REMARK  status: ('A' for Active; 'I' for Inactive)
ROOT
HETATM    1  C1  UNL     1     -22.974  17.222   9.829  1.00 20.00     0.072 C 
HETATM    2  C2  UNL     1     -23.083  18.601   9.197  1.00 20.00     0.173 C 
HETATM    3  C3  UNL     1     -24.848  18.318  10.689  1.00 20.00     0.255 C 
HETATM    4  C4  UNL     1     -23.707  17.410  11.147  1.00 20.00     0.154 C 
HETATM    5  O5  UNL     1     -24.286  19.202   9.703  1.00 20.00    -0.367 OA
HETATM    6 CL6  UNL     1     -25.658  19.235  11.967  1.00 20.00    -0.092 Cl
HETATM    7 CL7  UNL     1     -24.289  15.873  11.812  1.00 20.00    -0.098 Cl
HETATM    8 CL8  UNL     1     -22.612  18.195  12.331  1.00 20.00    -0.098 Cl
ENDROOT
TORSDOF 0
ENDMDL
MODEL 4
REMARK VINA RESULT:      -3.4      8.840      9.448
REMARK  0 active torsions:
REMARK  status: ('A' for Active; 'I' for Inactive)
ROOT
HETATM    1  C1  UNL     1     -42.243   4.916   1.518  1.00 20.00     0.072 C 
HETATM    2  C2  UNL     1     -43.392   5.552   2.286  1.00 20.00     0.173 C 
HETATM    3  C3  UNL     1     -42.429   7.161   0.905  1.00 20.00     0.255 C 
HETATM    4  C4  UNL     1     -42.153   5.793   0.281  1.00 20.00     0.154 C 
HETATM    5  O5  UNL     1     -43.417   6.944   1.928  1.00 20.00    -0.367 OA
HETATM    6 CL6  UNL     1     -42.954   8.424  -0.218  1.00 20.00    -0.092 Cl
HETATM    7 CL7  UNL     1     -40.556   5.707  -0.484  1.00 20.00    -0.098 Cl
HETATM    8 CL8  UNL     1     -43.408   5.290  -0.898  1.00 20.00    -0.098 Cl
ENDROOT
TORSDOF 0
ENDMDL
MODEL 5
REMARK VINA RESULT:      -3.3     16.416     17.325
REMARK  0 active torsions:
REMARK  status: ('A' for Active; 'I' for Inactive)
ROOT
HETATM    1  C1  UNL     1     -24.626  18.738   9.415  1.00 20.00     0.072 C 
HETATM    2  C2  UNL     1     -23.270  18.592   8.741  1.00 20.00     0.173 C 
HETATM    3  C3  UNL     1     -22.943  18.937  11.021  1.00 20.00     0.255 C 
HETATM    4  C4  UNL     1     -24.327  18.314  10.843  1.00 20.00     0.154 C 
HETATM    5  O5  UNL     1     -22.272  18.794   9.756  1.00 20.00    -0.367 OA
HETATM    6 CL6  UNL     1     -21.963  18.265  12.332  1.00 20.00    -0.092 Cl
HETATM    7 CL7  UNL     1     -25.514  18.957  11.993  1.00 20.00    -0.098 Cl
HETATM    8 CL8  UNL     1     -24.313  16.523  10.941  1.00 20.00    -0.098 Cl
ENDROOT
TORSDOF 0
ENDMDL
MODEL 6
REMARK VINA RESULT:      -3.2      1.611      2.805
REMARK  0 active torsions:
REMARK  status: ('A' for Active; 'I' for Inactive)
ROOT
HETATM    1  C1  UNL     1     -33.981   7.920   4.137  1.00 20.00     0.072 C 
HETATM    2  C2  UNL     1     -32.804   8.081   5.087  1.00 20.00     0.173 C 
HETATM    3  C3  UNL     1     -34.268   6.499   5.966  1.00 20.00     0.255 C 
HETATM    4  C4  UNL     1     -34.462   6.513   4.450  1.00 20.00     0.154 C 
HETATM    5  O5  UNL     1     -33.064   7.242   6.225  1.00 20.00    -0.367 OA
HETATM    6 CL6  UNL     1     -34.189   4.897   6.714  1.00 20.00    -0.092 Cl
HETATM    7 CL7  UNL     1     -36.154   6.267   3.981  1.00 20.00    -0.098 Cl
HETATM    8 CL8  UNL     1     -33.426   5.325   3.595  1.00 20.00    -0.098 Cl
ENDROOT
TORSDOF 0
ENDMDL
MODEL 7
REMARK VINA RESULT:      -3.2      8.803      9.434
REMARK  0 active torsions:
REMARK  status: ('A' for Active; 'I' for Inactive)
ROOT
HETATM    1  C1  UNL     1     -43.417   7.020   1.657  1.00 20.00     0.072 C 
HETATM    2  C2  UNL     1     -43.153   5.618   2.183  1.00 20.00     0.173 C 
HETATM    3  C3  UNL     1     -42.226   5.809   0.056  1.00 20.00     0.255 C 
HETATM    4  C4  UNL     1     -42.288   7.212   0.659  1.00 20.00     0.154 C 
HETATM    5  O5  UNL     1     -42.484   4.895   1.136  1.00 20.00    -0.367 OA
HETATM    6 CL6  UNL     1     -40.717   5.396  -0.770  1.00 20.00    -0.092 Cl
HETATM    7 CL7  UNL     1     -42.667   8.454  -0.548  1.00 20.00    -0.098 Cl
HETATM    8 CL8  UNL     1     -40.791   7.669   1.536  1.00 20.00    -0.098 Cl
ENDROOT
TORSDOF 0
ENDMDL
MODEL 8
REMARK VINA RESULT:      -3.2      9.859     10.544
REMARK  0 active torsions:
REMARK  status: ('A' for Active; 'I' for Inactive)
ROOT
HETATM    1  C1  UNL     1     -41.966  14.758   5.989  1.00 20.00     0.072 C 
HETATM    2  C2  UNL     1     -42.065  14.263   4.554  1.00 20.00     0.173 C 
HETATM    3  C3  UNL     1     -40.331  13.133   5.620  1.00 20.00     0.255 C 
HETATM    4  C4  UNL     1     -41.321  13.578   6.696  1.00 20.00     0.154 C 
HETATM    5  O5  UNL     1     -40.996  13.323   4.359  1.00 20.00    -0.367 OA
HETATM    6 CL6  UNL     1     -39.729  11.476   5.770  1.00 20.00    -0.092 Cl
HETATM    7 CL7  UNL     1     -40.517  14.060   8.201  1.00 20.00    -0.098 Cl
HETATM    8 CL8  UNL     1     -42.572  12.344   7.058  1.00 20.00    -0.098 Cl
ENDROOT
TORSDOF 0
ENDMDL
MODEL 9
REMARK VINA RESULT:      -3.1      9.408     10.000
REMARK  0 active torsions:
REMARK  status: ('A' for Active; 'I' for Inactive)
ROOT
HETATM    1  C1  UNL     1     -40.480  12.537   5.196  1.00 20.00     0.072 C 
HETATM    2  C2  UNL     1     -39.530  11.819   6.142  1.00 20.00     0.173 C 
HETATM    3  C3  UNL     1     -40.328  13.737   7.193  1.00 20.00     0.255 C 
HETATM    4  C4  UNL     1     -41.366  13.315   6.154  1.00 20.00     0.154 C 
HETATM    5  O5  UNL     1     -39.416  12.632   7.321  1.00 20.00    -0.367 OA
HETATM    6 CL6  UNL     1     -40.971  14.208   8.772  1.00 20.00    -0.092 Cl
HETATM    7 CL7  UNL     1     -42.142  14.702   5.368  1.00 20.00    -0.098 Cl
HETATM    8 CL8  UNL     1     -42.626  12.224   6.817  1.00 20.00    -0.098 Cl
ENDROOT
TORSDOF 0
ENDMDL
