MODEL 1
REMARK VINA RESULT:      -4.7      0.000      0.000
REMARK  1 active torsions:
REMARK  status: ('A' for Active; 'I' for Inactive)
REMARK    1  A    between atoms: C1_1  and  C6_6 
ROOT
HETATM    1  C2  UNL     1     -34.555   4.986   6.093  1.00 20.00     0.005 C 
HETATM    2  C3  UNL     1     -34.049   4.555   4.706  1.00 20.00     0.006 C 
HETATM    3  C4  UNL     1     -33.363   7.183   5.873  1.00 20.00     0.020 C 
HETATM    4  C5  UNL     1     -35.212   6.613   4.486  1.00 20.00     0.010 C 
HETATM    5  C6  UNL     1     -32.814   6.715   4.514  1.00 20.00     0.091 C 
HETATM    6  C7  UNL     1     -34.745   6.506   5.935  1.00 20.00    -0.013 C 
HETATM    7  C8  UNL     1     -33.979   5.886   3.937  1.00 20.00     0.000 C 
ENDROOT
BRANCH   5   8
HETATM    8  C1  UNL     1     -32.516   7.886   3.596  1.00 20.00     0.177 C 
HETATM    9  O9  UNL     1     -32.527   9.021   4.149  1.00 20.00    -0.648 OA
HETATM   10  O10 UNL     1     -32.295   7.573   2.393  1.00 20.00    -0.648 OA
ENDBRANCH   5   8
TORSDOF 1
ENDMDL
MODEL 2
REMARK VINA RESULT:      -4.7      0.027      1.024
REMARK  1 active torsions:
REMARK  status: ('A' for Active; 'I' for Inactive)
REMARK    1  A    between atoms: C1_1  and  C6_6 
ROOT
HETATM    1  C2  UNL     1     -34.567   4.992   6.092  1.00 20.00     0.005 C 
HETATM    2  C3  UNL     1     -34.067   4.546   4.709  1.00 20.00     0.006 C 
HETATM    3  C4  UNL     1     -33.359   7.178   5.853  1.00 20.00     0.020 C 
HETATM    4  C5  UNL     1     -35.214   6.611   4.474  1.00 20.00     0.010 C 
HETATM    5  C6  UNL     1     -32.815   6.696   4.498  1.00 20.00     0.091 C 
HETATM    6  C7  UNL     1     -34.746   6.512   5.923  1.00 20.00    -0.013 C 
HETATM    7  C8  UNL     1     -33.988   5.870   3.929  1.00 20.00     0.000 C 
ENDROOT
BRANCH   5   8
HETATM    8  C1  UNL     1     -32.511   7.857   3.570  1.00 20.00     0.177 C 
HETATM    9  O9  UNL     1     -32.281   7.542   2.369  1.00 20.00    -0.648 OA
HETATM   10  O10 UNL     1     -32.527   8.994   4.120  1.00 20.00    -0.648 OA
ENDBRANCH   5   8
TORSDOF 1
ENDMDL
MODEL 3
REMARK VINA RESULT:      -4.3      1.233      1.892
REMARK  1 active torsions:
REMARK  status: ('A' for Active; 'I' for Inactive)
REMARK    1  A    between atoms: C1_1  and  C6_6 
ROOT
HETATM    1  C2  UNL     1     -34.593   6.414   6.589  1.00 20.00     0.005 C 
HETATM    2  C3  UNL     1     -34.292   4.996   6.076  1.00 20.00     0.006 C 
HETATM    3  C4  UNL     1     -33.340   7.407   4.655  1.00 20.00     0.020 C 
HETATM    4  C5  UNL     1     -35.378   6.215   4.352  1.00 20.00     0.010 C 
HETATM    5  C6  UNL     1     -32.994   5.984   4.186  1.00 20.00     0.091 C 
HETATM    6  C7  UNL     1     -34.732   7.230   5.291  1.00 20.00    -0.013 C 
HETATM    7  C8  UNL     1     -34.262   5.183   4.548  1.00 20.00     0.000 C 
ENDROOT
BRANCH   5   8
HETATM    8  C1  UNL     1     -32.766   5.927   2.687  1.00 20.00     0.177 C 
HETATM    9  O9  UNL     1     -32.949   4.796   2.156  1.00 20.00    -0.648 OA
HETATM   10  O10 UNL     1     -32.422   7.023   2.161  1.00 20.00    -0.648 OA
ENDBRANCH   5   8
TORSDOF 1
ENDMDL
MODEL 4
REMARK VINA RESULT:      -3.8     12.378     13.454
REMARK  1 active torsions:
REMARK  status: ('A' for Active; 'I' for Inactive)
REMARK    1  A    between atoms: C1_1  and  C6_6 
ROOT
HETATM    1  C2  UNL     1     -34.761  18.753  -2.968  1.00 20.00     0.005 C 
HETATM    2  C3  UNL     1     -35.179  18.706  -1.489  1.00 20.00     0.006 C 
HETATM    3  C4  UNL     1     -32.368  19.115  -2.306  1.00 20.00     0.020 C 
HETATM    4  C5  UNL     1     -33.499  17.070  -1.857  1.00 20.00     0.010 C 
HETATM    5  C6  UNL     1     -32.808  19.127  -0.832  1.00 20.00     0.091 C 
HETATM    6  C7  UNL     1     -33.355  18.125  -2.951  1.00 20.00    -0.013 C 
HETATM    7  C8  UNL     1     -33.948  18.088  -0.803  1.00 20.00     0.000 C 
ENDROOT
BRANCH   5   8
HETATM    8  C1  UNL     1     -31.689  18.683   0.091  1.00 20.00     0.177 C 
HETATM    9  O9  UNL     1     -30.542  18.636  -0.435  1.00 20.00    -0.648 OA
HETATM   10  O10 UNL     1     -32.050  18.418   1.273  1.00 20.00    -0.648 OA
ENDBRANCH   5   8
TORSDOF 1
ENDMDL
MODEL 5
REMARK VINA RESULT:      -3.5      9.421     10.544
REMARK  1 active torsions:
REMARK  status: ('A' for Active; 'I' for Inactive)
REMARK    1  A    between atoms: C1_1  and  C6_6 
ROOT
HETATM    1  C2  UNL     1     -42.514  15.319   6.482  1.00 20.00     0.005 C 
HETATM    2  C3  UNL     1     -41.387  15.195   7.521  1.00 20.00     0.006 C 
HETATM    3  C4  UNL     1     -41.411  13.585   5.042  1.00 20.00     0.020 C 
HETATM    4  C5  UNL     1     -42.336  13.048   7.169  1.00 20.00     0.010 C 
HETATM    5  C6  UNL     1     -40.259  13.515   6.059  1.00 20.00     0.091 C 
HETATM    6  C7  UNL     1     -42.634  13.887   5.929  1.00 20.00    -0.013 C 
HETATM    7  C8  UNL     1     -40.978  13.716   7.410  1.00 20.00     0.000 C 
ENDROOT
BRANCH   5   8
HETATM    8  C1  UNL     1     -39.576  12.161   6.041  1.00 20.00     0.177 C 
HETATM    9  O9  UNL     1     -39.727  11.495   4.979  1.00 20.00    -0.648 OA
HETATM   10  O10 UNL     1     -38.940  11.874   7.094  1.00 20.00    -0.648 OA
ENDBRANCH   5   8
TORSDOF 1
ENDMDL
MODEL 6
REMARK VINA RESULT:      -3.5     11.684     12.699
REMARK  1 active torsions:
REMARK  status: ('A' for Active; 'I' for Inactive)
REMARK    1  A    between atoms: C1_1  and  C6_6 
ROOT
HETATM    1  C2  UNL     1     -25.936  -1.314  11.692  1.00 20.00     0.005 C 
HETATM    2  C3  UNL     1     -27.153  -0.591  12.291  1.00 20.00     0.006 C 
HETATM    3  C4  UNL     1     -27.382  -3.254  11.027  1.00 20.00     0.020 C 
HETATM    4  C5  UNL     1     -27.617  -1.109  10.022  1.00 20.00     0.010 C 
HETATM    5  C6  UNL     1     -28.580  -2.548  11.684  1.00 20.00     0.091 C 
HETATM    6  C7  UNL     1     -26.538  -2.078  10.499  1.00 20.00    -0.013 C 
HETATM    7  C8  UNL     1     -28.308  -1.058  11.388  1.00 20.00     0.000 C 
ENDROOT
BRANCH   5   8
HETATM    8  C1  UNL     1     -29.893  -2.963  11.049  1.00 20.00     0.177 C 
HETATM    9  O9  UNL     1     -30.890  -2.253  11.359  1.00 20.00    -0.648 OA
HETATM   10  O10 UNL     1     -29.820  -3.970  10.289  1.00 20.00    -0.648 OA
ENDBRANCH   5   8
TORSDOF 1
ENDMDL
MODEL 7
REMARK VINA RESULT:      -3.5     12.321     13.448
REMARK  1 active torsions:
REMARK  status: ('A' for Active; 'I' for Inactive)
REMARK    1  A    between atoms: C1_1  and  C6_6 
ROOT
HETATM    1  C2  UNL     1     -32.562  19.262  -1.714  1.00 20.00     0.005 C 
HETATM    2  C3  UNL     1     -32.488  17.834  -1.149  1.00 20.00     0.006 C 
HETATM    3  C4  UNL     1     -33.243  18.367  -3.957  1.00 20.00     0.020 C 
HETATM    4  C5  UNL     1     -34.656  18.185  -2.049  1.00 20.00     0.010 C 
HETATM    5  C6  UNL     1     -33.107  16.941  -3.397  1.00 20.00     0.091 C 
HETATM    6  C7  UNL     1     -33.714  19.173  -2.732  1.00 20.00    -0.013 C 
HETATM    7  C8  UNL     1     -33.584  17.096  -1.938  1.00 20.00     0.000 C 
ENDROOT
BRANCH   5   8
HETATM    8  C1  UNL     1     -34.007  15.963  -4.127  1.00 20.00     0.177 C 
HETATM    9  O9  UNL     1     -34.710  16.462  -5.049  1.00 20.00    -0.648 OA
HETATM   10  O10 UNL     1     -33.937  14.770  -3.717  1.00 20.00    -0.648 OA
ENDBRANCH   5   8
TORSDOF 1
ENDMDL
MODEL 8
REMARK VINA RESULT:      -3.4     12.375     14.029
REMARK  1 active torsions:
REMARK  status: ('A' for Active; 'I' for Inactive)
REMARK    1  A    between atoms: C1_1  and  C6_6 
ROOT
HETATM    1  C2  UNL     1     -36.212  16.722  -7.466  1.00 20.00     0.005 C 
HETATM    2  C3  UNL     1     -34.794  17.237  -7.173  1.00 20.00     0.006 C 
HETATM    3  C4  UNL     1     -35.792  14.687  -6.060  1.00 20.00     0.020 C 
HETATM    4  C5  UNL     1     -35.909  16.867  -5.111  1.00 20.00     0.010 C 
HETATM    5  C6  UNL     1     -34.355  15.183  -5.824  1.00 20.00     0.091 C 
HETATM    6  C7  UNL     1     -36.594  15.998  -6.162  1.00 20.00    -0.013 C 
HETATM    7  C8  UNL     1     -34.525  16.715  -5.751  1.00 20.00     0.000 C 
ENDROOT
BRANCH   5   8
HETATM    8  C1  UNL     1     -33.792  14.669  -4.513  1.00 20.00     0.177 C 
HETATM    9  O9  UNL     1     -34.455  13.743  -3.967  1.00 20.00    -0.648 OA
HETATM   10  O10 UNL     1     -32.727  15.234  -4.135  1.00 20.00    -0.648 OA
ENDBRANCH   5   8
TORSDOF 1
ENDMDL
MODEL 9
REMARK VINA RESULT:      -3.3     12.384     14.053
REMARK  1 active torsions:
REMARK  status: ('A' for Active; 'I' for Inactive)
REMARK    1  A    between atoms: C1_1  and  C6_6 
ROOT
HETATM    1  C2  UNL     1     -35.756  17.341  -7.217  1.00 20.00     0.005 C 
HETATM    2  C3  UNL     1     -36.564  16.048  -7.421  1.00 20.00     0.006 C 
HETATM    3  C4  UNL     1     -34.850  16.463  -5.048  1.00 20.00     0.020 C 
HETATM    4  C5  UNL     1     -34.276  15.480  -7.138  1.00 20.00     0.010 C 
HETATM    5  C6  UNL     1     -35.710  15.201  -5.233  1.00 20.00     0.091 C 
HETATM    6  C7  UNL     1     -34.489  16.848  -6.495  1.00 20.00    -0.013 C 
HETATM    7  C8  UNL     1     -35.674  14.980  -6.760  1.00 20.00     0.000 C 
ENDROOT
BRANCH   5   8
HETATM    8  C1  UNL     1     -35.104  14.001  -4.529  1.00 20.00     0.177 C 
HETATM    9  O9  UNL     1     -35.873  13.009  -4.398  1.00 20.00    -0.648 OA
HETATM   10  O10 UNL     1     -33.904  14.150  -4.165  1.00 20.00    -0.648 OA
ENDBRANCH   5   8
TORSDOF 1
ENDMDL
