MODEL 1
REMARK VINA RESULT:      -4.4      0.000      0.000
REMARK  1 active torsions:
REMARK  status: ('A' for Active; 'I' for Inactive)
REMARK    1  A    between atoms: C4_4  and  C7_7 
ROOT
HETATM    1  C1  UNL     1     -33.595  17.090  -2.470  1.00 20.00     0.063 C 
HETATM    2  C7  UNL     1     -34.093  18.032  -1.456  1.00 20.00     0.165 C 
HETATM    3  N8  UNL     1     -33.202  16.347  -3.270  1.00 20.00    -0.197 NA
ENDROOT
BRANCH   2   4
HETATM    4  C4  UNL     1     -33.022  18.360  -0.471  1.00 20.00    -0.006 A 
HETATM    5  C3  UNL     1     -31.694  18.272  -0.856  1.00 20.00     0.128 A 
HETATM    6  N9  UNL     1     -30.651  18.546  -0.040  1.00 20.00    -0.248 NA
HETATM    7  C6  UNL     1     -30.958  18.926   1.220  1.00 20.00     0.127 A 
HETATM    8  C2  UNL     1     -32.252  19.043   1.702  1.00 20.00     0.068 A 
HETATM    9 CL11 UNL     1     -29.605  19.263   2.220  1.00 20.00    -0.062 Cl
HETATM   10  C5  UNL     1     -33.299  18.753   0.833  1.00 20.00     0.045 A 
HETATM   11 CL10 UNL     1     -34.919  18.892   1.406  1.00 20.00    -0.084 Cl
ENDBRANCH   2   4
TORSDOF 1
ENDMDL
MODEL 2
REMARK VINA RESULT:      -4.2     11.694     12.117
REMARK  1 active torsions:
REMARK  status: ('A' for Active; 'I' for Inactive)
REMARK    1  A    between atoms: C4_4  and  C7_7 
ROOT
HETATM    1  C1  UNL     1     -32.449   8.707   1.272  1.00 20.00     0.063 C 
HETATM    2  C7  UNL     1     -31.745   7.631   1.985  1.00 20.00     0.165 C 
HETATM    3  N8  UNL     1     -33.005   9.556   0.709  1.00 20.00    -0.197 NA
ENDROOT
BRANCH   2   4
HETATM    4  C4  UNL     1     -32.584   7.101   3.099  1.00 20.00    -0.006 A 
HETATM    5  C3  UNL     1     -33.182   5.858   2.968  1.00 20.00     0.128 A 
HETATM    6  N9  UNL     1     -33.960   5.290   3.916  1.00 20.00    -0.248 NA
HETATM    7  C6  UNL     1     -34.145   6.004   5.049  1.00 20.00     0.127 A 
HETATM    8  C2  UNL     1     -33.593   7.254   5.276  1.00 20.00     0.068 A 
HETATM    9 CL11 UNL     1     -35.139   5.247   6.224  1.00 20.00    -0.062 Cl
HETATM   10  C5  UNL     1     -32.797   7.806   4.277  1.00 20.00     0.045 A 
HETATM   11 CL10 UNL     1     -32.096   9.361   4.534  1.00 20.00    -0.084 Cl
ENDBRANCH   2   4
TORSDOF 1
ENDMDL
MODEL 3
REMARK VINA RESULT:      -4.2      3.348      4.824
REMARK  1 active torsions:
REMARK  status: ('A' for Active; 'I' for Inactive)
REMARK    1  A    between atoms: C4_4  and  C7_7 
ROOT
HETATM    1  C1  UNL     1     -35.810  15.835  -5.786  1.00 20.00     0.063 C 
HETATM    2  C7  UNL     1     -34.786  16.883  -5.662  1.00 20.00     0.165 C 
HETATM    3  N8  UNL     1     -36.617  15.007  -5.883  1.00 20.00    -0.197 NA
ENDROOT
BRANCH   2   4
HETATM    4  C4  UNL     1     -34.477  17.150  -4.228  1.00 20.00    -0.006 A 
HETATM    5  C3  UNL     1     -35.089  18.214  -3.586  1.00 20.00     0.128 A 
HETATM    6  N9  UNL     1     -34.876  18.540  -2.291  1.00 20.00    -0.248 NA
HETATM    7  C6  UNL     1     -34.007  17.760  -1.611  1.00 20.00     0.127 A 
HETATM    8  C2  UNL     1     -33.344  16.675  -2.161  1.00 20.00     0.068 A 
HETATM    9 CL11 UNL     1     -33.767  18.209   0.028  1.00 20.00    -0.062 Cl
HETATM   10  C5  UNL     1     -33.589  16.370  -3.496  1.00 20.00     0.045 A 
HETATM   11 CL10 UNL     1     -32.777  15.025  -4.206  1.00 20.00    -0.084 Cl
ENDBRANCH   2   4
TORSDOF 1
ENDMDL
MODEL 4
REMARK VINA RESULT:      -4.2     11.598     11.917
REMARK  1 active torsions:
REMARK  status: ('A' for Active; 'I' for Inactive)
REMARK    1  A    between atoms: C4_4  and  C7_7 
ROOT
HETATM    1  C1  UNL     1     -32.414   8.792   0.934  1.00 20.00     0.063 C 
HETATM    2  C7  UNL     1     -31.781   7.673   1.648  1.00 20.00     0.165 C 
HETATM    3  N8  UNL     1     -32.914   9.674   0.369  1.00 20.00    -0.197 NA
ENDROOT
BRANCH   2   4
HETATM    4  C4  UNL     1     -32.486   7.404   2.935  1.00 20.00    -0.006 A 
HETATM    5  C3  UNL     1     -32.603   8.418   3.871  1.00 20.00     0.128 A 
HETATM    6  N9  UNL     1     -33.220   8.276   5.065  1.00 20.00    -0.248 NA
HETATM    7  C6  UNL     1     -33.744   7.059   5.330  1.00 20.00     0.127 A 
HETATM    8  C2  UNL     1     -33.680   5.982   4.462  1.00 20.00     0.068 A 
HETATM    9 CL11 UNL     1     -34.518   6.924   6.855  1.00 20.00    -0.062 Cl
HETATM   10  C5  UNL     1     -33.037   6.166   3.242  1.00 20.00     0.045 A 
HETATM   11 CL10 UNL     1     -32.943   4.841   2.142  1.00 20.00    -0.084 Cl
ENDBRANCH   2   4
TORSDOF 1
ENDMDL
MODEL 5
REMARK VINA RESULT:      -4.1      3.166      5.423
REMARK  1 active torsions:
REMARK  status: ('A' for Active; 'I' for Inactive)
REMARK    1  A    between atoms: C4_4  and  C7_7 
ROOT
HETATM    1  C1  UNL     1     -32.230  18.257  -0.887  1.00 20.00     0.063 C 
HETATM    2  C7  UNL     1     -33.614  17.774  -1.007  1.00 20.00     0.165 C 
HETATM    3  N8  UNL     1     -31.138  18.636  -0.791  1.00 20.00    -0.197 NA
ENDROOT
BRANCH   2   4
HETATM    4  C4  UNL     1     -33.896  17.326  -2.402  1.00 20.00    -0.006 A 
HETATM    5  C3  UNL     1     -33.182  16.263  -2.932  1.00 20.00     0.128 A 
HETATM    6  N9  UNL     1     -33.361  15.782  -4.182  1.00 20.00    -0.248 NA
HETATM    7  C6  UNL     1     -34.300  16.398  -4.935  1.00 20.00     0.127 A 
HETATM    8  C2  UNL     1     -35.065  17.467  -4.498  1.00 20.00     0.068 A 
HETATM    9 CL11 UNL     1     -34.493  15.755  -6.514  1.00 20.00    -0.062 Cl
HETATM   10  C5  UNL     1     -34.854  17.934  -3.205  1.00 20.00     0.045 A 
HETATM   11 CL10 UNL     1     -35.793  19.263  -2.635  1.00 20.00    -0.084 Cl
ENDBRANCH   2   4
TORSDOF 1
ENDMDL
MODEL 6
REMARK VINA RESULT:      -3.8      4.056      6.228
REMARK  1 active torsions:
REMARK  status: ('A' for Active; 'I' for Inactive)
REMARK    1  A    between atoms: C4_4  and  C7_7 
ROOT
HETATM    1  C1  UNL     1     -32.446  18.050  -1.638  1.00 20.00     0.063 C 
HETATM    2  C7  UNL     1     -33.329  16.966  -2.095  1.00 20.00     0.165 C 
HETATM    3  N8  UNL     1     -31.748  18.904  -1.278  1.00 20.00    -0.197 NA
ENDROOT
BRANCH   2   4
HETATM    4  C4  UNL     1     -33.782  17.211  -3.495  1.00 20.00    -0.006 A 
HETATM    5  C3  UNL     1     -33.915  18.513  -3.949  1.00 20.00     0.128 A 
HETATM    6  N9  UNL     1     -34.319  18.840  -5.197  1.00 20.00    -0.248 NA
HETATM    7  C6  UNL     1     -34.602  17.811  -6.026  1.00 20.00     0.127 A 
HETATM    8  C2  UNL     1     -34.502  16.477  -5.668  1.00 20.00     0.068 A 
HETATM    9 CL11 UNL     1     -35.111  18.272  -7.599  1.00 20.00    -0.062 Cl
HETATM   10  C5  UNL     1     -34.083  16.179  -4.376  1.00 20.00     0.045 A 
HETATM   11 CL10 UNL     1     -33.949  14.526  -3.904  1.00 20.00    -0.084 Cl
ENDBRANCH   2   4
TORSDOF 1
ENDMDL
MODEL 7
REMARK VINA RESULT:      -3.7      3.110      4.639
REMARK  1 active torsions:
REMARK  status: ('A' for Active; 'I' for Inactive)
REMARK    1  A    between atoms: C4_4  and  C7_7 
ROOT
HETATM    1  C1  UNL     1     -35.480  15.360  -5.785  1.00 20.00     0.063 C 
HETATM    2  C7  UNL     1     -34.564  16.508  -5.726  1.00 20.00     0.165 C 
HETATM    3  N8  UNL     1     -36.201  14.452  -5.831  1.00 20.00    -0.197 NA
ENDROOT
BRANCH   2   4
HETATM    4  C4  UNL     1     -34.387  16.970  -4.319  1.00 20.00    -0.006 A 
HETATM    5  C3  UNL     1     -33.503  16.300  -3.489  1.00 20.00     0.128 A 
HETATM    6  N9  UNL     1     -33.273  16.638  -2.200  1.00 20.00    -0.248 NA
HETATM    7  C6  UNL     1     -33.964  17.697  -1.724  1.00 20.00     0.127 A 
HETATM    8  C2  UNL     1     -34.871  18.431  -2.471  1.00 20.00     0.068 A 
HETATM    9 CL11 UNL     1     -33.641  18.090  -0.085  1.00 20.00    -0.062 Cl
HETATM   10  C5  UNL     1     -35.081  18.054  -3.794  1.00 20.00     0.045 A 
HETATM   11 CL10 UNL     1     -36.204  18.950  -4.747  1.00 20.00    -0.084 Cl
ENDBRANCH   2   4
TORSDOF 1
ENDMDL
MODEL 8
REMARK VINA RESULT:      -3.6     10.896     11.707
REMARK  1 active torsions:
REMARK  status: ('A' for Active; 'I' for Inactive)
REMARK    1  A    between atoms: C4_4  and  C7_7 
ROOT
HETATM    1  C1  UNL     1     -39.451  11.945   4.785  1.00 20.00     0.063 C 
HETATM    2  C7  UNL     1     -40.142  12.203   6.057  1.00 20.00     0.165 C 
HETATM    3  N8  UNL     1     -38.908  11.741   3.780  1.00 20.00    -0.197 NA
ENDROOT
BRANCH   2   4
HETATM    4  C4  UNL     1     -40.926  13.470   5.984  1.00 20.00    -0.006 A 
HETATM    5  C3  UNL     1     -41.623  13.772   4.825  1.00 20.00     0.128 A 
HETATM    6  N9  UNL     1     -42.360  14.893   4.658  1.00 20.00    -0.248 NA
HETATM    7  C6  UNL     1     -42.399  15.748   5.703  1.00 20.00     0.127 A 
HETATM    8  C2  UNL     1     -41.737  15.538   6.902  1.00 20.00     0.068 A 
HETATM    9 CL11 UNL     1     -43.346  17.156   5.448  1.00 20.00    -0.062 Cl
HETATM   10  C5  UNL     1     -40.988  14.373   7.038  1.00 20.00     0.045 A 
HETATM   11 CL10 UNL     1     -40.155  14.087   8.520  1.00 20.00    -0.084 Cl
ENDBRANCH   2   4
TORSDOF 1
ENDMDL
MODEL 9
REMARK VINA RESULT:      -3.6     11.054     11.733
REMARK  1 active torsions:
REMARK  status: ('A' for Active; 'I' for Inactive)
REMARK    1  A    between atoms: C4_4  and  C7_7 
ROOT
HETATM    1  C1  UNL     1     -39.337  12.211   5.600  1.00 20.00     0.063 C 
HETATM    2  C7  UNL     1     -40.710  12.377   6.100  1.00 20.00     0.165 C 
HETATM    3  N8  UNL     1     -38.254  12.080   5.204  1.00 20.00    -0.197 NA
ENDROOT
BRANCH   2   4
HETATM    4  C4  UNL     1     -40.894  13.736   6.688  1.00 20.00    -0.006 A 
HETATM    5  C3  UNL     1     -40.247  14.060   7.870  1.00 20.00     0.128 A 
HETATM    6  N9  UNL     1     -40.350  15.260   8.483  1.00 20.00    -0.248 NA
HETATM    7  C6  UNL     1     -41.139  16.177   7.881  1.00 20.00     0.127 A 
HETATM    8  C2  UNL     1     -41.827  15.952   6.700  1.00 20.00     0.068 A 
HETATM    9 CL11 UNL     1     -41.240  17.685   8.693  1.00 20.00    -0.062 Cl
HETATM   10  C5  UNL     1     -41.697  14.704   6.098  1.00 20.00     0.045 A 
HETATM   11 CL10 UNL     1     -42.544  14.397   4.627  1.00 20.00    -0.084 Cl
ENDBRANCH   2   4
TORSDOF 1
ENDMDL
