MODEL 1
REMARK VINA RESULT:      -5.2      0.000      0.000
REMARK  1 active torsions:
REMARK  status: ('A' for Active; 'I' for Inactive)
REMARK    1  A    between atoms: C2_2  and  C4_4 
ROOT
HETATM    1  C4  UNL     1     -34.856   5.668   4.946  1.00 20.00     0.407 C 
HETATM    2  F5  UNL     1     -36.041   5.967   4.355  1.00 20.00    -0.167 F 
HETATM    3  F6  UNL     1     -34.525   4.414   4.547  1.00 20.00    -0.167 F 
HETATM    4  F7  UNL     1     -35.089   5.606   6.281  1.00 20.00    -0.167 F 
ENDROOT
BRANCH   1   5
HETATM    5  C2  UNL     1     -33.802   6.651   4.574  1.00 20.00     0.084 C 
HETATM    6  C1  UNL     1     -33.537   7.772   5.260  1.00 20.00    -0.026 C 
HETATM    7  C3  UNL     1     -32.475   8.749   4.873  1.00 20.00     0.036 C 
ENDBRANCH   1   5
TORSDOF 1
ENDMDL
MODEL 2
REMARK VINA RESULT:      -5.2      0.030      1.422
REMARK  1 active torsions:
REMARK  status: ('A' for Active; 'I' for Inactive)
REMARK    1  A    between atoms: C2_2  and  C4_4 
ROOT
HETATM    1  C4  UNL     1     -34.842   5.674   4.938  1.00 20.00     0.407 C 
HETATM    2  F5  UNL     1     -35.058   5.659   6.277  1.00 20.00    -0.167 F 
HETATM    3  F6  UNL     1     -36.028   5.978   4.353  1.00 20.00    -0.167 F 
HETATM    4  F7  UNL     1     -34.540   4.402   4.575  1.00 20.00    -0.167 F 
ENDROOT
BRANCH   1   5
HETATM    5  C2  UNL     1     -33.789   6.660   4.570  1.00 20.00     0.084 C 
HETATM    6  C1  UNL     1     -33.522   7.777   5.262  1.00 20.00    -0.026 C 
HETATM    7  C3  UNL     1     -32.462   8.757   4.880  1.00 20.00     0.036 C 
ENDBRANCH   1   5
TORSDOF 1
ENDMDL
MODEL 3
REMARK VINA RESULT:      -4.9      3.186      3.883
REMARK  1 active torsions:
REMARK  status: ('A' for Active; 'I' for Inactive)
REMARK    1  A    between atoms: C2_2  and  C4_4 
ROOT
HETATM    1  C4  UNL     1     -32.483   8.391   4.218  1.00 20.00     0.407 C 
HETATM    2  F5  UNL     1     -31.256   7.874   3.956  1.00 20.00    -0.167 F 
HETATM    3  F6  UNL     1     -32.903   9.000   3.081  1.00 20.00    -0.167 F 
HETATM    4  F7  UNL     1     -32.308   9.367   5.145  1.00 20.00    -0.167 F 
ENDROOT
BRANCH   1   5
HETATM    5  C2  UNL     1     -33.437   7.332   4.648  1.00 20.00     0.084 C 
HETATM    6  C1  UNL     1     -33.747   7.064   5.925  1.00 20.00    -0.026 C 
HETATM    7  C3  UNL     1     -34.705   5.997   6.340  1.00 20.00     0.036 C 
ENDBRANCH   1   5
TORSDOF 1
ENDMDL
MODEL 4
REMARK VINA RESULT:      -4.9      3.194      3.886
REMARK  1 active torsions:
REMARK  status: ('A' for Active; 'I' for Inactive)
REMARK    1  A    between atoms: C2_2  and  C4_4 
ROOT
HETATM    1  C4  UNL     1     -32.489   8.401   4.193  1.00 20.00     0.407 C 
HETATM    2  F5  UNL     1     -32.318   9.369   5.129  1.00 20.00    -0.167 F 
HETATM    3  F6  UNL     1     -31.269   7.851   3.970  1.00 20.00    -0.167 F 
HETATM    4  F7  UNL     1     -32.854   9.026   3.045  1.00 20.00    -0.167 F 
ENDROOT
BRANCH   1   5
HETATM    5  C2  UNL     1     -33.470   7.377   4.645  1.00 20.00     0.084 C 
HETATM    6  C1  UNL     1     -33.699   7.062   5.928  1.00 20.00    -0.026 C 
HETATM    7  C3  UNL     1     -34.687   6.032   6.366  1.00 20.00     0.036 C 
ENDBRANCH   1   5
TORSDOF 1
ENDMDL
MODEL 5
REMARK VINA RESULT:      -4.7      1.114      1.339
REMARK  1 active torsions:
REMARK  status: ('A' for Active; 'I' for Inactive)
REMARK    1  A    between atoms: C2_2  and  C4_4 
ROOT
HETATM    1  C4  UNL     1     -34.446   6.089   6.104  1.00 20.00     0.407 C 
HETATM    2  F5  UNL     1     -35.560   5.566   5.532  1.00 20.00    -0.167 F 
HETATM    3  F6  UNL     1     -33.792   5.060   6.699  1.00 20.00    -0.167 F 
HETATM    4  F7  UNL     1     -34.866   6.914   7.097  1.00 20.00    -0.167 F 
ENDROOT
BRANCH   1   5
HETATM    5  C2  UNL     1     -33.587   6.767   5.096  1.00 20.00     0.084 C 
HETATM    6  C1  UNL     1     -33.171   8.038   5.187  1.00 20.00    -0.026 C 
HETATM    7  C3  UNL     1     -32.309   8.704   4.166  1.00 20.00     0.036 C 
ENDBRANCH   1   5
TORSDOF 1
ENDMDL
MODEL 6
REMARK VINA RESULT:      -4.3      1.893      2.363
REMARK  1 active torsions:
REMARK  status: ('A' for Active; 'I' for Inactive)
REMARK    1  A    between atoms: C2_2  and  C4_4 
ROOT
HETATM    1  C4  UNL     1     -33.940   7.098   5.994  1.00 20.00     0.407 C 
HETATM    2  F5  UNL     1     -34.346   8.354   6.311  1.00 20.00    -0.167 F 
HETATM    3  F6  UNL     1     -34.969   6.267   6.295  1.00 20.00    -0.167 F 
HETATM    4  F7  UNL     1     -32.925   6.789   6.840  1.00 20.00    -0.167 F 
ENDROOT
BRANCH   1   5
HETATM    5  C2  UNL     1     -33.565   6.997   4.557  1.00 20.00     0.084 C 
HETATM    6  C1  UNL     1     -32.580   7.700   3.980  1.00 20.00    -0.026 C 
HETATM    7  C3  UNL     1     -32.215   7.587   2.537  1.00 20.00     0.036 C 
ENDBRANCH   1   5
TORSDOF 1
ENDMDL
MODEL 7
REMARK VINA RESULT:      -4.2      1.674      2.368
REMARK  1 active torsions:
REMARK  status: ('A' for Active; 'I' for Inactive)
REMARK    1  A    between atoms: C2_2  and  C4_4 
ROOT
HETATM    1  C4  UNL     1     -34.362   6.205   6.078  1.00 20.00     0.407 C 
HETATM    2  F5  UNL     1     -35.639   5.783   5.893  1.00 20.00    -0.167 F 
HETATM    3  F6  UNL     1     -33.768   5.307   6.903  1.00 20.00    -0.167 F 
HETATM    4  F7  UNL     1     -34.432   7.377   6.759  1.00 20.00    -0.167 F 
ENDROOT
BRANCH   1   5
HETATM    5  C2  UNL     1     -33.636   6.315   4.783  1.00 20.00     0.084 C 
HETATM    6  C1  UNL     1     -33.661   5.385   3.819  1.00 20.00    -0.026 C 
HETATM    7  C3  UNL     1     -32.926   5.511   2.525  1.00 20.00     0.036 C 
ENDBRANCH   1   5
TORSDOF 1
ENDMDL
MODEL 8
REMARK VINA RESULT:      -4.0      2.752      3.466
REMARK  1 active torsions:
REMARK  status: ('A' for Active; 'I' for Inactive)
REMARK    1  A    between atoms: C2_2  and  C4_4 
ROOT
HETATM    1  C4  UNL     1     -33.021   8.140   4.977  1.00 20.00     0.407 C 
HETATM    2  F5  UNL     1     -34.293   8.607   4.899  1.00 20.00    -0.167 F 
HETATM    3  F6  UNL     1     -32.914   7.492   6.165  1.00 20.00    -0.167 F 
HETATM    4  F7  UNL     1     -32.209   9.225   5.047  1.00 20.00    -0.167 F 
ENDROOT
BRANCH   1   5
HETATM    5  C2  UNL     1     -32.705   7.237   3.837  1.00 20.00     0.084 C 
HETATM    6  C1  UNL     1     -33.278   6.042   3.635  1.00 20.00    -0.026 C 
HETATM    7  C3  UNL     1     -32.949   5.148   2.486  1.00 20.00     0.036 C 
ENDBRANCH   1   5
TORSDOF 1
ENDMDL
MODEL 9
REMARK VINA RESULT:      -3.7      7.593      8.233
REMARK  1 active torsions:
REMARK  status: ('A' for Active; 'I' for Inactive)
REMARK    1  A    between atoms: C2_2  and  C4_4 
ROOT
HETATM    1  C4  UNL     1     -39.128  11.742   4.238  1.00 20.00     0.407 C 
HETATM    2  F5  UNL     1     -39.412  10.415   4.269  1.00 20.00    -0.167 F 
HETATM    3  F6  UNL     1     -39.018  12.088   2.930  1.00 20.00    -0.167 F 
HETATM    4  F7  UNL     1     -37.896  11.891   4.788  1.00 20.00    -0.167 F 
ENDROOT
BRANCH   1   5
HETATM    5  C2  UNL     1     -40.182  12.538   4.923  1.00 20.00     0.084 C 
HETATM    6  C1  UNL     1     -40.736  12.209   6.099  1.00 20.00    -0.026 C 
HETATM    7  C3  UNL     1     -41.793  13.019   6.773  1.00 20.00     0.036 C 
ENDBRANCH   1   5
TORSDOF 1
ENDMDL
