MODEL 1
REMARK VINA RESULT:      -5.2      0.000      0.000
REMARK  2 active torsions:
REMARK  status: ('A' for Active; 'I' for Inactive)
REMARK    1  A    between atoms: C2_2  and  C3_3 
REMARK    2  A    between atoms: C3_3  and  O9_9 
ROOT
HETATM    1  C1  UNL     1     -34.063   5.876   4.149  1.00 20.00    -0.013 C 
HETATM    2  C2  UNL     1     -33.491   6.951   4.704  1.00 20.00     0.013 C 
HETATM    3  C4  UNL     1     -34.948   5.161   5.115  1.00 20.00     0.028 C 
HETATM    4  C5  UNL     1     -33.903   7.125   6.131  1.00 20.00     0.045 C 
HETATM    5  C6  UNL     1     -34.555   5.781   6.456  1.00 20.00     0.009 C 
ENDROOT
BRANCH   2   6
HETATM    6  C3  UNL     1     -32.605   7.865   4.056  1.00 20.00     0.288 C 
HETATM    7  O8  UNL     1     -32.316   8.975   4.497  1.00 20.00    -0.260 OA
BRANCH   6   8
HETATM    8  O9  UNL     1     -32.150   7.307   2.900  1.00 20.00    -0.323 OA
HETATM    9  C7  UNL     1     -32.215   8.139   1.736  1.00 20.00     0.213 C 
ENDBRANCH   6   8
ENDBRANCH   2   6
TORSDOF 2
ENDMDL
MODEL 2
REMARK VINA RESULT:      -5.2      0.139      1.327
REMARK  2 active torsions:
REMARK  status: ('A' for Active; 'I' for Inactive)
REMARK    1  A    between atoms: C2_2  and  C3_3 
REMARK    2  A    between atoms: C3_3  and  O9_9 
ROOT
HETATM    1  C1  UNL     1     -33.835   7.110   5.987  1.00 20.00    -0.013 C 
HETATM    2  C2  UNL     1     -33.427   7.008   4.716  1.00 20.00     0.013 C 
HETATM    3  C4  UNL     1     -34.694   5.955   6.383  1.00 20.00     0.028 C 
HETATM    4  C5  UNL     1     -33.949   5.770   4.061  1.00 20.00     0.045 C 
HETATM    5  C6  UNL     1     -35.027   5.304   5.041  1.00 20.00     0.009 C 
ENDROOT
BRANCH   2   6
HETATM    6  C3  UNL     1     -32.580   7.929   4.026  1.00 20.00     0.288 C 
HETATM    7  O8  UNL     1     -32.311   9.057   4.433  1.00 20.00    -0.260 OA
BRANCH   6   8
HETATM    8  O9  UNL     1     -32.135   7.354   2.874  1.00 20.00    -0.323 OA
HETATM    9  C7  UNL     1     -32.222   8.164   1.697  1.00 20.00     0.213 C 
ENDBRANCH   6   8
ENDBRANCH   2   6
TORSDOF 2
ENDMDL
MODEL 3
REMARK VINA RESULT:      -4.7      1.044      1.770
REMARK  2 active torsions:
REMARK  status: ('A' for Active; 'I' for Inactive)
REMARK    1  A    between atoms: C2_2  and  C3_3 
REMARK    2  A    between atoms: C3_3  and  O9_9 
ROOT
HETATM    1  C1  UNL     1     -34.323   5.194   4.813  1.00 20.00    -0.013 C 
HETATM    2  C2  UNL     1     -33.597   6.200   4.310  1.00 20.00     0.013 C 
HETATM    3  C4  UNL     1     -34.960   5.570   6.109  1.00 20.00     0.028 C 
HETATM    4  C5  UNL     1     -33.635   7.408   5.190  1.00 20.00     0.045 C 
HETATM    5  C6  UNL     1     -34.227   6.857   6.488  1.00 20.00     0.009 C 
ENDROOT
BRANCH   2   6
HETATM    6  C3  UNL     1     -32.872   6.184   3.079  1.00 20.00     0.288 C 
HETATM    7  O8  UNL     1     -32.887   5.248   2.281  1.00 20.00    -0.260 OA
BRANCH   6   8
HETATM    8  O9  UNL     1     -32.183   7.351   2.947  1.00 20.00    -0.323 OA
HETATM    9  C7  UNL     1     -32.225   7.959   1.652  1.00 20.00     0.213 C 
ENDBRANCH   6   8
ENDBRANCH   2   6
TORSDOF 2
ENDMDL
MODEL 4
REMARK VINA RESULT:      -4.2      2.337      3.786
REMARK  2 active torsions:
REMARK  status: ('A' for Active; 'I' for Inactive)
REMARK    1  A    between atoms: C2_2  and  C3_3 
REMARK    2  A    between atoms: C3_3  and  O9_9 
ROOT
HETATM    1  C1  UNL     1     -32.950   6.531   3.313  1.00 20.00    -0.013 C 
HETATM    2  C2  UNL     1     -33.872   6.688   4.271  1.00 20.00     0.013 C 
HETATM    3  C4  UNL     1     -31.909   7.599   3.372  1.00 20.00     0.028 C 
HETATM    4  C5  UNL     1     -33.593   7.885   5.122  1.00 20.00     0.045 C 
HETATM    5  C6  UNL     1     -32.534   8.632   4.309  1.00 20.00     0.009 C 
ENDROOT
BRANCH   2   6
HETATM    6  C3  UNL     1     -34.994   5.835   4.510  1.00 20.00     0.288 C 
HETATM    7  O8  UNL     1     -36.131   6.062   4.104  1.00 20.00    -0.260 OA
BRANCH   6   8
HETATM    8  O9  UNL     1     -34.593   4.760   5.243  1.00 20.00    -0.323 OA
HETATM    9  C7  UNL     1     -34.345   5.006   6.631  1.00 20.00     0.213 C 
ENDBRANCH   6   8
ENDBRANCH   2   6
TORSDOF 2
ENDMDL
MODEL 5
REMARK VINA RESULT:      -4.2      2.297      3.947
REMARK  2 active torsions:
REMARK  status: ('A' for Active; 'I' for Inactive)
REMARK    1  A    between atoms: C2_2  and  C3_3 
REMARK    2  A    between atoms: C3_3  and  O9_9 
ROOT
HETATM    1  C1  UNL     1     -33.646   8.007   5.191  1.00 20.00    -0.013 C 
HETATM    2  C2  UNL     1     -33.835   6.930   4.418  1.00 20.00     0.013 C 
HETATM    3  C4  UNL     1     -32.479   8.815   4.731  1.00 20.00     0.028 C 
HETATM    4  C5  UNL     1     -32.825   6.849   3.320  1.00 20.00     0.045 C 
HETATM    5  C6  UNL     1     -31.775   7.872   3.756  1.00 20.00     0.009 C 
ENDROOT
BRANCH   2   6
HETATM    6  C3  UNL     1     -34.871   5.957   4.567  1.00 20.00     0.288 C 
HETATM    7  O8  UNL     1     -36.012   6.093   4.130  1.00 20.00    -0.260 OA
BRANCH   6   8
HETATM    8  O9  UNL     1     -34.387   4.886   5.253  1.00 20.00    -0.323 OA
HETATM    9  C7  UNL     1     -34.327   5.030   6.676  1.00 20.00     0.213 C 
ENDBRANCH   6   8
ENDBRANCH   2   6
TORSDOF 2
ENDMDL
MODEL 6
REMARK VINA RESULT:      -4.0      2.186      3.759
REMARK  2 active torsions:
REMARK  status: ('A' for Active; 'I' for Inactive)
REMARK    1  A    between atoms: C2_2  and  C3_3 
REMARK    2  A    between atoms: C3_3  and  O9_9 
ROOT
HETATM    1  C1  UNL     1     -33.287   8.331   5.406  1.00 20.00    -0.013 C 
HETATM    2  C2  UNL     1     -33.618   7.148   4.876  1.00 20.00     0.013 C 
HETATM    3  C4  UNL     1     -32.370   9.098   4.512  1.00 20.00     0.028 C 
HETATM    4  C5  UNL     1     -32.974   6.936   3.543  1.00 20.00     0.045 C 
HETATM    5  C6  UNL     1     -31.919   8.042   3.502  1.00 20.00     0.009 C 
ENDROOT
BRANCH   2   6
HETATM    6  C3  UNL     1     -34.490   6.177   5.457  1.00 20.00     0.288 C 
HETATM    7  O8  UNL     1     -34.854   6.192   6.631  1.00 20.00    -0.260 OA
BRANCH   6   8
HETATM    8  O9  UNL     1     -34.838   5.261   4.511  1.00 20.00    -0.323 OA
HETATM    9  C7  UNL     1     -34.013   4.094   4.437  1.00 20.00     0.213 C 
ENDBRANCH   6   8
ENDBRANCH   2   6
TORSDOF 2
ENDMDL
MODEL 7
REMARK VINA RESULT:      -3.8      1.978      3.101
REMARK  2 active torsions:
REMARK  status: ('A' for Active; 'I' for Inactive)
REMARK    1  A    between atoms: C2_2  and  C3_3 
REMARK    2  A    between atoms: C3_3  and  O9_9 
ROOT
HETATM    1  C1  UNL     1     -32.843   7.561   4.020  1.00 20.00    -0.013 C 
HETATM    2  C2  UNL     1     -33.663   6.713   4.652  1.00 20.00     0.013 C 
HETATM    3  C4  UNL     1     -32.526   8.751   4.863  1.00 20.00     0.028 C 
HETATM    4  C5  UNL     1     -34.023   7.202   6.018  1.00 20.00     0.045 C 
HETATM    5  C6  UNL     1     -33.560   8.659   5.984  1.00 20.00     0.009 C 
ENDROOT
BRANCH   2   6
HETATM    6  C3  UNL     1     -34.148   5.470   4.141  1.00 20.00     0.288 C 
HETATM    7  O8  UNL     1     -34.763   4.642   4.810  1.00 20.00    -0.260 OA
BRANCH   6   8
HETATM    8  O9  UNL     1     -33.823   5.367   2.823  1.00 20.00    -0.323 OA
HETATM    9  C7  UNL     1     -32.737   4.487   2.514  1.00 20.00     0.213 C 
ENDBRANCH   6   8
ENDBRANCH   2   6
TORSDOF 2
ENDMDL
MODEL 8
REMARK VINA RESULT:      -3.8      1.673      2.625
REMARK  2 active torsions:
REMARK  status: ('A' for Active; 'I' for Inactive)
REMARK    1  A    between atoms: C2_2  and  C3_3 
REMARK    2  A    between atoms: C3_3  and  O9_9 
ROOT
HETATM    1  C1  UNL     1     -33.058   6.352   3.440  1.00 20.00    -0.013 C 
HETATM    2  C2  UNL     1     -33.784   6.360   4.564  1.00 20.00     0.013 C 
HETATM    3  C4  UNL     1     -33.174   5.051   2.719  1.00 20.00     0.028 C 
HETATM    4  C5  UNL     1     -34.501   5.065   4.772  1.00 20.00     0.045 C 
HETATM    5  C6  UNL     1     -33.819   4.140   3.763  1.00 20.00     0.009 C 
ENDROOT
BRANCH   2   6
HETATM    6  C3  UNL     1     -33.911   7.450   5.479  1.00 20.00     0.288 C 
HETATM    7  O8  UNL     1     -34.255   7.329   6.653  1.00 20.00    -0.260 OA
BRANCH   6   8
HETATM    8  O9  UNL     1     -33.594   8.611   4.842  1.00 20.00    -0.323 OA
HETATM    9  C7  UNL     1     -32.240   9.054   4.987  1.00 20.00     0.213 C 
ENDBRANCH   6   8
ENDBRANCH   2   6
TORSDOF 2
ENDMDL
MODEL 9
REMARK VINA RESULT:      -3.8      2.116      3.554
REMARK  2 active torsions:
REMARK  status: ('A' for Active; 'I' for Inactive)
REMARK    1  A    between atoms: C2_2  and  C3_3 
REMARK    2  A    between atoms: C3_3  and  O9_9 
ROOT
HETATM    1  C1  UNL     1     -33.000   6.878   3.538  1.00 20.00    -0.013 C 
HETATM    2  C2  UNL     1     -33.489   7.176   4.748  1.00 20.00     0.013 C 
HETATM    3  C4  UNL     1     -32.082   7.942   3.037  1.00 20.00     0.028 C 
HETATM    4  C5  UNL     1     -32.974   8.487   5.248  1.00 20.00     0.045 C 
HETATM    5  C6  UNL     1     -32.357   9.104   3.992  1.00 20.00     0.009 C 
ENDROOT
BRANCH   2   6
HETATM    6  C3  UNL     1     -34.379   6.369   5.521  1.00 20.00     0.288 C 
HETATM    7  O8  UNL     1     -34.616   6.552   6.713  1.00 20.00    -0.260 OA
BRANCH   6   8
HETATM    8  O9  UNL     1     -34.903   5.393   4.730  1.00 20.00    -0.323 OA
HETATM    9  C7  UNL     1     -34.110   4.209   4.589  1.00 20.00     0.213 C 
ENDBRANCH   6   8
ENDBRANCH   2   6
TORSDOF 2
ENDMDL
