MODEL 1
REMARK VINA RESULT:      -3.9      0.000      0.000
REMARK  2 active torsions:
REMARK  status: ('A' for Active; 'I' for Inactive)
REMARK    1  A    between atoms: C7_7  and  O9_9 
REMARK    2  A    between atoms: C8_8  and  O9_9 
ROOT
HETATM    1  C1  UNL     1     -32.093   8.007   1.676  1.00 20.00     0.015 C 
HETATM    2  C2  UNL     1     -32.376   7.854   2.832  1.00 20.00    -0.086 C 
HETATM    3  C3  UNL     1     -32.287   8.860   5.083  1.00 20.00     0.053 C 
HETATM    4  C7  UNL     1     -32.718   7.663   4.247  1.00 20.00     0.196 C 
ENDROOT
BRANCH   4   5
HETATM    5  O9  UNL     1     -34.122   7.494   4.367  1.00 20.00    -0.364 OA
BRANCH   5   6
HETATM    6  C8  UNL     1     -34.454   6.146   4.704  1.00 20.00     0.051 C 
HETATM    7  C4  UNL     1     -34.291   5.969   6.213  1.00 20.00     0.045 C 
HETATM    8  C5  UNL     1     -35.905   5.913   4.290  1.00 20.00     0.045 C 
HETATM    9  C6  UNL     1     -33.519   5.210   3.941  1.00 20.00     0.045 C 
ENDBRANCH   5   6
ENDBRANCH   4   5
TORSDOF 2
ENDMDL
MODEL 2
REMARK VINA RESULT:      -3.8     15.357     16.054
REMARK  2 active torsions:
REMARK  status: ('A' for Active; 'I' for Inactive)
REMARK    1  A    between atoms: C7_7  and  O9_9 
REMARK    2  A    between atoms: C8_8  and  O9_9 
ROOT
HETATM    1  C1  UNL     1     -21.493  17.759   8.015  1.00 20.00     0.015 C 
HETATM    2  C2  UNL     1     -22.437  18.119   8.664  1.00 20.00    -0.086 C 
HETATM    3  C3  UNL     1     -24.621  19.263   8.590  1.00 20.00     0.053 C 
HETATM    4  C7  UNL     1     -23.587  18.563   9.461  1.00 20.00     0.196 C 
ENDROOT
BRANCH   4   5
HETATM    5  O9  UNL     1     -24.186  17.436  10.080  1.00 20.00    -0.364 OA
BRANCH   5   6
HETATM    6  C8  UNL     1     -24.211  17.577  11.501  1.00 20.00     0.051 C 
HETATM    7  C4  UNL     1     -25.436  18.405  11.885  1.00 20.00     0.045 C 
HETATM    8  C5  UNL     1     -24.300  16.177  12.101  1.00 20.00     0.045 C 
HETATM    9  C6  UNL     1     -22.924  18.271  11.942  1.00 20.00     0.045 C 
ENDBRANCH   5   6
ENDBRANCH   4   5
TORSDOF 2
ENDMDL
MODEL 3
REMARK VINA RESULT:      -3.5      1.330      2.500
REMARK  2 active torsions:
REMARK  status: ('A' for Active; 'I' for Inactive)
REMARK    1  A    between atoms: C7_7  and  O9_9 
REMARK    2  A    between atoms: C8_8  and  O9_9 
ROOT
HETATM    1  C1  UNL     1     -31.860   8.163   2.843  1.00 20.00     0.015 C 
HETATM    2  C2  UNL     1     -32.528   7.185   3.039  1.00 20.00    -0.086 C 
HETATM    3  C3  UNL     1     -32.882   4.824   2.420  1.00 20.00     0.053 C 
HETATM    4  C7  UNL     1     -33.349   5.992   3.277  1.00 20.00     0.196 C 
ENDROOT
BRANCH   4   5
HETATM    5  O9  UNL     1     -33.258   5.631   4.647  1.00 20.00    -0.364 OA
BRANCH   5   6
HETATM    6  C8  UNL     1     -34.390   6.098   5.382  1.00 20.00     0.051 C 
HETATM    7  C4  UNL     1     -35.609   6.079   4.462  1.00 20.00     0.045 C 
HETATM    8  C5  UNL     1     -34.593   5.152   6.563  1.00 20.00     0.045 C 
HETATM    9  C6  UNL     1     -34.099   7.515   5.872  1.00 20.00     0.045 C 
ENDBRANCH   5   6
ENDBRANCH   4   5
TORSDOF 2
ENDMDL
MODEL 4
REMARK VINA RESULT:      -3.5      1.314      2.238
REMARK  2 active torsions:
REMARK  status: ('A' for Active; 'I' for Inactive)
REMARK    1  A    between atoms: C7_7  and  O9_9 
REMARK    2  A    between atoms: C8_8  and  O9_9 
ROOT
HETATM    1  C1  UNL     1     -31.801   8.196   3.040  1.00 20.00     0.015 C 
HETATM    2  C2  UNL     1     -32.493   7.224   3.170  1.00 20.00    -0.086 C 
HETATM    3  C3  UNL     1     -32.886   4.909   2.415  1.00 20.00     0.053 C 
HETATM    4  C7  UNL     1     -33.343   6.038   3.327  1.00 20.00     0.196 C 
ENDROOT
BRANCH   4   5
HETATM    5  O9  UNL     1     -33.285   5.600   4.675  1.00 20.00    -0.364 OA
BRANCH   5   6
HETATM    6  C8  UNL     1     -34.415   6.060   5.419  1.00 20.00     0.051 C 
HETATM    7  C4  UNL     1     -34.109   7.460   5.949  1.00 20.00     0.045 C 
HETATM    8  C5  UNL     1     -35.608   6.095   4.468  1.00 20.00     0.045 C 
HETATM    9  C6  UNL     1     -34.670   5.086   6.567  1.00 20.00     0.045 C 
ENDBRANCH   5   6
ENDBRANCH   4   5
TORSDOF 2
ENDMDL
MODEL 5
REMARK VINA RESULT:      -3.4      9.970     10.936
REMARK  2 active torsions:
REMARK  status: ('A' for Active; 'I' for Inactive)
REMARK    1  A    between atoms: C7_7  and  O9_9 
REMARK    2  A    between atoms: C8_8  and  O9_9 
ROOT
HETATM    1  C1  UNL     1     -38.977  12.094   5.567  1.00 20.00     0.015 C 
HETATM    2  C2  UNL     1     -39.885  12.639   6.133  1.00 20.00    -0.086 C 
HETATM    3  C3  UNL     1     -42.276  12.497   6.720  1.00 20.00     0.053 C 
HETATM    4  C7  UNL     1     -40.993  13.311   6.821  1.00 20.00     0.196 C 
ENDROOT
BRANCH   4   5
HETATM    5  O9  UNL     1     -40.656  13.482   8.189  1.00 20.00    -0.364 OA
BRANCH   5   6
HETATM    6  C8  UNL     1     -40.905  14.820   8.621  1.00 20.00     0.051 C 
HETATM    7  C4  UNL     1     -42.387  14.950   8.969  1.00 20.00     0.045 C 
HETATM    8  C5  UNL     1     -40.039  15.074   9.852  1.00 20.00     0.045 C 
HETATM    9  C6  UNL     1     -40.526  15.774   7.489  1.00 20.00     0.045 C 
ENDBRANCH   5   6
ENDBRANCH   4   5
TORSDOF 2
ENDMDL
MODEL 6
REMARK VINA RESULT:      -3.4      9.987     10.945
REMARK  2 active torsions:
REMARK  status: ('A' for Active; 'I' for Inactive)
REMARK    1  A    between atoms: C7_7  and  O9_9 
REMARK    2  A    between atoms: C8_8  and  O9_9 
ROOT
HETATM    1  C1  UNL     1     -38.985  12.098   5.608  1.00 20.00     0.015 C 
HETATM    2  C2  UNL     1     -39.894  12.646   6.168  1.00 20.00    -0.086 C 
HETATM    3  C3  UNL     1     -42.290  12.514   6.737  1.00 20.00     0.053 C 
HETATM    4  C7  UNL     1     -41.005  13.322   6.849  1.00 20.00     0.196 C 
ENDROOT
BRANCH   4   5
HETATM    5  O9  UNL     1     -40.678  13.488   8.220  1.00 20.00    -0.364 OA
BRANCH   5   6
HETATM    6  C8  UNL     1     -40.902  14.832   8.647  1.00 20.00     0.051 C 
HETATM    7  C4  UNL     1     -40.048  15.098   9.885  1.00 20.00     0.045 C 
HETATM    8  C5  UNL     1     -40.489  15.754   7.502  1.00 20.00     0.045 C 
HETATM    9  C6  UNL     1     -42.388  14.999   8.963  1.00 20.00     0.045 C 
ENDBRANCH   5   6
ENDBRANCH   4   5
TORSDOF 2
ENDMDL
MODEL 7
REMARK VINA RESULT:      -3.3      8.881      9.696
REMARK  2 active torsions:
REMARK  status: ('A' for Active; 'I' for Inactive)
REMARK    1  A    between atoms: C7_7  and  O9_9 
REMARK    2  A    between atoms: C8_8  and  O9_9 
ROOT
HETATM    1  C1  UNL     1     -38.996  11.631   3.558  1.00 20.00     0.015 C 
HETATM    2  C2  UNL     1     -39.400  11.939   4.646  1.00 20.00    -0.086 C 
HETATM    3  C3  UNL     1     -38.845  12.067   7.045  1.00 20.00     0.053 C 
HETATM    4  C7  UNL     1     -39.899  12.312   5.975  1.00 20.00     0.196 C 
ENDROOT
BRANCH   4   5
HETATM    5  O9  UNL     1     -40.247  13.687   5.971  1.00 20.00    -0.364 OA
BRANCH   5   6
HETATM    6  C8  UNL     1     -41.649  13.867   6.184  1.00 20.00     0.051 C 
HETATM    7  C4  UNL     1     -41.846  14.995   7.194  1.00 20.00     0.045 C 
HETATM    8  C5  UNL     1     -42.274  14.233   4.840  1.00 20.00     0.045 C 
HETATM    9  C6  UNL     1     -42.232  12.556   6.709  1.00 20.00     0.045 C 
ENDBRANCH   5   6
ENDBRANCH   4   5
TORSDOF 2
ENDMDL
MODEL 8
REMARK VINA RESULT:      -3.3     11.995     12.895
REMARK  2 active torsions:
REMARK  status: ('A' for Active; 'I' for Inactive)
REMARK    1  A    between atoms: C7_7  and  O9_9 
REMARK    2  A    between atoms: C8_8  and  O9_9 
ROOT
HETATM    1  C1  UNL     1     -30.858  18.576   1.123  1.00 20.00     0.015 C 
HETATM    2  C2  UNL     1     -31.952  18.478   0.638  1.00 20.00    -0.086 C 
HETATM    3  C3  UNL     1     -34.369  18.783   1.026  1.00 20.00     0.053 C 
HETATM    4  C7  UNL     1     -33.289  18.352   0.044  1.00 20.00     0.196 C 
ENDROOT
BRANCH   4   5
HETATM    5  O9  UNL     1     -33.361  19.167  -1.115  1.00 20.00    -0.364 OA
BRANCH   5   6
HETATM    6  C8  UNL     1     -33.764  18.410  -2.257  1.00 20.00     0.051 C 
HETATM    7  C4  UNL     1     -35.251  18.656  -2.503  1.00 20.00     0.045 C 
HETATM    8  C5  UNL     1     -32.936  18.893  -3.444  1.00 20.00     0.045 C 
HETATM    9  C6  UNL     1     -33.495  16.932  -1.979  1.00 20.00     0.045 C 
ENDBRANCH   5   6
ENDBRANCH   4   5
TORSDOF 2
ENDMDL
MODEL 9
REMARK VINA RESULT:      -3.2     11.698     13.163
REMARK  2 active torsions:
REMARK  status: ('A' for Active; 'I' for Inactive)
REMARK    1  A    between atoms: C7_7  and  O9_9 
REMARK    2  A    between atoms: C8_8  and  O9_9 
ROOT
HETATM    1  C1  UNL     1     -33.426  17.057  -1.960  1.00 20.00     0.015 C 
HETATM    2  C2  UNL     1     -33.574  16.532  -3.030  1.00 20.00    -0.086 C 
HETATM    3  C3  UNL     1     -32.978  14.588  -4.425  1.00 20.00     0.053 C 
HETATM    4  C7  UNL     1     -33.753  15.895  -4.340  1.00 20.00     0.196 C 
ENDROOT
BRANCH   4   5
HETATM    5  O9  UNL     1     -35.133  15.632  -4.544  1.00 20.00    -0.364 OA
BRANCH   5   6
HETATM    6  C8  UNL     1     -35.596  16.217  -5.762  1.00 20.00     0.051 C 
HETATM    7  C4  UNL     1     -34.593  17.282  -6.202  1.00 20.00     0.045 C 
HETATM    8  C5  UNL     1     -35.688  15.103  -6.801  1.00 20.00     0.045 C 
HETATM    9  C6  UNL     1     -36.971  16.834  -5.512  1.00 20.00     0.045 C 
ENDBRANCH   5   6
ENDBRANCH   4   5
TORSDOF 2
ENDMDL
