MODEL 1
REMARK VINA RESULT:      -4.8      0.000      0.000
REMARK  1 active torsions:
REMARK  status: ('A' for Active; 'I' for Inactive)
REMARK    1  A    between atoms: C2_2  and  C7_7 
ROOT
HETATM    1  C1  UNL     1     -34.112   4.914   4.497  1.00 20.00     0.127 C 
HETATM    2  C3  UNL     1     -33.619   5.693   3.299  1.00 20.00     0.079 C 
HETATM    3  C4  UNL     1     -34.808   5.709   5.580  1.00 20.00     0.079 C 
HETATM    4  C5  UNL     1     -32.813   6.906   3.741  1.00 20.00     0.019 C 
HETATM    5  C6  UNL     1     -33.974   6.921   5.975  1.00 20.00     0.019 C 
HETATM    6  C7  UNL     1     -33.581   7.757   4.754  1.00 20.00     0.048 C 
HETATM    7  O8  UNL     1     -34.046   3.687   4.540  1.00 20.00    -0.298 OA
ENDROOT
BRANCH   6   8
HETATM    8  C2  UNL     1     -32.727   8.910   5.181  1.00 20.00     0.235 C 
HETATM    9  O9  UNL     1     -32.018   9.549   4.410  1.00 20.00    -0.306 OA
ENDBRANCH   6   8
TORSDOF 1
ENDMDL
MODEL 2
REMARK VINA RESULT:      -4.7      0.795      4.122
REMARK  1 active torsions:
REMARK  status: ('A' for Active; 'I' for Inactive)
REMARK    1  A    between atoms: C2_2  and  C7_7 
ROOT
HETATM    1  C1  UNL     1     -32.632   8.620   4.843  1.00 20.00     0.127 C 
HETATM    2  C3  UNL     1     -33.769   8.444   5.824  1.00 20.00     0.079 C 
HETATM    3  C4  UNL     1     -32.761   7.893   3.522  1.00 20.00     0.079 C 
HETATM    4  C5  UNL     1     -34.105   6.970   6.000  1.00 20.00     0.019 C 
HETATM    5  C6  UNL     1     -33.117   6.430   3.748  1.00 20.00     0.019 C 
HETATM    6  C7  UNL     1     -34.340   6.280   4.655  1.00 20.00     0.048 C 
HETATM    7  O8  UNL     1     -31.703   9.395   5.064  1.00 20.00    -0.298 OA
ENDROOT
BRANCH   6   8
HETATM    8  C2  UNL     1     -34.628   4.829   4.887  1.00 20.00     0.235 C 
HETATM    9  O9  UNL     1     -33.992   3.921   4.361  1.00 20.00    -0.306 OA
ENDBRANCH   6   8
TORSDOF 1
ENDMDL
MODEL 3
REMARK VINA RESULT:      -4.7      1.568      2.034
REMARK  1 active torsions:
REMARK  status: ('A' for Active; 'I' for Inactive)
REMARK    1  A    between atoms: C2_2  and  C7_7 
ROOT
HETATM    1  C1  UNL     1     -34.552   5.790   6.009  1.00 20.00     0.127 C 
HETATM    2  C3  UNL     1     -34.772   5.435   4.556  1.00 20.00     0.079 C 
HETATM    3  C4  UNL     1     -34.182   7.227   6.304  1.00 20.00     0.079 C 
HETATM    4  C5  UNL     1     -33.611   5.925   3.702  1.00 20.00     0.019 C 
HETATM    5  C6  UNL     1     -33.032   7.677   5.414  1.00 20.00     0.019 C 
HETATM    6  C7  UNL     1     -33.325   7.409   3.936  1.00 20.00     0.048 C 
HETATM    7  O8  UNL     1     -34.768   4.981   6.910  1.00 20.00    -0.298 OA
ENDROOT
BRANCH   6   8
HETATM    8  C2  UNL     1     -32.153   7.825   3.101  1.00 20.00     0.235 C 
HETATM    9  O9  UNL     1     -32.103   7.675   1.884  1.00 20.00    -0.306 OA
ENDBRANCH   6   8
TORSDOF 1
ENDMDL
MODEL 4
REMARK VINA RESULT:      -4.5      1.673      3.492
REMARK  1 active torsions:
REMARK  status: ('A' for Active; 'I' for Inactive)
REMARK    1  A    between atoms: C2_2  and  C7_7 
ROOT
HETATM    1  C1  UNL     1     -32.361   7.506   2.767  1.00 20.00     0.127 C 
HETATM    2  C3  UNL     1     -32.705   6.045   2.944  1.00 20.00     0.079 C 
HETATM    3  C4  UNL     1     -32.094   8.295   4.030  1.00 20.00     0.079 C 
HETATM    4  C5  UNL     1     -33.804   5.873   3.982  1.00 20.00     0.019 C 
HETATM    5  C6  UNL     1     -33.208   8.077   5.044  1.00 20.00     0.019 C 
HETATM    6  C7  UNL     1     -33.462   6.588   5.291  1.00 20.00     0.048 C 
HETATM    7  O8  UNL     1     -32.203   8.001   1.652  1.00 20.00    -0.298 OA
ENDROOT
BRANCH   6   8
HETATM    8  C2  UNL     1     -34.593   6.418   6.258  1.00 20.00     0.235 C 
HETATM    9  O9  UNL     1     -34.983   5.326   6.658  1.00 20.00    -0.306 OA
ENDBRANCH   6   8
TORSDOF 1
ENDMDL
MODEL 5
REMARK VINA RESULT:      -4.3      1.221      2.066
REMARK  1 active torsions:
REMARK  status: ('A' for Active; 'I' for Inactive)
REMARK    1  A    between atoms: C2_2  and  C7_7 
ROOT
HETATM    1  C1  UNL     1     -34.490   5.517   4.935  1.00 20.00     0.127 C 
HETATM    2  C3  UNL     1     -34.156   6.573   5.963  1.00 20.00     0.079 C 
HETATM    3  C4  UNL     1     -33.485   5.314   3.823  1.00 20.00     0.079 C 
HETATM    4  C5  UNL     1     -33.764   7.878   5.286  1.00 20.00     0.019 C 
HETATM    5  C6  UNL     1     -33.109   6.646   3.190  1.00 20.00     0.019 C 
HETATM    6  C7  UNL     1     -32.666   7.666   4.242  1.00 20.00     0.048 C 
HETATM    7  O8  UNL     1     -35.475   4.789   5.054  1.00 20.00    -0.298 OA
ENDROOT
BRANCH   6   8
HETATM    8  C2  UNL     1     -32.350   8.973   3.583  1.00 20.00     0.235 C 
HETATM    9  O9  UNL     1     -32.721   9.267   2.451  1.00 20.00    -0.306 OA
ENDBRANCH   6   8
TORSDOF 1
ENDMDL
MODEL 6
REMARK VINA RESULT:      -3.8     12.353     13.623
REMARK  1 active torsions:
REMARK  status: ('A' for Active; 'I' for Inactive)
REMARK    1  A    between atoms: C2_2  and  C7_7 
ROOT
HETATM    1  C1  UNL     1     -33.367  16.628  -3.338  1.00 20.00     0.127 C 
HETATM    2  C3  UNL     1     -34.143  17.516  -4.282  1.00 20.00     0.079 C 
HETATM    3  C4  UNL     1     -32.917  15.290  -3.885  1.00 20.00     0.079 C 
HETATM    4  C5  UNL     1     -35.279  16.743  -4.937  1.00 20.00     0.019 C 
HETATM    5  C6  UNL     1     -34.080  14.563  -4.546  1.00 20.00     0.019 C 
HETATM    6  C7  UNL     1     -34.782  15.446  -5.580  1.00 20.00     0.048 C 
HETATM    7  O8  UNL     1     -33.027  17.014  -2.221  1.00 20.00    -0.298 OA
ENDROOT
BRANCH   6   8
HETATM    8  C2  UNL     1     -35.944  14.711  -6.173  1.00 20.00     0.235 C 
HETATM    9  O9  UNL     1     -35.982  14.333  -7.339  1.00 20.00    -0.306 OA
ENDBRANCH   6   8
TORSDOF 1
ENDMDL
MODEL 7
REMARK VINA RESULT:      -3.7      1.823      3.518
REMARK  1 active torsions:
REMARK  status: ('A' for Active; 'I' for Inactive)
REMARK    1  A    between atoms: C2_2  and  C7_7 
ROOT
HETATM    1  C1  UNL     1     -34.331   6.928   5.962  1.00 20.00     0.127 C 
HETATM    2  C3  UNL     1     -35.001   5.700   5.388  1.00 20.00     0.079 C 
HETATM    3  C4  UNL     1     -33.732   7.897   4.966  1.00 20.00     0.079 C 
HETATM    4  C5  UNL     1     -34.092   5.012   4.381  1.00 20.00     0.019 C 
HETATM    5  C6  UNL     1     -32.847   7.162   3.968  1.00 20.00     0.019 C 
HETATM    6  C7  UNL     1     -33.585   5.989   3.318  1.00 20.00     0.048 C 
HETATM    7  O8  UNL     1     -34.365   7.179   7.165  1.00 20.00    -0.298 OA
ENDROOT
BRANCH   6   8
HETATM    8  C2  UNL     1     -32.668   5.268   2.380  1.00 20.00     0.235 C 
HETATM    9  O9  UNL     1     -32.936   4.185   1.870  1.00 20.00    -0.306 OA
ENDBRANCH   6   8
TORSDOF 1
ENDMDL
MODEL 8
REMARK VINA RESULT:      -3.6     12.406     13.232
REMARK  1 active torsions:
REMARK  status: ('A' for Active; 'I' for Inactive)
REMARK    1  A    between atoms: C2_2  and  C7_7 
ROOT
HETATM    1  C1  UNL     1     -34.448  15.302  -5.750  1.00 20.00     0.127 C 
HETATM    2  C3  UNL     1     -35.273  16.505  -5.354  1.00 20.00     0.079 C 
HETATM    3  C4  UNL     1     -33.744  14.568  -4.629  1.00 20.00     0.079 C 
HETATM    4  C5  UNL     1     -34.469  17.438  -4.460  1.00 20.00     0.019 C 
HETATM    5  C6  UNL     1     -32.970  15.543  -3.753  1.00 20.00     0.019 C 
HETATM    6  C7  UNL     1     -33.857  16.694  -3.272  1.00 20.00     0.048 C 
HETATM    7  O8  UNL     1     -34.435  14.880  -6.905  1.00 20.00    -0.298 OA
ENDROOT
BRANCH   6   8
HETATM    8  C2  UNL     1     -33.049  17.652  -2.452  1.00 20.00     0.235 C 
HETATM    9  O9  UNL     1     -33.000  17.620  -1.227  1.00 20.00    -0.306 OA
ENDBRANCH   6   8
TORSDOF 1
ENDMDL
MODEL 9
REMARK VINA RESULT:      -3.6     12.287     13.313
REMARK  1 active torsions:
REMARK  status: ('A' for Active; 'I' for Inactive)
REMARK    1  A    between atoms: C2_2  and  C7_7 
ROOT
HETATM    1  C1  UNL     1     -35.098  15.102  -5.954  1.00 20.00     0.127 C 
HETATM    2  C3  UNL     1     -33.855  14.616  -5.245  1.00 20.00     0.079 C 
HETATM    3  C4  UNL     1     -35.285  16.601  -6.038  1.00 20.00     0.079 C 
HETATM    4  C5  UNL     1     -33.706  15.298  -3.892  1.00 20.00     0.019 C 
HETATM    5  C6  UNL     1     -35.108  17.240  -4.667  1.00 20.00     0.019 C 
HETATM    6  C7  UNL     1     -33.788  16.821  -4.016  1.00 20.00     0.048 C 
HETATM    7  O8  UNL     1     -35.861  14.324  -6.525  1.00 20.00    -0.298 OA
ENDROOT
BRANCH   6   8
HETATM    8  C2  UNL     1     -33.674  17.434  -2.655  1.00 20.00     0.235 C 
HETATM    9  O9  UNL     1     -33.605  16.778  -1.620  1.00 20.00    -0.306 OA
ENDBRANCH   6   8
TORSDOF 1
ENDMDL
