MODEL 1
REMARK VINA RESULT:      -4.5      0.000      0.000
REMARK  1 active torsions:
REMARK  status: ('A' for Active; 'I' for Inactive)
REMARK    1  A    between atoms: C4_4  and  C5_5 
ROOT
HETATM    1  C1  UNL     1     -34.422   5.782   5.378  1.00 20.00     0.059 C 
HETATM    2  C5  UNL     1     -33.922   7.015   5.994  1.00 20.00     0.128 C 
HETATM    3  N6  UNL     1     -34.820   4.804   4.894  1.00 20.00    -0.197 NA
ENDROOT
BRANCH   2   4
HETATM    4  C4  UNL     1     -33.656   7.948   4.866  1.00 20.00    -0.002 A 
HETATM    5  C2  UNL     1     -32.393   8.764   4.839  1.00 20.00     0.006 A 
HETATM    6  C3  UNL     1     -32.580   7.636   3.863  1.00 20.00     0.006 A 
ENDBRANCH   2   4
TORSDOF 1
ENDMDL
MODEL 2
REMARK VINA RESULT:      -4.2      2.160      3.414
REMARK  1 active torsions:
REMARK  status: ('A' for Active; 'I' for Inactive)
REMARK    1  A    between atoms: C4_4  and  C5_5 
ROOT
HETATM    1  C1  UNL     1     -32.748   7.993   4.518  1.00 20.00     0.059 C 
HETATM    2  C5  UNL     1     -33.320   6.734   4.031  1.00 20.00     0.128 C 
HETATM    3  N6  UNL     1     -32.294   8.990   4.901  1.00 20.00    -0.197 NA
ENDROOT
BRANCH   2   4
HETATM    4  C4  UNL     1     -34.494   6.461   4.905  1.00 20.00    -0.002 A 
HETATM    5  C2  UNL     1     -34.688   5.097   5.509  1.00 20.00     0.006 A 
HETATM    6  C3  UNL     1     -34.306   6.259   6.383  1.00 20.00     0.006 A 
ENDBRANCH   2   4
TORSDOF 1
ENDMDL
MODEL 3
REMARK VINA RESULT:      -4.1      2.098      3.309
REMARK  1 active torsions:
REMARK  status: ('A' for Active; 'I' for Inactive)
REMARK    1  A    between atoms: C4_4  and  C5_5 
ROOT
HETATM    1  C1  UNL     1     -32.971   8.231   4.464  1.00 20.00     0.059 C 
HETATM    2  C5  UNL     1     -33.677   7.655   5.613  1.00 20.00     0.128 C 
HETATM    3  N6  UNL     1     -32.411   8.689   3.556  1.00 20.00    -0.197 NA
ENDROOT
BRANCH   2   4
HETATM    4  C4  UNL     1     -33.897   6.223   5.273  1.00 20.00    -0.002 A 
HETATM    5  C2  UNL     1     -34.784   5.367   6.134  1.00 20.00     0.006 A 
HETATM    6  C3  UNL     1     -35.232   5.764   4.755  1.00 20.00     0.006 A 
ENDBRANCH   2   4
TORSDOF 1
ENDMDL
MODEL 4
REMARK VINA RESULT:      -4.1      1.767      2.572
REMARK  1 active torsions:
REMARK  status: ('A' for Active; 'I' for Inactive)
REMARK    1  A    between atoms: C4_4  and  C5_5 
ROOT
HETATM    1  C1  UNL     1     -33.564   5.118   3.456  1.00 20.00     0.059 C 
HETATM    2  C5  UNL     1     -34.404   4.895   4.636  1.00 20.00     0.128 C 
HETATM    3  N6  UNL     1     -32.899   5.292   2.520  1.00 20.00    -0.197 NA
ENDROOT
BRANCH   2   4
HETATM    4  C4  UNL     1     -34.747   6.251   5.146  1.00 20.00    -0.002 A 
HETATM    5  C2  UNL     1     -34.338   6.666   6.533  1.00 20.00     0.006 A 
HETATM    6  C3  UNL     1     -33.671   7.284   5.336  1.00 20.00     0.006 A 
ENDBRANCH   2   4
TORSDOF 1
ENDMDL
MODEL 5
REMARK VINA RESULT:      -3.8      0.692      1.062
REMARK  1 active torsions:
REMARK  status: ('A' for Active; 'I' for Inactive)
REMARK    1  A    between atoms: C4_4  and  C5_5 
ROOT
HETATM    1  C1  UNL     1     -34.489   5.748   4.937  1.00 20.00     0.059 C 
HETATM    2  C5  UNL     1     -34.328   7.200   5.060  1.00 20.00     0.128 C 
HETATM    3  N6  UNL     1     -34.620   4.599   4.839  1.00 20.00    -0.197 NA
ENDROOT
BRANCH   2   4
HETATM    4  C4  UNL     1     -32.925   7.485   4.653  1.00 20.00    -0.002 A 
HETATM    5  C2  UNL     1     -32.643   8.384   3.481  1.00 20.00     0.006 A 
HETATM    6  C3  UNL     1     -32.333   8.848   4.876  1.00 20.00     0.006 A 
ENDBRANCH   2   4
TORSDOF 1
ENDMDL
MODEL 6
REMARK VINA RESULT:      -3.4      8.537      8.953
REMARK  1 active torsions:
REMARK  status: ('A' for Active; 'I' for Inactive)
REMARK    1  A    between atoms: C4_4  and  C5_5 
ROOT
HETATM    1  C1  UNL     1     -41.893  12.580   6.684  1.00 20.00     0.059 C 
HETATM    2  C5  UNL     1     -40.928  13.005   5.665  1.00 20.00     0.128 C 
HETATM    3  N6  UNL     1     -42.659  12.246   7.490  1.00 20.00    -0.197 NA
ENDROOT
BRANCH   2   4
HETATM    4  C4  UNL     1     -39.980  11.868   5.511  1.00 20.00    -0.002 A 
HETATM    5  C2  UNL     1     -39.167  11.724   4.254  1.00 20.00     0.006 A 
HETATM    6  C3  UNL     1     -38.497  12.109   5.543  1.00 20.00     0.006 A 
ENDBRANCH   2   4
TORSDOF 1
ENDMDL
MODEL 7
REMARK VINA RESULT:      -3.4      1.531      2.438
REMARK  1 active torsions:
REMARK  status: ('A' for Active; 'I' for Inactive)
REMARK    1  A    between atoms: C4_4  and  C5_5 
ROOT
HETATM    1  C1  UNL     1     -32.678   6.274   2.912  1.00 20.00     0.059 C 
HETATM    2  C5  UNL     1     -32.410   7.669   3.274  1.00 20.00     0.128 C 
HETATM    3  N6  UNL     1     -32.888   5.169   2.622  1.00 20.00    -0.197 NA
ENDROOT
BRANCH   2   4
HETATM    4  C4  UNL     1     -32.612   7.747   4.747  1.00 20.00    -0.002 A 
HETATM    5  C2  UNL     1     -33.677   8.641   5.319  1.00 20.00     0.006 A 
HETATM    6  C3  UNL     1     -33.839   7.147   5.375  1.00 20.00     0.006 A 
ENDBRANCH   2   4
TORSDOF 1
ENDMDL
MODEL 8
REMARK VINA RESULT:      -3.2      2.006      2.658
REMARK  1 active torsions:
REMARK  status: ('A' for Active; 'I' for Inactive)
REMARK    1  A    between atoms: C4_4  and  C5_5 
ROOT
HETATM    1  C1  UNL     1     -34.557   6.239   5.642  1.00 20.00     0.059 C 
HETATM    2  C5  UNL     1     -34.679   5.603   4.327  1.00 20.00     0.128 C 
HETATM    3  N6  UNL     1     -34.463   6.743   6.684  1.00 20.00    -0.197 NA
ENDROOT
BRANCH   2   4
HETATM    4  C4  UNL     1     -33.285   5.419   3.839  1.00 20.00    -0.002 A 
HETATM    5  C2  UNL     1     -33.024   5.099   2.393  1.00 20.00     0.006 A 
HETATM    6  C3  UNL     1     -32.654   6.448   2.943  1.00 20.00     0.006 A 
ENDBRANCH   2   4
TORSDOF 1
ENDMDL
MODEL 9
REMARK VINA RESULT:      -3.1     12.069     12.390
REMARK  1 active torsions:
REMARK  status: ('A' for Active; 'I' for Inactive)
REMARK    1  A    between atoms: C4_4  and  C5_5 
ROOT
HETATM    1  C1  UNL     1     -33.719  15.332  -3.934  1.00 20.00     0.059 C 
HETATM    2  C5  UNL     1     -33.599  16.753  -3.591  1.00 20.00     0.128 C 
HETATM    3  N6  UNL     1     -33.814  14.208  -4.209  1.00 20.00    -0.197 NA
ENDROOT
BRANCH   2   4
HETATM    4  C4  UNL     1     -33.331  16.792  -2.127  1.00 20.00    -0.002 A 
HETATM    5  C2  UNL     1     -32.546  17.927  -1.530  1.00 20.00     0.006 A 
HETATM    6  C3  UNL     1     -34.019  17.807  -1.258  1.00 20.00     0.006 A 
ENDBRANCH   2   4
TORSDOF 1
ENDMDL
