MODEL 1
REMARK VINA RESULT:      -5.3      0.000      0.000
REMARK  0 active torsions:
REMARK  status: ('A' for Active; 'I' for Inactive)
ROOT
HETATM    1  C1  UNL     1     -34.409   4.584   5.512  1.00 20.00    -0.025 C 
HETATM    2  C2  UNL     1     -34.620   5.575   6.393  1.00 20.00    -0.025 C 
HETATM    3  C3  UNL     1     -32.679   6.705   2.819  1.00 20.00    -0.024 A 
HETATM    4  C4  UNL     1     -32.701   8.033   2.955  1.00 20.00    -0.025 A 
HETATM    5  C5  UNL     1     -35.336   6.340   4.342  1.00 20.00     0.018 C 
HETATM    6  C6  UNL     1     -34.307   5.218   4.142  1.00 20.00     0.016 C 
HETATM    7  C7  UNL     1     -34.657   6.871   5.610  1.00 20.00     0.014 C 
HETATM    8  C8  UNL     1     -32.966   5.994   4.101  1.00 20.00     0.021 A 
HETATM    9  C9  UNL     1     -33.035   8.476   4.348  1.00 20.00     0.009 A 
HETATM   10  C10 UNL     1     -33.205   7.155   5.130  1.00 20.00     0.009 A 
HETATM   11  C11 UNL     1     -31.922   9.341   4.932  1.00 20.00     0.014 C 
ENDROOT
TORSDOF 0
ENDMDL
MODEL 2
REMARK VINA RESULT:      -4.8      0.959      3.809
REMARK  0 active torsions:
REMARK  status: ('A' for Active; 'I' for Inactive)
ROOT
HETATM    1  C1  UNL     1     -32.156   9.052   5.021  1.00 20.00    -0.025 C 
HETATM    2  C2  UNL     1     -32.073   8.530   3.786  1.00 20.00    -0.025 C 
HETATM    3  C3  UNL     1     -34.472   6.376   6.509  1.00 20.00    -0.024 A 
HETATM    4  C4  UNL     1     -35.033   5.496   5.676  1.00 20.00    -0.025 A 
HETATM    5  C5  UNL     1     -34.307   8.569   4.347  1.00 20.00     0.018 C 
HETATM    6  C6  UNL     1     -33.455   8.565   5.625  1.00 20.00     0.016 C 
HETATM    7  C7  UNL     1     -33.317   7.695   3.568  1.00 20.00     0.014 C 
HETATM    8  C8  UNL     1     -33.283   7.052   5.911  1.00 20.00     0.021 A 
HETATM    9  C9  UNL     1     -34.349   5.429   4.344  1.00 20.00     0.009 A 
HETATM   10  C10 UNL     1     -33.184   6.435   4.471  1.00 20.00     0.009 A 
HETATM   11  C11 UNL     1     -33.849   4.017   4.053  1.00 20.00     0.014 C 
ENDROOT
TORSDOF 0
ENDMDL
MODEL 3
REMARK VINA RESULT:      -4.5     15.334     16.441
REMARK  0 active torsions:
REMARK  status: ('A' for Active; 'I' for Inactive)
ROOT
HETATM    1  C1  UNL     1     -22.373  17.536   8.380  1.00 20.00    -0.025 C 
HETATM    2  C2  UNL     1     -22.820  18.797   8.276  1.00 20.00    -0.025 C 
HETATM    3  C3  UNL     1     -24.200  16.654  11.640  1.00 20.00    -0.024 A 
HETATM    4  C4  UNL     1     -24.790  17.643  12.317  1.00 20.00    -0.025 A 
HETATM    5  C5  UNL     1     -22.068  18.530  10.437  1.00 20.00     0.018 C 
HETATM    6  C6  UNL     1     -22.430  17.160   9.845  1.00 20.00     0.016 C 
HETATM    7  C7  UNL     1     -23.176  19.263   9.673  1.00 20.00     0.014 C 
HETATM    8  C8  UNL     1     -23.927  17.018  10.218  1.00 20.00     0.021 A 
HETATM    9  C9  UNL     1     -25.006  18.874  11.490  1.00 20.00     0.009 A 
HETATM   10  C10 UNL     1     -24.457  18.491  10.098  1.00 20.00     0.009 A 
HETATM   11  C11 UNL     1     -26.484  19.247  11.433  1.00 20.00     0.014 C 
ENDROOT
TORSDOF 0
ENDMDL
MODEL 4
REMARK VINA RESULT:      -4.4     14.909     16.864
REMARK  0 active torsions:
REMARK  status: ('A' for Active; 'I' for Inactive)
ROOT
HETATM    1  C1  UNL     1     -21.293  18.463   8.721  1.00 20.00    -0.025 C 
HETATM    2  C2  UNL     1     -22.149  17.550   8.237  1.00 20.00    -0.025 C 
HETATM    3  C3  UNL     1     -22.972  18.918  12.144  1.00 20.00    -0.024 A 
HETATM    4  C4  UNL     1     -24.174  18.369  12.332  1.00 20.00    -0.025 A 
HETATM    5  C5  UNL     1     -23.420  19.261   9.112  1.00 20.00     0.018 C 
HETATM    6  C6  UNL     1     -22.034  19.258   9.774  1.00 20.00     0.016 C 
HETATM    7  C7  UNL     1     -23.462  17.735   8.968  1.00 20.00     0.014 C 
HETATM    8  C8  UNL     1     -22.243  18.317  10.988  1.00 20.00     0.021 A 
HETATM    9  C9  UNL     1     -24.502  17.310  11.322  1.00 20.00     0.009 A 
HETATM   10  C10 UNL     1     -23.244  17.244  10.428  1.00 20.00     0.009 A 
HETATM   11  C11 UNL     1     -24.786  15.973  11.999  1.00 20.00     0.014 C 
ENDROOT
TORSDOF 0
ENDMDL
MODEL 5
REMARK VINA RESULT:      -4.3      1.025      2.289
REMARK  0 active torsions:
REMARK  status: ('A' for Active; 'I' for Inactive)
ROOT
HETATM    1  C1  UNL     1     -35.392   5.677   5.841  1.00 20.00    -0.025 C 
HETATM    2  C2  UNL     1     -34.892   4.913   4.856  1.00 20.00    -0.025 C 
HETATM    3  C3  UNL     1     -33.150   8.737   5.251  1.00 20.00    -0.024 A 
HETATM    4  C4  UNL     1     -32.121   8.609   4.410  1.00 20.00    -0.025 A 
HETATM    5  C5  UNL     1     -33.096   5.753   6.029  1.00 20.00     0.018 C 
HETATM    6  C6  UNL     1     -34.315   6.665   6.231  1.00 20.00     0.016 C 
HETATM    7  C7  UNL     1     -33.481   5.394   4.589  1.00 20.00     0.014 C 
HETATM    8  C8  UNL     1     -34.179   7.672   5.061  1.00 20.00     0.021 A 
HETATM    9  C9  UNL     1     -32.243   7.418   3.507  1.00 20.00     0.009 A 
HETATM   10  C10 UNL     1     -33.595   6.786   3.905  1.00 20.00     0.009 A 
HETATM   11  C11 UNL     1     -32.223   7.835   2.040  1.00 20.00     0.014 C 
ENDROOT
TORSDOF 0
ENDMDL
MODEL 6
REMARK VINA RESULT:      -4.1     11.855     13.355
REMARK  0 active torsions:
REMARK  status: ('A' for Active; 'I' for Inactive)
ROOT
HETATM    1  C1  UNL     1     -34.001  19.000  -0.289  1.00 20.00    -0.025 C 
HETATM    2  C2  UNL     1     -33.021  18.092  -0.154  1.00 20.00    -0.025 C 
HETATM    3  C3  UNL     1     -35.036  18.048  -3.862  1.00 20.00    -0.024 A 
HETATM    4  C4  UNL     1     -34.253  17.205  -4.540  1.00 20.00    -0.025 A 
HETATM    5  C5  UNL     1     -32.691  19.135  -2.181  1.00 20.00     0.018 C 
HETATM    6  C6  UNL     1     -34.165  19.263  -1.771  1.00 20.00     0.016 C 
HETATM    7  C7  UNL     1     -32.533  17.749  -1.545  1.00 20.00     0.014 C 
HETATM    8  C8  UNL     1     -34.798  17.991  -2.389  1.00 20.00     0.021 A 
HETATM    9  C9  UNL     1     -33.315  16.436  -3.658  1.00 20.00     0.009 A 
HETATM   10  C10 UNL     1     -33.657  16.924  -2.233  1.00 20.00     0.009 A 
HETATM   11  C11 UNL     1     -33.527  14.933  -3.808  1.00 20.00     0.014 C 
ENDROOT
TORSDOF 0
ENDMDL
MODEL 7
REMARK VINA RESULT:      -4.0     11.909     13.969
REMARK  0 active torsions:
REMARK  status: ('A' for Active; 'I' for Inactive)
ROOT
HETATM    1  C1  UNL     1     -36.501  16.397  -7.335  1.00 20.00    -0.025 C 
HETATM    2  C2  UNL     1     -35.698  17.446  -7.093  1.00 20.00    -0.025 C 
HETATM    3  C3  UNL     1     -35.045  14.061  -4.658  1.00 20.00    -0.024 A 
HETATM    4  C4  UNL     1     -33.915  14.429  -4.050  1.00 20.00    -0.025 A 
HETATM    5  C5  UNL     1     -34.345  15.588  -7.245  1.00 20.00     0.018 C 
HETATM    6  C6  UNL     1     -35.770  15.157  -6.868  1.00 20.00     0.016 C 
HETATM    7  C7  UNL     1     -34.432  16.905  -6.464  1.00 20.00     0.014 C 
HETATM    8  C8  UNL     1     -35.738  15.206  -5.320  1.00 20.00     0.021 A 
HETATM    9  C9  UNL     1     -33.612  15.890  -4.206  1.00 20.00     0.009 A 
HETATM   10  C10 UNL     1     -34.801  16.432  -5.029  1.00 20.00     0.009 A 
HETATM   11  C11 UNL     1     -33.503  16.577  -2.849  1.00 20.00     0.014 C 
ENDROOT
TORSDOF 0
ENDMDL
MODEL 8
REMARK VINA RESULT:      -3.7     11.457     12.904
REMARK  0 active torsions:
REMARK  status: ('A' for Active; 'I' for Inactive)
ROOT
HETATM    1  C1  UNL     1     -28.965  -3.964  10.062  1.00 20.00    -0.025 C 
HETATM    2  C2  UNL     1     -28.142  -4.576  10.928  1.00 20.00    -0.025 C 
HETATM    3  C3  UNL     1     -27.596  -0.409  10.540  1.00 20.00    -0.024 A 
HETATM    4  C4  UNL     1     -26.742  -0.194  11.544  1.00 20.00    -0.025 A 
HETATM    5  C5  UNL     1     -28.997  -2.730  12.009  1.00 20.00     0.018 C 
HETATM    6  C6  UNL     1     -29.068  -2.516  10.490  1.00 20.00     0.016 C 
HETATM    7  C7  UNL     1     -27.695  -3.536  11.933  1.00 20.00     0.014 C 
HETATM    8  C8  UNL     1     -27.702  -1.854  10.179  1.00 20.00     0.021 A 
HETATM    9  C9  UNL     1     -26.129  -1.455  12.075  1.00 20.00     0.009 A 
HETATM   10  C10 UNL     1     -26.733  -2.567  11.188  1.00 20.00     0.009 A 
HETATM   11  C11 UNL     1     -24.608  -1.412  11.971  1.00 20.00     0.014 C 
ENDROOT
TORSDOF 0
ENDMDL
MODEL 9
REMARK VINA RESULT:      -3.6     12.295     13.725
REMARK  0 active torsions:
REMARK  status: ('A' for Active; 'I' for Inactive)
ROOT
HETATM    1  C1  UNL     1     -28.441  -1.401  11.034  1.00 20.00    -0.025 C 
HETATM    2  C2  UNL     1     -28.329  -2.398  10.142  1.00 20.00    -0.025 C 
HETATM    3  C3  UNL     1     -24.785  -1.401  12.205  1.00 20.00    -0.024 A 
HETATM    4  C4  UNL     1     -23.999  -2.407  11.813  1.00 20.00    -0.025 A 
HETATM    5  C5  UNL     1     -27.336  -3.129  12.087  1.00 20.00     0.018 C 
HETATM    6  C6  UNL     1     -27.344  -1.593  12.059  1.00 20.00     0.016 C 
HETATM    7  C7  UNL     1     -27.155  -3.253  10.570  1.00 20.00     0.014 C 
HETATM    8  C8  UNL     1     -26.004  -1.263  11.355  1.00 20.00     0.021 A 
HETATM    9  C9  UNL     1     -24.550  -3.161  10.640  1.00 20.00     0.009 A 
HETATM   10  C10 UNL     1     -25.866  -2.424  10.307  1.00 20.00     0.009 A 
HETATM   11  C11 UNL     1     -23.576  -3.139   9.466  1.00 20.00     0.014 C 
ENDROOT
TORSDOF 0
ENDMDL
