MODEL 1
REMARK VINA RESULT:      -4.1      0.000      0.000
REMARK  3 active torsions:
REMARK  status: ('A' for Active; 'I' for Inactive)
REMARK    1  A    between atoms: C3_3  and  C4_4 
REMARK    2  A    between atoms: C4_4  and  O10_10 
REMARK    3  A    between atoms: C7_7  and  O10_10 
ROOT
HETATM    1  C1  UNL     1     -32.604   8.766   1.671  1.00 20.00     0.105 C 
HETATM    2  C2  UNL     1     -32.139   6.594   2.572  1.00 20.00     0.042 C 
HETATM    3  C3  UNL     1     -32.511   7.866   2.771  1.00 20.00     0.110 C 
HETATM    4  N8  UNL     1     -32.678   9.500   0.775  1.00 20.00    -0.191 NA
ENDROOT
BRANCH   3   5
HETATM    5  C4  UNL     1     -32.814   8.289   4.166  1.00 20.00     0.303 C 
HETATM    6  O9  UNL     1     -32.055   8.935   4.875  1.00 20.00    -0.258 OA
BRANCH   5   7
HETATM    7  O10 UNL     1     -34.054   7.848   4.518  1.00 20.00    -0.312 OA
BRANCH   7   8
HETATM    8  C7  UNL     1     -34.095   6.582   5.185  1.00 20.00     0.124 C 
HETATM    9  C5  UNL     1     -34.269   6.809   6.679  1.00 20.00     0.040 C 
HETATM   10  C6  UNL     1     -35.226   5.747   4.604  1.00 20.00     0.040 C 
ENDBRANCH   7   8
ENDBRANCH   5   7
ENDBRANCH   3   5
TORSDOF 3
ENDMDL
MODEL 2
REMARK VINA RESULT:      -4.0      1.639      1.931
REMARK  3 active torsions:
REMARK  status: ('A' for Active; 'I' for Inactive)
REMARK    1  A    between atoms: C3_3  and  C4_4 
REMARK    2  A    between atoms: C4_4  and  O10_10 
REMARK    3  A    between atoms: C7_7  and  O10_10 
ROOT
HETATM    1  C1  UNL     1     -32.627   5.937   2.591  1.00 20.00     0.105 C 
HETATM    2  C2  UNL     1     -32.072   8.121   1.774  1.00 20.00     0.042 C 
HETATM    3  C3  UNL     1     -32.469   7.340   2.788  1.00 20.00     0.110 C 
HETATM    4  N8  UNL     1     -32.758   4.795   2.431  1.00 20.00    -0.191 NA
ENDROOT
BRANCH   3   5
HETATM    5  C4  UNL     1     -32.734   7.989   4.101  1.00 20.00     0.303 C 
HETATM    6  O9  UNL     1     -31.924   8.672   4.713  1.00 20.00    -0.258 OA
BRANCH   5   7
HETATM    7  O10 UNL     1     -34.003   7.704   4.504  1.00 20.00    -0.312 OA
BRANCH   7   8
HETATM    8  C7  UNL     1     -34.154   6.510   5.281  1.00 20.00     0.124 C 
HETATM    9  C5  UNL     1     -34.291   6.883   6.749  1.00 20.00     0.040 C 
HETATM   10  C6  UNL     1     -35.363   5.736   4.778  1.00 20.00     0.040 C 
ENDBRANCH   7   8
ENDBRANCH   5   7
ENDBRANCH   3   5
TORSDOF 3
ENDMDL
MODEL 3
REMARK VINA RESULT:      -4.0      1.453      1.938
REMARK  3 active torsions:
REMARK  status: ('A' for Active; 'I' for Inactive)
REMARK    1  A    between atoms: C3_3  and  C4_4 
REMARK    2  A    between atoms: C4_4  and  O10_10 
REMARK    3  A    between atoms: C7_7  and  O10_10 
ROOT
HETATM    1  C1  UNL     1     -32.251   8.144   1.725  1.00 20.00     0.105 C 
HETATM    2  C2  UNL     1     -32.277   8.623   4.073  1.00 20.00     0.042 C 
HETATM    3  C3  UNL     1     -32.459   7.746   3.077  1.00 20.00     0.110 C 
HETATM    4  N8  UNL     1     -32.083   8.469   0.623  1.00 20.00    -0.191 NA
ENDROOT
BRANCH   3   5
HETATM    5  C4  UNL     1     -32.882   6.365   3.438  1.00 20.00     0.303 C 
HETATM    6  O9  UNL     1     -32.813   5.400   2.688  1.00 20.00    -0.258 OA
BRANCH   5   7
HETATM    7  O10 UNL     1     -33.350   6.350   4.716  1.00 20.00    -0.312 OA
BRANCH   7   8
HETATM    8  C7  UNL     1     -34.452   5.469   4.963  1.00 20.00     0.124 C 
HETATM    9  C5  UNL     1     -34.643   5.316   6.464  1.00 20.00     0.040 C 
HETATM   10  C6  UNL     1     -35.697   6.024   4.288  1.00 20.00     0.040 C 
ENDBRANCH   7   8
ENDBRANCH   5   7
ENDBRANCH   3   5
TORSDOF 3
ENDMDL
MODEL 4
REMARK VINA RESULT:      -4.0      2.020      2.460
REMARK  3 active torsions:
REMARK  status: ('A' for Active; 'I' for Inactive)
REMARK    1  A    between atoms: C3_3  and  C4_4 
REMARK    2  A    between atoms: C4_4  and  O10_10 
REMARK    3  A    between atoms: C7_7  and  O10_10 
ROOT
HETATM    1  C1  UNL     1     -32.276   8.484   4.081  1.00 20.00     0.105 C 
HETATM    2  C2  UNL     1     -32.128   7.811   1.785  1.00 20.00     0.042 C 
HETATM    3  C3  UNL     1     -32.429   7.507   3.055  1.00 20.00     0.110 C 
HETATM    4  N8  UNL     1     -32.151   9.279   4.917  1.00 20.00    -0.191 NA
ENDROOT
BRANCH   3   5
HETATM    5  C4  UNL     1     -32.916   6.129   3.341  1.00 20.00     0.303 C 
HETATM    6  O9  UNL     1     -32.952   5.222   2.522  1.00 20.00    -0.258 OA
BRANCH   5   7
HETATM    7  O10 UNL     1     -33.309   6.045   4.642  1.00 20.00    -0.312 OA
BRANCH   7   8
HETATM    8  C7  UNL     1     -34.524   5.324   4.878  1.00 20.00     0.124 C 
HETATM    9  C5  UNL     1     -34.706   5.127   6.375  1.00 20.00     0.040 C 
HETATM   10  C6  UNL     1     -35.686   6.089   4.262  1.00 20.00     0.040 C 
ENDBRANCH   7   8
ENDBRANCH   5   7
ENDBRANCH   3   5
TORSDOF 3
ENDMDL
MODEL 5
REMARK VINA RESULT:      -3.9     11.131     12.116
REMARK  3 active torsions:
REMARK  status: ('A' for Active; 'I' for Inactive)
REMARK    1  A    between atoms: C3_3  and  C4_4 
REMARK    2  A    between atoms: C4_4  and  O10_10 
REMARK    3  A    between atoms: C7_7  and  O10_10 
ROOT
HETATM    1  C1  UNL     1     -31.624  18.422  -0.690  1.00 20.00     0.105 C 
HETATM    2  C2  UNL     1     -33.900  17.739  -0.372  1.00 20.00     0.042 C 
HETATM    3  C3  UNL     1     -32.894  18.035  -1.207  1.00 20.00     0.110 C 
HETATM    4  N8  UNL     1     -30.590  18.738  -0.269  1.00 20.00    -0.191 NA
ENDROOT
BRANCH   3   5
HETATM    5  C4  UNL     1     -33.158  17.946  -2.670  1.00 20.00     0.303 C 
HETATM    6  O9  UNL     1     -32.758  18.754  -3.497  1.00 20.00    -0.258 OA
BRANCH   5   7
HETATM    7  O10 UNL     1     -33.905  16.838  -2.933  1.00 20.00    -0.312 OA
BRANCH   7   8
HETATM    8  C7  UNL     1     -33.805  16.325  -4.266  1.00 20.00     0.124 C 
HETATM    9  C5  UNL     1     -33.520  14.833  -4.207  1.00 20.00     0.040 C 
HETATM   10  C6  UNL     1     -35.093  16.626  -5.016  1.00 20.00     0.040 C 
ENDBRANCH   7   8
ENDBRANCH   5   7
ENDBRANCH   3   5
TORSDOF 3
ENDMDL
MODEL 6
REMARK VINA RESULT:      -3.9      1.669      2.457
REMARK  3 active torsions:
REMARK  status: ('A' for Active; 'I' for Inactive)
REMARK    1  A    between atoms: C3_3  and  C4_4 
REMARK    2  A    between atoms: C4_4  and  O10_10 
REMARK    3  A    between atoms: C7_7  and  O10_10 
ROOT
HETATM    1  C1  UNL     1     -32.396   7.575   3.266  1.00 20.00     0.105 C 
HETATM    2  C2  UNL     1     -32.164   9.114   5.088  1.00 20.00     0.042 C 
HETATM    3  C3  UNL     1     -32.790   8.061   4.546  1.00 20.00     0.110 C 
HETATM    4  N8  UNL     1     -32.077   7.179   2.223  1.00 20.00    -0.191 NA
ENDROOT
BRANCH   3   5
HETATM    5  C4  UNL     1     -33.895   7.436   5.323  1.00 20.00     0.303 C 
HETATM    6  O9  UNL     1     -34.079   7.600   6.521  1.00 20.00    -0.258 OA
BRANCH   5   7
HETATM    7  O10 UNL     1     -34.655   6.665   4.498  1.00 20.00    -0.312 OA
BRANCH   7   8
HETATM    8  C7  UNL     1     -34.817   5.299   4.898  1.00 20.00     0.124 C 
HETATM    9  C5  UNL     1     -33.906   4.420   4.056  1.00 20.00     0.040 C 
HETATM   10  C6  UNL     1     -34.510   5.174   6.383  1.00 20.00     0.040 C 
ENDBRANCH   7   8
ENDBRANCH   5   7
ENDBRANCH   3   5
TORSDOF 3
ENDMDL
MODEL 7
REMARK VINA RESULT:      -3.9     11.060     12.112
REMARK  3 active torsions:
REMARK  status: ('A' for Active; 'I' for Inactive)
REMARK    1  A    between atoms: C3_3  and  C4_4 
REMARK    2  A    between atoms: C4_4  and  O10_10 
REMARK    3  A    between atoms: C7_7  and  O10_10 
ROOT
HETATM    1  C1  UNL     1     -36.182  15.364  -5.713  1.00 20.00     0.105 C 
HETATM    2  C2  UNL     1     -34.068  15.316  -6.842  1.00 20.00     0.042 C 
HETATM    3  C3  UNL     1     -34.769  15.182  -5.707  1.00 20.00     0.110 C 
HETATM    4  N8  UNL     1     -37.333  15.513  -5.717  1.00 20.00    -0.191 NA
ENDROOT
BRANCH   3   5
HETATM    5  C4  UNL     1     -34.021  14.844  -4.465  1.00 20.00     0.303 C 
HETATM    6  O9  UNL     1     -34.132  13.791  -3.853  1.00 20.00    -0.258 OA
BRANCH   5   7
HETATM    7  O10 UNL     1     -33.204  15.880  -4.128  1.00 20.00    -0.312 OA
BRANCH   7   8
HETATM    8  C7  UNL     1     -33.832  16.962  -3.431  1.00 20.00     0.124 C 
HETATM    9  C5  UNL     1     -33.467  16.886  -1.957  1.00 20.00     0.040 C 
HETATM   10  C6  UNL     1     -33.396  18.279  -4.055  1.00 20.00     0.040 C 
ENDBRANCH   7   8
ENDBRANCH   5   7
ENDBRANCH   3   5
TORSDOF 3
ENDMDL
MODEL 8
REMARK VINA RESULT:      -3.8     11.234     12.421
REMARK  3 active torsions:
REMARK  status: ('A' for Active; 'I' for Inactive)
REMARK    1  A    between atoms: C3_3  and  C4_4 
REMARK    2  A    between atoms: C4_4  and  O10_10 
REMARK    3  A    between atoms: C7_7  and  O10_10 
ROOT
HETATM    1  C1  UNL     1     -35.371  14.847  -6.129  1.00 20.00     0.105 C 
HETATM    2  C2  UNL     1     -33.926  14.468  -4.254  1.00 20.00     0.042 C 
HETATM    3  C3  UNL     1     -34.564  15.330  -5.058  1.00 20.00     0.110 C 
HETATM    4  N8  UNL     1     -36.027  14.454  -7.002  1.00 20.00    -0.191 NA
ENDROOT
BRANCH   3   5
HETATM    5  C4  UNL     1     -34.393  16.785  -4.791  1.00 20.00     0.303 C 
HETATM    6  O9  UNL     1     -35.033  17.670  -5.341  1.00 20.00    -0.258 OA
BRANCH   5   7
HETATM    7  O10 UNL     1     -33.426  16.965  -3.850  1.00 20.00    -0.312 OA
BRANCH   7   8
HETATM    8  C7  UNL     1     -33.729  17.918  -2.825  1.00 20.00     0.124 C 
HETATM    9  C5  UNL     1     -33.606  17.247  -1.466  1.00 20.00     0.040 C 
HETATM   10  C6  UNL     1     -32.790  19.108  -2.955  1.00 20.00     0.040 C 
ENDBRANCH   7   8
ENDBRANCH   5   7
ENDBRANCH   3   5
TORSDOF 3
ENDMDL
MODEL 9
REMARK VINA RESULT:      -3.8      2.291      4.073
REMARK  3 active torsions:
REMARK  status: ('A' for Active; 'I' for Inactive)
REMARK    1  A    between atoms: C3_3  and  C4_4 
REMARK    2  A    between atoms: C4_4  and  O10_10 
REMARK    3  A    between atoms: C7_7  and  O10_10 
ROOT
HETATM    1  C1  UNL     1     -34.495   5.696   5.285  1.00 20.00     0.105 C 
HETATM    2  C2  UNL     1     -34.192   7.369   6.975  1.00 20.00     0.042 C 
HETATM    3  C3  UNL     1     -33.963   6.942   5.725  1.00 20.00     0.110 C 
HETATM    4  N8  UNL     1     -34.928   4.681   4.926  1.00 20.00    -0.191 NA
ENDROOT
BRANCH   3   5
HETATM    5  C4  UNL     1     -33.141   7.809   4.836  1.00 20.00     0.303 C 
HETATM    6  O9  UNL     1     -32.341   8.647   5.231  1.00 20.00    -0.258 OA
BRANCH   5   7
HETATM    7  O10 UNL     1     -33.418   7.522   3.534  1.00 20.00    -0.312 OA
BRANCH   7   8
HETATM    8  C7  UNL     1     -32.327   6.998   2.769  1.00 20.00     0.124 C 
HETATM    9  C5  UNL     1     -32.652   5.575   2.343  1.00 20.00     0.040 C 
HETATM   10  C6  UNL     1     -32.075   7.904   1.573  1.00 20.00     0.040 C 
ENDBRANCH   7   8
ENDBRANCH   5   7
ENDBRANCH   3   5
TORSDOF 3
ENDMDL
