MODEL 1
REMARK VINA RESULT:      -6.4      0.000      0.000
REMARK  2 active torsions:
REMARK  status: ('A' for Active; 'I' for Inactive)
REMARK    1  A    between atoms: C1_1  and  C4_4 
REMARK    2  A    between atoms: C3_3  and  C4_4 
ROOT
HETATM    1  C4  UNL     1     -34.696   5.707   4.803  1.00 20.00     0.359 C 
HETATM    2  F10 UNL     1     -34.375   4.456   4.371  1.00 20.00    -0.192 F 
HETATM    3  F11 UNL     1     -35.941   5.963   4.316  1.00 20.00    -0.192 F 
ENDROOT
BRANCH   1   4
HETATM    4  C1  UNL     1     -33.681   6.689   4.308  1.00 20.00     0.238 C 
HETATM    5  C2  UNL     1     -32.812   6.467   3.316  1.00 20.00     0.307 C 
HETATM    6  F6  UNL     1     -31.932   7.417   2.940  1.00 20.00    -0.170 F 
HETATM    7  F7  UNL     1     -32.813   5.274   2.685  1.00 20.00    -0.170 F 
HETATM    8  F5  UNL     1     -33.628   7.894   4.925  1.00 20.00    -0.198 F 
ENDBRANCH   1   4
BRANCH   1   9
HETATM    9  C3  UNL     1     -34.772   5.681   6.315  1.00 20.00     0.432 C 
HETATM   10  F8  UNL     1     -33.724   4.987   6.824  1.00 20.00    -0.207 F 
HETATM   11  F9  UNL     1     -34.662   6.950   6.786  1.00 20.00    -0.207 F 
ENDBRANCH   1   9
TORSDOF 2
ENDMDL
MODEL 2
REMARK VINA RESULT:      -6.4      0.914      2.172
REMARK  2 active torsions:
REMARK  status: ('A' for Active; 'I' for Inactive)
REMARK    1  A    between atoms: C1_1  and  C4_4 
REMARK    2  A    between atoms: C3_3  and  C4_4 
ROOT
HETATM    1  C4  UNL     1     -34.517   6.287   4.745  1.00 20.00     0.359 C 
HETATM    2  F10 UNL     1     -35.858   6.215   4.522  1.00 20.00    -0.192 F 
HETATM    3  F11 UNL     1     -34.149   7.554   4.410  1.00 20.00    -0.192 F 
ENDROOT
BRANCH   1   4
HETATM    4  C1  UNL     1     -33.809   5.256   3.923  1.00 20.00     0.238 C 
HETATM    5  C2  UNL     1     -32.970   5.517   2.915  1.00 20.00     0.307 C 
HETATM    6  F6  UNL     1     -32.378   4.517   2.230  1.00 20.00    -0.170 F 
HETATM    7  F7  UNL     1     -32.715   6.799   2.576  1.00 20.00    -0.170 F 
HETATM    8  F5  UNL     1     -34.051   3.956   4.212  1.00 20.00    -0.198 F 
ENDBRANCH   1   4
BRANCH   1   9
HETATM    9  C3  UNL     1     -34.272   6.097   6.227  1.00 20.00     0.432 C 
HETATM   10  F8  UNL     1     -34.483   7.261   6.890  1.00 20.00    -0.207 F 
HETATM   11  F9  UNL     1     -35.172   5.205   6.715  1.00 20.00    -0.207 F 
ENDBRANCH   1   9
TORSDOF 2
ENDMDL
MODEL 3
REMARK VINA RESULT:      -6.2      1.110      1.708
REMARK  2 active torsions:
REMARK  status: ('A' for Active; 'I' for Inactive)
REMARK    1  A    between atoms: C1_1  and  C4_4 
REMARK    2  A    between atoms: C3_3  and  C4_4 
ROOT
HETATM    1  C4  UNL     1     -34.514   6.037   4.642  1.00 20.00     0.359 C 
HETATM    2  F10 UNL     1     -33.902   5.648   3.490  1.00 20.00    -0.192 F 
HETATM    3  F11 UNL     1     -35.810   6.286   4.313  1.00 20.00    -0.192 F 
ENDROOT
BRANCH   1   4
HETATM    4  C1  UNL     1     -33.828   7.247   5.196  1.00 20.00     0.238 C 
HETATM    5  C2  UNL     1     -32.772   7.855   4.645  1.00 20.00     0.307 C 
HETATM    6  F6  UNL     1     -32.221   8.943   5.220  1.00 20.00    -0.170 F 
HETATM    7  F7  UNL     1     -32.247   7.369   3.501  1.00 20.00    -0.170 F 
HETATM    8  F5  UNL     1     -34.307   7.759   6.355  1.00 20.00    -0.198 F 
ENDBRANCH   1   4
BRANCH   1   9
HETATM    9  C3  UNL     1     -34.483   4.875   5.612  1.00 20.00     0.432 C 
HETATM   10  F8  UNL     1     -33.765   3.849   5.090  1.00 20.00    -0.207 F 
HETATM   11  F9  UNL     1     -33.843   5.259   6.745  1.00 20.00    -0.207 F 
ENDBRANCH   1   9
TORSDOF 2
ENDMDL
MODEL 4
REMARK VINA RESULT:      -6.1      0.983      2.064
REMARK  2 active torsions:
REMARK  status: ('A' for Active; 'I' for Inactive)
REMARK    1  A    between atoms: C1_1  and  C4_4 
REMARK    2  A    between atoms: C3_3  and  C4_4 
ROOT
HETATM    1  C4  UNL     1     -34.285   5.989   4.779  1.00 20.00     0.359 C 
HETATM    2  F10 UNL     1     -34.124   4.741   4.261  1.00 20.00    -0.192 F 
HETATM    3  F11 UNL     1     -35.583   6.326   4.546  1.00 20.00    -0.192 F 
ENDROOT
BRANCH   1   4
HETATM    4  C1  UNL     1     -33.328   6.936   4.125  1.00 20.00     0.238 C 
HETATM    5  C2  UNL     1     -33.159   8.218   4.466  1.00 20.00     0.307 C 
HETATM    6  F6  UNL     1     -32.269   8.996   3.816  1.00 20.00    -0.170 F 
HETATM    7  F7  UNL     1     -33.892   8.742   5.471  1.00 20.00    -0.170 F 
HETATM    8  F5  UNL     1     -32.586   6.461   3.097  1.00 20.00    -0.198 F 
ENDBRANCH   1   4
BRANCH   1   9
HETATM    9  C3  UNL     1     -34.074   5.912   6.276  1.00 20.00     0.432 C 
HETATM   10  F8  UNL     1     -35.097   6.522   6.924  1.00 20.00    -0.207 F 
HETATM   11  F9  UNL     1     -34.093   4.611   6.661  1.00 20.00    -0.207 F 
ENDBRANCH   1   9
TORSDOF 2
ENDMDL
MODEL 5
REMARK VINA RESULT:      -6.1      1.242      2.651
REMARK  2 active torsions:
REMARK  status: ('A' for Active; 'I' for Inactive)
REMARK    1  A    between atoms: C1_1  and  C4_4 
REMARK    2  A    between atoms: C3_3  and  C4_4 
ROOT
HETATM    1  C4  UNL     1     -33.823   7.022   5.730  1.00 20.00     0.359 C 
HETATM    2  F10 UNL     1     -34.398   8.237   5.943  1.00 20.00    -0.192 F 
HETATM    3  F11 UNL     1     -32.882   6.877   6.703  1.00 20.00    -0.192 F 
ENDROOT
BRANCH   1   4
HETATM    4  C1  UNL     1     -33.229   6.975   4.357  1.00 20.00     0.238 C 
HETATM    5  C2  UNL     1     -32.468   7.932   3.814  1.00 20.00     0.307 C 
HETATM    6  F6  UNL     1     -31.976   7.799   2.565  1.00 20.00    -0.170 F 
HETATM    7  F7  UNL     1     -32.192   9.046   4.523  1.00 20.00    -0.170 F 
HETATM    8  F5  UNL     1     -33.496   5.886   3.599  1.00 20.00    -0.198 F 
ENDBRANCH   1   4
BRANCH   1   9
HETATM    9  C3  UNL     1     -34.880   5.956   5.927  1.00 20.00     0.432 C 
HETATM   10  F8  UNL     1     -35.689   5.893   4.840  1.00 20.00    -0.207 F 
HETATM   11  F9  UNL     1     -34.276   4.745   6.031  1.00 20.00    -0.207 F 
ENDBRANCH   1   9
TORSDOF 2
ENDMDL
MODEL 6
REMARK VINA RESULT:      -6.1      1.238      3.691
REMARK  2 active torsions:
REMARK  status: ('A' for Active; 'I' for Inactive)
REMARK    1  A    between atoms: C1_1  and  C4_4 
REMARK    2  A    between atoms: C3_3  and  C4_4 
ROOT
HETATM    1  C4  UNL     1     -33.345   7.954   4.621  1.00 20.00     0.359 C 
HETATM    2  F10 UNL     1     -32.743   9.004   5.242  1.00 20.00    -0.192 F 
HETATM    3  F11 UNL     1     -34.423   8.472   3.971  1.00 20.00    -0.192 F 
ENDROOT
BRANCH   1   4
HETATM    4  C1  UNL     1     -33.736   6.923   5.632  1.00 20.00     0.238 C 
HETATM    5  C2  UNL     1     -34.739   6.048   5.494  1.00 20.00     0.307 C 
HETATM    6  F6  UNL     1     -35.016   5.154   6.464  1.00 20.00    -0.170 F 
HETATM    7  F7  UNL     1     -35.486   6.065   4.370  1.00 20.00    -0.170 F 
HETATM    8  F5  UNL     1     -33.029   6.882   6.786  1.00 20.00    -0.198 F 
ENDBRANCH   1   4
BRANCH   1   9
HETATM    9  C3  UNL     1     -32.386   7.401   3.588  1.00 20.00     0.432 C 
HETATM   10  F8  UNL     1     -32.827   6.201   3.136  1.00 20.00    -0.207 F 
HETATM   11  F9  UNL     1     -32.360   8.233   2.516  1.00 20.00    -0.207 F 
ENDBRANCH   1   9
TORSDOF 2
ENDMDL
MODEL 7
REMARK VINA RESULT:      -6.0      1.246      4.057
REMARK  2 active torsions:
REMARK  status: ('A' for Active; 'I' for Inactive)
REMARK    1  A    between atoms: C1_1  and  C4_4 
REMARK    2  A    between atoms: C3_3  and  C4_4 
ROOT
HETATM    1  C4  UNL     1     -33.263   7.724   4.501  1.00 20.00     0.359 C 
HETATM    2  F10 UNL     1     -32.493   8.185   5.524  1.00 20.00    -0.192 F 
HETATM    3  F11 UNL     1     -34.188   8.694   4.262  1.00 20.00    -0.192 F 
ENDROOT
BRANCH   1   4
HETATM    4  C1  UNL     1     -33.895   6.424   4.889  1.00 20.00     0.238 C 
HETATM    5  C2  UNL     1     -34.490   6.174   6.060  1.00 20.00     0.307 C 
HETATM    6  F6  UNL     1     -35.032   4.967   6.319  1.00 20.00    -0.170 F 
HETATM    7  F7  UNL     1     -34.544   7.144   6.998  1.00 20.00    -0.170 F 
HETATM    8  F5  UNL     1     -33.846   5.414   3.987  1.00 20.00    -0.198 F 
ENDBRANCH   1   4
BRANCH   1   9
HETATM    9  C3  UNL     1     -32.389   7.586   3.273  1.00 20.00     0.432 C 
HETATM   10  F8  UNL     1     -32.575   8.644   2.445  1.00 20.00    -0.207 F 
HETATM   11  F9  UNL     1     -31.085   7.615   3.651  1.00 20.00    -0.207 F 
ENDBRANCH   1   9
TORSDOF 2
ENDMDL
MODEL 8
REMARK VINA RESULT:      -6.0      1.372      3.503
REMARK  2 active torsions:
REMARK  status: ('A' for Active; 'I' for Inactive)
REMARK    1  A    between atoms: C1_1  and  C4_4 
REMARK    2  A    between atoms: C3_3  and  C4_4 
ROOT
HETATM    1  C4  UNL     1     -33.527   7.560   4.825  1.00 20.00     0.359 C 
HETATM    2  F10 UNL     1     -33.441   7.477   6.181  1.00 20.00    -0.192 F 
HETATM    3  F11 UNL     1     -34.657   8.273   4.565  1.00 20.00    -0.192 F 
ENDROOT
BRANCH   1   4
HETATM    4  C1  UNL     1     -33.577   6.185   4.235  1.00 20.00     0.238 C 
HETATM    5  C2  UNL     1     -34.292   5.164   4.719  1.00 20.00     0.307 C 
HETATM    6  F6  UNL     1     -34.273   3.958   4.116  1.00 20.00    -0.170 F 
HETATM    7  F7  UNL     1     -35.039   5.342   5.829  1.00 20.00    -0.170 F 
HETATM    8  F5  UNL     1     -32.826   5.953   3.132  1.00 20.00    -0.198 F 
ENDBRANCH   1   4
BRANCH   1   9
HETATM    9  C3  UNL     1     -32.338   8.351   4.322  1.00 20.00     0.432 C 
HETATM   10  F8  UNL     1     -32.630   8.925   3.128  1.00 20.00    -0.207 F 
HETATM   11  F9  UNL     1     -32.082   9.365   5.187  1.00 20.00    -0.207 F 
ENDBRANCH   1   9
TORSDOF 2
ENDMDL
MODEL 9
REMARK VINA RESULT:      -5.9      0.888      1.997
REMARK  2 active torsions:
REMARK  status: ('A' for Active; 'I' for Inactive)
REMARK    1  A    between atoms: C1_1  and  C4_4 
REMARK    2  A    between atoms: C3_3  and  C4_4 
ROOT
HETATM    1  C4  UNL     1     -34.370   6.799   4.790  1.00 20.00     0.359 C 
HETATM    2  F10 UNL     1     -35.619   6.327   4.525  1.00 20.00    -0.192 F 
HETATM    3  F11 UNL     1     -34.470   8.156   4.770  1.00 20.00    -0.192 F 
ENDROOT
BRANCH   1   4
HETATM    4  C1  UNL     1     -33.407   6.287   3.765  1.00 20.00     0.238 C 
HETATM    5  C2  UNL     1     -33.304   5.013   3.371  1.00 20.00     0.307 C 
HETATM    6  F6  UNL     1     -32.403   4.647   2.438  1.00 20.00    -0.170 F 
HETATM    7  F7  UNL     1     -34.111   4.081   3.920  1.00 20.00    -0.170 F 
HETATM    8  F5  UNL     1     -32.562   7.183   3.202  1.00 20.00    -0.198 F 
ENDBRANCH   1   4
BRANCH   1   9
HETATM    9  C3  UNL     1     -33.989   6.370   6.191  1.00 20.00     0.432 C 
HETATM   10  F8  UNL     1     -34.380   7.307   7.090  1.00 20.00    -0.207 F 
HETATM   11  F9  UNL     1     -34.656   5.230   6.503  1.00 20.00    -0.207 F 
ENDBRANCH   1   9
TORSDOF 2
ENDMDL
