MODEL 1
REMARK VINA RESULT:      -3.7      0.000      0.000
REMARK  1 active torsions:
REMARK  status: ('A' for Active; 'I' for Inactive)
REMARK    1  A    between atoms: C2_2  and  C3_3 
ROOT
HETATM    1  C1  UNL     1     -33.606   7.768   5.349  1.00 20.00     0.101 A 
HETATM    2  C2  UNL     1     -33.862   6.635   4.604  1.00 20.00     0.118 A 
HETATM    3  N4  UNL     1     -33.070   6.471   3.477  1.00 20.00    -0.166 NA
HETATM    4  N5  UNL     1     -32.206   7.463   3.343  1.00 20.00    -0.037 NA
HETATM    5  S7  UNL     1     -32.330   8.604   4.563  1.00 20.00    -0.008 SA
ENDROOT
BRANCH   2   6
HETATM    6  C3  UNL     1     -34.868   5.667   4.934  1.00 20.00     0.292 C 
HETATM    7  O6  UNL     1     -34.715   4.438   4.804  1.00 20.00    -0.300 OA
ENDBRANCH   2   6
TORSDOF 1
ENDMDL
MODEL 2
REMARK VINA RESULT:      -3.6      2.851      3.203
REMARK  1 active torsions:
REMARK  status: ('A' for Active; 'I' for Inactive)
REMARK    1  A    between atoms: C2_2  and  C3_3 
ROOT
HETATM    1  C1  UNL     1     -33.887   7.014   6.023  1.00 20.00     0.101 A 
HETATM    2  C2  UNL     1     -33.498   7.090   4.701  1.00 20.00     0.118 A 
HETATM    3  N4  UNL     1     -33.811   5.987   3.922  1.00 20.00    -0.166 NA
HETATM    4  N5  UNL     1     -34.438   5.059   4.626  1.00 20.00    -0.037 NA
HETATM    5  S7  UNL     1     -34.659   5.495   6.228  1.00 20.00    -0.008 SA
ENDROOT
BRANCH   2   6
HETATM    6  C3  UNL     1     -32.814   8.214   4.128  1.00 20.00     0.292 C 
HETATM    7  O6  UNL     1     -32.236   9.088   4.800  1.00 20.00    -0.300 OA
ENDBRANCH   2   6
TORSDOF 1
ENDMDL
MODEL 3
REMARK VINA RESULT:      -3.6      3.149      3.563
REMARK  1 active torsions:
REMARK  status: ('A' for Active; 'I' for Inactive)
REMARK    1  A    between atoms: C2_2  and  C3_3 
ROOT
HETATM    1  C1  UNL     1     -33.769   6.369   4.184  1.00 20.00     0.101 A 
HETATM    2  C2  UNL     1     -33.466   7.305   5.153  1.00 20.00     0.118 A 
HETATM    3  N4  UNL     1     -33.970   7.040   6.417  1.00 20.00    -0.166 NA
HETATM    4  N5  UNL     1     -34.659   5.911   6.438  1.00 20.00    -0.037 NA
HETATM    5  S7  UNL     1     -34.712   5.153   4.944  1.00 20.00    -0.008 SA
ENDROOT
BRANCH   2   6
HETATM    6  C3  UNL     1     -32.687   8.486   4.912  1.00 20.00     0.292 C 
HETATM    7  O6  UNL     1     -32.404   8.909   3.777  1.00 20.00    -0.300 OA
ENDBRANCH   2   6
TORSDOF 1
ENDMDL
MODEL 4
REMARK VINA RESULT:      -3.4      1.406      1.552
REMARK  1 active torsions:
REMARK  status: ('A' for Active; 'I' for Inactive)
REMARK    1  A    between atoms: C2_2  and  C3_3 
ROOT
HETATM    1  C1  UNL     1     -33.155   6.586   3.612  1.00 20.00     0.101 A 
HETATM    2  C2  UNL     1     -33.901   6.683   4.769  1.00 20.00     0.118 A 
HETATM    3  N4  UNL     1     -33.662   7.810   5.540  1.00 20.00    -0.166 NA
HETATM    4  N5  UNL     1     -32.741   8.586   4.993  1.00 20.00    -0.037 NA
HETATM    5  S7  UNL     1     -32.149   7.974   3.550  1.00 20.00    -0.008 SA
ENDROOT
BRANCH   2   6
HETATM    6  C3  UNL     1     -34.869   5.709   5.185  1.00 20.00     0.292 C 
HETATM    7  O6  UNL     1     -34.823   4.507   4.865  1.00 20.00    -0.300 OA
ENDBRANCH   2   6
TORSDOF 1
ENDMDL
MODEL 5
REMARK VINA RESULT:      -3.3     12.603     12.726
REMARK  1 active torsions:
REMARK  status: ('A' for Active; 'I' for Inactive)
REMARK    1  A    between atoms: C2_2  and  C3_3 
ROOT
HETATM    1  C1  UNL     1     -32.848  18.537   0.678  1.00 20.00     0.101 A 
HETATM    2  C2  UNL     1     -32.212  18.365  -0.535  1.00 20.00     0.118 A 
HETATM    3  N4  UNL     1     -30.852  18.636  -0.539  1.00 20.00    -0.166 NA
HETATM    4  N5  UNL     1     -30.429  19.015   0.656  1.00 20.00    -0.037 NA
HETATM    5  S7  UNL     1     -31.655  19.052   1.798  1.00 20.00    -0.008 SA
ENDROOT
BRANCH   2   6
HETATM    6  C3  UNL     1     -32.872  17.937  -1.735  1.00 20.00     0.292 C 
HETATM    7  O6  UNL     1     -33.323  16.790  -1.905  1.00 20.00    -0.300 OA
ENDBRANCH   2   6
TORSDOF 1
ENDMDL
MODEL 6
REMARK VINA RESULT:      -3.2      9.069      9.214
REMARK  1 active torsions:
REMARK  status: ('A' for Active; 'I' for Inactive)
REMARK    1  A    between atoms: C2_2  and  C3_3 
ROOT
HETATM    1  C1  UNL     1     -40.880  13.246   5.143  1.00 20.00     0.101 A 
HETATM    2  C2  UNL     1     -39.850  12.355   5.374  1.00 20.00     0.118 A 
HETATM    3  N4  UNL     1     -39.461  12.223   6.698  1.00 20.00    -0.166 NA
HETATM    4  N5  UNL     1     -40.176  13.000   7.494  1.00 20.00    -0.037 NA
HETATM    5  S7  UNL     1     -41.324  13.899   6.667  1.00 20.00    -0.008 SA
ENDROOT
BRANCH   2   6
HETATM    6  C3  UNL     1     -39.199  11.597   4.344  1.00 20.00     0.292 C 
HETATM    7  O6  UNL     1     -39.170  11.938   3.147  1.00 20.00    -0.300 OA
ENDBRANCH   2   6
TORSDOF 1
ENDMDL
MODEL 7
REMARK VINA RESULT:      -3.2     12.778     12.863
REMARK  1 active torsions:
REMARK  status: ('A' for Active; 'I' for Inactive)
REMARK    1  A    between atoms: C2_2  and  C3_3 
ROOT
HETATM    1  C1  UNL     1     -32.786  18.594   0.935  1.00 20.00     0.101 A 
HETATM    2  C2  UNL     1     -31.581  18.825   1.569  1.00 20.00     0.118 A 
HETATM    3  N4  UNL     1     -30.472  18.884   0.738  1.00 20.00    -0.166 NA
HETATM    4  N5  UNL     1     -30.805  18.702  -0.529  1.00 20.00    -0.037 NA
HETATM    5  S7  UNL     1     -32.448  18.457  -0.742  1.00 20.00    -0.008 SA
ENDROOT
BRANCH   2   6
HETATM    6  C3  UNL     1     -31.439  18.997   2.986  1.00 20.00     0.292 C 
HETATM    7  O6  UNL     1     -30.367  18.840   3.598  1.00 20.00    -0.300 OA
ENDBRANCH   2   6
TORSDOF 1
ENDMDL
MODEL 8
REMARK VINA RESULT:      -3.1     16.405     16.745
REMARK  1 active torsions:
REMARK  status: ('A' for Active; 'I' for Inactive)
REMARK    1  A    between atoms: C2_2  and  C3_3 
ROOT
HETATM    1  C1  UNL     1     -23.643  17.119  10.263  1.00 20.00     0.101 A 
HETATM    2  C2  UNL     1     -22.518  17.812   9.863  1.00 20.00     0.118 A 
HETATM    3  N4  UNL     1     -21.847  18.492  10.867  1.00 20.00    -0.166 NA
HETATM    4  N5  UNL     1     -22.440  18.334  12.039  1.00 20.00    -0.037 NA
HETATM    5  S7  UNL     1     -23.807  17.370  11.953  1.00 20.00    -0.008 SA
ENDROOT
BRANCH   2   6
HETATM    6  C3  UNL     1     -22.038  17.852   8.511  1.00 20.00     0.292 C 
HETATM    7  O6  UNL     1     -21.927  16.846   7.786  1.00 20.00    -0.300 OA
ENDBRANCH   2   6
TORSDOF 1
ENDMDL
MODEL 9
REMARK VINA RESULT:      -3.1      2.662      2.923
REMARK  1 active torsions:
REMARK  status: ('A' for Active; 'I' for Inactive)
REMARK    1  A    between atoms: C2_2  and  C3_3 
ROOT
HETATM    1  C1  UNL     1     -33.603   6.915   4.853  1.00 20.00     0.101 A 
HETATM    2  C2  UNL     1     -33.813   5.694   4.244  1.00 20.00     0.118 A 
HETATM    3  N4  UNL     1     -34.503   4.761   5.002  1.00 20.00    -0.166 NA
HETATM    4  N5  UNL     1     -34.830   5.245   6.189  1.00 20.00    -0.037 NA
HETATM    5  S7  UNL     1     -34.313   6.823   6.413  1.00 20.00    -0.008 SA
ENDROOT
BRANCH   2   6
HETATM    6  C3  UNL     1     -33.366   5.370   2.920  1.00 20.00     0.292 C 
HETATM    7  O6  UNL     1     -32.526   6.038   2.290  1.00 20.00    -0.300 OA
ENDBRANCH   2   6
TORSDOF 1
ENDMDL
