MODEL 1
REMARK VINA RESULT:      -4.1      0.000      0.000
REMARK  5 active torsions:
REMARK  status: ('A' for Active; 'I' for Inactive)
REMARK    1  A    between atoms: C1_1  and  C8_8 
REMARK    2  A    between atoms: C4_4  and  C6_6 
REMARK    3  A    between atoms: C5_5  and  C7_7 
REMARK    4  A    between atoms: C6_6  and  C8_8 
REMARK    5  A    between atoms: C7_7  and  C8_8 
ROOT
HETATM    1  C8  UNL     1     -32.657   6.830   3.520  1.00 20.00     0.072 C 
ENDROOT
BRANCH   1   2
HETATM    2  C1  UNL     1     -33.183   5.441   3.159  1.00 20.00     0.223 C 
HETATM    3  O9  UNL     1     -32.804   4.843   2.156  1.00 20.00    -0.279 OA
HETATM    4 CL10 UNL     1     -34.345   4.842   4.310  1.00 20.00    -0.043 Cl
ENDBRANCH   1   2
BRANCH   1   5
HETATM    5  C6  UNL     1     -32.157   7.541   2.247  1.00 20.00     0.013 C 
BRANCH   5   6
HETATM    6  C4  UNL     1     -32.663   8.977   2.067  1.00 20.00    -0.004 C 
HETATM    7  C2  UNL     1     -32.753   9.414   0.612  1.00 20.00     0.005 C 
ENDBRANCH   5   6
ENDBRANCH   1   5
BRANCH   1   8
HETATM    8  C7  UNL     1     -33.783   7.658   4.173  1.00 20.00     0.013 C 
BRANCH   8   9
HETATM    9  C5  UNL     1     -33.534   8.048   5.634  1.00 20.00    -0.004 C 
HETATM   10  C3  UNL     1     -34.147   7.082   6.636  1.00 20.00     0.005 C 
ENDBRANCH   8   9
ENDBRANCH   1   8
TORSDOF 5
ENDMDL
MODEL 2
REMARK VINA RESULT:      -4.0      2.810      4.624
REMARK  5 active torsions:
REMARK  status: ('A' for Active; 'I' for Inactive)
REMARK    1  A    between atoms: C1_1  and  C8_8 
REMARK    2  A    between atoms: C4_4  and  C6_6 
REMARK    3  A    between atoms: C5_5  and  C7_7 
REMARK    4  A    between atoms: C6_6  and  C8_8 
REMARK    5  A    between atoms: C7_7  and  C8_8 
ROOT
HETATM    1  C8  UNL     1     -32.701   7.428   4.328  1.00 20.00     0.072 C 
ENDROOT
BRANCH   1   2
HETATM    2  C1  UNL     1     -32.418   8.906   4.064  1.00 20.00     0.223 C 
HETATM    3  O9  UNL     1     -32.004   9.656   4.944  1.00 20.00    -0.279 OA
HETATM    4 CL10 UNL     1     -32.748   9.370   2.417  1.00 20.00    -0.043 Cl
ENDBRANCH   1   2
BRANCH   1   5
HETATM    5  C6  UNL     1     -34.124   7.266   4.899  1.00 20.00     0.013 C 
BRANCH   5   6
HETATM    6  C4  UNL     1     -34.187   6.760   6.345  1.00 20.00    -0.004 C 
HETATM    7  C2  UNL     1     -34.591   5.297   6.461  1.00 20.00     0.005 C 
ENDBRANCH   5   6
ENDBRANCH   1   5
BRANCH   1   8
HETATM    8  C7  UNL     1     -32.572   6.631   3.014  1.00 20.00     0.013 C 
BRANCH   8   9
HETATM    9  C5  UNL     1     -33.298   5.282   3.002  1.00 20.00    -0.004 C 
HETATM   10  C3  UNL     1     -32.816   4.341   1.908  1.00 20.00     0.005 C 
ENDBRANCH   8   9
ENDBRANCH   1   8
TORSDOF 5
ENDMDL
MODEL 3
REMARK VINA RESULT:      -3.9     10.061     10.886
REMARK  5 active torsions:
REMARK  status: ('A' for Active; 'I' for Inactive)
REMARK    1  A    between atoms: C1_1  and  C8_8 
REMARK    2  A    between atoms: C4_4  and  C6_6 
REMARK    3  A    between atoms: C5_5  and  C7_7 
REMARK    4  A    between atoms: C6_6  and  C8_8 
REMARK    5  A    between atoms: C7_7  and  C8_8 
ROOT
HETATM    1  C8  UNL     1     -40.821  13.482   6.285  1.00 20.00     0.072 C 
ENDROOT
BRANCH   1   2
HETATM    2  C1  UNL     1     -40.393  14.139   7.597  1.00 20.00     0.223 C 
HETATM    3  O9  UNL     1     -40.089  13.477   8.586  1.00 20.00    -0.279 OA
HETATM    4 CL10 UNL     1     -40.392  15.878   7.510  1.00 20.00    -0.043 Cl
ENDBRANCH   1   2
BRANCH   1   5
HETATM    5  C6  UNL     1     -40.150  12.101   6.153  1.00 20.00     0.013 C 
BRANCH   5   6
HETATM    6  C4  UNL     1     -38.834  12.094   5.366  1.00 20.00    -0.004 C 
HETATM    7  C2  UNL     1     -38.999  11.697   3.907  1.00 20.00     0.005 C 
ENDBRANCH   5   6
ENDBRANCH   1   5
BRANCH   1   8
HETATM    8  C7  UNL     1     -42.355  13.323   6.262  1.00 20.00     0.013 C 
BRANCH   8   9
HETATM    9  C5  UNL     1     -43.084  14.222   5.257  1.00 20.00    -0.004 C 
HETATM   10  C3  UNL     1     -42.248  14.572   4.035  1.00 20.00     0.005 C 
ENDBRANCH   8   9
ENDBRANCH   1   8
TORSDOF 5
ENDMDL
MODEL 4
REMARK VINA RESULT:      -3.9      2.213      2.956
REMARK  5 active torsions:
REMARK  status: ('A' for Active; 'I' for Inactive)
REMARK    1  A    between atoms: C1_1  and  C8_8 
REMARK    2  A    between atoms: C4_4  and  C6_6 
REMARK    3  A    between atoms: C5_5  and  C7_7 
REMARK    4  A    between atoms: C6_6  and  C8_8 
REMARK    5  A    between atoms: C7_7  and  C8_8 
ROOT
HETATM    1  C8  UNL     1     -33.137   7.833   3.521  1.00 20.00     0.072 C 
ENDROOT
BRANCH   1   2
HETATM    2  C1  UNL     1     -32.932   8.275   4.969  1.00 20.00     0.223 C 
HETATM    3  O9  UNL     1     -32.187   9.205   5.265  1.00 20.00    -0.279 OA
HETATM    4 CL10 UNL     1     -33.855   7.324   6.100  1.00 20.00    -0.043 Cl
ENDBRANCH   1   2
BRANCH   1   5
HETATM    5  C6  UNL     1     -32.622   8.928   2.567  1.00 20.00     0.013 C 
BRANCH   5   6
HETATM    6  C4  UNL     1     -32.176   8.428   1.188  1.00 20.00    -0.004 C 
HETATM    7  C2  UNL     1     -32.809   9.186   0.030  1.00 20.00     0.005 C 
ENDBRANCH   5   6
ENDBRANCH   1   5
BRANCH   1   8
HETATM    8  C7  UNL     1     -32.374   6.517   3.267  1.00 20.00     0.013 C 
BRANCH   8   9
HETATM    9  C5  UNL     1     -33.251   5.332   2.848  1.00 20.00    -0.004 C 
HETATM   10  C3  UNL     1     -33.957   4.654   4.012  1.00 20.00     0.005 C 
ENDBRANCH   8   9
ENDBRANCH   1   8
TORSDOF 5
ENDMDL
MODEL 5
REMARK VINA RESULT:      -3.9      2.182      2.769
REMARK  5 active torsions:
REMARK  status: ('A' for Active; 'I' for Inactive)
REMARK    1  A    between atoms: C1_1  and  C8_8 
REMARK    2  A    between atoms: C4_4  and  C6_6 
REMARK    3  A    between atoms: C5_5  and  C7_7 
REMARK    4  A    between atoms: C6_6  and  C8_8 
REMARK    5  A    between atoms: C7_7  and  C8_8 
ROOT
HETATM    1  C8  UNL     1     -33.533   6.440   4.150  1.00 20.00     0.072 C 
ENDROOT
BRANCH   1   2
HETATM    2  C1  UNL     1     -32.824   6.078   2.845  1.00 20.00     0.223 C 
HETATM    3  O9  UNL     1     -32.752   4.918   2.446  1.00 20.00    -0.279 OA
HETATM    4 CL10 UNL     1     -32.159   7.467   2.033  1.00 20.00    -0.043 Cl
ENDBRANCH   1   2
BRANCH   1   5
HETATM    5  C6  UNL     1     -33.885   7.941   4.149  1.00 20.00     0.013 C 
BRANCH   5   6
HETATM    6  C4  UNL     1     -33.325   8.738   5.333  1.00 20.00    -0.004 C 
HETATM    7  C2  UNL     1     -31.935   9.305   5.083  1.00 20.00     0.005 C 
ENDBRANCH   5   6
ENDBRANCH   1   5
BRANCH   1   8
HETATM    8  C7  UNL     1     -34.820   5.601   4.292  1.00 20.00     0.013 C 
BRANCH   8   9
HETATM    9  C5  UNL     1     -35.082   5.053   5.699  1.00 20.00    -0.004 C 
HETATM   10  C3  UNL     1     -34.063   5.512   6.731  1.00 20.00     0.005 C 
ENDBRANCH   8   9
ENDBRANCH   1   8
TORSDOF 5
ENDMDL
MODEL 6
REMARK VINA RESULT:      -3.8      9.990     11.056
REMARK  5 active torsions:
REMARK  status: ('A' for Active; 'I' for Inactive)
REMARK    1  A    between atoms: C1_1  and  C8_8 
REMARK    2  A    between atoms: C4_4  and  C6_6 
REMARK    3  A    between atoms: C5_5  and  C7_7 
REMARK    4  A    between atoms: C6_6  and  C8_8 
REMARK    5  A    between atoms: C7_7  and  C8_8 
ROOT
HETATM    1  C8  UNL     1     -40.814  13.616   6.118  1.00 20.00     0.072 C 
ENDROOT
BRANCH   1   2
HETATM    2  C1  UNL     1     -41.860  14.002   5.072  1.00 20.00     0.223 C 
HETATM    3  O9  UNL     1     -41.614  13.981   3.869  1.00 20.00    -0.279 OA
HETATM    4 CL10 UNL     1     -43.384  14.460   5.782  1.00 20.00    -0.043 Cl
ENDBRANCH   1   2
BRANCH   1   5
HETATM    5  C6  UNL     1     -41.413  13.766   7.530  1.00 20.00     0.013 C 
BRANCH   5   6
HETATM    6  C4  UNL     1     -40.573  14.602   8.503  1.00 20.00    -0.004 C 
HETATM    7  C2  UNL     1     -40.453  16.065   8.103  1.00 20.00     0.005 C 
ENDBRANCH   5   6
ENDBRANCH   1   5
BRANCH   1   8
HETATM    8  C7  UNL     1     -40.369  12.157   5.891  1.00 20.00     0.013 C 
BRANCH   8   9
HETATM    9  C5  UNL     1     -38.950  11.993   5.335  1.00 20.00    -0.004 C 
HETATM   10  C3  UNL     1     -38.913  11.643   3.855  1.00 20.00     0.005 C 
ENDBRANCH   8   9
ENDBRANCH   1   8
TORSDOF 5
ENDMDL
MODEL 7
REMARK VINA RESULT:      -3.8      2.728      3.628
REMARK  5 active torsions:
REMARK  status: ('A' for Active; 'I' for Inactive)
REMARK    1  A    between atoms: C1_1  and  C8_8 
REMARK    2  A    between atoms: C4_4  and  C6_6 
REMARK    3  A    between atoms: C5_5  and  C7_7 
REMARK    4  A    between atoms: C6_6  and  C8_8 
REMARK    5  A    between atoms: C7_7  and  C8_8 
ROOT
HETATM    1  C8  UNL     1     -33.193   7.567   4.105  1.00 20.00     0.072 C 
ENDROOT
BRANCH   1   2
HETATM    2  C1  UNL     1     -32.621   8.941   3.757  1.00 20.00     0.223 C 
HETATM    3  O9  UNL     1     -32.108   9.665   4.606  1.00 20.00    -0.279 OA
HETATM    4 CL10 UNL     1     -32.786   9.330   2.068  1.00 20.00    -0.043 Cl
ENDBRANCH   1   2
BRANCH   1   5
HETATM    5  C6  UNL     1     -32.431   6.476   3.328  1.00 20.00     0.013 C 
BRANCH   5   6
HETATM    6  C4  UNL     1     -33.316   5.401   2.686  1.00 20.00    -0.004 C 
HETATM    7  C2  UNL     1     -33.708   4.284   3.642  1.00 20.00     0.005 C 
ENDBRANCH   5   6
ENDBRANCH   1   5
BRANCH   1   8
HETATM    8  C7  UNL     1     -33.060   7.319   5.622  1.00 20.00     0.013 C 
BRANCH   8   9
HETATM    9  C5  UNL     1     -34.373   6.991   6.341  1.00 20.00    -0.004 C 
HETATM   10  C3  UNL     1     -34.625   5.499   6.499  1.00 20.00     0.005 C 
ENDBRANCH   8   9
ENDBRANCH   1   8
TORSDOF 5
ENDMDL
MODEL 8
REMARK VINA RESULT:      -3.8     11.349     12.360
REMARK  5 active torsions:
REMARK  status: ('A' for Active; 'I' for Inactive)
REMARK    1  A    between atoms: C1_1  and  C8_8 
REMARK    2  A    between atoms: C4_4  and  C6_6 
REMARK    3  A    between atoms: C5_5  and  C7_7 
REMARK    4  A    between atoms: C6_6  and  C8_8 
REMARK    5  A    between atoms: C7_7  and  C8_8 
ROOT
HETATM    1  C8  UNL     1     -34.351  15.413  -5.600  1.00 20.00     0.072 C 
ENDROOT
BRANCH   1   2
HETATM    2  C1  UNL     1     -35.525  14.493  -5.935  1.00 20.00     0.223 C 
HETATM    3  O9  UNL     1     -35.982  14.413  -7.072  1.00 20.00    -0.279 OA
HETATM    4 CL10 UNL     1     -36.104  13.610  -4.551  1.00 20.00    -0.043 Cl
ENDBRANCH   1   2
BRANCH   1   5
HETATM    5  C6  UNL     1     -34.786  16.884  -5.751  1.00 20.00     0.013 C 
BRANCH   5   6
HETATM    6  C4  UNL     1     -36.181  17.206  -5.203  1.00 20.00    -0.004 C 
HETATM    7  C2  UNL     1     -36.186  18.313  -4.159  1.00 20.00     0.005 C 
ENDBRANCH   5   6
ENDBRANCH   1   5
BRANCH   1   8
HETATM    8  C7  UNL     1     -33.885  15.152  -4.153  1.00 20.00     0.013 C 
BRANCH   8   9
HETATM    9  C5  UNL     1     -33.031  16.266  -3.538  1.00 20.00    -0.004 C 
HETATM   10  C3  UNL     1     -33.498  16.701  -2.157  1.00 20.00     0.005 C 
ENDBRANCH   8   9
ENDBRANCH   1   8
TORSDOF 5
ENDMDL
MODEL 9
REMARK VINA RESULT:      -3.8     10.098     10.873
REMARK  5 active torsions:
REMARK  status: ('A' for Active; 'I' for Inactive)
REMARK    1  A    between atoms: C1_1  and  C8_8 
REMARK    2  A    between atoms: C4_4  and  C6_6 
REMARK    3  A    between atoms: C5_5  and  C7_7 
REMARK    4  A    between atoms: C6_6  and  C8_8 
REMARK    5  A    between atoms: C7_7  and  C8_8 
ROOT
HETATM    1  C8  UNL     1     -41.428  13.223   6.148  1.00 20.00     0.072 C 
ENDROOT
BRANCH   1   2
HETATM    2  C1  UNL     1     -41.893  14.192   5.062  1.00 20.00     0.223 C 
HETATM    3  O9  UNL     1     -41.663  13.994   3.872  1.00 20.00    -0.279 OA
HETATM    4 CL10 UNL     1     -42.756  15.561   5.707  1.00 20.00    -0.043 Cl
ENDBRANCH   1   2
BRANCH   1   5
HETATM    5  C6  UNL     1     -39.919  12.950   5.987  1.00 20.00     0.013 C 
BRANCH   5   6
HETATM    6  C4  UNL     1     -39.569  11.577   5.401  1.00 20.00    -0.004 C 
HETATM    7  C2  UNL     1     -38.957  11.645   4.010  1.00 20.00     0.005 C 
ENDBRANCH   5   6
ENDBRANCH   1   5
BRANCH   1   8
HETATM    8  C7  UNL     1     -41.704  13.830   7.539  1.00 20.00     0.013 C 
BRANCH   8   9
HETATM    9  C5  UNL     1     -40.455  14.274   8.309  1.00 20.00    -0.004 C 
HETATM   10  C3  UNL     1     -40.420  15.766   8.605  1.00 20.00     0.005 C 
ENDBRANCH   8   9
ENDBRANCH   1   8
TORSDOF 5
ENDMDL
