MODEL 1
REMARK VINA RESULT:      -4.0      0.000      0.000
REMARK  1 active torsions:
REMARK  status: ('A' for Active; 'I' for Inactive)
REMARK    1  A    between atoms: C1_1  and  C5_5 
ROOT
HETATM    1  C2  UNL     1     -40.808  16.230   7.468  1.00 20.00     0.006 C 
HETATM    2  C3  UNL     1     -42.299  16.050   7.791  1.00 20.00     0.006 C 
HETATM    3  C4  UNL     1     -41.113  14.254   8.749  1.00 20.00     0.011 C 
HETATM    4  C5  UNL     1     -40.715  13.966   6.393  1.00 20.00     0.067 C 
HETATM    5  C6  UNL     1     -40.251  14.801   7.610  1.00 20.00    -0.002 C 
HETATM    6  C7  UNL     1     -42.427  14.529   8.008  1.00 20.00    -0.006 C 
HETATM    7  C8  UNL     1     -42.231  13.724   6.681  1.00 20.00    -0.033 C 
HETATM    8  C10 UNL     1     -42.607  12.245   6.905  1.00 20.00     0.016 C 
HETATM    9  C11 UNL     1     -43.098  14.238   5.520  1.00 20.00     0.016 C 
ENDROOT
BRANCH   4  10
HETATM   10  C1  UNL     1     -39.888  12.722   6.255  1.00 20.00     0.128 C 
HETATM   11  C9  UNL     1     -39.790  12.125   4.878  1.00 20.00     0.091 C 
HETATM   12  O12 UNL     1     -39.316  12.219   7.220  1.00 20.00    -0.298 OA
ENDBRANCH   4  10
TORSDOF 1
ENDMDL
MODEL 2
REMARK VINA RESULT:      -3.6     12.747     14.365
REMARK  1 active torsions:
REMARK  status: ('A' for Active; 'I' for Inactive)
REMARK    1  A    between atoms: C1_1  and  C5_5 
ROOT
HETATM    1  C2  UNL     1     -35.949  14.532  -6.174  1.00 20.00     0.006 C 
HETATM    2  C3  UNL     1     -36.300  15.812  -6.947  1.00 20.00     0.006 C 
HETATM    3  C4  UNL     1     -33.954  15.666  -6.782  1.00 20.00     0.011 C 
HETATM    4  C5  UNL     1     -34.646  15.847  -4.484  1.00 20.00     0.067 C 
HETATM    5  C6  UNL     1     -34.534  14.827  -5.643  1.00 20.00    -0.002 C 
HETATM    6  C7  UNL     1     -35.072  16.713  -6.704  1.00 20.00    -0.006 C 
HETATM    7  C8  UNL     1     -34.975  17.187  -5.216  1.00 20.00    -0.033 C 
HETATM    8  C10 UNL     1     -33.883  18.270  -5.082  1.00 20.00     0.016 C 
HETATM    9  C11 UNL     1     -36.281  17.797  -4.682  1.00 20.00     0.016 C 
ENDROOT
BRANCH   4  10
HETATM   10  C1  UNL     1     -33.388  15.862  -3.666  1.00 20.00     0.128 C 
HETATM   11  C9  UNL     1     -33.431  16.633  -2.374  1.00 20.00     0.091 C 
HETATM   12  O12 UNL     1     -32.375  15.271  -4.033  1.00 20.00    -0.298 OA
ENDBRANCH   4  10
TORSDOF 1
ENDMDL
MODEL 3
REMARK VINA RESULT:      -3.4      1.362      2.945
REMARK  1 active torsions:
REMARK  status: ('A' for Active; 'I' for Inactive)
REMARK    1  A    between atoms: C1_1  and  C5_5 
ROOT
HETATM    1  C2  UNL     1     -43.352  12.128   7.852  1.00 20.00     0.006 C 
HETATM    2  C3  UNL     1     -43.417  13.449   8.633  1.00 20.00     0.006 C 
HETATM    3  C4  UNL     1     -43.214  13.954   6.340  1.00 20.00     0.011 C 
HETATM    4  C5  UNL     1     -41.164  12.786   6.819  1.00 20.00     0.067 C 
HETATM    5  C6  UNL     1     -42.666  12.540   6.536  1.00 20.00    -0.002 C 
HETATM    6  C7  UNL     1     -42.696  14.442   7.699  1.00 20.00    -0.006 C 
HETATM    7  C8  UNL     1     -41.163  14.144   7.593  1.00 20.00    -0.033 C 
HETATM    8  C10 UNL     1     -40.456  15.298   6.851  1.00 20.00     0.016 C 
HETATM    9  C11 UNL     1     -40.473  13.996   8.958  1.00 20.00     0.016 C 
ENDROOT
BRANCH   4  10
HETATM   10  C1  UNL     1     -40.375  12.782   5.543  1.00 20.00     0.128 C 
HETATM   11  C9  UNL     1     -38.998  12.179   5.602  1.00 20.00     0.091 C 
HETATM   12  O12 UNL     1     -40.834  13.246   4.501  1.00 20.00    -0.298 OA
ENDBRANCH   4  10
TORSDOF 1
ENDMDL
MODEL 4
REMARK VINA RESULT:      -3.3     13.044     14.201
REMARK  1 active torsions:
REMARK  status: ('A' for Active; 'I' for Inactive)
REMARK    1  A    between atoms: C1_1  and  C5_5 
ROOT
HETATM    1  C2  UNL     1     -34.633  18.332  -6.540  1.00 20.00     0.006 C 
HETATM    2  C3  UNL     1     -36.039  17.943  -7.019  1.00 20.00     0.006 C 
HETATM    3  C4  UNL     1     -35.925  17.585  -4.693  1.00 20.00     0.011 C 
HETATM    4  C5  UNL     1     -34.281  16.052  -5.557  1.00 20.00     0.067 C 
HETATM    5  C6  UNL     1     -34.490  17.549  -5.221  1.00 20.00    -0.002 C 
HETATM    6  C7  UNL     1     -36.502  16.929  -5.954  1.00 20.00    -0.006 C 
HETATM    7  C8  UNL     1     -35.698  15.589  -6.026  1.00 20.00    -0.033 C 
HETATM    8  C10 UNL     1     -36.356  14.533  -5.113  1.00 20.00     0.016 C 
HETATM    9  C11 UNL     1     -35.637  14.987  -7.439  1.00 20.00     0.016 C 
ENDROOT
BRANCH   4  10
HETATM   10  C1  UNL     1     -33.731  15.314  -4.372  1.00 20.00     0.128 C 
HETATM   11  C9  UNL     1     -33.437  16.130  -3.143  1.00 20.00     0.091 C 
HETATM   12  O12 UNL     1     -33.535  14.100  -4.404  1.00 20.00    -0.298 OA
ENDBRANCH   4  10
TORSDOF 1
ENDMDL
MODEL 5
REMARK VINA RESULT:      -3.3      1.670      3.761
REMARK  1 active torsions:
REMARK  status: ('A' for Active; 'I' for Inactive)
REMARK    1  A    between atoms: C1_1  and  C5_5 
ROOT
HETATM    1  C2  UNL     1     -43.415  13.910   5.542  1.00 20.00     0.006 C 
HETATM    2  C3  UNL     1     -42.008  14.313   5.077  1.00 20.00     0.006 C 
HETATM    3  C4  UNL     1     -41.801  12.523   6.594  1.00 20.00     0.011 C 
HETATM    4  C5  UNL     1     -42.779  14.262   7.941  1.00 20.00     0.067 C 
HETATM    5  C6  UNL     1     -43.144  13.197   6.879  1.00 20.00    -0.002 C 
HETATM    6  C7  UNL     1     -41.110  13.845   6.239  1.00 20.00    -0.006 C 
HETATM    7  C8  UNL     1     -41.334  14.692   7.536  1.00 20.00    -0.033 C 
HETATM    8  C10 UNL     1     -40.251  14.348   8.580  1.00 20.00     0.016 C 
HETATM    9  C11 UNL     1     -41.261  16.209   7.295  1.00 20.00     0.016 C 
ENDROOT
BRANCH   4  10
HETATM   10  C1  UNL     1     -42.909  13.698   9.326  1.00 20.00     0.128 C 
HETATM   11  C9  UNL     1     -43.092  14.688  10.444  1.00 20.00     0.091 C 
HETATM   12  O12 UNL     1     -42.872  12.487   9.534  1.00 20.00    -0.298 OA
ENDBRANCH   4  10
TORSDOF 1
ENDMDL
MODEL 6
REMARK VINA RESULT:      -3.3     20.202     21.739
REMARK  1 active torsions:
REMARK  status: ('A' for Active; 'I' for Inactive)
REMARK    1  A    between atoms: C1_1  and  C5_5 
ROOT
HETATM    1  C2  UNL     1     -28.958  -3.797  12.305  1.00 20.00     0.006 C 
HETATM    2  C3  UNL     1     -29.955  -2.764  11.760  1.00 20.00     0.006 C 
HETATM    3  C4  UNL     1     -28.404  -3.264  10.059  1.00 20.00     0.011 C 
HETATM    4  C5  UNL     1     -27.026  -2.289  11.775  1.00 20.00     0.067 C 
HETATM    5  C6  UNL     1     -27.734  -3.610  11.389  1.00 20.00    -0.002 C 
HETATM    6  C7  UNL     1     -29.155  -2.062  10.645  1.00 20.00    -0.006 C 
HETATM    7  C8  UNL     1     -27.987  -1.191  11.216  1.00 20.00    -0.033 C 
HETATM    8  C10 UNL     1     -27.379  -0.327  10.091  1.00 20.00     0.016 C 
HETATM    9  C11 UNL     1     -28.429  -0.230  12.332  1.00 20.00     0.016 C 
ENDROOT
BRANCH   4  10
HETATM   10  C1  UNL     1     -25.631  -2.252  11.225  1.00 20.00     0.128 C 
HETATM   11  C9  UNL     1     -24.636  -1.397  11.960  1.00 20.00     0.091 C 
HETATM   12  O12 UNL     1     -25.317  -2.894  10.224  1.00 20.00    -0.298 OA
ENDBRANCH   4  10
TORSDOF 1
ENDMDL
MODEL 7
REMARK VINA RESULT:      -3.1      9.245     11.187
REMARK  1 active torsions:
REMARK  status: ('A' for Active; 'I' for Inactive)
REMARK    1  A    between atoms: C1_1  and  C5_5 
ROOT
HETATM    1  C2  UNL     1     -33.812   4.427   4.231  1.00 20.00     0.006 C 
HETATM    2  C3  UNL     1     -34.796   4.745   5.367  1.00 20.00     0.006 C 
HETATM    3  C4  UNL     1     -35.144   6.300   3.631  1.00 20.00     0.011 C 
HETATM    4  C5  UNL     1     -32.881   6.754   4.317  1.00 20.00     0.067 C 
HETATM    5  C6  UNL     1     -33.720   5.764   3.472  1.00 20.00    -0.002 C 
HETATM    6  C7  UNL     1     -35.091   6.245   5.163  1.00 20.00    -0.006 C 
HETATM    7  C8  UNL     1     -33.847   7.139   5.482  1.00 20.00    -0.033 C 
HETATM    8  C10 UNL     1     -34.262   8.625   5.499  1.00 20.00     0.016 C 
HETATM    9  C11 UNL     1     -33.208   6.835   6.847  1.00 20.00     0.016 C 
ENDROOT
BRANCH   4  10
HETATM   10  C1  UNL     1     -32.410   7.903   3.476  1.00 20.00     0.128 C 
HETATM   11  C9  UNL     1     -32.266   7.647   2.000  1.00 20.00     0.091 C 
HETATM   12  O12 UNL     1     -32.156   9.001   3.969  1.00 20.00    -0.298 OA
ENDBRANCH   4  10
TORSDOF 1
ENDMDL
MODEL 8
REMARK VINA RESULT:      -3.1      2.114      3.924
REMARK  1 active torsions:
REMARK  status: ('A' for Active; 'I' for Inactive)
REMARK    1  A    between atoms: C1_1  and  C5_5 
ROOT
HETATM    1  C2  UNL     1     -40.925  13.255   5.116  1.00 20.00     0.006 C 
HETATM    2  C3  UNL     1     -41.081  12.335   6.335  1.00 20.00     0.006 C 
HETATM    3  C4  UNL     1     -43.099  13.514   6.035  1.00 20.00     0.011 C 
HETATM    4  C5  UNL     1     -41.513  15.266   6.493  1.00 20.00     0.067 C 
HETATM    5  C6  UNL     1     -41.999  14.332   5.358  1.00 20.00    -0.002 C 
HETATM    6  C7  UNL     1     -42.176  13.037   7.164  1.00 20.00    -0.006 C 
HETATM    7  C8  UNL     1     -41.677  14.389   7.775  1.00 20.00    -0.033 C 
HETATM    8  C10 UNL     1     -42.717  14.923   8.782  1.00 20.00     0.016 C 
HETATM    9  C11 UNL     1     -40.344  14.265   8.528  1.00 20.00     0.016 C 
ENDROOT
BRANCH   4  10
HETATM   10  C1  UNL     1     -42.292  16.548   6.496  1.00 20.00     0.128 C 
HETATM   11  C9  UNL     1     -41.631  17.740   7.132  1.00 20.00     0.091 C 
HETATM   12  O12 UNL     1     -43.415  16.621   6.000  1.00 20.00    -0.298 OA
ENDBRANCH   4  10
TORSDOF 1
ENDMDL
MODEL 9
REMARK VINA RESULT:      -3.1      9.842     11.210
REMARK  1 active torsions:
REMARK  status: ('A' for Active; 'I' for Inactive)
REMARK    1  A    between atoms: C1_1  and  C5_5 
ROOT
HETATM    1  C2  UNL     1     -34.055   5.129   6.132  1.00 20.00     0.006 C 
HETATM    2  C3  UNL     1     -34.613   6.471   6.628  1.00 20.00     0.006 C 
HETATM    3  C4  UNL     1     -35.353   6.133   4.416  1.00 20.00     0.011 C 
HETATM    4  C5  UNL     1     -32.961   6.248   4.173  1.00 20.00     0.067 C 
HETATM    5  C6  UNL     1     -34.094   5.284   4.600  1.00 20.00    -0.002 C 
HETATM    6  C7  UNL     1     -34.836   7.259   5.321  1.00 20.00    -0.006 C 
HETATM    7  C8  UNL     1     -33.488   7.646   4.628  1.00 20.00    -0.033 C 
HETATM    8  C10 UNL     1     -33.758   8.631   3.471  1.00 20.00     0.016 C 
HETATM    9  C11 UNL     1     -32.487   8.328   5.575  1.00 20.00     0.016 C 
ENDROOT
BRANCH   4  10
HETATM   10  C1  UNL     1     -32.681   6.121   2.705  1.00 20.00     0.128 C 
HETATM   11  C9  UNL     1     -33.093   4.833   2.046  1.00 20.00     0.091 C 
HETATM   12  O12 UNL     1     -32.143   7.028   2.071  1.00 20.00    -0.298 OA
ENDBRANCH   4  10
TORSDOF 1
ENDMDL
