MODEL 1
REMARK VINA RESULT:      -4.3      0.000      0.000
REMARK  1 active torsions:
REMARK  status: ('A' for Active; 'I' for Inactive)
REMARK    1  A    between atoms: C5_5  and  C10_10 
ROOT
HETATM    1  C1  UNL     1     -33.396   7.418   5.789  1.00 20.00     0.011 C 
HETATM    2  C2  UNL     1     -33.315   6.114   3.621  1.00 20.00     0.011 C 
HETATM    3  C3  UNL     1     -34.467   6.499   6.386  1.00 20.00     0.079 C 
HETATM    4  C4  UNL     1     -33.928   4.975   4.441  1.00 20.00     0.079 C 
HETATM    5  C5  UNL     1     -33.482   7.502   4.263  1.00 20.00    -0.007 C 
HETATM    6  C6  UNL     1     -34.992   5.464   5.401  1.00 20.00     0.243 C 
HETATM    7  F11 UNL     1     -35.517   4.417   6.084  1.00 20.00    -0.206 F 
HETATM    8  F12 UNL     1     -36.016   6.002   4.686  1.00 20.00    -0.206 F 
ENDROOT
BRANCH   5   9
HETATM    9  C10 UNL     1     -32.451   8.483   3.706  1.00 20.00    -0.048 C 
HETATM   10  C7  UNL     1     -33.077   9.305   2.566  1.00 20.00     0.015 C 
HETATM   11  C8  UNL     1     -31.237   7.710   3.164  1.00 20.00     0.015 C 
HETATM   12  C9  UNL     1     -31.986   9.436   4.819  1.00 20.00     0.015 C 
ENDBRANCH   5   9
TORSDOF 1
ENDMDL
MODEL 2
REMARK VINA RESULT:      -4.2     11.962     12.869
REMARK  1 active torsions:
REMARK  status: ('A' for Active; 'I' for Inactive)
REMARK    1  A    between atoms: C5_5  and  C10_10 
ROOT
HETATM    1  C1  UNL     1     -33.520  19.119   0.494  1.00 20.00     0.011 C 
HETATM    2  C2  UNL     1     -31.266  18.572  -0.520  1.00 20.00     0.011 C 
HETATM    3  C3  UNL     1     -32.951  19.161   1.916  1.00 20.00     0.079 C 
HETATM    4  C4  UNL     1     -30.694  19.155   0.774  1.00 20.00     0.079 C 
HETATM    5  C5  UNL     1     -32.746  18.164  -0.418  1.00 20.00    -0.007 C 
HETATM    6  C6  UNL     1     -31.491  18.740   1.995  1.00 20.00     0.243 C 
HETATM    7  F11 UNL     1     -30.930  19.263   3.113  1.00 20.00    -0.206 F 
HETATM    8  F12 UNL     1     -31.418  17.389   2.129  1.00 20.00    -0.206 F 
ENDROOT
BRANCH   5   9
HETATM    9  C10 UNL     1     -33.383  18.088  -1.805  1.00 20.00    -0.048 C 
HETATM   10  C7  UNL     1     -34.858  18.519  -1.725  1.00 20.00     0.015 C 
HETATM   11  C8  UNL     1     -33.306  16.646  -2.335  1.00 20.00     0.015 C 
HETATM   12  C9  UNL     1     -32.636  19.022  -2.771  1.00 20.00     0.015 C 
ENDBRANCH   5   9
TORSDOF 1
ENDMDL
MODEL 3
REMARK VINA RESULT:      -4.0     12.194     13.389
REMARK  1 active torsions:
REMARK  status: ('A' for Active; 'I' for Inactive)
REMARK    1  A    between atoms: C5_5  and  C10_10 
ROOT
HETATM    1  C1  UNL     1     -33.208  16.135  -3.412  1.00 20.00     0.011 C 
HETATM    2  C2  UNL     1     -34.569  17.859  -4.669  1.00 20.00     0.011 C 
HETATM    3  C3  UNL     1     -33.545  15.029  -4.417  1.00 20.00     0.079 C 
HETATM    4  C4  UNL     1     -34.410  16.915  -5.864  1.00 20.00     0.079 C 
HETATM    5  C5  UNL     1     -34.313  17.189  -3.308  1.00 20.00    -0.007 C 
HETATM    6  C6  UNL     1     -34.555  15.459  -5.471  1.00 20.00     0.243 C 
HETATM    7  F11 UNL     1     -34.429  14.669  -6.565  1.00 20.00    -0.206 F 
HETATM    8  F12 UNL     1     -35.814  15.254  -4.998  1.00 20.00    -0.206 F 
ENDROOT
BRANCH   5   9
HETATM    9  C10 UNL     1     -33.980  18.235  -2.245  1.00 20.00    -0.048 C 
HETATM   10  C7  UNL     1     -32.756  19.055  -2.687  1.00 20.00     0.015 C 
HETATM   11  C8  UNL     1     -33.668  17.539  -0.910  1.00 20.00     0.015 C 
HETATM   12  C9  UNL     1     -35.179  19.180  -2.054  1.00 20.00     0.015 C 
ENDBRANCH   5   9
TORSDOF 1
ENDMDL
MODEL 4
REMARK VINA RESULT:      -4.0     12.358     13.503
REMARK  1 active torsions:
REMARK  status: ('A' for Active; 'I' for Inactive)
REMARK    1  A    between atoms: C5_5  and  C10_10 
ROOT
HETATM    1  C1  UNL     1     -35.528  17.241  -4.538  1.00 20.00     0.011 C 
HETATM    2  C2  UNL     1     -33.734  15.647  -3.734  1.00 20.00     0.011 C 
HETATM    3  C3  UNL     1     -35.883  16.353  -5.734  1.00 20.00     0.079 C 
HETATM    4  C4  UNL     1     -34.480  14.602  -4.568  1.00 20.00     0.079 C 
HETATM    5  C5  UNL     1     -34.063  17.100  -4.118  1.00 20.00    -0.007 C 
HETATM    6  C6  UNL     1     -34.956  15.157  -5.895  1.00 20.00     0.243 C 
HETATM    7  F11 UNL     1     -35.587  14.188  -6.602  1.00 20.00    -0.206 F 
HETATM    8  F12 UNL     1     -33.874  15.522  -6.633  1.00 20.00    -0.206 F 
ENDROOT
BRANCH   5   9
HETATM    9  C10 UNL     1     -33.722  18.052  -2.972  1.00 20.00    -0.048 C 
HETATM   10  C7  UNL     1     -32.985  17.287  -1.860  1.00 20.00     0.015 C 
HETATM   11  C8  UNL     1     -35.014  18.658  -2.399  1.00 20.00     0.015 C 
HETATM   12  C9  UNL     1     -32.819  19.185  -3.490  1.00 20.00     0.015 C 
ENDBRANCH   5   9
TORSDOF 1
ENDMDL
MODEL 5
REMARK VINA RESULT:      -4.0      2.534      4.368
REMARK  1 active torsions:
REMARK  status: ('A' for Active; 'I' for Inactive)
REMARK    1  A    between atoms: C5_5  and  C10_10 
ROOT
HETATM    1  C1  UNL     1     -34.159   7.820   5.515  1.00 20.00     0.011 C 
HETATM    2  C2  UNL     1     -33.236   6.886   3.351  1.00 20.00     0.011 C 
HETATM    3  C3  UNL     1     -33.246   9.049   5.459  1.00 20.00     0.079 C 
HETATM    4  C4  UNL     1     -32.790   8.325   3.078  1.00 20.00     0.079 C 
HETATM    5  C5  UNL     1     -33.539   6.598   4.831  1.00 20.00    -0.007 C 
HETATM    6  C6  UNL     1     -32.240   9.002   4.317  1.00 20.00     0.243 C 
HETATM    7  F11 UNL     1     -31.840  10.262   4.018  1.00 20.00    -0.206 F 
HETATM    8  F12 UNL     1     -31.127   8.337   4.725  1.00 20.00    -0.206 F 
ENDROOT
BRANCH   5   9
HETATM    9  C10 UNL     1     -34.440   5.371   4.970  1.00 20.00    -0.048 C 
HETATM   10  C7  UNL     1     -34.601   5.009   6.456  1.00 20.00     0.015 C 
HETATM   11  C8  UNL     1     -33.816   4.181   4.224  1.00 20.00     0.015 C 
HETATM   12  C9  UNL     1     -35.824   5.674   4.372  1.00 20.00     0.015 C 
ENDBRANCH   5   9
TORSDOF 1
ENDMDL
MODEL 6
REMARK VINA RESULT:      -3.9     12.391     13.714
REMARK  1 active torsions:
REMARK  status: ('A' for Active; 'I' for Inactive)
REMARK    1  A    between atoms: C5_5  and  C10_10 
ROOT
HETATM    1  C1  UNL     1     -33.691  15.981  -3.161  1.00 20.00     0.011 C 
HETATM    2  C2  UNL     1     -35.206  17.695  -4.245  1.00 20.00     0.011 C 
HETATM    3  C3  UNL     1     -32.985  17.039  -2.307  1.00 20.00     0.079 C 
HETATM    4  C4  UNL     1     -34.873  18.560  -3.027  1.00 20.00     0.079 C 
HETATM    5  C5  UNL     1     -34.208  16.548  -4.486  1.00 20.00    -0.007 C 
HETATM    6  C6  UNL     1     -33.413  18.463  -2.632  1.00 20.00     0.243 C 
HETATM    7  F11 UNL     1     -33.167  19.263  -1.566  1.00 20.00    -0.206 F 
HETATM    8  F12 UNL     1     -32.649  18.941  -3.650  1.00 20.00    -0.206 F 
ENDROOT
BRANCH   5   9
HETATM    9  C10 UNL     1     -34.839  15.454  -5.346  1.00 20.00    -0.048 C 
HETATM   10  C7  UNL     1     -34.002  15.245  -6.619  1.00 20.00     0.015 C 
HETATM   11  C8  UNL     1     -36.268  15.862  -5.740  1.00 20.00     0.015 C 
HETATM   12  C9  UNL     1     -34.890  14.136  -4.554  1.00 20.00     0.015 C 
ENDBRANCH   5   9
TORSDOF 1
ENDMDL
MODEL 7
REMARK VINA RESULT:      -3.7     12.119     13.818
REMARK  1 active torsions:
REMARK  status: ('A' for Active; 'I' for Inactive)
REMARK    1  A    between atoms: C5_5  and  C10_10 
ROOT
HETATM    1  C1  UNL     1     -34.880  17.207  -4.575  1.00 20.00     0.011 C 
HETATM    2  C2  UNL     1     -35.221  15.327  -6.235  1.00 20.00     0.011 C 
HETATM    3  C3  UNL     1     -33.725  16.480  -3.880  1.00 20.00     0.079 C 
HETATM    4  C4  UNL     1     -33.784  14.936  -5.882  1.00 20.00     0.079 C 
HETATM    5  C5  UNL     1     -35.893  16.239  -5.194  1.00 20.00    -0.007 C 
HETATM    6  C6  UNL     1     -33.499  15.068  -4.400  1.00 20.00     0.243 C 
HETATM    7  F11 UNL     1     -32.224  14.689  -4.138  1.00 20.00    -0.206 F 
HETATM    8  F12 UNL     1     -34.299  14.205  -3.719  1.00 20.00    -0.206 F 
ENDROOT
BRANCH   5   9
HETATM    9  C10 UNL     1     -37.070  16.991  -5.813  1.00 20.00    -0.048 C 
HETATM   10  C7  UNL     1     -38.374  16.592  -5.103  1.00 20.00     0.015 C 
HETATM   11  C8  UNL     1     -37.180  16.646  -7.307  1.00 20.00     0.015 C 
HETATM   12  C9  UNL     1     -36.855  18.507  -5.659  1.00 20.00     0.015 C 
ENDBRANCH   5   9
TORSDOF 1
ENDMDL
MODEL 8
REMARK VINA RESULT:      -3.7      8.900      9.917
REMARK  1 active torsions:
REMARK  status: ('A' for Active; 'I' for Inactive)
REMARK    1  A    between atoms: C5_5  and  C10_10 
ROOT
HETATM    1  C1  UNL     1     -39.855  12.899   6.992  1.00 20.00     0.011 C 
HETATM    2  C2  UNL     1     -41.256  13.150   4.899  1.00 20.00     0.011 C 
HETATM    3  C3  UNL     1     -38.766  12.112   6.256  1.00 20.00     0.079 C 
HETATM    4  C4  UNL     1     -39.948  12.872   4.153  1.00 20.00     0.079 C 
HETATM    5  C5  UNL     1     -41.241  12.703   6.371  1.00 20.00    -0.007 C 
HETATM    6  C6  UNL     1     -39.127  11.784   4.815  1.00 20.00     0.243 C 
HETATM    7  F11 UNL     1     -37.994  11.562   4.105  1.00 20.00    -0.206 F 
HETATM    8  F12 UNL     1     -39.830  10.620   4.780  1.00 20.00    -0.206 F 
ENDROOT
BRANCH   5   9
HETATM    9  C10 UNL     1     -42.314  13.440   7.171  1.00 20.00    -0.048 C 
HETATM   10  C7  UNL     1     -43.415  12.454   7.596  1.00 20.00     0.015 C 
HETATM   11  C8  UNL     1     -42.934  14.551   6.308  1.00 20.00     0.015 C 
HETATM   12  C9  UNL     1     -41.686  14.066   8.427  1.00 20.00     0.015 C 
ENDBRANCH   5   9
TORSDOF 1
ENDMDL
MODEL 9
REMARK VINA RESULT:      -3.7     11.085     11.953
REMARK  1 active torsions:
REMARK  status: ('A' for Active; 'I' for Inactive)
REMARK    1  A    between atoms: C5_5  and  C10_10 
ROOT
HETATM    1  C1  UNL     1     -40.424  14.242   8.425  1.00 20.00     0.011 C 
HETATM    2  C2  UNL     1     -42.289  15.369   7.137  1.00 20.00     0.011 C 
HETATM    3  C3  UNL     1     -40.161  15.488   9.276  1.00 20.00     0.079 C 
HETATM    4  C4  UNL     1     -42.353  16.325   8.331  1.00 20.00     0.079 C 
HETATM    5  C5  UNL     1     -40.969  14.586   7.036  1.00 20.00    -0.007 C 
HETATM    6  C6  UNL     1     -40.977  16.698   8.844  1.00 20.00     0.243 C 
HETATM    7  F11 UNL     1     -41.089  17.561   9.884  1.00 20.00    -0.206 F 
HETATM    8  F12 UNL     1     -40.309  17.366   7.867  1.00 20.00    -0.206 F 
ENDROOT
BRANCH   5   9
HETATM    9  C10 UNL     1     -41.149  13.329   6.186  1.00 20.00    -0.048 C 
HETATM   10  C7  UNL     1     -42.285  12.468   6.765  1.00 20.00     0.015 C 
HETATM   11  C8  UNL     1     -39.846  12.512   6.183  1.00 20.00     0.015 C 
HETATM   12  C9  UNL     1     -41.501  13.724   4.742  1.00 20.00     0.015 C 
ENDBRANCH   5   9
TORSDOF 1
ENDMDL
