MODEL 1
REMARK VINA RESULT:      -4.2      0.000      0.000
REMARK  2 active torsions:
REMARK  status: ('A' for Active; 'I' for Inactive)
REMARK    1  A    between atoms: C3_3  and  O6_6 
REMARK    2  A    between atoms: C4_4  and  O6_6 
ROOT
HETATM    1  C1  UNL     1     -32.393   8.800   4.853  1.00 20.00     0.014 C 
HETATM    2  C2  UNL     1     -33.160   7.958   5.233  1.00 20.00    -0.091 C 
HETATM    3  C4  UNL     1     -34.094   6.933   5.697  1.00 20.00     0.272 C 
ENDROOT
BRANCH   3   4
HETATM    4  O6  UNL     1     -34.704   6.277   4.594  1.00 20.00    -0.297 OA
BRANCH   4   5
HETATM    5  C3  UNL     1     -34.071   5.150   4.125  1.00 20.00     0.358 C 
HETATM    6  O5  UNL     1     -34.214   4.043   4.636  1.00 20.00    -0.245 OA
HETATM    7 CL7  UNL     1     -33.058   5.469   2.741  1.00 20.00    -0.012 Cl
ENDBRANCH   4   5
ENDBRANCH   3   4
TORSDOF 2
ENDMDL
MODEL 2
REMARK VINA RESULT:      -4.1      2.193      3.163
REMARK  2 active torsions:
REMARK  status: ('A' for Active; 'I' for Inactive)
REMARK    1  A    between atoms: C3_3  and  O6_6 
REMARK    2  A    between atoms: C4_4  and  O6_6 
ROOT
HETATM    1  C1  UNL     1     -34.596   5.416   6.343  1.00 20.00     0.014 C 
HETATM    2  C2  UNL     1     -34.239   6.515   6.018  1.00 20.00    -0.091 C 
HETATM    3  C4  UNL     1     -33.805   7.855   5.622  1.00 20.00     0.272 C 
ENDROOT
BRANCH   3   4
HETATM    4  O6  UNL     1     -32.546   7.798   4.965  1.00 20.00    -0.297 OA
BRANCH   4   5
HETATM    5  C3  UNL     1     -32.570   7.840   3.590  1.00 20.00     0.358 C 
HETATM    6  O5  UNL     1     -32.588   8.892   2.956  1.00 20.00    -0.245 OA
HETATM    7 CL7  UNL     1     -32.573   6.255   2.864  1.00 20.00    -0.012 Cl
ENDBRANCH   4   5
ENDBRANCH   3   4
TORSDOF 2
ENDMDL
MODEL 3
REMARK VINA RESULT:      -4.1      1.514      1.514
REMARK  2 active torsions:
REMARK  status: ('A' for Active; 'I' for Inactive)
REMARK    1  A    between atoms: C3_3  and  O6_6 
REMARK    2  A    between atoms: C4_4  and  O6_6 
ROOT
HETATM    1  C1  UNL     1     -32.533   8.132   4.573  1.00 20.00     0.014 C 
HETATM    2  C2  UNL     1     -33.273   7.629   5.373  1.00 20.00    -0.091 C 
HETATM    3  C4  UNL     1     -34.177   7.017   6.347  1.00 20.00     0.272 C 
ENDROOT
BRANCH   3   4
HETATM    4  O6  UNL     1     -34.149   5.601   6.232  1.00 20.00    -0.297 OA
BRANCH   4   5
HETATM    5  C3  UNL     1     -34.568   5.075   5.032  1.00 20.00     0.358 C 
HETATM    6  O5  UNL     1     -34.093   4.050   4.551  1.00 20.00    -0.245 OA
HETATM    7 CL7  UNL     1     -35.832   6.017   4.286  1.00 20.00    -0.012 Cl
ENDBRANCH   4   5
ENDBRANCH   3   4
TORSDOF 2
ENDMDL
MODEL 4
REMARK VINA RESULT:      -4.1      2.091      3.462
REMARK  2 active torsions:
REMARK  status: ('A' for Active; 'I' for Inactive)
REMARK    1  A    between atoms: C3_3  and  O6_6 
REMARK    2  A    between atoms: C4_4  and  O6_6 
ROOT
HETATM    1  C1  UNL     1     -34.821   4.914   5.257  1.00 20.00     0.014 C 
HETATM    2  C2  UNL     1     -34.413   5.968   5.660  1.00 20.00    -0.091 C 
HETATM    3  C4  UNL     1     -33.914   7.252   6.153  1.00 20.00     0.272 C 
ENDROOT
BRANCH   3   4
HETATM    4  O6  UNL     1     -33.869   8.207   5.100  1.00 20.00    -0.297 OA
BRANCH   4   5
HETATM    5  C3  UNL     1     -32.628   8.478   4.573  1.00 20.00     0.358 C 
HETATM    6  O5  UNL     1     -31.904   9.373   5.000  1.00 20.00    -0.245 OA
HETATM    7 CL7  UNL     1     -32.210   7.423   3.250  1.00 20.00    -0.012 Cl
ENDBRANCH   4   5
ENDBRANCH   3   4
TORSDOF 2
ENDMDL
MODEL 5
REMARK VINA RESULT:      -4.0      1.396      1.510
REMARK  2 active torsions:
REMARK  status: ('A' for Active; 'I' for Inactive)
REMARK    1  A    between atoms: C3_3  and  O6_6 
REMARK    2  A    between atoms: C4_4  and  O6_6 
ROOT
HETATM    1  C1  UNL     1     -32.476   8.124   4.428  1.00 20.00     0.014 C 
HETATM    2  C2  UNL     1     -33.180   7.699   5.303  1.00 20.00    -0.091 C 
HETATM    3  C4  UNL     1     -34.039   7.182   6.368  1.00 20.00     0.272 C 
ENDROOT
BRANCH   3   4
HETATM    4  O6  UNL     1     -34.303   5.800   6.170  1.00 20.00    -0.297 OA
BRANCH   4   5
HETATM    5  C3  UNL     1     -34.812   5.443   4.943  1.00 20.00     0.358 C 
HETATM    6  O5  UNL     1     -35.819   5.956   4.465  1.00 20.00    -0.245 OA
HETATM    7 CL7  UNL     1     -33.875   4.199   4.158  1.00 20.00    -0.012 Cl
ENDBRANCH   4   5
ENDBRANCH   3   4
TORSDOF 2
ENDMDL
MODEL 6
REMARK VINA RESULT:      -3.9      1.807      1.890
REMARK  2 active torsions:
REMARK  status: ('A' for Active; 'I' for Inactive)
REMARK    1  A    between atoms: C3_3  and  O6_6 
REMARK    2  A    between atoms: C4_4  and  O6_6 
ROOT
HETATM    1  C1  UNL     1     -32.349   8.841   4.800  1.00 20.00     0.014 C 
HETATM    2  C2  UNL     1     -32.634   7.833   4.214  1.00 20.00    -0.091 C 
HETATM    3  C4  UNL     1     -32.979   6.604   3.499  1.00 20.00     0.272 C 
ENDROOT
BRANCH   3   4
HETATM    4  O6  UNL     1     -34.272   6.152   3.879  1.00 20.00    -0.297 OA
BRANCH   4   5
HETATM    5  C3  UNL     1     -34.319   5.145   4.814  1.00 20.00     0.358 C 
HETATM    6  O5  UNL     1     -34.122   3.966   4.534  1.00 20.00    -0.245 OA
HETATM    7 CL7  UNL     1     -34.683   5.726   6.417  1.00 20.00    -0.012 Cl
ENDBRANCH   4   5
ENDBRANCH   3   4
TORSDOF 2
ENDMDL
MODEL 7
REMARK VINA RESULT:      -3.9      2.457      3.023
REMARK  2 active torsions:
REMARK  status: ('A' for Active; 'I' for Inactive)
REMARK    1  A    between atoms: C3_3  and  O6_6 
REMARK    2  A    between atoms: C4_4  and  O6_6 
ROOT
HETATM    1  C1  UNL     1     -34.450   5.824   6.331  1.00 20.00     0.014 C 
HETATM    2  C2  UNL     1     -34.039   6.872   5.915  1.00 20.00    -0.091 C 
HETATM    3  C4  UNL     1     -33.538   8.150   5.409  1.00 20.00     0.272 C 
ENDROOT
BRANCH   3   4
HETATM    4  O6  UNL     1     -32.324   7.962   4.693  1.00 20.00    -0.297 OA
BRANCH   4   5
HETATM    5  C3  UNL     1     -32.441   7.685   3.351  1.00 20.00     0.358 C 
HETATM    6  O5  UNL     1     -32.394   6.545   2.899  1.00 20.00    -0.245 OA
HETATM    7 CL7  UNL     1     -32.661   9.118   2.381  1.00 20.00    -0.012 Cl
ENDBRANCH   4   5
ENDBRANCH   3   4
TORSDOF 2
ENDMDL
MODEL 8
REMARK VINA RESULT:      -3.8      1.953      2.275
REMARK  2 active torsions:
REMARK  status: ('A' for Active; 'I' for Inactive)
REMARK    1  A    between atoms: C3_3  and  O6_6 
REMARK    2  A    between atoms: C4_4  and  O6_6 
ROOT
HETATM    1  C1  UNL     1     -32.215   7.396   2.706  1.00 20.00     0.014 C 
HETATM    2  C2  UNL     1     -32.474   7.715   3.834  1.00 20.00    -0.091 C 
HETATM    3  C4  UNL     1     -32.788   8.106   5.208  1.00 20.00     0.272 C 
ENDROOT
BRANCH   3   4
HETATM    4  O6  UNL     1     -34.132   7.771   5.527  1.00 20.00    -0.297 OA
BRANCH   4   5
HETATM    5  C3  UNL     1     -34.401   6.436   5.719  1.00 20.00     0.358 C 
HETATM    6  O5  UNL     1     -33.945   5.792   6.660  1.00 20.00    -0.245 OA
HETATM    7 CL7  UNL     1     -35.446   5.773   4.491  1.00 20.00    -0.012 Cl
ENDBRANCH   4   5
ENDBRANCH   3   4
TORSDOF 2
ENDMDL
MODEL 9
REMARK VINA RESULT:      -3.7      2.054      2.321
REMARK  2 active torsions:
REMARK  status: ('A' for Active; 'I' for Inactive)
REMARK    1  A    between atoms: C3_3  and  O6_6 
REMARK    2  A    between atoms: C4_4  and  O6_6 
ROOT
HETATM    1  C1  UNL     1     -32.207   7.339   2.723  1.00 20.00     0.014 C 
HETATM    2  C2  UNL     1     -32.550   7.552   3.853  1.00 20.00    -0.091 C 
HETATM    3  C4  UNL     1     -32.968   7.814   5.231  1.00 20.00     0.272 C 
ENDROOT
BRANCH   3   4
HETATM    4  O6  UNL     1     -34.358   7.562   5.388  1.00 20.00    -0.297 OA
BRANCH   4   5
HETATM    5  C3  UNL     1     -34.758   6.250   5.281  1.00 20.00     0.358 C 
HETATM    6  O5  UNL     1     -35.459   5.840   4.360  1.00 20.00    -0.245 OA
HETATM    7 CL7  UNL     1     -34.165   5.254   6.583  1.00 20.00    -0.012 Cl
ENDBRANCH   4   5
ENDBRANCH   3   4
TORSDOF 2
ENDMDL
