MODEL 1
REMARK VINA RESULT:      -4.5      0.000      0.000
REMARK  2 active torsions:
REMARK  status: ('A' for Active; 'I' for Inactive)
REMARK    1  A    between atoms: C2_2  and  C3_3 
REMARK    2  A    between atoms: C4_4  and  C5_5 
ROOT
HETATM    1  C3  UNL     1     -33.882   7.304   5.008  1.00 20.00    -0.001 C 
HETATM    2  C4  UNL     1     -32.740   7.944   4.714  1.00 20.00    -0.000 C 
ENDROOT
BRANCH   2   3
HETATM    3  C5  UNL     1     -32.483   8.548   3.426  1.00 20.00    -0.004 C 
HETATM    4  C6  UNL     1     -32.338   7.836   2.298  1.00 20.00    -0.031 C 
HETATM    5  C7  UNL     1     -32.072   8.447   0.961  1.00 20.00     0.036 C 
ENDBRANCH   2   3
BRANCH   1   6
HETATM    6  C2  UNL     1     -34.137   6.701   6.296  1.00 20.00    -0.010 C 
HETATM    7  C1  UNL     1     -34.581   5.448   6.446  1.00 20.00     0.011 C 
ENDBRANCH   1   6
TORSDOF 2
ENDMDL
MODEL 2
REMARK VINA RESULT:      -4.3      0.501      4.563
REMARK  2 active torsions:
REMARK  status: ('A' for Active; 'I' for Inactive)
REMARK    1  A    between atoms: C2_2  and  C3_3 
REMARK    2  A    between atoms: C4_4  and  C5_5 
ROOT
HETATM    1  C3  UNL     1     -32.391   7.711   2.569  1.00 20.00    -0.001 C 
HETATM    2  C4  UNL     1     -32.552   8.451   3.676  1.00 20.00    -0.000 C 
ENDROOT
BRANCH   2   3
HETATM    3  C5  UNL     1     -32.940   7.888   4.951  1.00 20.00    -0.004 C 
HETATM    4  C6  UNL     1     -33.917   6.979   5.084  1.00 20.00    -0.031 C 
HETATM    5  C7  UNL     1     -34.327   6.391   6.395  1.00 20.00     0.036 C 
ENDBRANCH   2   3
BRANCH   1   6
HETATM    6  C2  UNL     1     -32.004   8.274   1.295  1.00 20.00    -0.010 C 
HETATM    7  C1  UNL     1     -32.695   9.237   0.677  1.00 20.00     0.011 C 
ENDBRANCH   1   6
TORSDOF 2
ENDMDL
MODEL 3
REMARK VINA RESULT:      -3.7     11.396     12.034
REMARK  2 active torsions:
REMARK  status: ('A' for Active; 'I' for Inactive)
REMARK    1  A    between atoms: C2_2  and  C3_3 
REMARK    2  A    between atoms: C4_4  and  C5_5 
ROOT
HETATM    1  C3  UNL     1     -33.022  18.043  -0.488  1.00 20.00    -0.001 C 
HETATM    2  C4  UNL     1     -31.737  18.404  -0.618  1.00 20.00    -0.000 C 
ENDROOT
BRANCH   2   3
HETATM    3  C5  UNL     1     -30.947  18.914   0.481  1.00 20.00    -0.004 C 
HETATM    4  C6  UNL     1     -30.761  18.241   1.626  1.00 20.00    -0.031 C 
HETATM    5  C7  UNL     1     -29.948  18.757   2.768  1.00 20.00     0.036 C 
ENDBRANCH   2   3
BRANCH   1   6
HETATM    6  C2  UNL     1     -33.811  17.533  -1.586  1.00 20.00    -0.010 C 
HETATM    7  C1  UNL     1     -33.362  16.616  -2.450  1.00 20.00     0.011 C 
ENDBRANCH   1   6
TORSDOF 2
ENDMDL
MODEL 4
REMARK VINA RESULT:      -3.7     11.557     11.827
REMARK  2 active torsions:
REMARK  status: ('A' for Active; 'I' for Inactive)
REMARK    1  A    between atoms: C2_2  and  C3_3 
REMARK    2  A    between atoms: C4_4  and  C5_5 
ROOT
HETATM    1  C3  UNL     1     -31.740  18.310  -0.591  1.00 20.00    -0.001 C 
HETATM    2  C4  UNL     1     -33.053  18.039  -0.581  1.00 20.00    -0.000 C 
ENDROOT
BRANCH   2   3
HETATM    3  C5  UNL     1     -33.710  17.283  -1.624  1.00 20.00    -0.004 C 
HETATM    4  C6  UNL     1     -33.046  16.678  -2.620  1.00 20.00    -0.031 C 
HETATM    5  C7  UNL     1     -33.712  15.895  -3.704  1.00 20.00     0.036 C 
ENDBRANCH   2   3
BRANCH   1   6
HETATM    6  C2  UNL     1     -31.084  19.066   0.453  1.00 20.00    -0.010 C 
HETATM    7  C1  UNL     1     -30.695  18.531   1.614  1.00 20.00     0.011 C 
ENDBRANCH   1   6
TORSDOF 2
ENDMDL
MODEL 5
REMARK VINA RESULT:      -3.6     11.463     12.125
REMARK  2 active torsions:
REMARK  status: ('A' for Active; 'I' for Inactive)
REMARK    1  A    between atoms: C2_2  and  C3_3 
REMARK    2  A    between atoms: C4_4  and  C5_5 
ROOT
HETATM    1  C3  UNL     1     -33.311  16.942  -1.995  1.00 20.00    -0.001 C 
HETATM    2  C4  UNL     1     -32.638  18.059  -1.679  1.00 20.00    -0.000 C 
ENDROOT
BRANCH   2   3
HETATM    3  C5  UNL     1     -32.300  18.417  -0.320  1.00 20.00    -0.004 C 
HETATM    4  C6  UNL     1     -31.037  18.529   0.117  1.00 20.00    -0.031 C 
HETATM    5  C7  UNL     1     -30.675  18.898   1.518  1.00 20.00     0.036 C 
ENDBRANCH   2   3
BRANCH   1   6
HETATM    6  C2  UNL     1     -33.648  16.584  -3.354  1.00 20.00    -0.010 C 
HETATM    7  C1  UNL     1     -33.280  15.433  -3.925  1.00 20.00     0.011 C 
ENDBRANCH   1   6
TORSDOF 2
ENDMDL
MODEL 6
REMARK VINA RESULT:      -3.6     11.521     11.897
REMARK  2 active torsions:
REMARK  status: ('A' for Active; 'I' for Inactive)
REMARK    1  A    between atoms: C2_2  and  C3_3 
REMARK    2  A    between atoms: C4_4  and  C5_5 
ROOT
HETATM    1  C3  UNL     1     -30.804  18.304   1.810  1.00 20.00    -0.001 C 
HETATM    2  C4  UNL     1     -30.968  18.993   0.671  1.00 20.00    -0.000 C 
ENDROOT
BRANCH   2   3
HETATM    3  C5  UNL     1     -31.560  18.421  -0.518  1.00 20.00    -0.004 C 
HETATM    4  C6  UNL     1     -32.846  18.047  -0.589  1.00 20.00    -0.031 C 
HETATM    5  C7  UNL     1     -33.470  17.455  -1.811  1.00 20.00     0.036 C 
ENDBRANCH   2   3
BRANCH   1   6
HETATM    6  C2  UNL     1     -30.212  18.876   2.998  1.00 20.00    -0.010 C 
HETATM    7  C1  UNL     1     -28.938  18.678   3.352  1.00 20.00     0.011 C 
ENDBRANCH   1   6
TORSDOF 2
ENDMDL
MODEL 7
REMARK VINA RESULT:      -3.6     11.484     11.745
REMARK  2 active torsions:
REMARK  status: ('A' for Active; 'I' for Inactive)
REMARK    1  A    between atoms: C2_2  and  C3_3 
REMARK    2  A    between atoms: C4_4  and  C5_5 
ROOT
HETATM    1  C3  UNL     1     -33.430  17.687  -0.954  1.00 20.00    -0.001 C 
HETATM    2  C4  UNL     1     -32.931  17.257  -2.122  1.00 20.00    -0.000 C 
ENDROOT
BRANCH   2   3
HETATM    3  C5  UNL     1     -33.700  16.482  -3.071  1.00 20.00    -0.004 C 
HETATM    4  C6  UNL     1     -33.169  15.509  -3.826  1.00 20.00    -0.031 C 
HETATM    5  C7  UNL     1     -33.952  14.702  -4.808  1.00 20.00     0.036 C 
ENDBRANCH   2   3
BRANCH   1   6
HETATM    6  C2  UNL     1     -32.660  18.461  -0.006  1.00 20.00    -0.010 C 
HETATM    7  C1  UNL     1     -31.347  18.677  -0.129  1.00 20.00     0.011 C 
ENDBRANCH   1   6
TORSDOF 2
ENDMDL
MODEL 8
REMARK VINA RESULT:      -3.5     11.619     12.213
REMARK  2 active torsions:
REMARK  status: ('A' for Active; 'I' for Inactive)
REMARK    1  A    between atoms: C2_2  and  C3_3 
REMARK    2  A    between atoms: C4_4  and  C5_5 
ROOT
HETATM    1  C3  UNL     1     -27.900  18.561   3.786  1.00 20.00    -0.001 C 
HETATM    2  C4  UNL     1     -29.222  18.734   3.643  1.00 20.00    -0.000 C 
ENDROOT
BRANCH   2   3
HETATM    3  C5  UNL     1     -29.838  19.102   2.387  1.00 20.00    -0.004 C 
HETATM    4  C6  UNL     1     -30.627  18.273   1.687  1.00 20.00    -0.031 C 
HETATM    5  C7  UNL     1     -31.268  18.640   0.389  1.00 20.00     0.036 C 
ENDBRANCH   2   3
BRANCH   1   6
HETATM    6  C2  UNL     1     -27.285  18.195   5.041  1.00 20.00    -0.010 C 
HETATM    7  C1  UNL     1     -27.407  18.918   6.159  1.00 20.00     0.011 C 
ENDBRANCH   1   6
TORSDOF 2
ENDMDL
MODEL 9
REMARK VINA RESULT:      -3.4     11.377     12.117
REMARK  2 active torsions:
REMARK  status: ('A' for Active; 'I' for Inactive)
REMARK    1  A    between atoms: C2_2  and  C3_3 
REMARK    2  A    between atoms: C4_4  and  C5_5 
ROOT
HETATM    1  C3  UNL     1     -33.594  15.279  -3.826  1.00 20.00    -0.001 C 
HETATM    2  C4  UNL     1     -33.484  16.559  -3.442  1.00 20.00    -0.000 C 
ENDROOT
BRANCH   2   3
HETATM    3  C5  UNL     1     -33.156  16.951  -2.089  1.00 20.00    -0.004 C 
HETATM    4  C6  UNL     1     -33.953  17.724  -1.336  1.00 20.00    -0.031 C 
HETATM    5  C7  UNL     1     -33.626  18.135   0.063  1.00 20.00     0.036 C 
ENDBRANCH   2   3
BRANCH   1   6
HETATM    6  C2  UNL     1     -33.921  14.888  -5.178  1.00 20.00    -0.010 C 
HETATM    7  C1  UNL     1     -35.174  14.807  -5.637  1.00 20.00     0.011 C 
ENDBRANCH   1   6
TORSDOF 2
ENDMDL
