MODEL 1
REMARK VINA RESULT:      -3.7      0.000      0.000
REMARK  2 active torsions:
REMARK  status: ('A' for Active; 'I' for Inactive)
REMARK    1  A    between atoms: C1_1  and  C3_3 
REMARK    2  A    between atoms: C2_2  and  C3_3 
ROOT
HETATM    1  C3  UNL     1     -34.470   6.332   4.742  1.00 20.00     0.139 C 
HETATM    2 CL6  UNL     1     -33.493   7.823   4.584  1.00 20.00    -0.120 Cl
ENDROOT
BRANCH   1   3
HETATM    3  C1  UNL     1     -33.903   5.252   3.835  1.00 20.00     0.244 C 
HETATM    4  F4  UNL     1     -33.997   4.041   4.444  1.00 20.00    -0.254 F 
ENDBRANCH   1   3
BRANCH   1   5
HETATM    5  C2  UNL     1     -34.492   5.895   6.199  1.00 20.00     0.244 C 
HETATM    6  F5  UNL     1     -34.575   6.996   6.994  1.00 20.00    -0.254 F 
ENDBRANCH   1   5
TORSDOF 2
ENDMDL
MODEL 2
REMARK VINA RESULT:      -3.7      1.687      3.124
REMARK  2 active torsions:
REMARK  status: ('A' for Active; 'I' for Inactive)
REMARK    1  A    between atoms: C1_1  and  C3_3 
REMARK    2  A    between atoms: C2_2  and  C3_3 
ROOT
HETATM    1  C3  UNL     1     -34.378   6.447   4.840  1.00 20.00     0.139 C 
HETATM    2 CL6  UNL     1     -34.553   5.775   6.490  1.00 20.00    -0.120 Cl
ENDROOT
BRANCH   1   3
HETATM    3  C1  UNL     1     -33.366   7.581   4.856  1.00 20.00     0.244 C 
HETATM    4  F4  UNL     1     -33.864   8.636   5.555  1.00 20.00    -0.254 F 
ENDBRANCH   1   3
BRANCH   1   5
HETATM    5  C2  UNL     1     -33.971   5.338   3.883  1.00 20.00     0.244 C 
HETATM    6  F5  UNL     1     -34.061   4.140   4.524  1.00 20.00    -0.254 F 
ENDBRANCH   1   5
TORSDOF 2
ENDMDL
MODEL 3
REMARK VINA RESULT:      -3.6      2.100      2.809
REMARK  2 active torsions:
REMARK  status: ('A' for Active; 'I' for Inactive)
REMARK    1  A    between atoms: C1_1  and  C3_3 
REMARK    2  A    between atoms: C2_2  and  C3_3 
ROOT
HETATM    1  C3  UNL     1     -33.960   7.119   4.822  1.00 20.00     0.139 C 
HETATM    2 CL6  UNL     1     -34.111   5.514   4.044  1.00 20.00    -0.120 Cl
ENDROOT
BRANCH   1   3
HETATM    3  C1  UNL     1     -33.933   6.953   6.333  1.00 20.00     0.244 C 
HETATM    4  F4  UNL     1     -34.787   5.963   6.704  1.00 20.00    -0.254 F 
ENDBRANCH   1   3
BRANCH   1   5
HETATM    5  C2  UNL     1     -32.709   7.814   4.306  1.00 20.00     0.244 C 
HETATM    6  F5  UNL     1     -32.340   8.782   5.189  1.00 20.00    -0.254 F 
ENDBRANCH   1   5
TORSDOF 2
ENDMDL
MODEL 4
REMARK VINA RESULT:      -3.6      2.063      2.848
REMARK  2 active torsions:
REMARK  status: ('A' for Active; 'I' for Inactive)
REMARK    1  A    between atoms: C1_1  and  C3_3 
REMARK    2  A    between atoms: C2_2  and  C3_3 
ROOT
HETATM    1  C3  UNL     1     -34.302   6.547   4.822  1.00 20.00     0.139 C 
HETATM    2 CL6  UNL     1     -34.479   5.949   6.500  1.00 20.00    -0.120 Cl
ENDROOT
BRANCH   1   3
HETATM    3  C1  UNL     1     -33.222   7.615   4.772  1.00 20.00     0.244 C 
HETATM    4  F4  UNL     1     -32.333   7.328   3.785  1.00 20.00    -0.254 F 
ENDBRANCH   1   3
BRANCH   1   5
HETATM    5  C2  UNL     1     -33.986   5.379   3.901  1.00 20.00     0.244 C 
HETATM    6  F5  UNL     1     -34.099   4.216   4.599  1.00 20.00    -0.254 F 
ENDBRANCH   1   5
TORSDOF 2
ENDMDL
MODEL 5
REMARK VINA RESULT:      -3.5      1.517      1.535
REMARK  2 active torsions:
REMARK  status: ('A' for Active; 'I' for Inactive)
REMARK    1  A    between atoms: C1_1  and  C3_3 
REMARK    2  A    between atoms: C2_2  and  C3_3 
ROOT
HETATM    1  C3  UNL     1     -34.236   6.413   4.647  1.00 20.00     0.139 C 
HETATM    2 CL6  UNL     1     -32.977   6.306   3.380  1.00 20.00    -0.120 Cl
ENDROOT
BRANCH   1   3
HETATM    3  C1  UNL     1     -34.631   5.014   5.092  1.00 20.00     0.244 C 
HETATM    4  F4  UNL     1     -34.001   4.088   4.321  1.00 20.00    -0.254 F 
ENDBRANCH   1   3
BRANCH   1   5
HETATM    5  C2  UNL     1     -33.717   7.250   5.806  1.00 20.00     0.244 C 
HETATM    6  F5  UNL     1     -33.836   8.569   5.492  1.00 20.00    -0.254 F 
ENDBRANCH   1   5
TORSDOF 2
ENDMDL
MODEL 6
REMARK VINA RESULT:      -3.4      1.904      2.596
REMARK  2 active torsions:
REMARK  status: ('A' for Active; 'I' for Inactive)
REMARK    1  A    between atoms: C1_1  and  C3_3 
REMARK    2  A    between atoms: C2_2  and  C3_3 
ROOT
HETATM    1  C3  UNL     1     -33.607   6.257   4.503  1.00 20.00     0.139 C 
HETATM    2 CL6  UNL     1     -33.124   5.617   2.903  1.00 20.00    -0.120 Cl
ENDROOT
BRANCH   1   3
HETATM    3  C1  UNL     1     -33.468   7.770   4.511  1.00 20.00     0.244 C 
HETATM    4  F4  UNL     1     -33.918   8.271   5.692  1.00 20.00    -0.254 F 
ENDBRANCH   1   3
BRANCH   1   5
HETATM    5  C2  UNL     1     -35.030   5.818   4.814  1.00 20.00     0.244 C 
HETATM    6  F5  UNL     1     -35.133   5.543   6.143  1.00 20.00    -0.254 F 
ENDBRANCH   1   5
TORSDOF 2
ENDMDL
MODEL 7
REMARK VINA RESULT:      -3.3      0.443      2.789
REMARK  2 active torsions:
REMARK  status: ('A' for Active; 'I' for Inactive)
REMARK    1  A    between atoms: C1_1  and  C3_3 
REMARK    2  A    between atoms: C2_2  and  C3_3 
ROOT
HETATM    1  C3  UNL     1     -33.656   6.342   5.076  1.00 20.00     0.139 C 
HETATM    2 CL6  UNL     1     -33.733   8.056   4.567  1.00 20.00    -0.120 Cl
ENDROOT
BRANCH   1   3
HETATM    3  C1  UNL     1     -34.507   6.140   6.319  1.00 20.00     0.244 C 
HETATM    4  F4  UNL     1     -34.530   7.283   7.054  1.00 20.00    -0.254 F 
ENDBRANCH   1   3
BRANCH   1   5
HETATM    5  C2  UNL     1     -34.109   5.453   3.929  1.00 20.00     0.244 C 
HETATM    6  F5  UNL     1     -34.105   4.155   4.340  1.00 20.00    -0.254 F 
ENDBRANCH   1   5
TORSDOF 2
ENDMDL
MODEL 8
REMARK VINA RESULT:      -3.3      1.784      2.010
REMARK  2 active torsions:
REMARK  status: ('A' for Active; 'I' for Inactive)
REMARK    1  A    between atoms: C1_1  and  C3_3 
REMARK    2  A    between atoms: C2_2  and  C3_3 
ROOT
HETATM    1  C3  UNL     1     -33.749   6.487   5.171  1.00 20.00     0.139 C 
HETATM    2 CL6  UNL     1     -34.395   6.922   6.783  1.00 20.00    -0.120 Cl
ENDROOT
BRANCH   1   3
HETATM    3  C1  UNL     1     -34.751   5.610   4.440  1.00 20.00     0.244 C 
HETATM    4  F4  UNL     1     -34.299   4.328   4.397  1.00 20.00    -0.254 F 
ENDBRANCH   1   3
BRANCH   1   5
HETATM    5  C2  UNL     1     -33.433   7.756   4.395  1.00 20.00     0.244 C 
HETATM    6  F5  UNL     1     -33.307   8.793   5.267  1.00 20.00    -0.254 F 
ENDBRANCH   1   5
TORSDOF 2
ENDMDL
MODEL 9
REMARK VINA RESULT:      -3.2      2.157      2.224
REMARK  2 active torsions:
REMARK  status: ('A' for Active; 'I' for Inactive)
REMARK    1  A    between atoms: C1_1  and  C3_3 
REMARK    2  A    between atoms: C2_2  and  C3_3 
ROOT
HETATM    1  C3  UNL     1     -33.266   7.795   4.127  1.00 20.00     0.139 C 
HETATM    2 CL6  UNL     1     -32.369   9.014   5.081  1.00 20.00    -0.120 Cl
ENDROOT
BRANCH   1   3
HETATM    3  C1  UNL     1     -32.326   7.131   3.134  1.00 20.00     0.244 C 
HETATM    4  F4  UNL     1     -32.738   5.859   2.887  1.00 20.00    -0.254 F 
ENDBRANCH   1   3
BRANCH   1   5
HETATM    5  C2  UNL     1     -33.900   6.783   5.070  1.00 20.00     0.244 C 
HETATM    6  F5  UNL     1     -35.101   6.392   4.564  1.00 20.00    -0.254 F 
ENDBRANCH   1   5
TORSDOF 2
ENDMDL
