MODEL 1
REMARK VINA RESULT:      -5.3      0.000      0.000
REMARK  2 active torsions:
REMARK  status: ('A' for Active; 'I' for Inactive)
REMARK    1  A    between atoms: C1_1  and  C4_4 
REMARK    2  A    between atoms: C3_3  and  C4_4 
ROOT
HETATM    1  C4  UNL     1     -34.533   6.220   4.743  1.00 20.00     0.359 C 
HETATM    2  F8  UNL     1     -34.098   7.435   4.313  1.00 20.00    -0.191 F 
HETATM    3  F9  UNL     1     -35.876   6.200   4.529  1.00 20.00    -0.191 F 
ENDROOT
BRANCH   1   4
HETATM    4  C1  UNL     1     -33.846   5.107   3.984  1.00 20.00     0.200 C 
HETATM    5  C2  UNL     1     -32.995   5.496   2.804  1.00 20.00     0.098 C 
HETATM    6  O5  UNL     1     -34.005   3.928   4.297  1.00 20.00    -0.292 OA
ENDBRANCH   1   4
BRANCH   1   7
HETATM    7  C3  UNL     1     -34.274   6.112   6.227  1.00 20.00     0.432 C 
HETATM    8  F6  UNL     1     -34.460   7.318   6.818  1.00 20.00    -0.207 F 
HETATM    9  F7  UNL     1     -35.181   5.265   6.778  1.00 20.00    -0.207 F 
ENDBRANCH   1   7
TORSDOF 2
ENDMDL
MODEL 2
REMARK VINA RESULT:      -5.1      1.756      1.944
REMARK  2 active torsions:
REMARK  status: ('A' for Active; 'I' for Inactive)
REMARK    1  A    between atoms: C1_1  and  C4_4 
REMARK    2  A    between atoms: C3_3  and  C4_4 
ROOT
HETATM    1  C4  UNL     1     -34.135   6.092   4.763  1.00 20.00     0.359 C 
HETATM    2  F8  UNL     1     -35.400   6.530   4.522  1.00 20.00    -0.191 F 
HETATM    3  F9  UNL     1     -34.108   4.786   4.386  1.00 20.00    -0.191 F 
ENDROOT
BRANCH   1   4
HETATM    4  C1  UNL     1     -33.130   6.904   3.979  1.00 20.00     0.200 C 
HETATM    5  C2  UNL     1     -32.805   8.284   4.486  1.00 20.00     0.098 C 
HETATM    6  O5  UNL     1     -32.623   6.467   2.946  1.00 20.00    -0.292 OA
ENDBRANCH   1   4
BRANCH   1   7
HETATM    7  C3  UNL     1     -33.870   6.177   6.248  1.00 20.00     0.432 C 
HETATM    8  F6  UNL     1     -34.737   7.044   6.824  1.00 20.00    -0.207 F 
HETATM    9  F7  UNL     1     -34.100   4.964   6.812  1.00 20.00    -0.207 F 
ENDBRANCH   1   7
TORSDOF 2
ENDMDL
MODEL 3
REMARK VINA RESULT:      -5.0      1.710      2.216
REMARK  2 active torsions:
REMARK  status: ('A' for Active; 'I' for Inactive)
REMARK    1  A    between atoms: C1_1  and  C4_4 
REMARK    2  A    between atoms: C3_3  and  C4_4 
ROOT
HETATM    1  C4  UNL     1     -33.768   6.962   4.766  1.00 20.00     0.359 C 
HETATM    2  F8  UNL     1     -33.056   7.167   5.906  1.00 20.00    -0.191 F 
HETATM    3  F9  UNL     1     -34.510   8.085   4.575  1.00 20.00    -0.191 F 
ENDROOT
BRANCH   1   4
HETATM    4  C1  UNL     1     -32.844   6.718   3.595  1.00 20.00     0.200 C 
HETATM    5  C2  UNL     1     -32.998   5.418   2.849  1.00 20.00     0.098 C 
HETATM    6  O5  UNL     1     -31.977   7.534   3.285  1.00 20.00    -0.292 OA
ENDBRANCH   1   4
BRANCH   1   7
HETATM    7  C3  UNL     1     -34.700   5.793   4.982  1.00 20.00     0.432 C 
HETATM    8  F6  UNL     1     -34.966   5.652   6.303  1.00 20.00    -0.207 F 
HETATM    9  F7  UNL     1     -35.885   6.049   4.371  1.00 20.00    -0.207 F 
ENDBRANCH   1   7
TORSDOF 2
ENDMDL
MODEL 4
REMARK VINA RESULT:      -4.9      2.251      2.855
REMARK  2 active torsions:
REMARK  status: ('A' for Active; 'I' for Inactive)
REMARK    1  A    between atoms: C1_1  and  C4_4 
REMARK    2  A    between atoms: C3_3  and  C4_4 
ROOT
HETATM    1  C4  UNL     1     -33.654   7.157   5.628  1.00 20.00     0.359 C 
HETATM    2  F8  UNL     1     -32.941   6.725   6.702  1.00 20.00    -0.191 F 
HETATM    3  F9  UNL     1     -34.620   7.979   6.119  1.00 20.00    -0.191 F 
ENDROOT
BRANCH   1   4
HETATM    4  C1  UNL     1     -32.761   7.892   4.655  1.00 20.00     0.200 C 
HETATM    5  C2  UNL     1     -32.440   7.205   3.353  1.00 20.00     0.098 C 
HETATM    6  O5  UNL     1     -32.287   8.994   4.930  1.00 20.00    -0.292 OA
ENDBRANCH   1   4
BRANCH   1   7
HETATM    7  C3  UNL     1     -34.313   5.966   4.975  1.00 20.00     0.432 C 
HETATM    8  F6  UNL     1     -34.478   4.973   5.883  1.00 20.00    -0.207 F 
HETATM    9  F7  UNL     1     -35.554   6.318   4.554  1.00 20.00    -0.207 F 
ENDBRANCH   1   7
TORSDOF 2
ENDMDL
MODEL 5
REMARK VINA RESULT:      -4.9      2.137      3.114
REMARK  2 active torsions:
REMARK  status: ('A' for Active; 'I' for Inactive)
REMARK    1  A    between atoms: C1_1  and  C4_4 
REMARK    2  A    between atoms: C3_3  and  C4_4 
ROOT
HETATM    1  C4  UNL     1     -34.703   5.773   5.004  1.00 20.00     0.359 C 
HETATM    2  F8  UNL     1     -35.094   4.927   5.993  1.00 20.00    -0.191 F 
HETATM    3  F9  UNL     1     -35.812   6.024   4.258  1.00 20.00    -0.191 F 
ENDROOT
BRANCH   1   4
HETATM    4  C1  UNL     1     -34.140   7.050   5.584  1.00 20.00     0.200 C 
HETATM    5  C2  UNL     1     -33.421   7.982   4.644  1.00 20.00     0.098 C 
HETATM    6  O5  UNL     1     -34.236   7.303   6.785  1.00 20.00    -0.292 OA
ENDBRANCH   1   4
BRANCH   1   7
HETATM    7  C3  UNL     1     -33.684   5.068   4.140  1.00 20.00     0.432 C 
HETATM    8  F6  UNL     1     -33.856   3.726   4.225  1.00 20.00    -0.207 F 
HETATM    9  F7  UNL     1     -33.890   5.405   2.841  1.00 20.00    -0.207 F 
ENDBRANCH   1   7
TORSDOF 2
ENDMDL
MODEL 6
REMARK VINA RESULT:      -4.9      2.051      3.107
REMARK  2 active torsions:
REMARK  status: ('A' for Active; 'I' for Inactive)
REMARK    1  A    between atoms: C1_1  and  C4_4 
REMARK    2  A    between atoms: C3_3  and  C4_4 
ROOT
HETATM    1  C4  UNL     1     -33.630   7.297   4.761  1.00 20.00     0.359 C 
HETATM    2  F8  UNL     1     -34.270   8.491   4.648  1.00 20.00    -0.191 F 
HETATM    3  F9  UNL     1     -32.731   7.443   5.772  1.00 20.00    -0.191 F 
ENDROOT
BRANCH   1   4
HETATM    4  C1  UNL     1     -34.613   6.190   5.066  1.00 20.00     0.200 C 
HETATM    5  C2  UNL     1     -34.369   5.368   6.305  1.00 20.00     0.098 C 
HETATM    6  O5  UNL     1     -35.556   5.948   4.313  1.00 20.00    -0.292 OA
ENDBRANCH   1   4
BRANCH   1   7
HETATM    7  C3  UNL     1     -32.880   7.028   3.478  1.00 20.00     0.432 C 
HETATM    8  F6  UNL     1     -31.614   7.503   3.573  1.00 20.00    -0.207 F 
HETATM    9  F7  UNL     1     -32.780   5.687   3.293  1.00 20.00    -0.207 F 
ENDBRANCH   1   7
TORSDOF 2
ENDMDL
MODEL 7
REMARK VINA RESULT:      -4.8      1.942      3.285
REMARK  2 active torsions:
REMARK  status: ('A' for Active; 'I' for Inactive)
REMARK    1  A    between atoms: C1_1  and  C4_4 
REMARK    2  A    between atoms: C3_3  and  C4_4 
ROOT
HETATM    1  C4  UNL     1     -33.418   7.473   4.705  1.00 20.00     0.359 C 
HETATM    2  F8  UNL     1     -34.389   8.421   4.613  1.00 20.00    -0.191 F 
HETATM    3  F9  UNL     1     -32.800   7.678   5.899  1.00 20.00    -0.191 F 
ENDROOT
BRANCH   1   4
HETATM    4  C1  UNL     1     -34.015   6.086   4.635  1.00 20.00     0.200 C 
HETATM    5  C2  UNL     1     -34.745   5.583   5.853  1.00 20.00     0.098 C 
HETATM    6  O5  UNL     1     -33.882   5.383   3.634  1.00 20.00    -0.292 OA
ENDBRANCH   1   4
BRANCH   1   7
HETATM    7  C3  UNL     1     -32.419   7.697   3.595  1.00 20.00     0.432 C 
HETATM    8  F6  UNL     1     -32.734   8.823   2.909  1.00 20.00    -0.207 F 
HETATM    9  F7  UNL     1     -31.190   7.901   4.135  1.00 20.00    -0.207 F 
ENDBRANCH   1   7
TORSDOF 2
ENDMDL
MODEL 8
REMARK VINA RESULT:      -4.6      1.539      2.546
REMARK  2 active torsions:
REMARK  status: ('A' for Active; 'I' for Inactive)
REMARK    1  A    between atoms: C1_1  and  C4_4 
REMARK    2  A    between atoms: C3_3  and  C4_4 
ROOT
HETATM    1  C4  UNL     1     -34.181   6.078   6.178  1.00 20.00     0.359 C 
HETATM    2  F8  UNL     1     -35.203   6.517   6.961  1.00 20.00    -0.191 F 
HETATM    3  F9  UNL     1     -33.446   5.236   6.951  1.00 20.00    -0.191 F 
ENDROOT
BRANCH   1   4
HETATM    4  C1  UNL     1     -34.713   5.365   4.956  1.00 20.00     0.200 C 
HETATM    5  C2  UNL     1     -35.831   6.031   4.197  1.00 20.00     0.098 C 
HETATM    6  O5  UNL     1     -34.273   4.268   4.614  1.00 20.00    -0.292 OA
ENDBRANCH   1   4
BRANCH   1   7
HETATM    7  C3  UNL     1     -33.325   7.261   5.794  1.00 20.00     0.432 C 
HETATM    8  F6  UNL     1     -32.901   7.130   4.514  1.00 20.00    -0.207 F 
HETATM    9  F7  UNL     1     -34.076   8.390   5.842  1.00 20.00    -0.207 F 
ENDBRANCH   1   7
TORSDOF 2
ENDMDL
MODEL 9
REMARK VINA RESULT:      -4.5      2.308      3.315
REMARK  2 active torsions:
REMARK  status: ('A' for Active; 'I' for Inactive)
REMARK    1  A    between atoms: C1_1  and  C4_4 
REMARK    2  A    between atoms: C3_3  and  C4_4 
ROOT
HETATM    1  C4  UNL     1     -33.842   7.967   5.021  1.00 20.00     0.359 C 
HETATM    2  F8  UNL     1     -34.621   8.296   3.956  1.00 20.00    -0.191 F 
HETATM    3  F9  UNL     1     -34.088   8.906   5.974  1.00 20.00    -0.191 F 
ENDROOT
BRANCH   1   4
HETATM    4  C1  UNL     1     -34.180   6.583   5.524  1.00 20.00     0.200 C 
HETATM    5  C2  UNL     1     -35.087   5.737   4.669  1.00 20.00     0.098 C 
HETATM    6  O5  UNL     1     -33.758   6.176   6.606  1.00 20.00    -0.292 OA
ENDBRANCH   1   4
BRANCH   1   7
HETATM    7  C3  UNL     1     -32.393   8.062   4.606  1.00 20.00     0.432 C 
HETATM    8  F6  UNL     1     -32.168   7.273   3.527  1.00 20.00    -0.207 F 
HETATM    9  F7  UNL     1     -32.121   9.335   4.221  1.00 20.00    -0.207 F 
ENDBRANCH   1   7
TORSDOF 2
ENDMDL
