MODEL 1
REMARK VINA RESULT:      -4.1      0.000      0.000
REMARK  1 active torsions:
REMARK  status: ('A' for Active; 'I' for Inactive)
REMARK    1  A    between atoms: C1_1  and  C4_4 
ROOT
HETATM    1  C1  UNL     1     -33.721   7.236   5.745  1.00 20.00    -0.080 C 
HETATM    2  C2  UNL     1     -33.063   8.054   5.162  1.00 20.00    -0.106 C 
HETATM    3  C5  UNL     1     -32.263   9.049   4.451  1.00 20.00     0.112 C 
ENDROOT
BRANCH   1   4
HETATM    4  C4  UNL     1     -34.494   6.264   6.434  1.00 20.00     0.054 C 
HETATM    5  C3  UNL     1     -34.650   5.023   5.963  1.00 20.00     0.020 C 
ENDBRANCH   1   4
TORSDOF 1
ENDMDL
MODEL 2
REMARK VINA RESULT:      -3.9      0.750      3.528
REMARK  1 active torsions:
REMARK  status: ('A' for Active; 'I' for Inactive)
REMARK    1  A    between atoms: C1_1  and  C4_4 
ROOT
HETATM    1  C1  UNL     1     -33.397   7.521   5.427  1.00 20.00    -0.080 C 
HETATM    2  C2  UNL     1     -34.010   6.605   5.902  1.00 20.00    -0.106 C 
HETATM    3  C5  UNL     1     -34.757   5.489   6.482  1.00 20.00     0.112 C 
ENDROOT
BRANCH   1   4
HETATM    4  C4  UNL     1     -32.669   8.600   4.860  1.00 20.00     0.054 C 
HETATM    5  C3  UNL     1     -32.444   8.686   3.545  1.00 20.00     0.020 C 
ENDBRANCH   1   4
TORSDOF 1
ENDMDL
MODEL 3
REMARK VINA RESULT:      -3.5      1.390      1.492
REMARK  1 active torsions:
REMARK  status: ('A' for Active; 'I' for Inactive)
REMARK    1  A    between atoms: C1_1  and  C4_4 
ROOT
HETATM    1  C1  UNL     1     -33.246   7.195   4.769  1.00 20.00    -0.080 C 
HETATM    2  C2  UNL     1     -32.739   7.462   3.714  1.00 20.00    -0.106 C 
HETATM    3  C5  UNL     1     -32.120   7.788   2.430  1.00 20.00     0.112 C 
ENDROOT
BRANCH   1   4
HETATM    4  C4  UNL     1     -33.850   6.884   6.016  1.00 20.00     0.054 C 
HETATM    5  C3  UNL     1     -34.698   5.860   6.153  1.00 20.00     0.020 C 
ENDBRANCH   1   4
TORSDOF 1
ENDMDL
MODEL 4
REMARK VINA RESULT:      -3.5      2.328      2.874
REMARK  1 active torsions:
REMARK  status: ('A' for Active; 'I' for Inactive)
REMARK    1  A    between atoms: C1_1  and  C4_4 
ROOT
HETATM    1  C1  UNL     1     -34.168   5.402   4.548  1.00 20.00    -0.080 C 
HETATM    2  C2  UNL     1     -33.609   5.240   3.497  1.00 20.00    -0.106 C 
HETATM    3  C5  UNL     1     -32.928   5.043   2.218  1.00 20.00     0.112 C 
ENDROOT
BRANCH   1   4
HETATM    4  C4  UNL     1     -34.824   5.598   5.792  1.00 20.00     0.054 C 
HETATM    5  C3  UNL     1     -34.465   6.572   6.633  1.00 20.00     0.020 C 
ENDBRANCH   1   4
TORSDOF 1
ENDMDL
MODEL 5
REMARK VINA RESULT:      -3.1     12.336     12.492
REMARK  1 active torsions:
REMARK  status: ('A' for Active; 'I' for Inactive)
REMARK    1  A    between atoms: C1_1  and  C4_4 
ROOT
HETATM    1  C1  UNL     1     -33.376  16.360  -2.777  1.00 20.00    -0.080 C 
HETATM    2  C2  UNL     1     -33.529  17.048  -1.805  1.00 20.00    -0.106 C 
HETATM    3  C5  UNL     1     -33.715  17.886  -0.621  1.00 20.00     0.112 C 
ENDROOT
BRANCH   1   4
HETATM    4  C4  UNL     1     -33.202  15.544  -3.926  1.00 20.00     0.054 C 
HETATM    5  C3  UNL     1     -34.013  14.514  -4.190  1.00 20.00     0.020 C 
ENDBRANCH   1   4
TORSDOF 1
ENDMDL
MODEL 6
REMARK VINA RESULT:      -3.1      1.204      3.654
REMARK  1 active torsions:
REMARK  status: ('A' for Active; 'I' for Inactive)
REMARK    1  A    between atoms: C1_1  and  C4_4 
ROOT
HETATM    1  C1  UNL     1     -32.991   7.535   4.461  1.00 20.00    -0.080 C 
HETATM    2  C2  UNL     1     -33.631   7.156   5.403  1.00 20.00    -0.106 C 
HETATM    3  C5  UNL     1     -34.410   6.694   6.551  1.00 20.00     0.112 C 
ENDROOT
BRANCH   1   4
HETATM    4  C4  UNL     1     -32.239   7.981   3.342  1.00 20.00     0.054 C 
HETATM    5  C3  UNL     1     -32.666   8.971   2.553  1.00 20.00     0.020 C 
ENDBRANCH   1   4
TORSDOF 1
ENDMDL
MODEL 7
REMARK VINA RESULT:      -3.1      2.336      2.787
REMARK  1 active torsions:
REMARK  status: ('A' for Active; 'I' for Inactive)
REMARK    1  A    between atoms: C1_1  and  C4_4 
ROOT
HETATM    1  C1  UNL     1     -33.519   6.651   4.320  1.00 20.00    -0.080 C 
HETATM    2  C2  UNL     1     -33.244   5.926   3.403  1.00 20.00    -0.106 C 
HETATM    3  C5  UNL     1     -32.909   5.044   2.287  1.00 20.00     0.112 C 
ENDROOT
BRANCH   1   4
HETATM    4  C4  UNL     1     -33.838   7.508   5.407  1.00 20.00     0.054 C 
HETATM    5  C3  UNL     1     -34.225   7.029   6.593  1.00 20.00     0.020 C 
ENDBRANCH   1   4
TORSDOF 1
ENDMDL
MODEL 8
REMARK VINA RESULT:      -3.0     12.554     12.829
REMARK  1 active torsions:
REMARK  status: ('A' for Active; 'I' for Inactive)
REMARK    1  A    between atoms: C1_1  and  C4_4 
ROOT
HETATM    1  C1  UNL     1     -33.402  16.640  -2.455  1.00 20.00    -0.080 C 
HETATM    2  C2  UNL     1     -33.417  15.856  -3.365  1.00 20.00    -0.106 C 
HETATM    3  C5  UNL     1     -33.436  14.901  -4.472  1.00 20.00     0.112 C 
ENDROOT
BRANCH   1   4
HETATM    4  C4  UNL     1     -33.386  17.562  -1.376  1.00 20.00     0.054 C 
HETATM    5  C3  UNL     1     -32.274  18.212  -1.019  1.00 20.00     0.020 C 
ENDBRANCH   1   4
TORSDOF 1
ENDMDL
MODEL 9
REMARK VINA RESULT:      -3.0      2.144      3.833
REMARK  1 active torsions:
REMARK  status: ('A' for Active; 'I' for Inactive)
REMARK    1  A    between atoms: C1_1  and  C4_4 
ROOT
HETATM    1  C1  UNL     1     -33.591   5.913   3.973  1.00 20.00    -0.080 C 
HETATM    2  C2  UNL     1     -34.196   5.717   4.992  1.00 20.00    -0.106 C 
HETATM    3  C5  UNL     1     -34.932   5.480   6.232  1.00 20.00     0.112 C 
ENDROOT
BRANCH   1   4
HETATM    4  C4  UNL     1     -32.872   6.147   2.771  1.00 20.00     0.054 C 
HETATM    5  C3  UNL     1     -32.187   7.276   2.567  1.00 20.00     0.020 C 
ENDBRANCH   1   4
TORSDOF 1
ENDMDL
