MODEL 1
REMARK VINA RESULT:      -5.0      0.000      0.000
REMARK  4 active torsions:
REMARK  status: ('A' for Active; 'I' for Inactive)
REMARK    1  A    between atoms: C3_3  and  C6_6 
REMARK    2  A    between atoms: C5_5  and  C7_7 
REMARK    3  A    between atoms: C6_6  and  C8_8 
REMARK    4  A    between atoms: C7_7  and  C8_8 
ROOT
HETATM    1  C1  UNL     1     -32.549   6.212   2.709  1.00 20.00     0.059 C 
HETATM    2  C5  UNL     1     -32.198   7.630   2.861  1.00 20.00     0.124 C 
HETATM    3  N9  UNL     1     -32.828   5.092   2.588  1.00 20.00    -0.197 NA
ENDROOT
BRANCH   2   4
HETATM    4  C7  UNL     1     -32.213   8.076   4.323  1.00 20.00     0.014 C 
BRANCH   4   5
HETATM    5  C8  UNL     1     -33.632   8.289   4.865  1.00 20.00     0.005 C 
BRANCH   5   6
HETATM    6  C6  UNL     1     -33.957   7.395   6.069  1.00 20.00     0.033 C 
BRANCH   6   7
HETATM    7  C3  UNL     1     -34.571   6.060   5.716  1.00 20.00    -0.093 C 
HETATM    8  C2  UNL     1     -34.298   4.953   6.425  1.00 20.00     0.014 C 
HETATM    9  C4  UNL     1     -35.529   6.031   4.560  1.00 20.00     0.042 C 
ENDBRANCH   6   7
ENDBRANCH   5   6
ENDBRANCH   4   5
ENDBRANCH   2   4
TORSDOF 4
ENDMDL
MODEL 2
REMARK VINA RESULT:      -5.0      1.135      2.000
REMARK  4 active torsions:
REMARK  status: ('A' for Active; 'I' for Inactive)
REMARK    1  A    between atoms: C3_3  and  C6_6 
REMARK    2  A    between atoms: C5_5  and  C7_7 
REMARK    3  A    between atoms: C6_6  and  C8_8 
REMARK    4  A    between atoms: C7_7  and  C8_8 
ROOT
HETATM    1  C1  UNL     1     -32.322   7.693   3.569  1.00 20.00     0.059 C 
HETATM    2  C5  UNL     1     -32.448   8.625   4.698  1.00 20.00     0.124 C 
HETATM    3  N9  UNL     1     -32.222   6.958   2.677  1.00 20.00    -0.197 NA
ENDROOT
BRANCH   2   4
HETATM    4  C7  UNL     1     -33.646   8.294   5.589  1.00 20.00     0.014 C 
BRANCH   4   5
HETATM    5  C8  UNL     1     -33.433   7.024   6.421  1.00 20.00     0.005 C 
BRANCH   5   6
HETATM    6  C6  UNL     1     -34.616   6.048   6.344  1.00 20.00     0.033 C 
BRANCH   6   7
HETATM    7  C3  UNL     1     -34.870   5.475   4.969  1.00 20.00    -0.093 C 
HETATM    8  C2  UNL     1     -35.836   5.963   4.174  1.00 20.00     0.014 C 
HETATM    9  C4  UNL     1     -33.973   4.360   4.515  1.00 20.00     0.042 C 
ENDBRANCH   6   7
ENDBRANCH   5   6
ENDBRANCH   4   5
ENDBRANCH   2   4
TORSDOF 4
ENDMDL
MODEL 3
REMARK VINA RESULT:      -5.0      1.146      3.516
REMARK  4 active torsions:
REMARK  status: ('A' for Active; 'I' for Inactive)
REMARK    1  A    between atoms: C3_3  and  C6_6 
REMARK    2  A    between atoms: C5_5  and  C7_7 
REMARK    3  A    between atoms: C6_6  and  C8_8 
REMARK    4  A    between atoms: C7_7  and  C8_8 
ROOT
HETATM    1  C1  UNL     1     -34.478   5.003   5.245  1.00 20.00     0.059 C 
HETATM    2  C5  UNL     1     -34.772   5.986   6.297  1.00 20.00     0.124 C 
HETATM    3  N9  UNL     1     -34.246   4.226   4.415  1.00 20.00    -0.197 NA
ENDROOT
BRANCH   2   4
HETATM    4  C7  UNL     1     -33.678   7.048   6.417  1.00 20.00     0.014 C 
BRANCH   4   5
HETATM    5  C8  UNL     1     -33.747   8.100   5.304  1.00 20.00     0.005 C 
BRANCH   5   6
HETATM    6  C6  UNL     1     -32.409   8.299   4.579  1.00 20.00     0.033 C 
BRANCH   6   7
HETATM    7  C3  UNL     1     -32.429   7.942   3.111  1.00 20.00    -0.093 C 
HETATM    8  C2  UNL     1     -32.284   6.673   2.696  1.00 20.00     0.014 C 
HETATM    9  C4  UNL     1     -32.654   9.062   2.137  1.00 20.00     0.042 C 
ENDBRANCH   6   7
ENDBRANCH   5   6
ENDBRANCH   4   5
ENDBRANCH   2   4
TORSDOF 4
ENDMDL
MODEL 4
REMARK VINA RESULT:      -4.8      1.170      3.666
REMARK  4 active torsions:
REMARK  status: ('A' for Active; 'I' for Inactive)
REMARK    1  A    between atoms: C3_3  and  C6_6 
REMARK    2  A    between atoms: C5_5  and  C7_7 
REMARK    3  A    between atoms: C6_6  and  C8_8 
REMARK    4  A    between atoms: C7_7  and  C8_8 
ROOT
HETATM    1  C1  UNL     1     -34.535   5.157   5.467  1.00 20.00     0.059 C 
HETATM    2  C5  UNL     1     -34.643   6.255   6.438  1.00 20.00     0.124 C 
HETATM    3  N9  UNL     1     -34.450   4.290   4.701  1.00 20.00    -0.197 NA
ENDROOT
BRANCH   2   4
HETATM    4  C7  UNL     1     -33.552   7.308   6.244  1.00 20.00     0.014 C 
BRANCH   4   5
HETATM    5  C8  UNL     1     -33.635   8.004   4.879  1.00 20.00     0.005 C 
BRANCH   5   6
HETATM    6  C6  UNL     1     -32.291   8.044   4.140  1.00 20.00     0.033 C 
BRANCH   6   7
HETATM    7  C3  UNL     1     -32.324   7.475   2.741  1.00 20.00    -0.093 C 
HETATM    8  C2  UNL     1     -32.118   8.250   1.664  1.00 20.00     0.014 C 
HETATM    9  C4  UNL     1     -32.560   5.998   2.607  1.00 20.00     0.042 C 
ENDBRANCH   6   7
ENDBRANCH   5   6
ENDBRANCH   4   5
ENDBRANCH   2   4
TORSDOF 4
ENDMDL
MODEL 5
REMARK VINA RESULT:      -4.7      1.446      1.556
REMARK  4 active torsions:
REMARK  status: ('A' for Active; 'I' for Inactive)
REMARK    1  A    between atoms: C3_3  and  C6_6 
REMARK    2  A    between atoms: C5_5  and  C7_7 
REMARK    3  A    between atoms: C6_6  and  C8_8 
REMARK    4  A    between atoms: C7_7  and  C8_8 
ROOT
HETATM    1  C1  UNL     1     -32.257   8.065   1.644  1.00 20.00     0.059 C 
HETATM    2  C5  UNL     1     -32.195   7.299   2.896  1.00 20.00     0.124 C 
HETATM    3  N9  UNL     1     -32.305   8.670   0.655  1.00 20.00    -0.197 NA
ENDROOT
BRANCH   2   4
HETATM    4  C7  UNL     1     -32.239   8.202   4.129  1.00 20.00     0.014 C 
BRANCH   4   5
HETATM    5  C8  UNL     1     -33.634   8.273   4.764  1.00 20.00     0.005 C 
BRANCH   5   6
HETATM    6  C6  UNL     1     -33.788   7.353   5.983  1.00 20.00     0.033 C 
BRANCH   6   7
HETATM    7  C3  UNL     1     -34.514   6.057   5.708  1.00 20.00    -0.093 C 
HETATM    8  C2  UNL     1     -34.457   5.026   6.565  1.00 20.00     0.014 C 
HETATM    9  C4  UNL     1     -35.332   5.984   4.450  1.00 20.00     0.042 C 
ENDBRANCH   6   7
ENDBRANCH   5   6
ENDBRANCH   4   5
ENDBRANCH   2   4
TORSDOF 4
ENDMDL
MODEL 6
REMARK VINA RESULT:      -4.4      1.124      3.385
REMARK  4 active torsions:
REMARK  status: ('A' for Active; 'I' for Inactive)
REMARK    1  A    between atoms: C3_3  and  C6_6 
REMARK    2  A    between atoms: C5_5  and  C7_7 
REMARK    3  A    between atoms: C6_6  and  C8_8 
REMARK    4  A    between atoms: C7_7  and  C8_8 
ROOT
HETATM    1  C1  UNL     1     -34.358   4.561   4.498  1.00 20.00     0.059 C 
HETATM    2  C5  UNL     1     -35.180   5.440   5.341  1.00 20.00     0.124 C 
HETATM    3  N9  UNL     1     -33.710   3.866   3.832  1.00 20.00    -0.197 NA
ENDROOT
BRANCH   2   4
HETATM    4  C7  UNL     1     -34.407   5.969   6.550  1.00 20.00     0.014 C 
BRANCH   4   5
HETATM    5  C8  UNL     1     -33.957   7.424   6.376  1.00 20.00     0.005 C 
BRANCH   5   6
HETATM    6  C6  UNL     1     -34.033   7.908   4.921  1.00 20.00     0.033 C 
BRANCH   6   7
HETATM    7  C3  UNL     1     -32.697   8.234   4.294  1.00 20.00    -0.093 C 
HETATM    8  C2  UNL     1     -31.917   9.213   4.777  1.00 20.00     0.014 C 
HETATM    9  C4  UNL     1     -32.263   7.390   3.130  1.00 20.00     0.042 C 
ENDBRANCH   6   7
ENDBRANCH   5   6
ENDBRANCH   4   5
ENDBRANCH   2   4
TORSDOF 4
ENDMDL
MODEL 7
REMARK VINA RESULT:      -4.3      1.808      2.832
REMARK  4 active torsions:
REMARK  status: ('A' for Active; 'I' for Inactive)
REMARK    1  A    between atoms: C3_3  and  C6_6 
REMARK    2  A    between atoms: C5_5  and  C7_7 
REMARK    3  A    between atoms: C6_6  and  C8_8 
REMARK    4  A    between atoms: C7_7  and  C8_8 
ROOT
HETATM    1  C1  UNL     1     -32.507   8.284   4.081  1.00 20.00     0.059 C 
HETATM    2  C5  UNL     1     -32.557   7.627   2.768  1.00 20.00     0.124 C 
HETATM    3  N9  UNL     1     -32.467   8.804   5.117  1.00 20.00    -0.197 NA
ENDROOT
BRANCH   2   4
HETATM    4  C7  UNL     1     -32.157   6.153   2.844  1.00 20.00     0.014 C 
BRANCH   4   5
HETATM    5  C8  UNL     1     -33.357   5.205   2.725  1.00 20.00     0.005 C 
BRANCH   5   6
HETATM    6  C6  UNL     1     -33.764   4.578   4.065  1.00 20.00     0.033 C 
BRANCH   6   7
HETATM    7  C3  UNL     1     -34.692   5.426   4.902  1.00 20.00    -0.093 C 
HETATM    8  C2  UNL     1     -35.729   6.080   4.355  1.00 20.00     0.014 C 
HETATM    9  C4  UNL     1     -34.428   5.478   6.380  1.00 20.00     0.042 C 
ENDBRANCH   6   7
ENDBRANCH   5   6
ENDBRANCH   4   5
ENDBRANCH   2   4
TORSDOF 4
ENDMDL
MODEL 8
REMARK VINA RESULT:      -4.2      1.936      4.228
REMARK  4 active torsions:
REMARK  status: ('A' for Active; 'I' for Inactive)
REMARK    1  A    between atoms: C3_3  and  C6_6 
REMARK    2  A    between atoms: C5_5  and  C7_7 
REMARK    3  A    between atoms: C6_6  and  C8_8 
REMARK    4  A    between atoms: C7_7  and  C8_8 
ROOT
HETATM    1  C1  UNL     1     -34.397   6.363   6.310  1.00 20.00     0.059 C 
HETATM    2  C5  UNL     1     -34.807   5.027   5.858  1.00 20.00     0.124 C 
HETATM    3  N9  UNL     1     -34.075   7.419   6.668  1.00 20.00    -0.197 NA
ENDROOT
BRANCH   2   4
HETATM    4  C7  UNL     1     -34.084   4.602   4.579  1.00 20.00     0.014 C 
BRANCH   4   5
HETATM    5  C8  UNL     1     -34.086   5.697   3.505  1.00 20.00     0.005 C 
BRANCH   5   6
HETATM    6  C6  UNL     1     -32.693   5.972   2.923  1.00 20.00     0.033 C 
BRANCH   6   7
HETATM    7  C3  UNL     1     -32.296   7.430   2.899  1.00 20.00    -0.093 C 
HETATM    8  C2  UNL     1     -32.046   8.107   4.030  1.00 20.00     0.014 C 
HETATM    9  C4  UNL     1     -32.157   8.080   1.552  1.00 20.00     0.042 C 
ENDBRANCH   6   7
ENDBRANCH   5   6
ENDBRANCH   4   5
ENDBRANCH   2   4
TORSDOF 4
ENDMDL
MODEL 9
REMARK VINA RESULT:      -4.1      1.807      3.155
REMARK  4 active torsions:
REMARK  status: ('A' for Active; 'I' for Inactive)
REMARK    1  A    between atoms: C3_3  and  C6_6 
REMARK    2  A    between atoms: C5_5  and  C7_7 
REMARK    3  A    between atoms: C6_6  and  C8_8 
REMARK    4  A    between atoms: C7_7  and  C8_8 
ROOT
HETATM    1  C1  UNL     1     -32.786   8.387   4.801  1.00 20.00     0.059 C 
HETATM    2  C5  UNL     1     -33.935   8.176   5.692  1.00 20.00     0.124 C 
HETATM    3  N9  UNL     1     -31.879   8.555   4.096  1.00 20.00    -0.197 NA
ENDROOT
BRANCH   2   4
HETATM    4  C7  UNL     1     -33.833   6.860   6.464  1.00 20.00     0.014 C 
BRANCH   4   5
HETATM    5  C8  UNL     1     -34.888   5.835   6.031  1.00 20.00     0.005 C 
BRANCH   5   6
HETATM    6  C6  UNL     1     -35.007   5.700   4.506  1.00 20.00     0.033 C 
BRANCH   6   7
HETATM    7  C3  UNL     1     -33.886   4.926   3.853  1.00 20.00    -0.093 C 
HETATM    8  C2  UNL     1     -33.259   5.387   2.759  1.00 20.00     0.014 C 
HETATM    9  C4  UNL     1     -33.477   3.634   4.501  1.00 20.00     0.042 C 
ENDBRANCH   6   7
ENDBRANCH   5   6
ENDBRANCH   4   5
ENDBRANCH   2   4
TORSDOF 4
ENDMDL
