MODEL 1
REMARK VINA RESULT:      -3.5      0.000      0.000
REMARK  1 active torsions:
REMARK  status: ('A' for Active; 'I' for Inactive)
REMARK    1  A    between atoms: C4_4  and  N7_7 
ROOT
HETATM    1  C1  UNL     1     -33.671  17.173  -1.964  1.00 20.00     0.163 C 
HETATM    2  N7  UNL     1     -33.904  17.836  -1.009  1.00 20.00    -0.231 NA
HETATM    3  S9  UNL     1     -33.370  16.282  -3.250  1.00 20.00    -0.055 SA
ENDROOT
BRANCH   2   4
HETATM    4  C4  UNL     1     -32.773  18.256  -0.328  1.00 20.00     0.094 A 
HETATM    5  C2  UNL     1     -31.499  18.522  -0.865  1.00 20.00     0.171 A 
HETATM    6  N6  UNL     1     -30.621  18.912   0.062  1.00 20.00    -0.183 NA
HETATM    7  N8  UNL     1     -31.342  18.893   1.195  1.00 20.00    -0.283 N 
HETATM    8  C3  UNL     1     -32.638  18.506   1.016  1.00 20.00     0.145 A 
HETATM    9  C5  UNL     1     -30.724  19.262   2.445  1.00 20.00     0.179 C 
ENDBRANCH   2   4
TORSDOF 1
ENDMDL
MODEL 2
REMARK VINA RESULT:      -3.5     14.016     14.521
REMARK  1 active torsions:
REMARK  status: ('A' for Active; 'I' for Inactive)
REMARK    1  A    between atoms: C4_4  and  N7_7 
ROOT
HETATM    1  C1  UNL     1     -25.927  17.872  12.316  1.00 20.00     0.163 C 
HETATM    2  N7  UNL     1     -25.056  17.068  12.311  1.00 20.00    -0.231 NA
HETATM    3  S9  UNL     1     -27.104  18.947  12.332  1.00 20.00    -0.055 SA
ENDROOT
BRANCH   2   4
HETATM    4  C4  UNL     1     -23.975  17.417  11.520  1.00 20.00     0.094 A 
HETATM    5  C2  UNL     1     -22.911  18.278  11.854  1.00 20.00     0.171 A 
HETATM    6  N6  UNL     1     -22.022  18.407  10.865  1.00 20.00    -0.183 NA
HETATM    7  N8  UNL     1     -22.526  17.623   9.897  1.00 20.00    -0.283 N 
HETATM    8  C3  UNL     1     -23.695  17.008  10.239  1.00 20.00     0.145 A 
HETATM    9  C5  UNL     1     -21.829  17.499   8.640  1.00 20.00     0.179 C 
ENDBRANCH   2   4
TORSDOF 1
ENDMDL
MODEL 3
REMARK VINA RESULT:      -3.4      3.194      4.464
REMARK  1 active torsions:
REMARK  status: ('A' for Active; 'I' for Inactive)
REMARK    1  A    between atoms: C4_4  and  N7_7 
ROOT
HETATM    1  C1  UNL     1     -30.451  18.955   3.376  1.00 20.00     0.163 C 
HETATM    2  N7  UNL     1     -31.561  18.999   2.962  1.00 20.00    -0.231 NA
HETATM    3  S9  UNL     1     -28.963  18.897   3.944  1.00 20.00    -0.055 SA
ENDROOT
BRANCH   2   4
HETATM    4  C4  UNL     1     -31.656  18.815   1.592  1.00 20.00     0.094 A 
HETATM    5  C2  UNL     1     -30.646  19.005   0.630  1.00 20.00     0.171 A 
HETATM    6  N6  UNL     1     -31.060  18.740  -0.612  1.00 20.00    -0.183 NA
HETATM    7  N8  UNL     1     -32.343  18.380  -0.436  1.00 20.00    -0.283 N 
HETATM    8  C3  UNL     1     -32.749  18.409   0.867  1.00 20.00     0.145 A 
HETATM    9  C5  UNL     1     -33.147  18.011  -1.575  1.00 20.00     0.179 C 
ENDBRANCH   2   4
TORSDOF 1
ENDMDL
MODEL 4
REMARK VINA RESULT:      -3.3      4.903      7.484
REMARK  1 active torsions:
REMARK  status: ('A' for Active; 'I' for Inactive)
REMARK    1  A    between atoms: C4_4  and  N7_7 
ROOT
HETATM    1  C1  UNL     1     -33.278  16.008  -3.391  1.00 20.00     0.163 C 
HETATM    2  N7  UNL     1     -33.207  15.113  -4.165  1.00 20.00    -0.231 NA
HETATM    3  S9  UNL     1     -33.361  17.207  -2.345  1.00 20.00    -0.055 SA
ENDROOT
BRANCH   2   4
HETATM    4  C4  UNL     1     -34.278  15.043  -5.041  1.00 20.00     0.094 A 
HETATM    5  C2  UNL     1     -35.421  14.228  -4.934  1.00 20.00     0.171 A 
HETATM    6  N6  UNL     1     -36.273  14.399  -5.948  1.00 20.00    -0.183 NA
HETATM    7  N8  UNL     1     -35.666  15.329  -6.704  1.00 20.00    -0.283 N 
HETATM    8  C3  UNL     1     -34.467  15.748  -6.204  1.00 20.00     0.145 A 
HETATM    9  C5  UNL     1     -36.295  15.788  -7.918  1.00 20.00     0.179 C 
ENDBRANCH   2   4
TORSDOF 1
ENDMDL
MODEL 5
REMARK VINA RESULT:      -3.3     13.634     14.244
REMARK  1 active torsions:
REMARK  status: ('A' for Active; 'I' for Inactive)
REMARK    1  A    between atoms: C4_4  and  N7_7 
ROOT
HETATM    1  C1  UNL     1     -22.068  17.513   8.572  1.00 20.00     0.163 C 
HETATM    2  N7  UNL     1     -22.640  16.843   9.365  1.00 20.00    -0.231 NA
HETATM    3  S9  UNL     1     -21.296  18.403   7.498  1.00 20.00    -0.055 SA
ENDROOT
BRANCH   2   4
HETATM    4  C4  UNL     1     -23.214  17.565  10.399  1.00 20.00     0.094 A 
HETATM    5  C2  UNL     1     -22.564  18.130  11.513  1.00 20.00     0.171 A 
HETATM    6  N6  UNL     1     -23.404  18.767  12.331  1.00 20.00    -0.183 NA
HETATM    7  N8  UNL     1     -24.596  18.605  11.733  1.00 20.00    -0.283 N 
HETATM    8  C3  UNL     1     -24.537  17.891  10.572  1.00 20.00     0.145 A 
HETATM    9  C5  UNL     1     -25.782  19.167  12.332  1.00 20.00     0.179 C 
ENDBRANCH   2   4
TORSDOF 1
ENDMDL
MODEL 6
REMARK VINA RESULT:      -3.3     11.166     12.085
REMARK  1 active torsions:
REMARK  status: ('A' for Active; 'I' for Inactive)
REMARK    1  A    between atoms: C4_4  and  N7_7 
ROOT
HETATM    1  C1  UNL     1     -40.570  14.800   8.272  1.00 20.00     0.163 C 
HETATM    2  N7  UNL     1     -40.444  13.631   8.119  1.00 20.00    -0.231 NA
HETATM    3  S9  UNL     1     -40.740  16.369   8.492  1.00 20.00    -0.055 SA
ENDROOT
BRANCH   2   4
HETATM    4  C4  UNL     1     -40.346  13.247   6.791  1.00 20.00     0.094 A 
HETATM    5  C2  UNL     1     -41.169  13.648   5.721  1.00 20.00     0.171 A 
HETATM    6  N6  UNL     1     -40.809  13.096   4.559  1.00 20.00    -0.183 NA
HETATM    7  N8  UNL     1     -39.750  12.340   4.895  1.00 20.00    -0.283 N 
HETATM    8  C3  UNL     1     -39.432  12.395   6.221  1.00 20.00     0.145 A 
HETATM    9  C5  UNL     1     -39.069  11.571   3.883  1.00 20.00     0.179 C 
ENDBRANCH   2   4
TORSDOF 1
ENDMDL
MODEL 7
REMARK VINA RESULT:      -3.2     10.784     12.639
REMARK  1 active torsions:
REMARK  status: ('A' for Active; 'I' for Inactive)
REMARK    1  A    between atoms: C4_4  and  N7_7 
ROOT
HETATM    1  C1  UNL     1     -25.251  19.262   7.192  1.00 20.00     0.163 C 
HETATM    2  N7  UNL     1     -24.090  19.262   7.430  1.00 20.00    -0.231 NA
HETATM    3  S9  UNL     1     -26.810  19.263   6.859  1.00 20.00    -0.055 SA
ENDROOT
BRANCH   2   4
HETATM    4  C4  UNL     1     -23.791  19.025   8.762  1.00 20.00     0.094 A 
HETATM    5  C2  UNL     1     -22.516  18.977   9.358  1.00 20.00     0.171 A 
HETATM    6  N6  UNL     1     -22.568  18.726  10.668  1.00 20.00    -0.183 NA
HETATM    7  N8  UNL     1     -23.886  18.614  10.905  1.00 20.00    -0.283 N 
HETATM    8  C3  UNL     1     -24.662  18.783   9.796  1.00 20.00     0.145 A 
HETATM    9  C5  UNL     1     -24.353  18.337  12.242  1.00 20.00     0.179 C 
ENDBRANCH   2   4
TORSDOF 1
ENDMDL
MODEL 8
REMARK VINA RESULT:      -3.2      2.856      4.496
REMARK  1 active torsions:
REMARK  status: ('A' for Active; 'I' for Inactive)
REMARK    1  A    between atoms: C4_4  and  N7_7 
ROOT
HETATM    1  C1  UNL     1     -30.312  19.229   2.172  1.00 20.00     0.163 C 
HETATM    2  N7  UNL     1     -30.317  19.209   0.987  1.00 20.00    -0.231 NA
HETATM    3  S9  UNL     1     -30.292  19.262   3.766  1.00 20.00    -0.055 SA
ENDROOT
BRANCH   2   4
HETATM    4  C4  UNL     1     -31.506  18.755   0.440  1.00 20.00     0.094 A 
HETATM    5  C2  UNL     1     -32.722  18.516   1.110  1.00 20.00     0.171 A 
HETATM    6  N6  UNL     1     -33.684  18.082   0.292  1.00 20.00    -0.183 NA
HETATM    7  N8  UNL     1     -33.075  18.045  -0.905  1.00 20.00    -0.283 N 
HETATM    8  C3  UNL     1     -31.769  18.439  -0.871  1.00 20.00     0.145 A 
HETATM    9  C5  UNL     1     -33.809  17.616  -2.070  1.00 20.00     0.179 C 
ENDBRANCH   2   4
TORSDOF 1
ENDMDL
MODEL 9
REMARK VINA RESULT:      -3.2      4.599      6.300
REMARK  1 active torsions:
REMARK  status: ('A' for Active; 'I' for Inactive)
REMARK    1  A    between atoms: C4_4  and  N7_7 
ROOT
HETATM    1  C1  UNL     1     -27.721  18.840   4.758  1.00 20.00     0.163 C 
HETATM    2  N7  UNL     1     -28.029  18.567   3.646  1.00 20.00    -0.231 NA
HETATM    3  S9  UNL     1     -27.296  19.206   6.249  1.00 20.00    -0.055 SA
ENDROOT
BRANCH   2   4
HETATM    4  C4  UNL     1     -29.375  18.748   3.375  1.00 20.00     0.094 A 
HETATM    5  C2  UNL     1     -30.374  19.195   4.261  1.00 20.00     0.171 A 
HETATM    6  N6  UNL     1     -31.578  19.263   3.688  1.00 20.00    -0.183 NA
HETATM    7  N8  UNL     1     -31.342  18.856   2.430  1.00 20.00    -0.283 N 
HETATM    8  C3  UNL     1     -30.037  18.535   2.191  1.00 20.00     0.145 A 
HETATM    9  C5  UNL     1     -32.426  18.793   1.480  1.00 20.00     0.179 C 
ENDBRANCH   2   4
TORSDOF 1
ENDMDL
