MODEL 1
REMARK VINA RESULT:      -4.0      0.000      0.000
REMARK  3 active torsions:
REMARK  status: ('A' for Active; 'I' for Inactive)
REMARK    1  A    between atoms: C5_5  and  C6_6 
REMARK    2  A    between atoms: C5_5  and  N8_8 
REMARK    3  A    between atoms: C6_6  and  N9_9 
ROOT
HETATM    1  C1  UNL     1     -32.320   8.153   1.700  1.00 20.00     0.157 C 
HETATM    2  N8  UNL     1     -32.061   7.423   2.582  1.00 20.00    -0.274 NA
HETATM    3  S10 UNL     1     -32.667   9.119   0.483  1.00 20.00    -0.055 SA
ENDROOT
BRANCH   2   4
HETATM    4  C5  UNL     1     -32.033   8.044   3.909  1.00 20.00     0.172 C 
BRANCH   4   5
HETATM    5  C6  UNL     1     -33.450   8.170   4.454  1.00 20.00     0.172 C 
BRANCH   5   6
HETATM    6  N9  UNL     1     -33.949   6.932   5.045  1.00 20.00    -0.280 N 
HETATM    7  C4  UNL     1     -34.116   6.680   6.375  1.00 20.00     0.113 A 
HETATM    8  C2  UNL     1     -34.604   5.399   6.456  1.00 20.00     0.040 A 
HETATM    9  C3  UNL     1     -34.692   4.970   5.118  1.00 20.00     0.140 A 
HETATM   10  N7  UNL     1     -34.292   5.904   4.251  1.00 20.00    -0.185 NA
ENDBRANCH   5   6
ENDBRANCH   4   5
ENDBRANCH   2   4
TORSDOF 3
ENDMDL
MODEL 2
REMARK VINA RESULT:      -3.8     11.782     12.404
REMARK  3 active torsions:
REMARK  status: ('A' for Active; 'I' for Inactive)
REMARK    1  A    between atoms: C5_5  and  C6_6 
REMARK    2  A    between atoms: C5_5  and  N8_8 
REMARK    3  A    between atoms: C6_6  and  N9_9 
ROOT
HETATM    1  C1  UNL     1     -33.581  15.802  -3.736  1.00 20.00     0.157 C 
HETATM    2  N8  UNL     1     -33.111  16.360  -2.817  1.00 20.00    -0.274 NA
HETATM    3  S10 UNL     1     -34.199  15.022  -4.979  1.00 20.00    -0.055 SA
ENDROOT
BRANCH   2   4
HETATM    4  C5  UNL     1     -33.726  17.651  -2.498  1.00 20.00     0.172 C 
BRANCH   4   5
HETATM    5  C6  UNL     1     -32.646  18.683  -2.200  1.00 20.00     0.172 C 
BRANCH   5   6
HETATM    6  N9  UNL     1     -32.195  18.656  -0.812  1.00 20.00    -0.280 N 
HETATM    7  C4  UNL     1     -32.985  18.557   0.295  1.00 20.00     0.113 A 
HETATM    8  C2  UNL     1     -32.130  18.569   1.369  1.00 20.00     0.040 A 
HETATM    9  C3  UNL     1     -30.848  18.679   0.798  1.00 20.00     0.140 A 
HETATM   10  N7  UNL     1     -30.882  18.733  -0.536  1.00 20.00    -0.185 NA
ENDBRANCH   5   6
ENDBRANCH   4   5
ENDBRANCH   2   4
TORSDOF 3
ENDMDL
MODEL 3
REMARK VINA RESULT:      -3.7     12.111     12.815
REMARK  3 active torsions:
REMARK  status: ('A' for Active; 'I' for Inactive)
REMARK    1  A    between atoms: C5_5  and  C6_6 
REMARK    2  A    between atoms: C5_5  and  N8_8 
REMARK    3  A    between atoms: C6_6  and  N9_9 
ROOT
HETATM    1  C1  UNL     1     -31.019  18.627   0.457  1.00 20.00     0.157 C 
HETATM    2  N8  UNL     1     -30.979  18.682  -0.715  1.00 20.00    -0.274 NA
HETATM    3  S10 UNL     1     -31.043  18.547   2.047  1.00 20.00    -0.055 SA
ENDROOT
BRANCH   2   4
HETATM    4  C5  UNL     1     -32.267  18.936  -1.365  1.00 20.00     0.172 C 
BRANCH   4   5
HETATM    5  C6  UNL     1     -33.142  17.691  -1.290  1.00 20.00     0.172 C 
BRANCH   5   6
HETATM    6  N9  UNL     1     -33.621  17.248  -2.596  1.00 20.00    -0.280 N 
HETATM    7  C4  UNL     1     -33.354  16.052  -3.193  1.00 20.00     0.113 A 
HETATM    8  C2  UNL     1     -34.010  16.078  -4.399  1.00 20.00     0.040 A 
HETATM    9  C3  UNL     1     -34.640  17.337  -4.429  1.00 20.00     0.140 A 
HETATM   10  N7  UNL     1     -34.405  18.057  -3.329  1.00 20.00    -0.185 NA
ENDBRANCH   5   6
ENDBRANCH   4   5
ENDBRANCH   2   4
TORSDOF 3
ENDMDL
MODEL 4
REMARK VINA RESULT:      -3.5     11.999     12.850
REMARK  3 active torsions:
REMARK  status: ('A' for Active; 'I' for Inactive)
REMARK    1  A    between atoms: C5_5  and  C6_6 
REMARK    2  A    between atoms: C5_5  and  N8_8 
REMARK    3  A    between atoms: C6_6  and  N9_9 
ROOT
HETATM    1  C1  UNL     1     -31.727  18.832  -0.820  1.00 20.00     0.157 C 
HETATM    2  N8  UNL     1     -32.124  18.992  -1.913  1.00 20.00    -0.274 NA
HETATM    3  S10 UNL     1     -31.163  18.632   0.656  1.00 20.00    -0.055 SA
ENDROOT
BRANCH   2   4
HETATM    4  C5  UNL     1     -33.417  18.364  -2.197  1.00 20.00     0.172 C 
BRANCH   4   5
HETATM    5  C6  UNL     1     -33.251  16.853  -2.298  1.00 20.00     0.172 C 
BRANCH   5   6
HETATM    6  N9  UNL     1     -33.640  16.319  -3.600  1.00 20.00    -0.280 N 
HETATM    7  C4  UNL     1     -33.340  15.083  -4.090  1.00 20.00     0.113 A 
HETATM    8  C2  UNL     1     -33.910  15.025  -5.338  1.00 20.00     0.040 A 
HETATM    9  C3  UNL     1     -34.528  16.279  -5.501  1.00 20.00     0.140 A 
HETATM   10  N7  UNL     1     -34.366  17.075  -4.441  1.00 20.00    -0.185 NA
ENDBRANCH   5   6
ENDBRANCH   4   5
ENDBRANCH   2   4
TORSDOF 3
ENDMDL
MODEL 5
REMARK VINA RESULT:      -3.5     12.218     12.570
REMARK  3 active torsions:
REMARK  status: ('A' for Active; 'I' for Inactive)
REMARK    1  A    between atoms: C5_5  and  C6_6 
REMARK    2  A    between atoms: C5_5  and  N8_8 
REMARK    3  A    between atoms: C6_6  and  N9_9 
ROOT
HETATM    1  C1  UNL     1     -28.869  18.868   3.703  1.00 20.00     0.157 C 
HETATM    2  N8  UNL     1     -30.027  18.807   3.515  1.00 20.00    -0.274 NA
HETATM    3  S10 UNL     1     -27.305  18.954   3.987  1.00 20.00    -0.055 SA
ENDROOT
BRANCH   2   4
HETATM    4  C5  UNL     1     -30.415  18.610   2.117  1.00 20.00     0.172 C 
BRANCH   4   5
HETATM    5  C6  UNL     1     -31.891  18.945   1.934  1.00 20.00     0.172 C 
BRANCH   5   6
HETATM    6  N9  UNL     1     -32.425  18.502   0.651  1.00 20.00    -0.280 N 
HETATM    7  C4  UNL     1     -33.712  18.131   0.394  1.00 20.00     0.113 A 
HETATM    8  C2  UNL     1     -33.748  17.796  -0.937  1.00 20.00     0.040 A 
HETATM    9  C3  UNL     1     -32.429  17.999  -1.387  1.00 20.00     0.140 A 
HETATM   10  N7  UNL     1     -31.616  18.430  -0.420  1.00 20.00    -0.185 NA
ENDBRANCH   5   6
ENDBRANCH   4   5
ENDBRANCH   2   4
TORSDOF 3
ENDMDL
MODEL 6
REMARK VINA RESULT:      -3.5     11.475     12.208
REMARK  3 active torsions:
REMARK  status: ('A' for Active; 'I' for Inactive)
REMARK    1  A    between atoms: C5_5  and  C6_6 
REMARK    2  A    between atoms: C5_5  and  N8_8 
REMARK    3  A    between atoms: C6_6  and  N9_9 
ROOT
HETATM    1  C1  UNL     1     -32.741  17.814  -1.274  1.00 20.00     0.157 C 
HETATM    2  N8  UNL     1     -33.495  17.139  -1.869  1.00 20.00    -0.274 NA
HETATM    3  S10 UNL     1     -31.732  18.721  -0.440  1.00 20.00    -0.055 SA
ENDROOT
BRANCH   2   4
HETATM    4  C5  UNL     1     -33.305  17.136  -3.322  1.00 20.00     0.172 C 
BRANCH   4   5
HETATM    5  C6  UNL     1     -33.062  15.714  -3.812  1.00 20.00     0.172 C 
BRANCH   5   6
HETATM    6  N9  UNL     1     -34.245  15.102  -4.408  1.00 20.00    -0.280 N 
HETATM    7  C4  UNL     1     -35.066  15.667  -5.338  1.00 20.00     0.113 A 
HETATM    8  C2  UNL     1     -36.036  14.731  -5.601  1.00 20.00     0.040 A 
HETATM    9  C3  UNL     1     -35.705  13.640  -4.775  1.00 20.00     0.140 A 
HETATM   10  N7  UNL     1     -34.611  13.862  -4.043  1.00 20.00    -0.185 NA
ENDBRANCH   5   6
ENDBRANCH   4   5
ENDBRANCH   2   4
TORSDOF 3
ENDMDL
MODEL 7
REMARK VINA RESULT:      -3.3     11.825     12.554
REMARK  3 active torsions:
REMARK  status: ('A' for Active; 'I' for Inactive)
REMARK    1  A    between atoms: C5_5  and  C6_6 
REMARK    2  A    between atoms: C5_5  and  N8_8 
REMARK    3  A    between atoms: C6_6  and  N9_9 
ROOT
HETATM    1  C1  UNL     1     -34.171  15.286  -5.196  1.00 20.00     0.157 C 
HETATM    2  N8  UNL     1     -34.006  15.102  -4.048  1.00 20.00    -0.274 NA
HETATM    3  S10 UNL     1     -34.416  15.513  -6.752  1.00 20.00    -0.055 SA
ENDROOT
BRANCH   2   4
HETATM    4  C5  UNL     1     -32.959  15.924  -3.436  1.00 20.00     0.172 C 
BRANCH   4   5
HETATM    5  C6  UNL     1     -33.444  17.361  -3.291  1.00 20.00     0.172 C 
BRANCH   5   6
HETATM    6  N9  UNL     1     -33.110  17.952  -1.999  1.00 20.00    -0.280 N 
HETATM    7  C4  UNL     1     -33.668  17.637  -0.796  1.00 20.00     0.113 A 
HETATM    8  C2  UNL     1     -33.046  18.439   0.129  1.00 20.00     0.040 A 
HETATM    9  C3  UNL     1     -32.132  19.201  -0.624  1.00 20.00     0.140 A 
HETATM   10  N7  UNL     1     -32.167  18.908  -1.926  1.00 20.00    -0.185 NA
ENDBRANCH   5   6
ENDBRANCH   4   5
ENDBRANCH   2   4
TORSDOF 3
ENDMDL
MODEL 8
REMARK VINA RESULT:      -3.3     12.107     12.845
REMARK  3 active torsions:
REMARK  status: ('A' for Active; 'I' for Inactive)
REMARK    1  A    between atoms: C5_5  and  C6_6 
REMARK    2  A    between atoms: C5_5  and  N8_8 
REMARK    3  A    between atoms: C6_6  and  N9_9 
ROOT
HETATM    1  C1  UNL     1     -34.863  15.386  -6.895  1.00 20.00     0.157 C 
HETATM    2  N8  UNL     1     -33.999  14.856  -6.303  1.00 20.00    -0.274 NA
HETATM    3  S10 UNL     1     -36.017  16.104  -7.725  1.00 20.00    -0.055 SA
ENDROOT
BRANCH   2   4
HETATM    4  C5  UNL     1     -34.244  14.696  -4.867  1.00 20.00     0.172 C 
BRANCH   4   5
HETATM    5  C6  UNL     1     -33.163  15.418  -4.072  1.00 20.00     0.172 C 
BRANCH   5   6
HETATM    6  N9  UNL     1     -33.676  16.544  -3.297  1.00 20.00    -0.280 N 
HETATM    7  C4  UNL     1     -33.407  16.817  -1.989  1.00 20.00     0.113 A 
HETATM    8  C2  UNL     1     -34.102  17.963  -1.693  1.00 20.00     0.040 A 
HETATM    9  C3  UNL     1     -34.758  18.297  -2.893  1.00 20.00     0.140 A 
HETATM   10  N7  UNL     1     -34.502  17.432  -3.878  1.00 20.00    -0.185 NA
ENDBRANCH   5   6
ENDBRANCH   4   5
ENDBRANCH   2   4
TORSDOF 3
ENDMDL
MODEL 9
REMARK VINA RESULT:      -3.3      9.925     10.698
REMARK  3 active torsions:
REMARK  status: ('A' for Active; 'I' for Inactive)
REMARK    1  A    between atoms: C5_5  and  C6_6 
REMARK    2  A    between atoms: C5_5  and  N8_8 
REMARK    3  A    between atoms: C6_6  and  N9_9 
ROOT
HETATM    1  C1  UNL     1     -39.605  11.964   5.532  1.00 20.00     0.157 C 
HETATM    2  N8  UNL     1     -40.015  12.201   6.607  1.00 20.00    -0.274 NA
HETATM    3  S10 UNL     1     -39.024  11.631   4.088  1.00 20.00    -0.055 SA
ENDROOT
BRANCH   2   4
HETATM    4  C5  UNL     1     -41.312  12.882   6.636  1.00 20.00     0.172 C 
BRANCH   4   5
HETATM    5  C6  UNL     1     -41.130  14.329   7.078  1.00 20.00     0.172 C 
BRANCH   5   6
HETATM    6  N9  UNL     1     -40.976  14.473   8.522  1.00 20.00    -0.280 N 
HETATM    7  C4  UNL     1     -40.158  15.354   9.165  1.00 20.00     0.113 A 
HETATM    8  C2  UNL     1     -40.345  15.130  10.507  1.00 20.00     0.040 A 
HETATM    9  C3  UNL     1     -41.295  14.092  10.561  1.00 20.00     0.140 A 
HETATM   10  N7  UNL     1     -41.684  13.686   9.350  1.00 20.00    -0.185 NA
ENDBRANCH   5   6
ENDBRANCH   4   5
ENDBRANCH   2   4
TORSDOF 3
ENDMDL
