MODEL 1
REMARK VINA RESULT:      -4.6      0.000      0.000
REMARK  3 active torsions:
REMARK  status: ('A' for Active; 'I' for Inactive)
REMARK    1  A    between atoms: C3_3  and  C4_4 
REMARK    2  A    between atoms: C4_4  and  C6_6 
REMARK    3  A    between atoms: C5_5  and  C6_6 
ROOT
HETATM    1  C2  UNL     1     -32.241   9.121   4.732  1.00 20.00     0.011 C 
HETATM    2  C6  UNL     1     -32.634   7.655   4.510  1.00 20.00    -0.005 C 
ENDROOT
BRANCH   2   3
HETATM    3  C4  UNL     1     -34.084   7.426   4.985  1.00 20.00     0.005 C 
BRANCH   3   4
HETATM    4  C3  UNL     1     -34.180   6.705   6.331  1.00 20.00    -0.004 C 
HETATM    5  C1  UNL     1     -34.591   5.251   6.154  1.00 20.00     0.005 C 
ENDBRANCH   3   4
ENDBRANCH   2   3
BRANCH   2   6
HETATM    6  C5  UNL     1     -32.364   7.216   3.063  1.00 20.00     0.119 C 
HETATM    7 CL7  UNL     1     -32.877   5.547   2.716  1.00 20.00    -0.130 Cl
ENDBRANCH   2   6
TORSDOF 3
ENDMDL
MODEL 2
REMARK VINA RESULT:      -4.6      1.097      2.992
REMARK  3 active torsions:
REMARK  status: ('A' for Active; 'I' for Inactive)
REMARK    1  A    between atoms: C3_3  and  C4_4 
REMARK    2  A    between atoms: C4_4  and  C6_6 
REMARK    3  A    between atoms: C5_5  and  C6_6 
ROOT
HETATM    1  C2  UNL     1     -34.482   5.412   6.470  1.00 20.00     0.011 C 
HETATM    2  C6  UNL     1     -34.713   5.614   4.968  1.00 20.00    -0.005 C 
ENDROOT
BRANCH   2   3
HETATM    3  C4  UNL     1     -34.381   7.069   4.580  1.00 20.00     0.005 C 
BRANCH   3   4
HETATM    4  C3  UNL     1     -33.297   7.704   5.453  1.00 20.00    -0.004 C 
HETATM    5  C1  UNL     1     -32.329   8.533   4.622  1.00 20.00     0.005 C 
ENDBRANCH   3   4
ENDBRANCH   2   3
BRANCH   2   6
HETATM    6  C5  UNL     1     -33.975   4.551   4.139  1.00 20.00     0.119 C 
HETATM    7 CL7  UNL     1     -33.070   5.223   2.761  1.00 20.00    -0.130 Cl
ENDBRANCH   2   6
TORSDOF 3
ENDMDL
MODEL 3
REMARK VINA RESULT:      -4.3      1.094      3.161
REMARK  3 active torsions:
REMARK  status: ('A' for Active; 'I' for Inactive)
REMARK    1  A    between atoms: C3_3  and  C4_4 
REMARK    2  A    between atoms: C4_4  and  C6_6 
REMARK    3  A    between atoms: C5_5  and  C6_6 
ROOT
HETATM    1  C2  UNL     1     -34.381   4.972   6.547  1.00 20.00     0.011 C 
HETATM    2  C6  UNL     1     -34.699   6.260   5.777  1.00 20.00    -0.005 C 
ENDROOT
BRANCH   2   3
HETATM    3  C4  UNL     1     -33.596   7.308   6.034  1.00 20.00     0.005 C 
BRANCH   3   4
HETATM    4  C3  UNL     1     -33.526   8.399   4.964  1.00 20.00    -0.004 C 
HETATM    5  C1  UNL     1     -32.162   8.428   4.290  1.00 20.00     0.005 C 
ENDBRANCH   3   4
ENDBRANCH   2   3
BRANCH   2   6
HETATM    6  C5  UNL     1     -34.967   5.973   4.291  1.00 20.00     0.119 C 
HETATM    7 CL7  UNL     1     -33.606   5.183   3.460  1.00 20.00    -0.130 Cl
ENDBRANCH   2   6
TORSDOF 3
ENDMDL
MODEL 4
REMARK VINA RESULT:      -4.1      1.022      1.022
REMARK  3 active torsions:
REMARK  status: ('A' for Active; 'I' for Inactive)
REMARK    1  A    between atoms: C3_3  and  C4_4 
REMARK    2  A    between atoms: C4_4  and  C6_6 
REMARK    3  A    between atoms: C5_5  and  C6_6 
ROOT
HETATM    1  C2  UNL     1     -32.259   9.126   4.400  1.00 20.00     0.011 C 
HETATM    2  C6  UNL     1     -32.693   7.664   4.558  1.00 20.00    -0.005 C 
ENDROOT
BRANCH   2   3
HETATM    3  C4  UNL     1     -34.105   7.603   5.176  1.00 20.00     0.005 C 
BRANCH   3   4
HETATM    4  C3  UNL     1     -34.196   6.704   6.411  1.00 20.00    -0.004 C 
HETATM    5  C1  UNL     1     -34.647   5.298   6.042  1.00 20.00     0.005 C 
ENDBRANCH   3   4
ENDBRANCH   2   3
BRANCH   2   6
HETATM    6  C5  UNL     1     -32.543   6.888   3.240  1.00 20.00     0.119 C 
HETATM    7 CL7  UNL     1     -32.137   7.920   1.848  1.00 20.00    -0.130 Cl
ENDBRANCH   2   6
TORSDOF 3
ENDMDL
MODEL 5
REMARK VINA RESULT:      -4.0      2.001      3.072
REMARK  3 active torsions:
REMARK  status: ('A' for Active; 'I' for Inactive)
REMARK    1  A    between atoms: C3_3  and  C4_4 
REMARK    2  A    between atoms: C4_4  and  C6_6 
REMARK    3  A    between atoms: C5_5  and  C6_6 
ROOT
HETATM    1  C2  UNL     1     -34.448   6.546   6.746  1.00 20.00     0.011 C 
HETATM    2  C6  UNL     1     -33.875   6.640   5.327  1.00 20.00    -0.005 C 
ENDROOT
BRANCH   2   3
HETATM    3  C4  UNL     1     -34.698   5.751   4.372  1.00 20.00     0.005 C 
BRANCH   3   4
HETATM    4  C3  UNL     1     -33.879   4.643   3.708  1.00 20.00    -0.004 C 
HETATM    5  C1  UNL     1     -32.937   5.205   2.654  1.00 20.00     0.005 C 
ENDBRANCH   3   4
ENDBRANCH   2   3
BRANCH   2   6
HETATM    6  C5  UNL     1     -33.737   8.101   4.873  1.00 20.00     0.119 C 
HETATM    7 CL7  UNL     1     -32.127   8.499   4.227  1.00 20.00    -0.130 Cl
ENDBRANCH   2   6
TORSDOF 3
ENDMDL
MODEL 6
REMARK VINA RESULT:      -4.0      1.858      2.450
REMARK  3 active torsions:
REMARK  status: ('A' for Active; 'I' for Inactive)
REMARK    1  A    between atoms: C3_3  and  C4_4 
REMARK    2  A    between atoms: C4_4  and  C6_6 
REMARK    3  A    between atoms: C5_5  and  C6_6 
ROOT
HETATM    1  C2  UNL     1     -32.934   5.311   2.915  1.00 20.00     0.011 C 
HETATM    2  C6  UNL     1     -33.338   6.740   3.298  1.00 20.00    -0.005 C 
ENDROOT
BRANCH   2   3
HETATM    3  C4  UNL     1     -34.334   6.703   4.475  1.00 20.00     0.005 C 
BRANCH   3   4
HETATM    4  C3  UNL     1     -34.618   5.291   4.992  1.00 20.00    -0.004 C 
HETATM    5  C1  UNL     1     -34.469   5.214   6.505  1.00 20.00     0.005 C 
ENDBRANCH   3   4
ENDBRANCH   2   3
BRANCH   2   6
HETATM    6  C5  UNL     1     -32.105   7.625   3.537  1.00 20.00     0.119 C 
HETATM    7 CL7  UNL     1     -32.317   8.801   4.856  1.00 20.00    -0.130 Cl
ENDBRANCH   2   6
TORSDOF 3
ENDMDL
MODEL 7
REMARK VINA RESULT:      -4.0      1.927      3.028
REMARK  3 active torsions:
REMARK  status: ('A' for Active; 'I' for Inactive)
REMARK    1  A    between atoms: C3_3  and  C4_4 
REMARK    2  A    between atoms: C4_4  and  C6_6 
REMARK    3  A    between atoms: C5_5  and  C6_6 
ROOT
HETATM    1  C2  UNL     1     -32.476   8.377   4.866  1.00 20.00     0.011 C 
HETATM    2  C6  UNL     1     -33.822   7.668   5.063  1.00 20.00    -0.005 C 
ENDROOT
BRANCH   2   3
HETATM    3  C4  UNL     1     -34.044   6.646   3.930  1.00 20.00     0.005 C 
BRANCH   3   4
HETATM    4  C3  UNL     1     -32.785   6.359   3.109  1.00 20.00    -0.004 C 
HETATM    5  C1  UNL     1     -32.841   4.978   2.472  1.00 20.00     0.005 C 
ENDBRANCH   3   4
ENDBRANCH   2   3
BRANCH   2   6
HETATM    6  C5  UNL     1     -33.945   7.083   6.479  1.00 20.00     0.119 C 
HETATM    7 CL7  UNL     1     -34.431   5.371   6.503  1.00 20.00    -0.130 Cl
ENDBRANCH   2   6
TORSDOF 3
ENDMDL
MODEL 8
REMARK VINA RESULT:      -3.9      1.639      3.390
REMARK  3 active torsions:
REMARK  status: ('A' for Active; 'I' for Inactive)
REMARK    1  A    between atoms: C3_3  and  C4_4 
REMARK    2  A    between atoms: C4_4  and  C6_6 
REMARK    3  A    between atoms: C5_5  and  C6_6 
ROOT
HETATM    1  C2  UNL     1     -33.829   7.480   6.404  1.00 20.00     0.011 C 
HETATM    2  C6  UNL     1     -33.939   7.436   4.875  1.00 20.00    -0.005 C 
ENDROOT
BRANCH   2   3
HETATM    3  C4  UNL     1     -32.668   8.041   4.244  1.00 20.00     0.005 C 
BRANCH   3   4
HETATM    4  C3  UNL     1     -32.156   7.261   3.031  1.00 20.00    -0.004 C 
HETATM    5  C1  UNL     1     -32.198   8.108   1.768  1.00 20.00     0.005 C 
ENDBRANCH   3   4
ENDBRANCH   2   3
BRANCH   2   6
HETATM    6  C5  UNL     1     -34.284   6.023   4.378  1.00 20.00     0.119 C 
HETATM    7 CL7  UNL     1     -34.622   4.869   5.690  1.00 20.00    -0.130 Cl
ENDBRANCH   2   6
TORSDOF 3
ENDMDL
MODEL 9
REMARK VINA RESULT:      -3.7      2.228      3.915
REMARK  3 active torsions:
REMARK  status: ('A' for Active; 'I' for Inactive)
REMARK    1  A    between atoms: C3_3  and  C4_4 
REMARK    2  A    between atoms: C4_4  and  C6_6 
REMARK    3  A    between atoms: C5_5  and  C6_6 
ROOT
HETATM    1  C2  UNL     1     -35.644   6.032   4.226  1.00 20.00     0.011 C 
HETATM    2  C6  UNL     1     -34.712   5.019   4.904  1.00 20.00    -0.005 C 
ENDROOT
BRANCH   2   3
HETATM    3  C4  UNL     1     -33.479   4.767   4.012  1.00 20.00     0.005 C 
BRANCH   3   4
HETATM    4  C3  UNL     1     -33.342   5.765   2.860  1.00 20.00    -0.004 C 
HETATM    5  C1  UNL     1     -32.390   6.897   3.216  1.00 20.00     0.005 C 
ENDBRANCH   3   4
ENDBRANCH   2   3
BRANCH   2   6
HETATM    6  C5  UNL     1     -34.379   5.440   6.344  1.00 20.00     0.119 C 
HETATM    7 CL7  UNL     1     -34.004   7.172   6.512  1.00 20.00    -0.130 Cl
ENDBRANCH   2   6
TORSDOF 3
ENDMDL
