MODEL 1
REMARK VINA RESULT:      -3.9      0.000      0.000
REMARK  0 active torsions:
REMARK  status: ('A' for Active; 'I' for Inactive)
ROOT
HETATM    1  C1  UNL     1     -23.917  17.156  10.058  1.00 20.00     0.048 C 
HETATM    2  C2  UNL     1     -22.877  17.925  12.034  1.00 20.00     0.177 C 
HETATM    3  C3  UNL     1     -24.220  17.409  11.534  1.00 20.00    -0.023 C 
HETATM    4  C4  UNL     1     -22.777  18.130   9.718  1.00 20.00     0.054 C 
HETATM    5  C5  UNL     1     -24.652  16.137  12.265  1.00 20.00     0.017 C 
HETATM    6  C6  UNL     1     -25.307  18.481  11.701  1.00 20.00     0.017 C 
HETATM    7  C7  UNL     1     -23.228  19.260   8.794  1.00 20.00     0.045 C 
HETATM    8  C8  UNL     1     -21.585  17.400   9.096  1.00 20.00     0.045 C 
HETATM    9  O9  UNL     1     -22.343  18.713  10.963  1.00 20.00    -0.380 OA
ENDROOT
TORSDOF 0
ENDMDL
MODEL 2
REMARK VINA RESULT:      -3.8      0.806      3.467
REMARK  0 active torsions:
REMARK  status: ('A' for Active; 'I' for Inactive)
ROOT
HETATM    1  C1  UNL     1     -24.328  17.947   9.975  1.00 20.00     0.048 C 
HETATM    2  C2  UNL     1     -22.236  18.824  10.632  1.00 20.00     0.177 C 
HETATM    3  C3  UNL     1     -22.943  18.255   9.409  1.00 20.00    -0.023 C 
HETATM    4  C4  UNL     1     -24.095  17.706  11.475  1.00 20.00     0.054 C 
HETATM    5  C5  UNL     1     -22.996  19.261   8.260  1.00 20.00     0.017 C 
HETATM    6  C6  UNL     1     -22.243  16.974   8.927  1.00 20.00     0.017 C 
HETATM    7  C7  UNL     1     -24.287  16.243  11.872  1.00 20.00     0.045 C 
HETATM    8  C8  UNL     1     -25.000  18.595  12.332  1.00 20.00     0.045 C 
HETATM    9  O9  UNL     1     -22.726  18.070  11.747  1.00 20.00    -0.380 OA
ENDROOT
TORSDOF 0
ENDMDL
MODEL 3
REMARK VINA RESULT:      -3.6     15.090     15.955
REMARK  0 active torsions:
REMARK  status: ('A' for Active; 'I' for Inactive)
ROOT
HETATM    1  C1  UNL     1     -34.228   8.009   4.476  1.00 20.00     0.048 C 
HETATM    2  C2  UNL     1     -33.176   6.019   3.758  1.00 20.00     0.177 C 
HETATM    3  C3  UNL     1     -34.229   6.505   4.746  1.00 20.00    -0.023 C 
HETATM    4  C4  UNL     1     -32.818   8.312   3.944  1.00 20.00     0.054 C 
HETATM    5  C5  UNL     1     -35.594   5.869   4.485  1.00 20.00     0.017 C 
HETATM    6  C6  UNL     1     -33.798   6.201   6.189  1.00 20.00     0.017 C 
HETATM    7  C7  UNL     1     -31.977   9.115   4.936  1.00 20.00     0.045 C 
HETATM    8  C8  UNL     1     -32.871   9.044   2.602  1.00 20.00     0.045 C 
HETATM    9  O9  UNL     1     -32.171   7.040   3.733  1.00 20.00    -0.380 OA
ENDROOT
TORSDOF 0
ENDMDL
MODEL 4
REMARK VINA RESULT:      -3.4      1.270      2.034
REMARK  0 active torsions:
REMARK  status: ('A' for Active; 'I' for Inactive)
ROOT
HETATM    1  C1  UNL     1     -23.632  19.242  10.243  1.00 20.00     0.048 C 
HETATM    2  C2  UNL     1     -23.668  16.880  10.286  1.00 20.00     0.177 C 
HETATM    3  C3  UNL     1     -23.864  18.078  11.206  1.00 20.00    -0.023 C 
HETATM    4  C4  UNL     1     -22.705  18.673   9.156  1.00 20.00     0.054 C 
HETATM    5  C5  UNL     1     -25.264  18.104  11.820  1.00 20.00     0.017 C 
HETATM    6  C6  UNL     1     -22.819  18.073  12.332  1.00 20.00     0.017 C 
HETATM    7  C7  UNL     1     -21.294  19.256   9.225  1.00 20.00     0.045 C 
HETATM    8  C8  UNL     1     -23.285  18.889   7.757  1.00 20.00     0.045 C 
HETATM    9  O9  UNL     1     -22.616  17.252   9.387  1.00 20.00    -0.380 OA
ENDROOT
TORSDOF 0
ENDMDL
MODEL 5
REMARK VINA RESULT:      -3.1     19.776     20.772
REMARK  0 active torsions:
REMARK  status: ('A' for Active; 'I' for Inactive)
ROOT
HETATM    1  C1  UNL     1     -35.340  16.648  -5.174  1.00 20.00     0.048 C 
HETATM    2  C2  UNL     1     -35.976  14.382  -5.379  1.00 20.00     0.177 C 
HETATM    3  C3  UNL     1     -34.729  15.254  -5.315  1.00 20.00    -0.023 C 
HETATM    4  C4  UNL     1     -36.724  16.538  -5.834  1.00 20.00     0.054 C 
HETATM    5  C5  UNL     1     -33.836  14.888  -4.130  1.00 20.00     0.017 C 
HETATM    6  C6  UNL     1     -33.918  15.134  -6.615  1.00 20.00     0.017 C 
HETATM    7  C7  UNL     1     -36.808  17.311  -7.150  1.00 20.00     0.045 C 
HETATM    8  C8  UNL     1     -37.833  17.007  -4.889  1.00 20.00     0.045 C 
HETATM    9  O9  UNL     1     -36.941  15.141  -6.117  1.00 20.00    -0.380 OA
ENDROOT
TORSDOF 0
ENDMDL
MODEL 6
REMARK VINA RESULT:      -3.1     18.175     19.080
REMARK  0 active torsions:
REMARK  status: ('A' for Active; 'I' for Inactive)
ROOT
HETATM    1  C1  UNL     1     -40.448  14.059   7.060  1.00 20.00     0.048 C 
HETATM    2  C2  UNL     1     -42.245  12.539   6.862  1.00 20.00     0.177 C 
HETATM    3  C3  UNL     1     -41.050  13.058   6.074  1.00 20.00    -0.023 C 
HETATM    4  C4  UNL     1     -41.632  14.514   7.929  1.00 20.00     0.054 C 
HETATM    5  C5  UNL     1     -40.073  11.939   5.714  1.00 20.00     0.017 C 
HETATM    6  C6  UNL     1     -41.514  13.758   4.787  1.00 20.00     0.017 C 
HETATM    7  C7  UNL     1     -42.035  15.963   7.659  1.00 20.00     0.045 C 
HETATM    8  C8  UNL     1     -41.335  14.331   9.419  1.00 20.00     0.045 C 
HETATM    9  O9  UNL     1     -42.748  13.666   7.590  1.00 20.00    -0.380 OA
ENDROOT
TORSDOF 0
ENDMDL
MODEL 7
REMARK VINA RESULT:      -3.0     17.544     18.810
REMARK  0 active torsions:
REMARK  status: ('A' for Active; 'I' for Inactive)
ROOT
HETATM    1  C1  UNL     1     -42.090  14.739   7.487  1.00 20.00     0.048 C 
HETATM    2  C2  UNL     1     -40.282  13.359   6.850  1.00 20.00     0.177 C 
HETATM    3  C3  UNL     1     -41.748  13.604   6.522  1.00 20.00    -0.023 C 
HETATM    4  C4  UNL     1     -41.111  14.564   8.660  1.00 20.00     0.054 C 
HETATM    5  C5  UNL     1     -41.948  14.006   5.060  1.00 20.00     0.017 C 
HETATM    6  C6  UNL     1     -42.586  12.351   6.820  1.00 20.00     0.017 C 
HETATM    7  C7  UNL     1     -41.805  14.097   9.938  1.00 20.00     0.045 C 
HETATM    8  C8  UNL     1     -40.335  15.853   8.937  1.00 20.00     0.045 C 
HETATM    9  O9  UNL     1     -40.165  13.550   8.265  1.00 20.00    -0.380 OA
ENDROOT
TORSDOF 0
ENDMDL
MODEL 8
REMARK VINA RESULT:      -3.0     15.998     17.036
REMARK  0 active torsions:
REMARK  status: ('A' for Active; 'I' for Inactive)
ROOT
HETATM    1  C1  UNL     1     -34.419  18.876  -2.387  1.00 20.00     0.048 C 
HETATM    2  C2  UNL     1     -33.379  16.763  -2.206  1.00 20.00     0.177 C 
HETATM    3  C3  UNL     1     -33.489  18.088  -1.465  1.00 20.00    -0.023 C 
HETATM    4  C4  UNL     1     -34.195  18.269  -3.782  1.00 20.00     0.054 C 
HETATM    5  C5  UNL     1     -34.074  17.912  -0.064  1.00 20.00     0.017 C 
HETATM    6  C6  UNL     1     -32.114  18.764  -1.357  1.00 20.00     0.017 C 
HETATM    7  C7  UNL     1     -33.463  19.223  -4.725  1.00 20.00     0.045 C 
HETATM    8  C8  UNL     1     -35.514  17.826  -4.418  1.00 20.00     0.045 C 
HETATM    9  O9  UNL     1     -33.373  17.099  -3.599  1.00 20.00    -0.380 OA
ENDROOT
TORSDOF 0
ENDMDL
MODEL 9
REMARK VINA RESULT:      -3.0     19.621     20.709
REMARK  0 active torsions:
REMARK  status: ('A' for Active; 'I' for Inactive)
ROOT
HETATM    1  C1  UNL     1     -35.225  16.456  -5.217  1.00 20.00     0.048 C 
HETATM    2  C2  UNL     1     -34.293  16.049  -7.349  1.00 20.00     0.177 C 
HETATM    3  C3  UNL     1     -35.285  16.971  -6.654  1.00 20.00    -0.023 C 
HETATM    4  C4  UNL     1     -34.809  14.981  -5.346  1.00 20.00     0.054 C 
HETATM    5  C5  UNL     1     -34.873  18.439  -6.762  1.00 20.00     0.017 C 
HETATM    6  C6  UNL     1     -36.692  16.797  -7.247  1.00 20.00     0.017 C 
HETATM    7  C7  UNL     1     -35.941  14.019  -4.989  1.00 20.00     0.045 C 
HETATM    8  C8  UNL     1     -33.579  14.670  -4.491  1.00 20.00     0.045 C 
HETATM    9  O9  UNL     1     -34.456  14.768  -6.728  1.00 20.00    -0.380 OA
ENDROOT
TORSDOF 0
ENDMDL
