MODEL 1
REMARK VINA RESULT:      -4.1      0.000      0.000
REMARK  2 active torsions:
REMARK  status: ('A' for Active; 'I' for Inactive)
REMARK    1  A    between atoms: C2_2  and  C6_6 
REMARK    2  A    between atoms: C2_2  and  O9_9 
ROOT
HETATM    1  C1  UNL     1     -33.576   5.477   3.585  1.00 20.00     0.079 C 
HETATM    2  C3  UNL     1     -34.411   4.805   5.791  1.00 20.00     0.042 C 
HETATM    3  C4  UNL     1     -35.874   6.089   4.188  1.00 20.00     0.042 C 
HETATM    4  C6  UNL     1     -34.444   5.895   4.712  1.00 20.00     0.129 C 
HETATM    5  N7  UNL     1     -32.898   5.149   2.704  1.00 20.00    -0.196 NA
ENDROOT
BRANCH   4   6
HETATM    6  C2  UNL     1     -33.930   7.213   5.298  1.00 20.00     0.280 C 
HETATM    7  O8  UNL     1     -33.991   7.519   6.484  1.00 20.00    -0.263 OA
BRANCH   6   8
HETATM    8  O9  UNL     1     -33.394   7.997   4.314  1.00 20.00    -0.325 OA
HETATM    9  C5  UNL     1     -32.270   8.795   4.699  1.00 20.00     0.213 C 
ENDBRANCH   6   8
ENDBRANCH   4   6
TORSDOF 2
ENDMDL
MODEL 2
REMARK VINA RESULT:      -3.6      9.192      9.858
REMARK  2 active torsions:
REMARK  status: ('A' for Active; 'I' for Inactive)
REMARK    1  A    between atoms: C2_2  and  C6_6 
REMARK    2  A    between atoms: C2_2  and  O9_9 
ROOT
HETATM    1  C1  UNL     1     -42.280  12.520   7.013  1.00 20.00     0.079 C 
HETATM    2  C3  UNL     1     -40.693  14.357   7.359  1.00 20.00     0.042 C 
HETATM    3  C4  UNL     1     -41.833  14.032   5.135  1.00 20.00     0.042 C 
HETATM    4  C6  UNL     1     -41.226  13.327   6.355  1.00 20.00     0.129 C 
HETATM    5  N7  UNL     1     -43.107  11.890   7.529  1.00 20.00    -0.196 NA
ENDROOT
BRANCH   4   6
HETATM    6  C2  UNL     1     -40.083  12.413   5.904  1.00 20.00     0.280 C 
HETATM    7  O8  UNL     1     -39.335  11.807   6.662  1.00 20.00    -0.263 OA
BRANCH   6   8
HETATM    8  O9  UNL     1     -40.016  12.371   4.538  1.00 20.00    -0.325 OA
HETATM    9  C5  UNL     1     -38.916  11.636   3.993  1.00 20.00     0.213 C 
ENDBRANCH   6   8
ENDBRANCH   4   6
TORSDOF 2
ENDMDL
MODEL 3
REMARK VINA RESULT:      -3.6      9.263      9.954
REMARK  2 active torsions:
REMARK  status: ('A' for Active; 'I' for Inactive)
REMARK    1  A    between atoms: C2_2  and  C6_6 
REMARK    2  A    between atoms: C2_2  and  O9_9 
ROOT
HETATM    1  C1  UNL     1     -40.772  14.318   7.284  1.00 20.00     0.079 C 
HETATM    2  C3  UNL     1     -41.804  14.060   5.074  1.00 20.00     0.042 C 
HETATM    3  C4  UNL     1     -42.382  12.495   6.964  1.00 20.00     0.042 C 
HETATM    4  C6  UNL     1     -41.267  13.320   6.306  1.00 20.00     0.129 C 
HETATM    5  N7  UNL     1     -40.387  15.100   8.049  1.00 20.00    -0.196 NA
ENDROOT
BRANCH   4   6
HETATM    6  C2  UNL     1     -40.121  12.394   5.890  1.00 20.00     0.280 C 
HETATM    7  O8  UNL     1     -39.388  11.797   6.671  1.00 20.00    -0.263 OA
BRANCH   6   8
HETATM    8  O9  UNL     1     -40.031  12.329   4.526  1.00 20.00    -0.325 OA
HETATM    9  C5  UNL     1     -38.891  11.633   4.012  1.00 20.00     0.213 C 
ENDBRANCH   6   8
ENDBRANCH   4   6
TORSDOF 2
ENDMDL
MODEL 4
REMARK VINA RESULT:      -3.5      9.087      9.739
REMARK  2 active torsions:
REMARK  status: ('A' for Active; 'I' for Inactive)
REMARK    1  A    between atoms: C2_2  and  C6_6 
REMARK    2  A    between atoms: C2_2  and  O9_9 
ROOT
HETATM    1  C1  UNL     1     -41.634  13.846   4.915  1.00 20.00     0.079 C 
HETATM    2  C3  UNL     1     -42.377  12.554   6.863  1.00 20.00     0.042 C 
HETATM    3  C4  UNL     1     -40.735  14.450   7.116  1.00 20.00     0.042 C 
HETATM    4  C6  UNL     1     -41.197  13.294   6.219  1.00 20.00     0.129 C 
HETATM    5  N7  UNL     1     -41.977  14.279   3.896  1.00 20.00    -0.196 NA
ENDROOT
BRANCH   4   6
HETATM    6  C2  UNL     1     -40.037  12.317   6.004  1.00 20.00     0.280 C 
HETATM    7  O8  UNL     1     -39.248  11.968   6.875  1.00 20.00    -0.263 OA
BRANCH   6   8
HETATM    8  O9  UNL     1     -40.005  11.892   4.703  1.00 20.00    -0.325 OA
HETATM    9  C5  UNL     1     -38.703  11.655   4.160  1.00 20.00     0.213 C 
ENDBRANCH   6   8
ENDBRANCH   4   6
TORSDOF 2
ENDMDL
MODEL 5
REMARK VINA RESULT:      -3.5     12.581     13.353
REMARK  2 active torsions:
REMARK  status: ('A' for Active; 'I' for Inactive)
REMARK    1  A    between atoms: C2_2  and  C6_6 
REMARK    2  A    between atoms: C2_2  and  O9_9 
ROOT
HETATM    1  C1  UNL     1     -34.211  15.279  -6.828  1.00 20.00     0.079 C 
HETATM    2  C3  UNL     1     -36.058  14.399  -5.476  1.00 20.00     0.042 C 
HETATM    3  C4  UNL     1     -35.493  16.855  -5.454  1.00 20.00     0.042 C 
HETATM    4  C6  UNL     1     -34.925  15.432  -5.539  1.00 20.00     0.129 C 
HETATM    5  N7  UNL     1     -33.654  15.159  -7.839  1.00 20.00    -0.196 NA
ENDROOT
BRANCH   4   6
HETATM    6  C2  UNL     1     -33.953  15.198  -4.380  1.00 20.00     0.280 C 
HETATM    7  O8  UNL     1     -33.691  14.100  -3.900  1.00 20.00    -0.263 OA
BRANCH   6   8
HETATM    8  O9  UNL     1     -33.420  16.385  -3.955  1.00 20.00    -0.325 OA
HETATM    9  C5  UNL     1     -33.326  16.551  -2.537  1.00 20.00     0.213 C 
ENDBRANCH   6   8
ENDBRANCH   4   6
TORSDOF 2
ENDMDL
MODEL 6
REMARK VINA RESULT:      -3.4     12.161     12.945
REMARK  2 active torsions:
REMARK  status: ('A' for Active; 'I' for Inactive)
REMARK    1  A    between atoms: C2_2  and  C6_6 
REMARK    2  A    between atoms: C2_2  and  O9_9 
ROOT
HETATM    1  C1  UNL     1     -35.362  14.112  -4.785  1.00 20.00     0.079 C 
HETATM    2  C3  UNL     1     -35.723  16.489  -5.269  1.00 20.00     0.042 C 
HETATM    3  C4  UNL     1     -34.055  15.138  -6.589  1.00 20.00     0.042 C 
HETATM    4  C6  UNL     1     -34.685  15.361  -5.208  1.00 20.00     0.129 C 
HETATM    5  N7  UNL     1     -35.893  13.135  -4.455  1.00 20.00    -0.196 NA
ENDROOT
BRANCH   4   6
HETATM    6  C2  UNL     1     -33.593  15.723  -4.198  1.00 20.00     0.280 C 
HETATM    7  O8  UNL     1     -32.538  15.113  -4.063  1.00 20.00    -0.263 OA
BRANCH   6   8
HETATM    8  O9  UNL     1     -33.961  16.821  -3.469  1.00 20.00    -0.325 OA
HETATM    9  C5  UNL     1     -33.415  16.900  -2.148  1.00 20.00     0.213 C 
ENDBRANCH   6   8
ENDBRANCH   4   6
TORSDOF 2
ENDMDL
MODEL 7
REMARK VINA RESULT:      -3.4      2.256      3.138
REMARK  2 active torsions:
REMARK  status: ('A' for Active; 'I' for Inactive)
REMARK    1  A    between atoms: C2_2  and  C6_6 
REMARK    2  A    between atoms: C2_2  and  O9_9 
ROOT
HETATM    1  C1  UNL     1     -33.748   7.347   4.913  1.00 20.00     0.079 C 
HETATM    2  C3  UNL     1     -35.900   6.353   4.282  1.00 20.00     0.042 C 
HETATM    3  C4  UNL     1     -34.726   5.661   6.402  1.00 20.00     0.042 C 
HETATM    4  C6  UNL     1     -34.539   6.094   4.942  1.00 20.00     0.129 C 
HETATM    5  N7  UNL     1     -33.131   8.328   4.891  1.00 20.00    -0.196 NA
ENDROOT
BRANCH   4   6
HETATM    6  C2  UNL     1     -33.797   4.997   4.173  1.00 20.00     0.280 C 
HETATM    7  O8  UNL     1     -33.929   3.795   4.372  1.00 20.00    -0.263 OA
BRANCH   6   8
HETATM    8  O9  UNL     1     -32.968   5.549   3.235  1.00 20.00    -0.325 OA
HETATM    9  C5  UNL     1     -32.950   4.896   1.962  1.00 20.00     0.213 C 
ENDBRANCH   6   8
ENDBRANCH   4   6
TORSDOF 2
ENDMDL
MODEL 8
REMARK VINA RESULT:      -3.4      9.926     10.539
REMARK  2 active torsions:
REMARK  status: ('A' for Active; 'I' for Inactive)
REMARK    1  A    between atoms: C2_2  and  C6_6 
REMARK    2  A    between atoms: C2_2  and  O9_9 
ROOT
HETATM    1  C1  UNL     1     -41.566  13.746   4.958  1.00 20.00     0.079 C 
HETATM    2  C3  UNL     1     -40.052  12.143   6.031  1.00 20.00     0.042 C 
HETATM    3  C4  UNL     1     -42.418  12.435   6.848  1.00 20.00     0.042 C 
HETATM    4  C6  UNL     1     -41.191  13.144   6.260  1.00 20.00     0.129 C 
HETATM    5  N7  UNL     1     -41.860  14.215   3.939  1.00 20.00    -0.196 NA
ENDROOT
BRANCH   4   6
HETATM    6  C2  UNL     1     -40.724  14.242   7.220  1.00 20.00     0.280 C 
HETATM    7  O8  UNL     1     -40.810  15.445   6.998  1.00 20.00    -0.263 OA
BRANCH   6   8
HETATM    8  O9  UNL     1     -40.198  13.691   8.356  1.00 20.00    -0.325 OA
HETATM    9  C5  UNL     1     -40.368  14.456   9.553  1.00 20.00     0.213 C 
ENDBRANCH   6   8
ENDBRANCH   4   6
TORSDOF 2
ENDMDL
MODEL 9
REMARK VINA RESULT:      -3.3     12.577     13.695
REMARK  2 active torsions:
REMARK  status: ('A' for Active; 'I' for Inactive)
REMARK    1  A    between atoms: C2_2  and  C6_6 
REMARK    2  A    between atoms: C2_2  and  O9_9 
ROOT
HETATM    1  C1  UNL     1     -34.089  15.189  -6.675  1.00 20.00     0.079 C 
HETATM    2  C3  UNL     1     -34.711  16.727  -4.869  1.00 20.00     0.042 C 
HETATM    3  C4  UNL     1     -33.644  14.499  -4.364  1.00 20.00     0.042 C 
HETATM    4  C6  UNL     1     -34.608  15.254  -5.289  1.00 20.00     0.129 C 
HETATM    5  N7  UNL     1     -33.682  15.139  -7.760  1.00 20.00    -0.196 NA
ENDROOT
BRANCH   4   6
HETATM    6  C2  UNL     1     -35.994  14.606  -5.225  1.00 20.00     0.280 C 
HETATM    7  O8  UNL     1     -36.248  13.561  -4.637  1.00 20.00    -0.263 OA
BRANCH   6   8
HETATM    8  O9  UNL     1     -36.905  15.356  -5.918  1.00 20.00    -0.325 OA
HETATM    9  C5  UNL     1     -38.032  15.814  -5.165  1.00 20.00     0.213 C 
ENDBRANCH   6   8
ENDBRANCH   4   6
TORSDOF 2
ENDMDL
