MODEL 1
REMARK VINA RESULT:      -3.1      0.000      0.000
REMARK  2 active torsions:
REMARK  status: ('A' for Active; 'I' for Inactive)
REMARK    1  A    between atoms: C5_5  and  C6_6 
REMARK    2  A    between atoms: C5_5  and  N7_7 
ROOT
HETATM    1  C1  UNL     1     -32.401   7.383   2.487  1.00 20.00     0.157 C 
HETATM    2  N7  UNL     1     -32.556   6.592   3.340  1.00 20.00    -0.275 NA
HETATM    3  S8  UNL     1     -32.171   8.436   1.314  1.00 20.00    -0.055 SA
ENDROOT
BRANCH   2   4
HETATM    4  C5  UNL     1     -33.452   7.021   4.420  1.00 20.00     0.158 C 
BRANCH   4   5
HETATM    5  C6  UNL     1     -34.402   5.879   4.838  1.00 20.00    -0.033 C 
HETATM    6  C2  UNL     1     -35.814   6.112   4.274  1.00 20.00     0.016 C 
HETATM    7  C3  UNL     1     -34.483   5.850   6.376  1.00 20.00     0.016 C 
HETATM    8  C4  UNL     1     -33.872   4.522   4.345  1.00 20.00     0.016 C 
ENDBRANCH   4   5
ENDBRANCH   2   4
TORSDOF 2
ENDMDL
MODEL 2
REMARK VINA RESULT:      -3.1      0.044      1.532
REMARK  2 active torsions:
REMARK  status: ('A' for Active; 'I' for Inactive)
REMARK    1  A    between atoms: C5_5  and  C6_6 
REMARK    2  A    between atoms: C5_5  and  N7_7 
ROOT
HETATM    1  C1  UNL     1     -32.396   7.344   2.478  1.00 20.00     0.157 C 
HETATM    2  N7  UNL     1     -32.536   6.566   3.345  1.00 20.00    -0.275 NA
HETATM    3  S8  UNL     1     -32.186   8.380   1.286  1.00 20.00    -0.055 SA
ENDROOT
BRANCH   2   4
HETATM    4  C5  UNL     1     -33.418   7.008   4.431  1.00 20.00     0.158 C 
BRANCH   4   5
HETATM    5  C6  UNL     1     -34.373   5.875   4.866  1.00 20.00    -0.033 C 
HETATM    6  C2  UNL     1     -33.877   4.516   4.346  1.00 20.00     0.016 C 
HETATM    7  C3  UNL     1     -35.765   6.155   4.272  1.00 20.00     0.016 C 
HETATM    8  C4  UNL     1     -34.491   5.824   6.399  1.00 20.00     0.016 C 
ENDBRANCH   4   5
ENDBRANCH   2   4
TORSDOF 2
ENDMDL
MODEL 3
REMARK VINA RESULT:      -3.1      0.039      1.539
REMARK  2 active torsions:
REMARK  status: ('A' for Active; 'I' for Inactive)
REMARK    1  A    between atoms: C5_5  and  C6_6 
REMARK    2  A    between atoms: C5_5  and  N7_7 
ROOT
HETATM    1  C1  UNL     1     -32.399   7.350   2.479  1.00 20.00     0.157 C 
HETATM    2  N7  UNL     1     -32.543   6.569   3.342  1.00 20.00    -0.275 NA
HETATM    3  S8  UNL     1     -32.183   8.390   1.291  1.00 20.00    -0.055 SA
ENDROOT
BRANCH   2   4
HETATM    4  C5  UNL     1     -33.417   7.014   4.433  1.00 20.00     0.158 C 
BRANCH   4   5
HETATM    5  C6  UNL     1     -34.391   5.894   4.856  1.00 20.00    -0.033 C 
HETATM    6  C2  UNL     1     -34.489   5.808   6.389  1.00 20.00     0.016 C 
HETATM    7  C3  UNL     1     -33.857   4.554   4.318  1.00 20.00     0.016 C 
HETATM    8  C4  UNL     1     -35.791   6.141   4.267  1.00 20.00     0.016 C 
ENDBRANCH   4   5
ENDBRANCH   2   4
TORSDOF 2
ENDMDL
MODEL 4
REMARK VINA RESULT:      -3.1     12.438     13.215
REMARK  2 active torsions:
REMARK  status: ('A' for Active; 'I' for Inactive)
REMARK    1  A    between atoms: C5_5  and  C6_6 
REMARK    2  A    between atoms: C5_5  and  N7_7 
ROOT
HETATM    1  C1  UNL     1     -30.779  18.835   0.466  1.00 20.00     0.157 C 
HETATM    2  N7  UNL     1     -31.095  18.556  -0.629  1.00 20.00    -0.275 NA
HETATM    3  S8  UNL     1     -30.326  19.191   1.951  1.00 20.00    -0.055 SA
ENDROOT
BRANCH   2   4
HETATM    4  C5  UNL     1     -32.283  19.261  -1.124  1.00 20.00     0.158 C 
BRANCH   4   5
HETATM    5  C6  UNL     1     -33.502  18.316  -1.188  1.00 20.00    -0.033 C 
HETATM    6  C2  UNL     1     -33.163  17.045  -1.985  1.00 20.00     0.016 C 
HETATM    7  C3  UNL     1     -34.653  19.052  -1.896  1.00 20.00     0.016 C 
HETATM    8  C4  UNL     1     -33.961  17.925   0.228  1.00 20.00     0.016 C 
ENDBRANCH   4   5
ENDBRANCH   2   4
TORSDOF 2
ENDMDL
MODEL 5
REMARK VINA RESULT:      -3.0     10.447     11.315
REMARK  2 active torsions:
REMARK  status: ('A' for Active; 'I' for Inactive)
REMARK    1  A    between atoms: C5_5  and  C6_6 
REMARK    2  A    between atoms: C5_5  and  N7_7 
ROOT
HETATM    1  C1  UNL     1     -40.385  14.475   9.299  1.00 20.00     0.157 C 
HETATM    2  N7  UNL     1     -40.261  13.696   8.429  1.00 20.00    -0.275 NA
HETATM    3  S8  UNL     1     -40.545  15.508  10.500  1.00 20.00    -0.055 SA
ENDROOT
BRANCH   2   4
HETATM    4  C5  UNL     1     -40.547  14.221   7.090  1.00 20.00     0.158 C 
BRANCH   4   5
HETATM    5  C6  UNL     1     -41.155  13.129   6.185  1.00 20.00    -0.033 C 
HETATM    6  C2  UNL     1     -40.124  12.025   5.895  1.00 20.00     0.016 C 
HETATM    7  C3  UNL     1     -41.574  13.776   4.852  1.00 20.00     0.016 C 
HETATM    8  C4  UNL     1     -42.398  12.506   6.844  1.00 20.00     0.016 C 
ENDBRANCH   4   5
ENDBRANCH   2   4
TORSDOF 2
ENDMDL
MODEL 6
REMARK VINA RESULT:      -3.0     12.362     13.049
REMARK  2 active torsions:
REMARK  status: ('A' for Active; 'I' for Inactive)
REMARK    1  A    between atoms: C5_5  and  C6_6 
REMARK    2  A    between atoms: C5_5  and  N7_7 
ROOT
HETATM    1  C1  UNL     1     -30.875  18.604   0.444  1.00 20.00     0.157 C 
HETATM    2  N7  UNL     1     -31.115  18.548  -0.704  1.00 20.00    -0.275 NA
HETATM    3  S8  UNL     1     -30.524  18.662   1.997  1.00 20.00    -0.055 SA
ENDROOT
BRANCH   2   4
HETATM    4  C5  UNL     1     -32.329  19.262  -1.113  1.00 20.00     0.158 C 
BRANCH   4   5
HETATM    5  C6  UNL     1     -33.522  18.292  -1.254  1.00 20.00    -0.033 C 
HETATM    6  C2  UNL     1     -34.702  18.979  -1.962  1.00 20.00     0.016 C 
HETATM    7  C3  UNL     1     -33.972  17.865   0.155  1.00 20.00     0.016 C 
HETATM    8  C4  UNL     1     -33.112  17.037  -2.043  1.00 20.00     0.016 C 
ENDBRANCH   4   5
ENDBRANCH   2   4
TORSDOF 2
ENDMDL
MODEL 7
REMARK VINA RESULT:      -3.0     12.139     12.792
REMARK  2 active torsions:
REMARK  status: ('A' for Active; 'I' for Inactive)
REMARK    1  A    between atoms: C5_5  and  C6_6 
REMARK    2  A    between atoms: C5_5  and  N7_7 
ROOT
HETATM    1  C1  UNL     1     -33.726  16.110  -4.004  1.00 20.00     0.157 C 
HETATM    2  N7  UNL     1     -33.497  17.051  -3.340  1.00 20.00    -0.275 NA
HETATM    3  S8  UNL     1     -34.036  14.852  -4.930  1.00 20.00    -0.055 SA
ENDROOT
BRANCH   2   4
HETATM    4  C5  UNL     1     -33.458  16.790  -1.897  1.00 20.00     0.158 C 
BRANCH   4   5
HETATM    5  C6  UNL     1     -33.335  18.105  -1.099  1.00 20.00    -0.033 C 
HETATM    6  C2  UNL     1     -34.036  19.258  -1.838  1.00 20.00     0.016 C 
HETATM    7  C3  UNL     1     -31.842  18.449  -0.951  1.00 20.00     0.016 C 
HETATM    8  C4  UNL     1     -33.948  17.949   0.304  1.00 20.00     0.016 C 
ENDBRANCH   4   5
ENDBRANCH   2   4
TORSDOF 2
ENDMDL
MODEL 8
REMARK VINA RESULT:      -2.9     11.729     12.888
REMARK  2 active torsions:
REMARK  status: ('A' for Active; 'I' for Inactive)
REMARK    1  A    between atoms: C5_5  and  C6_6 
REMARK    2  A    between atoms: C5_5  and  N7_7 
ROOT
HETATM    1  C1  UNL     1     -33.395  16.894  -2.392  1.00 20.00     0.157 C 
HETATM    2  N7  UNL     1     -33.369  16.192  -3.332  1.00 20.00    -0.275 NA
HETATM    3  S8  UNL     1     -33.409  17.828  -1.101  1.00 20.00    -0.055 SA
ENDROOT
BRANCH   2   4
HETATM    4  C5  UNL     1     -34.251  16.603  -4.430  1.00 20.00     0.158 C 
BRANCH   4   5
HETATM    5  C6  UNL     1     -34.795  15.377  -5.193  1.00 20.00    -0.033 C 
HETATM    6  C2  UNL     1     -34.659  14.102  -4.342  1.00 20.00     0.016 C 
HETATM    7  C3  UNL     1     -33.973  15.200  -6.483  1.00 20.00     0.016 C 
HETATM    8  C4  UNL     1     -36.271  15.584  -5.572  1.00 20.00     0.016 C 
ENDBRANCH   4   5
ENDBRANCH   2   4
TORSDOF 2
ENDMDL
MODEL 9
REMARK VINA RESULT:      -2.9     11.736     12.852
REMARK  2 active torsions:
REMARK  status: ('A' for Active; 'I' for Inactive)
REMARK    1  A    between atoms: C5_5  and  C6_6 
REMARK    2  A    between atoms: C5_5  and  N7_7 
ROOT
HETATM    1  C1  UNL     1     -33.402  16.890  -2.381  1.00 20.00     0.157 C 
HETATM    2  N7  UNL     1     -33.371  16.195  -3.327  1.00 20.00    -0.275 NA
HETATM    3  S8  UNL     1     -33.421  17.814  -1.084  1.00 20.00    -0.055 SA
ENDROOT
BRANCH   2   4
HETATM    4  C5  UNL     1     -34.256  16.608  -4.422  1.00 20.00     0.158 C 
BRANCH   4   5
HETATM    5  C6  UNL     1     -34.775  15.385  -5.207  1.00 20.00    -0.033 C 
HETATM    6  C2  UNL     1     -33.974  15.191  -6.505  1.00 20.00     0.016 C 
HETATM    7  C3  UNL     1     -36.252  15.628  -5.569  1.00 20.00     0.016 C 
HETATM    8  C4  UNL     1     -34.680  14.109  -4.351  1.00 20.00     0.016 C 
ENDBRANCH   4   5
ENDBRANCH   2   4
TORSDOF 2
ENDMDL
