MODEL 1
REMARK VINA RESULT:      -4.6      0.000      0.000
REMARK  1 active torsions:
REMARK  status: ('A' for Active; 'I' for Inactive)
REMARK    1  A    between atoms: C3_3  and  C4_4 
ROOT
HETATM    1  C1  UNL     1     -33.992   6.388   6.439  1.00 20.00     0.197 C 
HETATM    2  C2  UNL     1     -34.671   5.568   5.377  1.00 20.00     0.197 C 
HETATM    3  C3  UNL     1     -33.937   7.495   4.462  1.00 20.00     0.369 C 
HETATM    4  O5  UNL     1     -33.970   7.703   5.881  1.00 20.00    -0.351 OA
HETATM    5  O6  UNL     1     -34.147   6.108   4.166  1.00 20.00    -0.351 OA
ENDROOT
BRANCH   3   6
HETATM    6  C4  UNL     1     -32.595   7.931   3.906  1.00 20.00     0.437 C 
HETATM    7  F7  UNL     1     -32.756   8.930   3.020  1.00 20.00    -0.166 F 
HETATM    8  F8  UNL     1     -31.794   8.364   4.896  1.00 20.00    -0.166 F 
HETATM    9  F9  UNL     1     -31.988   6.905   3.285  1.00 20.00    -0.166 F 
ENDBRANCH   3   6
TORSDOF 1
ENDMDL
MODEL 2
REMARK VINA RESULT:      -4.6      2.573      3.337
REMARK  1 active torsions:
REMARK  status: ('A' for Active; 'I' for Inactive)
REMARK    1  A    between atoms: C3_3  and  C4_4 
ROOT
HETATM    1  C1  UNL     1     -33.488   8.516   5.155  1.00 20.00     0.197 C 
HETATM    2  C2  UNL     1     -32.719   8.064   3.944  1.00 20.00     0.197 C 
HETATM    3  C3  UNL     1     -33.431   6.252   5.084  1.00 20.00     0.369 C 
HETATM    4  O5  UNL     1     -33.500   7.359   5.992  1.00 20.00    -0.351 OA
HETATM    5  O6  UNL     1     -33.171   6.724   3.756  1.00 20.00    -0.351 OA
ENDROOT
BRANCH   3   6
HETATM    6  C4  UNL     1     -34.742   5.488   5.099  1.00 20.00     0.437 C 
HETATM    7  F7  UNL     1     -34.579   4.267   4.558  1.00 20.00    -0.166 F 
HETATM    8  F8  UNL     1     -35.185   5.340   6.360  1.00 20.00    -0.166 F 
HETATM    9  F9  UNL     1     -35.677   6.146   4.393  1.00 20.00    -0.166 F 
ENDBRANCH   3   6
TORSDOF 1
ENDMDL
MODEL 3
REMARK VINA RESULT:      -4.6      1.244      1.946
REMARK  1 active torsions:
REMARK  status: ('A' for Active; 'I' for Inactive)
REMARK    1  A    between atoms: C3_3  and  C4_4 
ROOT
HETATM    1  C1  UNL     1     -35.074   5.712   4.764  1.00 20.00     0.197 C 
HETATM    2  C2  UNL     1     -34.716   5.528   6.213  1.00 20.00     0.197 C 
HETATM    3  C3  UNL     1     -33.206   6.899   5.248  1.00 20.00     0.369 C 
HETATM    4  O5  UNL     1     -33.867   6.204   4.182  1.00 20.00    -0.351 OA
HETATM    5  O6  UNL     1     -33.885   6.656   6.487  1.00 20.00    -0.351 OA
ENDROOT
BRANCH   3   6
HETATM    6  C4  UNL     1     -33.194   8.390   4.965  1.00 20.00     0.437 C 
HETATM    7  F7  UNL     1     -34.125   9.015   5.708  1.00 20.00    -0.166 F 
HETATM    8  F8  UNL     1     -31.991   8.914   5.258  1.00 20.00    -0.166 F 
HETATM    9  F9  UNL     1     -33.457   8.624   3.667  1.00 20.00    -0.166 F 
ENDBRANCH   3   6
TORSDOF 1
ENDMDL
MODEL 4
REMARK VINA RESULT:      -4.4      2.428      3.346
REMARK  1 active torsions:
REMARK  status: ('A' for Active; 'I' for Inactive)
REMARK    1  A    between atoms: C3_3  and  C4_4 
ROOT
HETATM    1  C1  UNL     1     -32.921   5.775   3.302  1.00 20.00     0.197 C 
HETATM    2  C2  UNL     1     -32.430   7.197   3.336  1.00 20.00     0.197 C 
HETATM    3  C3  UNL     1     -34.105   6.959   4.829  1.00 20.00     0.369 C 
HETATM    4  O5  UNL     1     -34.204   5.851   3.925  1.00 20.00    -0.351 OA
HETATM    5  O6  UNL     1     -32.876   7.663   4.609  1.00 20.00    -0.351 OA
ENDROOT
BRANCH   3   6
HETATM    6  C4  UNL     1     -34.151   6.462   6.262  1.00 20.00     0.437 C 
HETATM    7  F7  UNL     1     -32.913   6.156   6.692  1.00 20.00    -0.166 F 
HETATM    8  F8  UNL     1     -34.662   7.408   7.071  1.00 20.00    -0.166 F 
HETATM    9  F9  UNL     1     -34.918   5.362   6.354  1.00 20.00    -0.166 F 
ENDBRANCH   3   6
TORSDOF 1
ENDMDL
MODEL 5
REMARK VINA RESULT:      -4.4      2.401      3.394
REMARK  1 active torsions:
REMARK  status: ('A' for Active; 'I' for Inactive)
REMARK    1  A    between atoms: C3_3  and  C4_4 
ROOT
HETATM    1  C1  UNL     1     -32.907   5.783   3.297  1.00 20.00     0.197 C 
HETATM    2  C2  UNL     1     -32.437   7.212   3.294  1.00 20.00     0.197 C 
HETATM    3  C3  UNL     1     -34.092   6.984   4.810  1.00 20.00     0.369 C 
HETATM    4  O5  UNL     1     -34.184   5.855   3.932  1.00 20.00    -0.351 OA
HETATM    5  O6  UNL     1     -32.875   7.700   4.560  1.00 20.00    -0.351 OA
ENDROOT
BRANCH   3   6
HETATM    6  C4  UNL     1     -34.114   6.519   6.254  1.00 20.00     0.437 C 
HETATM    7  F7  UNL     1     -34.854   5.402   6.376  1.00 20.00    -0.166 F 
HETATM    8  F8  UNL     1     -32.868   6.254   6.683  1.00 20.00    -0.166 F 
HETATM    9  F9  UNL     1     -34.644   7.469   7.045  1.00 20.00    -0.166 F 
ENDBRANCH   3   6
TORSDOF 1
ENDMDL
MODEL 6
REMARK VINA RESULT:      -4.3      2.514      3.603
REMARK  1 active torsions:
REMARK  status: ('A' for Active; 'I' for Inactive)
REMARK    1  A    between atoms: C3_3  and  C4_4 
ROOT
HETATM    1  C1  UNL     1     -32.518   7.120   3.720  1.00 20.00     0.197 C 
HETATM    2  C2  UNL     1     -32.902   8.368   4.466  1.00 20.00     0.197 C 
HETATM    3  C3  UNL     1     -34.356   6.722   4.985  1.00 20.00     0.369 C 
HETATM    4  O5  UNL     1     -33.701   6.322   3.774  1.00 20.00    -0.351 OA
HETATM    5  O6  UNL     1     -33.702   7.872   5.538  1.00 20.00    -0.351 OA
ENDROOT
BRANCH   3   6
HETATM    6  C4  UNL     1     -34.318   5.589   5.993  1.00 20.00     0.437 C 
HETATM    7  F7  UNL     1     -35.463   5.548   6.697  1.00 20.00    -0.166 F 
HETATM    8  F8  UNL     1     -34.160   4.409   5.367  1.00 20.00    -0.166 F 
HETATM    9  F9  UNL     1     -33.296   5.756   6.850  1.00 20.00    -0.166 F 
ENDBRANCH   3   6
TORSDOF 1
ENDMDL
MODEL 7
REMARK VINA RESULT:      -4.3      1.712      2.467
REMARK  1 active torsions:
REMARK  status: ('A' for Active; 'I' for Inactive)
REMARK    1  A    between atoms: C3_3  and  C4_4 
ROOT
HETATM    1  C1  UNL     1     -34.134   4.665   4.495  1.00 20.00     0.197 C 
HETATM    2  C2  UNL     1     -33.451   5.059   3.214  1.00 20.00     0.197 C 
HETATM    3  C3  UNL     1     -34.033   6.924   4.344  1.00 20.00     0.369 C 
HETATM    4  O5  UNL     1     -34.819   5.855   4.887  1.00 20.00    -0.351 OA
HETATM    5  O6  UNL     1     -33.024   6.395   3.473  1.00 20.00    -0.351 OA
ENDROOT
BRANCH   3   6
HETATM    6  C4  UNL     1     -33.372   7.702   5.466  1.00 20.00     0.437 C 
HETATM    7  F7  UNL     1     -33.307   6.953   6.581  1.00 20.00    -0.166 F 
HETATM    8  F8  UNL     1     -32.123   8.058   5.118  1.00 20.00    -0.166 F 
HETATM    9  F9  UNL     1     -34.072   8.817   5.741  1.00 20.00    -0.166 F 
ENDBRANCH   3   6
TORSDOF 1
ENDMDL
MODEL 8
REMARK VINA RESULT:      -4.0      8.528      9.102
REMARK  1 active torsions:
REMARK  status: ('A' for Active; 'I' for Inactive)
REMARK    1  A    between atoms: C3_3  and  C4_4 
ROOT
HETATM    1  C1  UNL     1     -42.179  12.613   6.786  1.00 20.00     0.197 C 
HETATM    2  C2  UNL     1     -42.332  13.742   5.805  1.00 20.00     0.197 C 
HETATM    3  C3  UNL     1     -40.162  13.129   5.890  1.00 20.00     0.369 C 
HETATM    4  O5  UNL     1     -40.780  12.611   7.075  1.00 20.00    -0.351 OA
HETATM    5  O6  UNL     1     -41.164  13.628   4.993  1.00 20.00    -0.351 OA
ENDROOT
BRANCH   3   6
HETATM    6  C4  UNL     1     -39.368  12.036   5.200  1.00 20.00     0.437 C 
HETATM    7  F7  UNL     1     -38.051  12.206   5.415  1.00 20.00    -0.166 F 
HETATM    8  F8  UNL     1     -39.725  10.828   5.669  1.00 20.00    -0.166 F 
HETATM    9  F9  UNL     1     -39.590  12.060   3.874  1.00 20.00    -0.166 F 
ENDBRANCH   3   6
TORSDOF 1
ENDMDL
MODEL 9
REMARK VINA RESULT:      -4.0      8.547      9.084
REMARK  1 active torsions:
REMARK  status: ('A' for Active; 'I' for Inactive)
REMARK    1  A    between atoms: C3_3  and  C4_4 
ROOT
HETATM    1  C1  UNL     1     -42.215  12.599   6.759  1.00 20.00     0.197 C 
HETATM    2  C2  UNL     1     -42.353  13.752   5.804  1.00 20.00     0.197 C 
HETATM    3  C3  UNL     1     -40.186  13.129   5.902  1.00 20.00     0.369 C 
HETATM    4  O5  UNL     1     -40.821  12.584   7.066  1.00 20.00    -0.351 OA
HETATM    5  O6  UNL     1     -41.175  13.653   5.005  1.00 20.00    -0.351 OA
ENDROOT
BRANCH   3   6
HETATM    6  C4  UNL     1     -39.387  12.051   5.195  1.00 20.00     0.437 C 
HETATM    7  F7  UNL     1     -39.614  12.091   3.870  1.00 20.00    -0.166 F 
HETATM    8  F8  UNL     1     -38.071  12.225   5.408  1.00 20.00    -0.166 F 
HETATM    9  F9  UNL     1     -39.735  10.834   5.650  1.00 20.00    -0.166 F 
ENDBRANCH   3   6
TORSDOF 1
ENDMDL
