MODEL 1
REMARK VINA RESULT:      -4.1      0.000      0.000
REMARK  1 active torsions:
REMARK  status: ('A' for Active; 'I' for Inactive)
REMARK    1  A    between atoms: C1_1  and  C4_4 
ROOT
HETATM    1  C3  UNL     1     -32.672   7.343   3.221  1.00 20.00    -0.024 C 
HETATM    2  C4  UNL     1     -32.756   7.915   4.439  1.00 20.00    -0.066 C 
HETATM    3  C6  UNL     1     -32.029   7.877   1.980  1.00 20.00     0.036 C 
HETATM    4  C7  UNL     1     -32.190   9.270   4.776  1.00 20.00     0.048 C 
ENDROOT
BRANCH   2   5
HETATM    5  C1  UNL     1     -33.441   7.184   5.508  1.00 20.00     0.002 C 
HETATM    6  C2  UNL     1     -34.227   6.104   5.369  1.00 20.00    -0.030 C 
HETATM    7  C5  UNL     1     -34.891   5.414   6.516  1.00 20.00     0.036 C 
ENDBRANCH   2   5
TORSDOF 1
ENDMDL
MODEL 2
REMARK VINA RESULT:      -3.9      0.876      3.947
REMARK  1 active torsions:
REMARK  status: ('A' for Active; 'I' for Inactive)
REMARK    1  A    between atoms: C1_1  and  C4_4 
ROOT
HETATM    1  C3  UNL     1     -33.730   6.782   4.835  1.00 20.00    -0.024 C 
HETATM    2  C4  UNL     1     -32.930   7.750   4.344  1.00 20.00    -0.066 C 
HETATM    3  C6  UNL     1     -34.299   6.648   6.212  1.00 20.00     0.036 C 
HETATM    4  C7  UNL     1     -32.440   8.928   5.146  1.00 20.00     0.048 C 
ENDROOT
BRANCH   2   5
HETATM    5  C1  UNL     1     -32.503   7.661   2.945  1.00 20.00     0.002 C 
HETATM    6  C2  UNL     1     -32.549   8.639   2.026  1.00 20.00    -0.030 C 
HETATM    7  C5  UNL     1     -32.093   8.465   0.613  1.00 20.00     0.036 C 
ENDBRANCH   2   5
TORSDOF 1
ENDMDL
MODEL 3
REMARK VINA RESULT:      -3.8     11.701     12.303
REMARK  1 active torsions:
REMARK  status: ('A' for Active; 'I' for Inactive)
REMARK    1  A    between atoms: C1_1  and  C4_4 
ROOT
HETATM    1  C3  UNL     1     -31.362  18.484  -0.327  1.00 20.00    -0.024 C 
HETATM    2  C4  UNL     1     -32.626  18.147  -0.654  1.00 20.00    -0.066 C 
HETATM    3  C6  UNL     1     -30.827  18.939   0.994  1.00 20.00     0.036 C 
HETATM    4  C7  UNL     1     -33.784  18.177   0.310  1.00 20.00     0.048 C 
ENDROOT
BRANCH   2   5
HETATM    5  C1  UNL     1     -32.902  17.725  -2.030  1.00 20.00     0.002 C 
HETATM    6  C2  UNL     1     -33.409  16.546  -2.423  1.00 20.00    -0.030 C 
HETATM    7  C5  UNL     1     -33.661  16.192  -3.853  1.00 20.00     0.036 C 
ENDBRANCH   2   5
TORSDOF 1
ENDMDL
MODEL 4
REMARK VINA RESULT:      -3.7      0.862      3.766
REMARK  1 active torsions:
REMARK  status: ('A' for Active; 'I' for Inactive)
REMARK    1  A    between atoms: C1_1  and  C4_4 
ROOT
HETATM    1  C3  UNL     1     -34.216   6.087   4.935  1.00 20.00    -0.024 C 
HETATM    2  C4  UNL     1     -33.714   7.335   5.035  1.00 20.00    -0.066 C 
HETATM    3  C6  UNL     1     -34.836   5.240   6.001  1.00 20.00     0.036 C 
HETATM    4  C7  UNL     1     -33.685   8.133   6.313  1.00 20.00     0.048 C 
ENDROOT
BRANCH   2   5
HETATM    5  C1  UNL     1     -33.158   7.962   3.834  1.00 20.00     0.002 C 
HETATM    6  C2  UNL     1     -32.470   7.355   2.854  1.00 20.00    -0.030 C 
HETATM    7  C5  UNL     1     -31.934   8.071   1.656  1.00 20.00     0.036 C 
ENDBRANCH   2   5
TORSDOF 1
ENDMDL
MODEL 5
REMARK VINA RESULT:      -3.7      1.218      1.912
REMARK  1 active torsions:
REMARK  status: ('A' for Active; 'I' for Inactive)
REMARK    1  A    between atoms: C1_1  and  C4_4 
ROOT
HETATM    1  C3  UNL     1     -32.505   7.916   2.699  1.00 20.00    -0.024 C 
HETATM    2  C4  UNL     1     -32.888   6.751   3.261  1.00 20.00    -0.066 C 
HETATM    3  C6  UNL     1     -31.987   8.161   1.318  1.00 20.00     0.036 C 
HETATM    4  C7  UNL     1     -32.853   5.421   2.554  1.00 20.00     0.048 C 
ENDROOT
BRANCH   2   5
HETATM    5  C1  UNL     1     -33.367   6.768   4.646  1.00 20.00     0.002 C 
HETATM    6  C2  UNL     1     -34.365   6.031   5.161  1.00 20.00    -0.030 C 
HETATM    7  C5  UNL     1     -34.795   6.109   6.590  1.00 20.00     0.036 C 
ENDBRANCH   2   5
TORSDOF 1
ENDMDL
MODEL 6
REMARK VINA RESULT:      -3.7      1.729      3.567
REMARK  1 active torsions:
REMARK  status: ('A' for Active; 'I' for Inactive)
REMARK    1  A    between atoms: C1_1  and  C4_4 
ROOT
HETATM    1  C3  UNL     1     -33.682   7.561   4.837  1.00 20.00    -0.024 C 
HETATM    2  C4  UNL     1     -34.095   6.288   4.998  1.00 20.00    -0.066 C 
HETATM    3  C6  UNL     1     -33.727   8.691   5.817  1.00 20.00     0.036 C 
HETATM    4  C7  UNL     1     -34.713   5.755   6.265  1.00 20.00     0.048 C 
ENDROOT
BRANCH   2   5
HETATM    5  C1  UNL     1     -33.940   5.356   3.878  1.00 20.00     0.002 C 
HETATM    6  C2  UNL     1     -33.020   5.417   2.902  1.00 20.00    -0.030 C 
HETATM    7  C5  UNL     1     -32.929   4.422   1.790  1.00 20.00     0.036 C 
ENDBRANCH   2   5
TORSDOF 1
ENDMDL
MODEL 7
REMARK VINA RESULT:      -3.5      1.381      4.208
REMARK  1 active torsions:
REMARK  status: ('A' for Active; 'I' for Inactive)
REMARK    1  A    between atoms: C1_1  and  C4_4 
ROOT
HETATM    1  C3  UNL     1     -33.785   7.000   5.325  1.00 20.00    -0.024 C 
HETATM    2  C4  UNL     1     -33.712   6.098   4.325  1.00 20.00    -0.066 C 
HETATM    3  C6  UNL     1     -34.352   6.828   6.699  1.00 20.00     0.036 C 
HETATM    4  C7  UNL     1     -34.222   4.684   4.424  1.00 20.00     0.048 C 
ENDROOT
BRANCH   2   5
HETATM    5  C1  UNL     1     -33.103   6.510   3.057  1.00 20.00     0.002 C 
HETATM    6  C2  UNL     1     -32.504   7.682   2.796  1.00 20.00    -0.030 C 
HETATM    7  C5  UNL     1     -31.905   8.025   1.470  1.00 20.00     0.036 C 
ENDBRANCH   2   5
TORSDOF 1
ENDMDL
MODEL 8
REMARK VINA RESULT:      -3.5     11.848     12.561
REMARK  1 active torsions:
REMARK  status: ('A' for Active; 'I' for Inactive)
REMARK    1  A    between atoms: C1_1  and  C4_4 
ROOT
HETATM    1  C3  UNL     1     -33.189  16.718  -2.363  1.00 20.00    -0.024 C 
HETATM    2  C4  UNL     1     -32.859  17.991  -2.063  1.00 20.00    -0.066 C 
HETATM    3  C6  UNL     1     -33.630  16.150  -3.675  1.00 20.00     0.036 C 
HETATM    4  C7  UNL     1     -32.886  19.125  -3.054  1.00 20.00     0.048 C 
ENDROOT
BRANCH   2   5
HETATM    5  C1  UNL     1     -32.450  18.301  -0.691  1.00 20.00     0.002 C 
HETATM    6  C2  UNL     1     -31.195  18.455  -0.241  1.00 20.00    -0.030 C 
HETATM    7  C5  UNL     1     -30.861  18.772   1.181  1.00 20.00     0.036 C 
ENDBRANCH   2   5
TORSDOF 1
ENDMDL
MODEL 9
REMARK VINA RESULT:      -3.5     11.561     12.278
REMARK  1 active torsions:
REMARK  status: ('A' for Active; 'I' for Inactive)
REMARK    1  A    between atoms: C1_1  and  C4_4 
ROOT
HETATM    1  C3  UNL     1     -33.667  17.869  -0.052  1.00 20.00    -0.024 C 
HETATM    2  C4  UNL     1     -33.267  17.808  -1.339  1.00 20.00    -0.066 C 
HETATM    3  C6  UNL     1     -33.455  18.967   0.942  1.00 20.00     0.036 C 
HETATM    4  C7  UNL     1     -32.488  18.895  -2.033  1.00 20.00     0.048 C 
ENDROOT
BRANCH   2   5
HETATM    5  C1  UNL     1     -33.603  16.614  -2.119  1.00 20.00     0.002 C 
HETATM    6  C2  UNL     1     -33.179  16.316  -3.357  1.00 20.00    -0.030 C 
HETATM    7  C5  UNL     1     -33.571  15.072  -4.087  1.00 20.00     0.036 C 
ENDBRANCH   2   5
TORSDOF 1
ENDMDL
