MODEL 1
REMARK VINA RESULT:      -4.7      0.000      0.000
REMARK  1 active torsions:
REMARK  status: ('A' for Active; 'I' for Inactive)
REMARK    1  A    between atoms: C1_1  and  C6_6 
ROOT
HETATM    1  C2  UNL     1     -33.233   5.011   2.856  1.00 20.00     0.002 C 
HETATM    2  C3  UNL     1     -32.551   6.375   2.838  1.00 20.00     0.012 C 
HETATM    3  C4  UNL     1     -33.631   4.596   4.273  1.00 20.00     0.009 C 
HETATM    4  C5  UNL     1     -33.802   7.032   4.937  1.00 20.00     0.021 C 
HETATM    5  C6  UNL     1     -33.407   7.445   3.515  1.00 20.00     0.055 C 
HETATM    6  C7  UNL     1     -34.495   5.650   5.001  1.00 20.00    -0.047 C 
HETATM    7  C9  UNL     1     -34.649   5.236   6.478  1.00 20.00     0.015 C 
HETATM    8  C10 UNL     1     -35.903   5.720   4.380  1.00 20.00     0.015 C 
ENDROOT
BRANCH   5   9
HETATM    9  C1  UNL     1     -32.638   8.731   3.559  1.00 20.00     0.127 C 
HETATM   10  C8  UNL     1     -32.051   9.124   4.887  1.00 20.00     0.091 C 
HETATM   11  O11 UNL     1     -32.493   9.429   2.556  1.00 20.00    -0.298 OA
ENDBRANCH   5   9
TORSDOF 1
ENDMDL
MODEL 2
REMARK VINA RESULT:      -4.2     11.841     13.022
REMARK  1 active torsions:
REMARK  status: ('A' for Active; 'I' for Inactive)
REMARK    1  A    between atoms: C1_1  and  C6_6 
ROOT
HETATM    1  C2  UNL     1     -34.826  18.848  -3.569  1.00 20.00     0.002 C 
HETATM    2  C3  UNL     1     -34.642  17.460  -4.175  1.00 20.00     0.012 C 
HETATM    3  C4  UNL     1     -34.854  18.798  -2.041  1.00 20.00     0.009 C 
HETATM    4  C5  UNL     1     -33.438  16.701  -2.082  1.00 20.00     0.021 C 
HETATM    5  C6  UNL     1     -33.408  16.755  -3.614  1.00 20.00     0.055 C 
HETATM    6  C7  UNL     1     -33.627  18.089  -1.426  1.00 20.00    -0.047 C 
HETATM    7  C9  UNL     1     -33.863  17.900   0.085  1.00 20.00     0.015 C 
HETATM    8  C10 UNL     1     -32.360  18.948  -1.602  1.00 20.00     0.015 C 
ENDROOT
BRANCH   5   9
HETATM    9  C1  UNL     1     -33.346  15.363  -4.166  1.00 20.00     0.127 C 
HETATM   10  C8  UNL     1     -34.634  14.780  -4.679  1.00 20.00     0.091 C 
HETATM   11  O11 UNL     1     -32.292  14.729  -4.200  1.00 20.00    -0.298 OA
ENDBRANCH   5   9
TORSDOF 1
ENDMDL
MODEL 3
REMARK VINA RESULT:      -3.9     12.076     13.276
REMARK  1 active torsions:
REMARK  status: ('A' for Active; 'I' for Inactive)
REMARK    1  A    between atoms: C1_1  and  C6_6 
ROOT
HETATM    1  C2  UNL     1     -33.675  14.685  -4.696  1.00 20.00     0.002 C 
HETATM    2  C3  UNL     1     -33.295  15.618  -3.551  1.00 20.00     0.012 C 
HETATM    3  C4  UNL     1     -35.103  14.939  -5.181  1.00 20.00     0.009 C 
HETATM    4  C5  UNL     1     -34.941  17.341  -4.403  1.00 20.00     0.021 C 
HETATM    5  C6  UNL     1     -33.509  17.086  -3.920  1.00 20.00     0.055 C 
HETATM    6  C7  UNL     1     -35.370  16.412  -5.563  1.00 20.00    -0.047 C 
HETATM    7  C9  UNL     1     -36.878  16.596  -5.820  1.00 20.00     0.015 C 
HETATM    8  C10 UNL     1     -34.621  16.781  -6.857  1.00 20.00     0.015 C 
ENDROOT
BRANCH   5   9
HETATM    9  C1  UNL     1     -33.220  17.939  -2.723  1.00 20.00     0.127 C 
HETATM   10  C8  UNL     1     -33.624  17.386  -1.384  1.00 20.00     0.091 C 
HETATM   11  O11 UNL     1     -32.678  19.038  -2.830  1.00 20.00    -0.298 OA
ENDBRANCH   5   9
TORSDOF 1
ENDMDL
MODEL 4
REMARK VINA RESULT:      -3.9     10.092     11.145
REMARK  1 active torsions:
REMARK  status: ('A' for Active; 'I' for Inactive)
REMARK    1  A    between atoms: C1_1  and  C6_6 
ROOT
HETATM    1  C2  UNL     1     -43.198  13.138   7.028  1.00 20.00     0.002 C 
HETATM    2  C3  UNL     1     -41.981  12.287   6.681  1.00 20.00     0.012 C 
HETATM    3  C4  UNL     1     -42.835  14.283   7.974  1.00 20.00     0.009 C 
HETATM    4  C5  UNL     1     -40.471  14.278   7.074  1.00 20.00     0.021 C 
HETATM    5  C6  UNL     1     -40.837  13.132   6.124  1.00 20.00     0.055 C 
HETATM    6  C7  UNL     1     -41.678  15.166   7.455  1.00 20.00    -0.047 C 
HETATM    7  C9  UNL     1     -41.251  16.139   8.572  1.00 20.00     0.015 C 
HETATM    8  C10 UNL     1     -42.136  16.005   6.247  1.00 20.00     0.015 C 
ENDROOT
BRANCH   5   9
HETATM    9  C1  UNL     1     -39.641  12.256   5.906  1.00 20.00     0.127 C 
HETATM   10  C8  UNL     1     -39.356  11.840   4.489  1.00 20.00     0.091 C 
HETATM   11  O11 UNL     1     -38.927  11.895   6.841  1.00 20.00    -0.298 OA
ENDBRANCH   5   9
TORSDOF 1
ENDMDL
MODEL 5
REMARK VINA RESULT:      -3.9     11.924     13.892
REMARK  1 active torsions:
REMARK  status: ('A' for Active; 'I' for Inactive)
REMARK    1  A    between atoms: C1_1  and  C6_6 
ROOT
HETATM    1  C2  UNL     1     -33.667  15.544  -3.276  1.00 20.00     0.002 C 
HETATM    2  C3  UNL     1     -33.934  14.939  -4.651  1.00 20.00     0.012 C 
HETATM    3  C4  UNL     1     -33.187  16.992  -3.380  1.00 20.00     0.009 C 
HETATM    4  C5  UNL     1     -34.419  17.244  -5.575  1.00 20.00     0.021 C 
HETATM    5  C6  UNL     1     -34.902  15.794  -5.468  1.00 20.00     0.055 C 
HETATM    6  C7  UNL     1     -34.132  17.896  -4.202  1.00 20.00    -0.047 C 
HETATM    7  C9  UNL     1     -33.450  19.259  -4.428  1.00 20.00     0.015 C 
HETATM    8  C10 UNL     1     -35.446  18.146  -3.437  1.00 20.00     0.015 C 
ENDROOT
BRANCH   5   9
HETATM    9  C1  UNL     1     -35.037  15.204  -6.839  1.00 20.00     0.127 C 
HETATM   10  C8  UNL     1     -34.042  15.657  -7.872  1.00 20.00     0.091 C 
HETATM   11  O11 UNL     1     -35.918  14.388  -7.106  1.00 20.00    -0.298 OA
ENDBRANCH   5   9
TORSDOF 1
ENDMDL
MODEL 6
REMARK VINA RESULT:      -3.8     10.192     11.169
REMARK  1 active torsions:
REMARK  status: ('A' for Active; 'I' for Inactive)
REMARK    1  A    between atoms: C1_1  and  C6_6 
ROOT
HETATM    1  C2  UNL     1     -42.405  14.798   5.445  1.00 20.00     0.002 C 
HETATM    2  C3  UNL     1     -41.530  13.557   5.303  1.00 20.00     0.012 C 
HETATM    3  C4  UNL     1     -42.734  15.094   6.908  1.00 20.00     0.009 C 
HETATM    4  C5  UNL     1     -40.594  13.947   7.621  1.00 20.00     0.021 C 
HETATM    5  C6  UNL     1     -40.264  13.655   6.153  1.00 20.00     0.055 C 
HETATM    6  C7  UNL     1     -41.484  15.198   7.810  1.00 20.00    -0.047 C 
HETATM    7  C9  UNL     1     -41.934  15.274   9.282  1.00 20.00     0.015 C 
HETATM    8  C10 UNL     1     -40.691  16.480   7.492  1.00 20.00     0.015 C 
ENDROOT
BRANCH   5   9
HETATM    9  C1  UNL     1     -39.506  12.366   6.053  1.00 20.00     0.127 C 
HETATM   10  C8  UNL     1     -39.404  11.745   4.687  1.00 20.00     0.091 C 
HETATM   11  O11 UNL     1     -38.991  11.843   7.040  1.00 20.00    -0.298 OA
ENDBRANCH   5   9
TORSDOF 1
ENDMDL
MODEL 7
REMARK VINA RESULT:      -3.7     12.333     13.733
REMARK  1 active torsions:
REMARK  status: ('A' for Active; 'I' for Inactive)
REMARK    1  A    between atoms: C1_1  and  C6_6 
ROOT
HETATM    1  C2  UNL     1     -35.941  18.497  -4.334  1.00 20.00     0.002 C 
HETATM    2  C3  UNL     1     -35.960  17.203  -5.141  1.00 20.00     0.012 C 
HETATM    3  C4  UNL     1     -35.302  18.297  -2.959  1.00 20.00     0.009 C 
HETATM    4  C5  UNL     1     -33.927  16.382  -3.878  1.00 20.00     0.021 C 
HETATM    5  C6  UNL     1     -34.566  16.586  -5.256  1.00 20.00     0.055 C 
HETATM    6  C7  UNL     1     -33.891  17.671  -3.023  1.00 20.00    -0.047 C 
HETATM    7  C9  UNL     1     -33.438  17.311  -1.595  1.00 20.00     0.015 C 
HETATM    8  C10 UNL     1     -32.877  18.676  -3.602  1.00 20.00     0.015 C 
ENDROOT
BRANCH   5   9
HETATM    9  C1  UNL     1     -34.671  15.269  -5.964  1.00 20.00     0.127 C 
HETATM   10  C8  UNL     1     -35.826  14.385  -5.582  1.00 20.00     0.091 C 
HETATM   11  O11 UNL     1     -33.852  14.930  -6.817  1.00 20.00    -0.298 OA
ENDBRANCH   5   9
TORSDOF 1
ENDMDL
MODEL 8
REMARK VINA RESULT:      -3.6     13.439     14.614
REMARK  1 active torsions:
REMARK  status: ('A' for Active; 'I' for Inactive)
REMARK    1  A    between atoms: C1_1  and  C6_6 
ROOT
HETATM    1  C2  UNL     1     -24.803  -1.364  12.332  1.00 20.00     0.002 C 
HETATM    2  C3  UNL     1     -23.782  -1.975  11.377  1.00 20.00     0.012 C 
HETATM    3  C4  UNL     1     -26.131  -1.076  11.631  1.00 20.00     0.009 C 
HETATM    4  C5  UNL     1     -25.660  -2.930   9.975  1.00 20.00     0.021 C 
HETATM    5  C6  UNL     1     -24.330  -3.220  10.681  1.00 20.00     0.055 C 
HETATM    6  C7  UNL     1     -26.724  -2.306  10.907  1.00 20.00    -0.047 C 
HETATM    7  C9  UNL     1     -27.929  -1.854  10.060  1.00 20.00     0.015 C 
HETATM    8  C10 UNL     1     -27.226  -3.345  11.928  1.00 20.00     0.015 C 
ENDROOT
BRANCH   5   9
HETATM    9  C1  UNL     1     -23.324  -3.706   9.682  1.00 20.00     0.127 C 
HETATM   10  C8  UNL     1     -23.397  -3.111   8.303  1.00 20.00     0.091 C 
HETATM   11  O11 UNL     1     -22.479  -4.550   9.978  1.00 20.00    -0.298 OA
ENDBRANCH   5   9
TORSDOF 1
ENDMDL
MODEL 9
REMARK VINA RESULT:      -3.5     10.813     11.671
REMARK  1 active torsions:
REMARK  status: ('A' for Active; 'I' for Inactive)
REMARK    1  A    between atoms: C1_1  and  C6_6 
ROOT
HETATM    1  C2  UNL     1     -42.576  15.054   5.321  1.00 20.00     0.002 C 
HETATM    2  C3  UNL     1     -41.902  15.966   6.341  1.00 20.00     0.012 C 
HETATM    3  C4  UNL     1     -41.699  13.850   4.972  1.00 20.00     0.009 C 
HETATM    4  C5  UNL     1     -40.597  13.996   7.245  1.00 20.00     0.021 C 
HETATM    5  C6  UNL     1     -41.479  15.200   7.594  1.00 20.00     0.055 C 
HETATM    6  C7  UNL     1     -41.241  13.046   6.209  1.00 20.00    -0.047 C 
HETATM    7  C9  UNL     1     -40.196  12.003   5.768  1.00 20.00     0.015 C 
HETATM    8  C10 UNL     1     -42.429  12.289   6.834  1.00 20.00     0.015 C 
ENDROOT
BRANCH   5   9
HETATM    9  C1  UNL     1     -40.732  16.126   8.505  1.00 20.00     0.127 C 
HETATM   10  C8  UNL     1     -40.830  17.597   8.204  1.00 20.00     0.091 C 
HETATM   11  O11 UNL     1     -40.071  15.704   9.453  1.00 20.00    -0.298 OA
ENDBRANCH   5   9
TORSDOF 1
ENDMDL
