MODEL 1
REMARK VINA RESULT:      -3.8      0.000      0.000
REMARK  3 active torsions:
REMARK  status: ('A' for Active; 'I' for Inactive)
REMARK    1  A    between atoms: C4_4  and  C5_5 
REMARK    2  A    between atoms: C4_4  and  C6_6 
REMARK    3  A    between atoms: C5_5  and  N7_7 
ROOT
HETATM    1  C1  UNL     1     -32.512   7.838   4.098  1.00 20.00     0.157 C 
HETATM    2  N7  UNL     1     -32.741   8.204   5.190  1.00 20.00    -0.276 NA
HETATM    3  S8  UNL     1     -32.178   7.355   2.618  1.00 20.00    -0.055 SA
ENDROOT
BRANCH   2   4
HETATM    4  C5  UNL     1     -34.046   7.801   5.715  1.00 20.00     0.151 C 
BRANCH   4   5
HETATM    5  C4  UNL     1     -33.984   6.360   6.215  1.00 20.00     0.026 C 
BRANCH   5   6
HETATM    6  C6  UNL     1     -34.789   5.346   5.378  1.00 20.00    -0.021 C 
HETATM    7  C2  UNL     1     -35.666   6.092   4.369  1.00 20.00     0.009 C 
HETATM    8  C3  UNL     1     -33.890   4.351   4.643  1.00 20.00     0.009 C 
ENDBRANCH   5   6
ENDBRANCH   4   5
ENDBRANCH   2   4
TORSDOF 3
ENDMDL
MODEL 2
REMARK VINA RESULT:      -3.7      1.671      2.451
REMARK  3 active torsions:
REMARK  status: ('A' for Active; 'I' for Inactive)
REMARK    1  A    between atoms: C4_4  and  C5_5 
REMARK    2  A    between atoms: C4_4  and  C6_6 
REMARK    3  A    between atoms: C5_5  and  N7_7 
ROOT
HETATM    1  C1  UNL     1     -32.404   7.440   3.618  1.00 20.00     0.157 C 
HETATM    2  N7  UNL     1     -32.297   6.585   2.820  1.00 20.00    -0.276 NA
HETATM    3  S8  UNL     1     -32.526   8.609   4.692  1.00 20.00    -0.055 SA
ENDROOT
BRANCH   2   4
HETATM    4  C5  UNL     1     -33.405   5.629   2.787  1.00 20.00     0.151 C 
BRANCH   4   5
HETATM    5  C4  UNL     1     -33.455   4.846   4.097  1.00 20.00     0.026 C 
BRANCH   5   6
HETATM    6  C6  UNL     1     -34.734   5.056   4.932  1.00 20.00    -0.021 C 
HETATM    7  C2  UNL     1     -34.360   5.533   6.338  1.00 20.00     0.009 C 
HETATM    8  C3  UNL     1     -35.694   6.057   4.287  1.00 20.00     0.009 C 
ENDBRANCH   5   6
ENDBRANCH   4   5
ENDBRANCH   2   4
TORSDOF 3
ENDMDL
MODEL 3
REMARK VINA RESULT:      -3.7      1.735      2.699
REMARK  3 active torsions:
REMARK  status: ('A' for Active; 'I' for Inactive)
REMARK    1  A    between atoms: C4_4  and  C5_5 
REMARK    2  A    between atoms: C4_4  and  C6_6 
REMARK    3  A    between atoms: C5_5  and  N7_7 
ROOT
HETATM    1  C1  UNL     1     -32.703   6.245   2.929  1.00 20.00     0.157 C 
HETATM    2  N7  UNL     1     -33.166   5.174   2.792  1.00 20.00    -0.276 NA
HETATM    3  S8  UNL     1     -32.064   7.694   3.089  1.00 20.00    -0.055 SA
ENDROOT
BRANCH   2   4
HETATM    4  C5  UNL     1     -33.958   4.694   3.925  1.00 20.00     0.151 C 
BRANCH   4   5
HETATM    5  C4  UNL     1     -34.895   5.799   4.409  1.00 20.00     0.026 C 
BRANCH   5   6
HETATM    6  C6  UNL     1     -34.804   6.116   5.915  1.00 20.00    -0.021 C 
HETATM    7  C2  UNL     1     -34.114   4.960   6.644  1.00 20.00     0.009 C 
HETATM    8  C3  UNL     1     -34.054   7.420   6.192  1.00 20.00     0.009 C 
ENDBRANCH   5   6
ENDBRANCH   4   5
ENDBRANCH   2   4
TORSDOF 3
ENDMDL
MODEL 4
REMARK VINA RESULT:      -3.6      1.657      2.321
REMARK  3 active torsions:
REMARK  status: ('A' for Active; 'I' for Inactive)
REMARK    1  A    between atoms: C4_4  and  C5_5 
REMARK    2  A    between atoms: C4_4  and  C6_6 
REMARK    3  A    between atoms: C5_5  and  N7_7 
ROOT
HETATM    1  C1  UNL     1     -32.337   8.093   1.866  1.00 20.00     0.157 C 
HETATM    2  N7  UNL     1     -32.146   7.415   2.807  1.00 20.00    -0.276 NA
HETATM    3  S8  UNL     1     -32.592   8.990   0.576  1.00 20.00    -0.055 SA
ENDROOT
BRANCH   2   4
HETATM    4  C5  UNL     1     -32.274   8.097   4.095  1.00 20.00     0.151 C 
BRANCH   4   5
HETATM    5  C4  UNL     1     -33.693   7.929   4.633  1.00 20.00     0.026 C 
BRANCH   5   6
HETATM    6  C6  UNL     1     -34.020   6.525   5.179  1.00 20.00    -0.021 C 
HETATM    7  C2  UNL     1     -34.329   6.613   6.676  1.00 20.00     0.009 C 
HETATM    8  C3  UNL     1     -35.196   5.873   4.449  1.00 20.00     0.009 C 
ENDBRANCH   5   6
ENDBRANCH   4   5
ENDBRANCH   2   4
TORSDOF 3
ENDMDL
MODEL 5
REMARK VINA RESULT:      -3.5      2.291      3.573
REMARK  3 active torsions:
REMARK  status: ('A' for Active; 'I' for Inactive)
REMARK    1  A    between atoms: C4_4  and  C5_5 
REMARK    2  A    between atoms: C4_4  and  C6_6 
REMARK    3  A    between atoms: C5_5  and  N7_7 
ROOT
HETATM    1  C1  UNL     1     -34.087   6.902   5.992  1.00 20.00     0.157 C 
HETATM    2  N7  UNL     1     -33.729   8.020   5.950  1.00 20.00    -0.276 NA
HETATM    3  S8  UNL     1     -34.593   5.394   6.065  1.00 20.00    -0.055 SA
ENDROOT
BRANCH   2   4
HETATM    4  C5  UNL     1     -32.540   8.257   5.130  1.00 20.00     0.151 C 
BRANCH   4   5
HETATM    5  C4  UNL     1     -32.934   8.356   3.659  1.00 20.00     0.026 C 
BRANCH   5   6
HETATM    6  C6  UNL     1     -32.136   7.441   2.709  1.00 20.00    -0.021 C 
HETATM    7  C2  UNL     1     -32.751   6.039   2.707  1.00 20.00     0.009 C 
HETATM    8  C3  UNL     1     -32.087   7.984   1.279  1.00 20.00     0.009 C 
ENDBRANCH   5   6
ENDBRANCH   4   5
ENDBRANCH   2   4
TORSDOF 3
ENDMDL
MODEL 6
REMARK VINA RESULT:      -3.4     12.673     13.255
REMARK  3 active torsions:
REMARK  status: ('A' for Active; 'I' for Inactive)
REMARK    1  A    between atoms: C4_4  and  C5_5 
REMARK    2  A    between atoms: C4_4  and  C6_6 
REMARK    3  A    between atoms: C5_5  and  N7_7 
ROOT
HETATM    1  C1  UNL     1     -31.021  18.643   0.478  1.00 20.00     0.157 C 
HETATM    2  N7  UNL     1     -30.992  18.719  -0.694  1.00 20.00    -0.276 NA
HETATM    3  S8  UNL     1     -31.032  18.538   2.067  1.00 20.00    -0.055 SA
ENDROOT
BRANCH   2   4
HETATM    4  C5  UNL     1     -32.295  18.909  -1.332  1.00 20.00     0.151 C 
BRANCH   4   5
HETATM    5  C4  UNL     1     -33.005  17.565  -1.476  1.00 20.00     0.026 C 
BRANCH   5   6
HETATM    6  C6  UNL     1     -33.673  17.325  -2.844  1.00 20.00    -0.021 C 
HETATM    7  C2  UNL     1     -33.224  18.405  -3.833  1.00 20.00     0.009 C 
HETATM    8  C3  UNL     1     -33.356  15.942  -3.414  1.00 20.00     0.009 C 
ENDBRANCH   5   6
ENDBRANCH   4   5
ENDBRANCH   2   4
TORSDOF 3
ENDMDL
MODEL 7
REMARK VINA RESULT:      -3.3      2.008      3.529
REMARK  3 active torsions:
REMARK  status: ('A' for Active; 'I' for Inactive)
REMARK    1  A    between atoms: C4_4  and  C5_5 
REMARK    2  A    between atoms: C4_4  and  C6_6 
REMARK    3  A    between atoms: C5_5  and  N7_7 
ROOT
HETATM    1  C1  UNL     1     -34.440   5.117   5.295  1.00 20.00     0.157 C 
HETATM    2  N7  UNL     1     -34.821   5.731   6.221  1.00 20.00    -0.276 NA
HETATM    3  S8  UNL     1     -33.942   4.265   4.046  1.00 20.00    -0.055 SA
ENDROOT
BRANCH   2   4
HETATM    4  C5  UNL     1     -34.141   7.009   6.437  1.00 20.00     0.151 C 
BRANCH   4   5
HETATM    5  C4  UNL     1     -33.963   7.735   5.106  1.00 20.00     0.026 C 
BRANCH   5   6
HETATM    6  C6  UNL     1     -32.500   7.977   4.686  1.00 20.00    -0.021 C 
HETATM    7  C2  UNL     1     -32.311   7.575   3.221  1.00 20.00     0.009 C 
HETATM    8  C3  UNL     1     -32.070   9.432   4.880  1.00 20.00     0.009 C 
ENDBRANCH   5   6
ENDBRANCH   4   5
ENDBRANCH   2   4
TORSDOF 3
ENDMDL
MODEL 8
REMARK VINA RESULT:      -3.3     12.667     13.242
REMARK  3 active torsions:
REMARK  status: ('A' for Active; 'I' for Inactive)
REMARK    1  A    between atoms: C4_4  and  C5_5 
REMARK    2  A    between atoms: C4_4  and  C6_6 
REMARK    3  A    between atoms: C5_5  and  N7_7 
ROOT
HETATM    1  C1  UNL     1     -30.932  18.605   0.555  1.00 20.00     0.157 C 
HETATM    2  N7  UNL     1     -30.921  18.614  -0.619  1.00 20.00    -0.276 NA
HETATM    3  S8  UNL     1     -30.922  18.585   2.147  1.00 20.00    -0.055 SA
ENDROOT
BRANCH   2   4
HETATM    4  C5  UNL     1     -32.209  18.912  -1.247  1.00 20.00     0.151 C 
BRANCH   4   5
HETATM    5  C4  UNL     1     -32.944  17.613  -1.567  1.00 20.00     0.026 C 
BRANCH   5   6
HETATM    6  C6  UNL     1     -33.335  17.434  -3.048  1.00 20.00    -0.021 C 
HETATM    7  C2  UNL     1     -33.366  15.944  -3.397  1.00 20.00     0.009 C 
HETATM    8  C3  UNL     1     -34.688  18.068  -3.375  1.00 20.00     0.009 C 
ENDBRANCH   5   6
ENDBRANCH   4   5
ENDBRANCH   2   4
TORSDOF 3
ENDMDL
MODEL 9
REMARK VINA RESULT:      -3.3      1.405      1.978
REMARK  3 active torsions:
REMARK  status: ('A' for Active; 'I' for Inactive)
REMARK    1  A    between atoms: C4_4  and  C5_5 
REMARK    2  A    between atoms: C4_4  and  C6_6 
REMARK    3  A    between atoms: C5_5  and  N7_7 
ROOT
HETATM    1  C1  UNL     1     -32.455   6.698   2.987  1.00 20.00     0.157 C 
HETATM    2  N7  UNL     1     -32.151   7.776   3.342  1.00 20.00    -0.276 NA
HETATM    3  S8  UNL     1     -32.855   5.242   2.482  1.00 20.00    -0.055 SA
ENDROOT
BRANCH   2   4
HETATM    4  C5  UNL     1     -32.545   8.109   4.712  1.00 20.00     0.151 C 
BRANCH   4   5
HETATM    5  C4  UNL     1     -34.054   7.943   4.873  1.00 20.00     0.026 C 
BRANCH   5   6
HETATM    6  C6  UNL     1     -34.486   6.868   5.890  1.00 20.00    -0.021 C 
HETATM    7  C2  UNL     1     -35.173   5.712   5.158  1.00 20.00     0.009 C 
HETATM    8  C3  UNL     1     -33.309   6.333   6.708  1.00 20.00     0.009 C 
ENDBRANCH   5   6
ENDBRANCH   4   5
ENDBRANCH   2   4
TORSDOF 3
ENDMDL
