MODEL 1
REMARK VINA RESULT:      -4.8      0.000      0.000
REMARK  1 active torsions:
REMARK  status: ('A' for Active; 'I' for Inactive)
REMARK    1  A    between atoms: C2_2  and  C3_3 
ROOT
HETATM    1  C1  UNL     1     -32.925   7.691   4.342  1.00 20.00    -0.019 C 
HETATM    2  C2  UNL     1     -33.668   6.743   4.944  1.00 20.00    -0.004 C 
HETATM    3  C4  UNL     1     -32.465   8.992   4.922  1.00 20.00     0.036 C 
HETATM    4  C5  UNL     1     -34.217   6.838   6.341  1.00 20.00     0.053 C 
ENDROOT
BRANCH   2   5
HETATM    5  C3  UNL     1     -34.019   5.461   4.213  1.00 20.00     0.247 C 
HETATM    6  O6  UNL     1     -34.878   4.732   4.711  1.00 20.00    -0.274 OA
HETATM    7 CL7  UNL     1     -33.224   5.053   2.701  1.00 20.00    -0.039 Cl
ENDBRANCH   2   5
TORSDOF 1
ENDMDL
MODEL 2
REMARK VINA RESULT:      -4.5      1.918      2.703
REMARK  1 active torsions:
REMARK  status: ('A' for Active; 'I' for Inactive)
REMARK    1  A    between atoms: C2_2  and  C3_3 
ROOT
HETATM    1  C1  UNL     1     -33.818   6.625   5.141  1.00 20.00    -0.019 C 
HETATM    2  C2  UNL     1     -33.008   7.354   4.351  1.00 20.00    -0.004 C 
HETATM    3  C4  UNL     1     -34.323   6.981   6.504  1.00 20.00     0.036 C 
HETATM    4  C5  UNL     1     -32.419   8.688   4.720  1.00 20.00     0.053 C 
ENDROOT
BRANCH   2   5
HETATM    5  C3  UNL     1     -32.617   6.850   2.974  1.00 20.00     0.247 C 
HETATM    6  O6  UNL     1     -32.127   7.658   2.184  1.00 20.00    -0.274 OA
HETATM    7 CL7  UNL     1     -32.850   5.163   2.546  1.00 20.00    -0.039 Cl
ENDBRANCH   2   5
TORSDOF 1
ENDMDL
MODEL 3
REMARK VINA RESULT:      -4.4      1.924      2.309
REMARK  1 active torsions:
REMARK  status: ('A' for Active; 'I' for Inactive)
REMARK    1  A    between atoms: C2_2  and  C3_3 
ROOT
HETATM    1  C1  UNL     1     -33.228   7.593   4.446  1.00 20.00    -0.019 C 
HETATM    2  C2  UNL     1     -33.459   6.317   4.086  1.00 20.00    -0.004 C 
HETATM    3  C4  UNL     1     -32.480   8.636   3.675  1.00 20.00     0.036 C 
HETATM    4  C5  UNL     1     -32.964   5.677   2.818  1.00 20.00     0.053 C 
ENDROOT
BRANCH   2   5
HETATM    5  C3  UNL     1     -34.269   5.399   4.983  1.00 20.00     0.247 C 
HETATM    6  O6  UNL     1     -34.515   4.264   4.571  1.00 20.00    -0.274 OA
HETATM    7 CL7  UNL     1     -34.815   5.950   6.558  1.00 20.00    -0.039 Cl
ENDBRANCH   2   5
TORSDOF 1
ENDMDL
MODEL 4
REMARK VINA RESULT:      -4.4      2.296      3.162
REMARK  1 active torsions:
REMARK  status: ('A' for Active; 'I' for Inactive)
REMARK    1  A    between atoms: C2_2  and  C3_3 
ROOT
HETATM    1  C1  UNL     1     -34.039   5.999   4.397  1.00 20.00    -0.019 C 
HETATM    2  C2  UNL     1     -33.588   7.100   5.025  1.00 20.00    -0.004 C 
HETATM    3  C4  UNL     1     -34.965   4.956   4.939  1.00 20.00     0.036 C 
HETATM    4  C5  UNL     1     -33.917   7.478   6.444  1.00 20.00     0.053 C 
ENDROOT
BRANCH   2   5
HETATM    5  C3  UNL     1     -32.672   8.075   4.309  1.00 20.00     0.247 C 
HETATM    6  O6  UNL     1     -32.301   9.075   4.927  1.00 20.00    -0.274 OA
HETATM    7 CL7  UNL     1     -32.157   7.762   2.660  1.00 20.00    -0.039 Cl
ENDBRANCH   2   5
TORSDOF 1
ENDMDL
MODEL 5
REMARK VINA RESULT:      -4.4      2.626      3.501
REMARK  1 active torsions:
REMARK  status: ('A' for Active; 'I' for Inactive)
REMARK    1  A    between atoms: C2_2  and  C3_3 
ROOT
HETATM    1  C1  UNL     1     -34.068   6.533   5.387  1.00 20.00    -0.019 C 
HETATM    2  C2  UNL     1     -33.408   6.509   4.214  1.00 20.00    -0.004 C 
HETATM    3  C4  UNL     1     -34.886   5.436   5.995  1.00 20.00     0.036 C 
HETATM    4  C5  UNL     1     -33.397   5.348   3.257  1.00 20.00     0.053 C 
ENDROOT
BRANCH   2   5
HETATM    5  C3  UNL     1     -32.597   7.708   3.762  1.00 20.00     0.247 C 
HETATM    6  O6  UNL     1     -32.176   7.714   2.604  1.00 20.00    -0.274 OA
HETATM    7 CL7  UNL     1     -32.291   9.041   4.864  1.00 20.00    -0.039 Cl
ENDBRANCH   2   5
TORSDOF 1
ENDMDL
MODEL 6
REMARK VINA RESULT:      -4.2      2.361      3.088
REMARK  1 active torsions:
REMARK  status: ('A' for Active; 'I' for Inactive)
REMARK    1  A    between atoms: C2_2  and  C3_3 
ROOT
HETATM    1  C1  UNL     1     -32.973   6.114   3.396  1.00 20.00    -0.019 C 
HETATM    2  C2  UNL     1     -33.774   6.222   4.473  1.00 20.00    -0.004 C 
HETATM    3  C4  UNL     1     -32.995   5.045   2.348  1.00 20.00     0.036 C 
HETATM    4  C5  UNL     1     -34.850   5.239   4.848  1.00 20.00     0.053 C 
ENDROOT
BRANCH   2   5
HETATM    5  C3  UNL     1     -33.632   7.395   5.424  1.00 20.00     0.247 C 
HETATM    6  O6  UNL     1     -34.242   7.346   6.493  1.00 20.00    -0.274 OA
HETATM    7 CL7  UNL     1     -32.615   8.763   5.002  1.00 20.00    -0.039 Cl
ENDBRANCH   2   5
TORSDOF 1
ENDMDL
MODEL 7
REMARK VINA RESULT:      -4.1      1.918      2.401
REMARK  1 active torsions:
REMARK  status: ('A' for Active; 'I' for Inactive)
REMARK    1  A    between atoms: C2_2  and  C3_3 
ROOT
HETATM    1  C1  UNL     1     -32.928   6.839   3.376  1.00 20.00    -0.019 C 
HETATM    2  C2  UNL     1     -33.222   7.368   4.579  1.00 20.00    -0.004 C 
HETATM    3  C4  UNL     1     -32.059   7.429   2.310  1.00 20.00     0.036 C 
HETATM    4  C5  UNL     1     -32.741   8.705   5.072  1.00 20.00     0.053 C 
ENDROOT
BRANCH   2   5
HETATM    5  C3  UNL     1     -34.103   6.614   5.557  1.00 20.00     0.247 C 
HETATM    6  O6  UNL     1     -34.324   7.135   6.651  1.00 20.00    -0.274 OA
HETATM    7 CL7  UNL     1     -34.785   5.056   5.120  1.00 20.00    -0.039 Cl
ENDBRANCH   2   5
TORSDOF 1
ENDMDL
MODEL 8
REMARK VINA RESULT:      -4.1      1.844      2.664
REMARK  1 active torsions:
REMARK  status: ('A' for Active; 'I' for Inactive)
REMARK    1  A    between atoms: C2_2  and  C3_3 
ROOT
HETATM    1  C1  UNL     1     -34.170   5.679   5.013  1.00 20.00    -0.019 C 
HETATM    2  C2  UNL     1     -33.510   6.649   4.353  1.00 20.00    -0.004 C 
HETATM    3  C4  UNL     1     -34.884   5.793   6.324  1.00 20.00     0.036 C 
HETATM    4  C5  UNL     1     -33.337   8.061   4.844  1.00 20.00     0.053 C 
ENDROOT
BRANCH   2   5
HETATM    5  C3  UNL     1     -32.865   6.365   3.009  1.00 20.00     0.247 C 
HETATM    6  O6  UNL     1     -32.867   5.201   2.605  1.00 20.00    -0.274 OA
HETATM    7 CL7  UNL     1     -32.155   7.668   2.071  1.00 20.00    -0.039 Cl
ENDBRANCH   2   5
TORSDOF 1
ENDMDL
MODEL 9
REMARK VINA RESULT:      -4.1      2.459      3.398
REMARK  1 active torsions:
REMARK  status: ('A' for Active; 'I' for Inactive)
REMARK    1  A    between atoms: C2_2  and  C3_3 
ROOT
HETATM    1  C1  UNL     1     -33.490   5.655   3.625  1.00 20.00    -0.019 C 
HETATM    2  C2  UNL     1     -33.195   6.872   4.121  1.00 20.00    -0.004 C 
HETATM    3  C4  UNL     1     -32.951   5.025   2.379  1.00 20.00     0.036 C 
HETATM    4  C5  UNL     1     -32.266   7.862   3.474  1.00 20.00     0.053 C 
ENDROOT
BRANCH   2   5
HETATM    5  C3  UNL     1     -33.815   7.343   5.423  1.00 20.00     0.247 C 
HETATM    6  O6  UNL     1     -33.812   8.553   5.655  1.00 20.00    -0.274 OA
HETATM    7 CL7  UNL     1     -34.520   6.188   6.541  1.00 20.00    -0.039 Cl
ENDBRANCH   2   5
TORSDOF 1
ENDMDL
