MODEL 1
REMARK VINA RESULT:      -4.9      0.000      0.000
REMARK  4 active torsions:
REMARK  status: ('A' for Active; 'I' for Inactive)
REMARK    1  A    between atoms: C3_3  and  C5_5 
REMARK    2  A    between atoms: C4_4  and  C6_6 
REMARK    3  A    between atoms: C5_5  and  C7_7 
REMARK    4  A    between atoms: C6_6  and  C7_7 
ROOT
HETATM    1  C1  UNL     1     -34.476   4.950   5.147  1.00 20.00     0.059 C 
HETATM    2  C4  UNL     1     -34.841   5.906   6.203  1.00 20.00     0.124 C 
HETATM    3  N8  UNL     1     -34.189   4.195   4.315  1.00 20.00    -0.197 NA
ENDROOT
BRANCH   2   4
HETATM    4  C6  UNL     1     -33.767   6.977   6.409  1.00 20.00     0.014 C 
BRANCH   4   5
HETATM    5  C7  UNL     1     -33.834   8.093   5.359  1.00 20.00     0.006 C 
BRANCH   5   6
HETATM    6  C5  UNL     1     -32.487   8.355   4.672  1.00 20.00     0.050 C 
BRANCH   6   7
HETATM    7  C3  UNL     1     -32.459   8.020   3.207  1.00 20.00     0.002 C 
HETATM    8  C2  UNL     1     -32.285   6.784   2.723  1.00 20.00     0.032 C 
HETATM    9 CL9  UNL     1     -32.727   9.339   2.119  1.00 20.00    -0.090 Cl
ENDBRANCH   6   7
ENDBRANCH   5   6
ENDBRANCH   4   5
ENDBRANCH   2   4
TORSDOF 4
ENDMDL
MODEL 2
REMARK VINA RESULT:      -4.9      2.220      3.596
REMARK  4 active torsions:
REMARK  status: ('A' for Active; 'I' for Inactive)
REMARK    1  A    between atoms: C3_3  and  C5_5 
REMARK    2  A    between atoms: C4_4  and  C6_6 
REMARK    3  A    between atoms: C5_5  and  C7_7 
REMARK    4  A    between atoms: C6_6  and  C7_7 
ROOT
HETATM    1  C1  UNL     1     -32.272   7.767   3.464  1.00 20.00     0.059 C 
HETATM    2  C4  UNL     1     -32.448   8.501   4.725  1.00 20.00     0.124 C 
HETATM    3  N8  UNL     1     -32.133   7.189   2.468  1.00 20.00    -0.197 NA
ENDROOT
BRANCH   2   4
HETATM    4  C6  UNL     1     -33.755   8.133   5.431  1.00 20.00     0.014 C 
BRANCH   4   5
HETATM    5  C7  UNL     1     -33.574   7.016   6.467  1.00 20.00     0.006 C 
BRANCH   5   6
HETATM    6  C5  UNL     1     -34.588   5.875   6.307  1.00 20.00     0.050 C 
BRANCH   6   7
HETATM    7  C3  UNL     1     -34.766   5.393   4.894  1.00 20.00     0.002 C 
HETATM    8  C2  UNL     1     -33.999   4.460   4.317  1.00 20.00     0.032 C 
HETATM    9 CL9  UNL     1     -36.093   6.077   4.018  1.00 20.00    -0.090 Cl
ENDBRANCH   6   7
ENDBRANCH   5   6
ENDBRANCH   4   5
ENDBRANCH   2   4
TORSDOF 4
ENDMDL
MODEL 3
REMARK VINA RESULT:      -4.9      1.929      3.514
REMARK  4 active torsions:
REMARK  status: ('A' for Active; 'I' for Inactive)
REMARK    1  A    between atoms: C3_3  and  C5_5 
REMARK    2  A    between atoms: C4_4  and  C6_6 
REMARK    3  A    between atoms: C5_5  and  C7_7 
REMARK    4  A    between atoms: C6_6  and  C7_7 
ROOT
HETATM    1  C1  UNL     1     -32.568   6.222   2.759  1.00 20.00     0.059 C 
HETATM    2  C4  UNL     1     -32.208   7.641   2.890  1.00 20.00     0.124 C 
HETATM    3  N8  UNL     1     -32.853   5.103   2.655  1.00 20.00    -0.197 NA
ENDROOT
BRANCH   2   4
HETATM    4  C6  UNL     1     -32.222   8.109   4.347  1.00 20.00     0.014 C 
BRANCH   4   5
HETATM    5  C7  UNL     1     -33.643   8.309   4.892  1.00 20.00     0.006 C 
BRANCH   5   6
HETATM    6  C5  UNL     1     -33.956   7.418   6.102  1.00 20.00     0.050 C 
BRANCH   6   7
HETATM    7  C3  UNL     1     -34.569   6.090   5.756  1.00 20.00     0.002 C 
HETATM    8  C2  UNL     1     -34.341   4.959   6.435  1.00 20.00     0.032 C 
HETATM    9 CL9  UNL     1     -35.674   6.086   4.424  1.00 20.00    -0.090 Cl
ENDBRANCH   6   7
ENDBRANCH   5   6
ENDBRANCH   4   5
ENDBRANCH   2   4
TORSDOF 4
ENDMDL
MODEL 4
REMARK VINA RESULT:      -4.7      1.226      1.320
REMARK  4 active torsions:
REMARK  status: ('A' for Active; 'I' for Inactive)
REMARK    1  A    between atoms: C3_3  and  C5_5 
REMARK    2  A    between atoms: C4_4  and  C6_6 
REMARK    3  A    between atoms: C5_5  and  C7_7 
REMARK    4  A    between atoms: C6_6  and  C7_7 
ROOT
HETATM    1  C1  UNL     1     -34.502   5.066   5.370  1.00 20.00     0.059 C 
HETATM    2  C4  UNL     1     -34.719   6.097   6.395  1.00 20.00     0.124 C 
HETATM    3  N8  UNL     1     -34.331   4.251   4.563  1.00 20.00    -0.197 NA
ENDROOT
BRANCH   2   4
HETATM    4  C6  UNL     1     -33.620   7.162   6.385  1.00 20.00     0.014 C 
BRANCH   4   5
HETATM    5  C7  UNL     1     -33.680   8.064   5.145  1.00 20.00     0.006 C 
BRANCH   5   6
HETATM    6  C5  UNL     1     -32.343   8.152   4.398  1.00 20.00     0.050 C 
BRANCH   6   7
HETATM    7  C3  UNL     1     -32.416   7.781   2.943  1.00 20.00     0.002 C 
HETATM    8  C2  UNL     1     -32.412   8.669   1.941  1.00 20.00     0.032 C 
HETATM    9 CL9  UNL     1     -32.451   6.087   2.591  1.00 20.00    -0.090 Cl
ENDBRANCH   6   7
ENDBRANCH   5   6
ENDBRANCH   4   5
ENDBRANCH   2   4
TORSDOF 4
ENDMDL
MODEL 5
REMARK VINA RESULT:      -4.4      2.687      4.166
REMARK  4 active torsions:
REMARK  status: ('A' for Active; 'I' for Inactive)
REMARK    1  A    between atoms: C3_3  and  C5_5 
REMARK    2  A    between atoms: C4_4  and  C6_6 
REMARK    3  A    between atoms: C5_5  and  C7_7 
REMARK    4  A    between atoms: C6_6  and  C7_7 
ROOT
HETATM    1  C1  UNL     1     -32.214   8.026   1.710  1.00 20.00     0.059 C 
HETATM    2  C4  UNL     1     -32.211   7.277   2.974  1.00 20.00     0.124 C 
HETATM    3  N8  UNL     1     -32.215   8.616   0.712  1.00 20.00    -0.197 NA
ENDROOT
BRANCH   2   4
HETATM    4  C6  UNL     1     -32.247   8.201   4.194  1.00 20.00     0.014 C 
BRANCH   4   5
HETATM    5  C7  UNL     1     -33.643   8.297   4.823  1.00 20.00     0.006 C 
BRANCH   5   6
HETATM    6  C5  UNL     1     -33.815   7.393   6.051  1.00 20.00     0.050 C 
BRANCH   6   7
HETATM    7  C3  UNL     1     -34.501   6.086   5.772  1.00 20.00     0.002 C 
HETATM    8  C2  UNL     1     -34.424   5.013   6.568  1.00 20.00     0.032 C 
HETATM    9 CL9  UNL     1     -35.484   6.031   4.348  1.00 20.00    -0.090 Cl
ENDBRANCH   6   7
ENDBRANCH   5   6
ENDBRANCH   4   5
ENDBRANCH   2   4
TORSDOF 4
ENDMDL
MODEL 6
REMARK VINA RESULT:      -4.2      1.279      1.830
REMARK  4 active torsions:
REMARK  status: ('A' for Active; 'I' for Inactive)
REMARK    1  A    between atoms: C3_3  and  C5_5 
REMARK    2  A    between atoms: C4_4  and  C6_6 
REMARK    3  A    between atoms: C5_5  and  C7_7 
REMARK    4  A    between atoms: C6_6  and  C7_7 
ROOT
HETATM    1  C1  UNL     1     -34.109   4.822   3.978  1.00 20.00     0.059 C 
HETATM    2  C4  UNL     1     -35.102   5.358   4.919  1.00 20.00     0.124 C 
HETATM    3  N8  UNL     1     -33.326   4.398   3.234  1.00 20.00    -0.197 NA
ENDROOT
BRANCH   2   4
HETATM    4  C6  UNL     1     -34.490   5.678   6.285  1.00 20.00     0.014 C 
BRANCH   4   5
HETATM    5  C7  UNL     1     -33.890   7.088   6.350  1.00 20.00     0.006 C 
BRANCH   5   6
HETATM    6  C5  UNL     1     -34.032   7.865   5.034  1.00 20.00     0.050 C 
BRANCH   6   7
HETATM    7  C3  UNL     1     -32.733   8.350   4.453  1.00 20.00     0.002 C 
HETATM    8  C2  UNL     1     -31.975   9.305   5.005  1.00 20.00     0.032 C 
HETATM    9 CL9  UNL     1     -32.200   7.554   3.011  1.00 20.00    -0.090 Cl
ENDBRANCH   6   7
ENDBRANCH   5   6
ENDBRANCH   4   5
ENDBRANCH   2   4
TORSDOF 4
ENDMDL
MODEL 7
REMARK VINA RESULT:      -4.2      1.714      2.425
REMARK  4 active torsions:
REMARK  status: ('A' for Active; 'I' for Inactive)
REMARK    1  A    between atoms: C3_3  and  C5_5 
REMARK    2  A    between atoms: C4_4  and  C6_6 
REMARK    3  A    between atoms: C5_5  and  C7_7 
REMARK    4  A    between atoms: C6_6  and  C7_7 
ROOT
HETATM    1  C1  UNL     1     -34.317   6.393   6.393  1.00 20.00     0.059 C 
HETATM    2  C4  UNL     1     -34.569   4.980   6.078  1.00 20.00     0.124 C 
HETATM    3  N8  UNL     1     -34.119   7.508   6.642  1.00 20.00    -0.197 NA
ENDROOT
BRANCH   2   4
HETATM    4  C6  UNL     1     -34.151   4.622   4.651  1.00 20.00     0.014 C 
BRANCH   4   5
HETATM    5  C7  UNL     1     -34.157   5.833   3.710  1.00 20.00     0.006 C 
BRANCH   5   6
HETATM    6  C5  UNL     1     -32.837   6.013   2.949  1.00 20.00     0.050 C 
BRANCH   6   7
HETATM    7  C3  UNL     1     -32.322   7.425   2.918  1.00 20.00     0.002 C 
HETATM    8  C2  UNL     1     -32.039   8.144   4.011  1.00 20.00     0.032 C 
HETATM    9 CL9  UNL     1     -32.043   8.100   1.348  1.00 20.00    -0.090 Cl
ENDBRANCH   6   7
ENDBRANCH   5   6
ENDBRANCH   4   5
ENDBRANCH   2   4
TORSDOF 4
ENDMDL
MODEL 8
REMARK VINA RESULT:      -4.0      2.520      4.318
REMARK  4 active torsions:
REMARK  status: ('A' for Active; 'I' for Inactive)
REMARK    1  A    between atoms: C3_3  and  C5_5 
REMARK    2  A    between atoms: C4_4  and  C6_6 
REMARK    3  A    between atoms: C5_5  and  C7_7 
REMARK    4  A    between atoms: C6_6  and  C7_7 
ROOT
HETATM    1  C1  UNL     1     -32.526   8.239   4.067  1.00 20.00     0.059 C 
HETATM    2  C4  UNL     1     -32.539   7.572   2.758  1.00 20.00     0.124 C 
HETATM    3  N8  UNL     1     -32.514   8.767   5.100  1.00 20.00    -0.197 NA
ENDROOT
BRANCH   2   4
HETATM    4  C6  UNL     1     -32.199   6.084   2.864  1.00 20.00     0.014 C 
BRANCH   4   5
HETATM    5  C7  UNL     1     -33.440   5.185   2.780  1.00 20.00     0.006 C 
BRANCH   5   6
HETATM    6  C5  UNL     1     -33.798   4.523   4.117  1.00 20.00     0.050 C 
BRANCH   6   7
HETATM    7  C3  UNL     1     -34.703   5.341   4.995  1.00 20.00     0.002 C 
HETATM    8  C2  UNL     1     -34.550   5.468   6.319  1.00 20.00     0.032 C 
HETATM    9 CL9  UNL     1     -35.975   6.196   4.190  1.00 20.00    -0.090 Cl
ENDBRANCH   6   7
ENDBRANCH   5   6
ENDBRANCH   4   5
ENDBRANCH   2   4
TORSDOF 4
ENDMDL
MODEL 9
REMARK VINA RESULT:      -3.9     12.147     12.790
REMARK  4 active torsions:
REMARK  status: ('A' for Active; 'I' for Inactive)
REMARK    1  A    between atoms: C3_3  and  C5_5 
REMARK    2  A    between atoms: C4_4  and  C6_6 
REMARK    3  A    between atoms: C5_5  and  C7_7 
REMARK    4  A    between atoms: C6_6  and  C7_7 
ROOT
HETATM    1  C1  UNL     1     -31.835  18.471  -0.916  1.00 20.00     0.059 C 
HETATM    2  C4  UNL     1     -33.145  18.312  -1.562  1.00 20.00     0.124 C 
HETATM    3  N8  UNL     1     -30.800  18.597  -0.406  1.00 20.00    -0.197 NA
ENDROOT
BRANCH   2   4
HETATM    4  C6  UNL     1     -33.418  16.861  -1.966  1.00 20.00     0.014 C 
BRANCH   4   5
HETATM    5  C7  UNL     1     -33.520  16.679  -3.486  1.00 20.00     0.006 C 
BRANCH   5   6
HETATM    6  C5  UNL     1     -33.374  15.217  -3.929  1.00 20.00     0.050 C 
BRANCH   6   7
HETATM    7  C3  UNL     1     -34.302  14.806  -5.037  1.00 20.00     0.002 C 
HETATM    8  C2  UNL     1     -34.138  15.151  -6.320  1.00 20.00     0.032 C 
HETATM    9 CL9  UNL     1     -35.620  13.778  -4.585  1.00 20.00    -0.090 Cl
ENDBRANCH   6   7
ENDBRANCH   5   6
ENDBRANCH   4   5
ENDBRANCH   2   4
TORSDOF 4
ENDMDL
