MODEL 1
REMARK VINA RESULT:      -4.1      0.000      0.000
REMARK  5 active torsions:
REMARK  status: ('A' for Active; 'I' for Inactive)
REMARK    1  A    between atoms: C1_1  and  C6_6 
REMARK    2  A    between atoms: C2_2  and  C7_7 
REMARK    3  A    between atoms: C2_2  and  C8_8 
REMARK    4  A    between atoms: C7_7  and  C9_9 
REMARK    5  A    between atoms: C8_8  and  C10_10 
ROOT
HETATM    1  C1  UNL     1     -32.397   8.616   2.422  1.00 20.00    -0.024 C 
HETATM    2  C2  UNL     1     -32.383   7.678   3.391  1.00 20.00    -0.084 C 
ENDROOT
BRANCH   2   3
HETATM    3  C7  UNL     1     -32.487   8.094   4.845  1.00 20.00     0.033 C 
BRANCH   3   4
HETATM    4  C9  UNL     1     -33.932   8.093   5.349  1.00 20.00    -0.000 C 
HETATM    5  C4  UNL     1     -34.136   7.058   6.444  1.00 20.00     0.005 C 
ENDBRANCH   3   4
ENDBRANCH   2   3
BRANCH   2   6
HETATM    6  C8  UNL     1     -32.270   6.193   3.126  1.00 20.00     0.033 C 
BRANCH   6   7
HETATM    7  C10 UNL     1     -33.641   5.536   2.949  1.00 20.00    -0.000 C 
HETATM    8  C5  UNL     1     -33.933   4.551   4.070  1.00 20.00     0.005 C 
ENDBRANCH   6   7
ENDBRANCH   2   6
BRANCH   1   9
HETATM    9  C6  UNL     1     -32.267   8.398   0.942  1.00 20.00     0.023 C 
HETATM   10  C3  UNL     1     -32.916   9.528   0.158  1.00 20.00     0.009 C 
ENDBRANCH   1   9
TORSDOF 5
ENDMDL
MODEL 2
REMARK VINA RESULT:      -4.0      0.491      4.112
REMARK  5 active torsions:
REMARK  status: ('A' for Active; 'I' for Inactive)
REMARK    1  A    between atoms: C1_1  and  C6_6 
REMARK    2  A    between atoms: C2_2  and  C7_7 
REMARK    3  A    between atoms: C2_2  and  C8_8 
REMARK    4  A    between atoms: C7_7  and  C9_9 
REMARK    5  A    between atoms: C8_8  and  C10_10 
ROOT
HETATM    1  C1  UNL     1     -32.720   6.480   2.636  1.00 20.00    -0.024 C 
HETATM    2  C2  UNL     1     -32.563   7.701   3.186  1.00 20.00    -0.084 C 
ENDROOT
BRANCH   2   3
HETATM    3  C7  UNL     1     -32.543   8.931   2.299  1.00 20.00     0.033 C 
BRANCH   3   4
HETATM    4  C9  UNL     1     -32.122   8.606   0.864  1.00 20.00    -0.000 C 
HETATM    5  C4  UNL     1     -33.063   9.243  -0.147  1.00 20.00     0.005 C 
ENDBRANCH   3   4
ENDBRANCH   2   3
BRANCH   2   6
HETATM    6  C8  UNL     1     -32.401   7.944   4.670  1.00 20.00     0.033 C 
BRANCH   6   7
HETATM    7  C10 UNL     1     -33.746   8.170   5.364  1.00 20.00    -0.000 C 
HETATM    8  C5  UNL     1     -34.014   7.103   6.414  1.00 20.00     0.005 C 
ENDBRANCH   6   7
ENDBRANCH   2   6
BRANCH   1   9
HETATM    9  C6  UNL     1     -32.725   5.157   3.345  1.00 20.00     0.023 C 
HETATM   10  C3  UNL     1     -34.118   4.801   3.840  1.00 20.00     0.009 C 
ENDBRANCH   1   9
TORSDOF 5
ENDMDL
MODEL 3
REMARK VINA RESULT:      -3.9      0.616      2.530
REMARK  5 active torsions:
REMARK  status: ('A' for Active; 'I' for Inactive)
REMARK    1  A    between atoms: C1_1  and  C6_6 
REMARK    2  A    between atoms: C2_2  and  C7_7 
REMARK    3  A    between atoms: C2_2  and  C8_8 
REMARK    4  A    between atoms: C7_7  and  C9_9 
REMARK    5  A    between atoms: C8_8  and  C10_10 
ROOT
HETATM    1  C1  UNL     1     -32.510   7.835   1.887  1.00 20.00    -0.024 C 
HETATM    2  C2  UNL     1     -32.412   7.259   3.102  1.00 20.00    -0.084 C 
ENDROOT
BRANCH   2   3
HETATM    3  C7  UNL     1     -32.403   5.747   3.222  1.00 20.00     0.033 C 
BRANCH   3   4
HETATM    4  C9  UNL     1     -33.813   5.153   3.181  1.00 20.00    -0.000 C 
HETATM    5  C4  UNL     1     -34.181   4.508   4.508  1.00 20.00     0.005 C 
ENDBRANCH   3   4
ENDBRANCH   2   3
BRANCH   2   6
HETATM    6  C8  UNL     1     -32.305   8.033   4.397  1.00 20.00     0.033 C 
BRANCH   6   7
HETATM    7  C10 UNL     1     -33.672   8.249   5.051  1.00 20.00    -0.000 C 
HETATM    8  C5  UNL     1     -33.835   7.386   6.293  1.00 20.00     0.005 C 
ENDBRANCH   6   7
ENDBRANCH   2   6
BRANCH   1   9
HETATM    9  C6  UNL     1     -32.573   9.303   1.578  1.00 20.00     0.023 C 
HETATM   10  C3  UNL     1     -32.858   9.545   0.104  1.00 20.00     0.009 C 
ENDBRANCH   1   9
TORSDOF 5
ENDMDL
MODEL 4
REMARK VINA RESULT:      -3.8      9.155     10.710
REMARK  5 active torsions:
REMARK  status: ('A' for Active; 'I' for Inactive)
REMARK    1  A    between atoms: C1_1  and  C6_6 
REMARK    2  A    between atoms: C2_2  and  C7_7 
REMARK    3  A    between atoms: C2_2  and  C8_8 
REMARK    4  A    between atoms: C7_7  and  C9_9 
REMARK    5  A    between atoms: C8_8  and  C10_10 
ROOT
HETATM    1  C1  UNL     1     -39.706  12.744   6.339  1.00 20.00    -0.024 C 
HETATM    2  C2  UNL     1     -40.672  13.681   6.419  1.00 20.00    -0.084 C 
ENDROOT
BRANCH   2   3
HETATM    3  C7  UNL     1     -40.505  14.859   7.359  1.00 20.00     0.033 C 
BRANCH   3   4
HETATM    4  C9  UNL     1     -40.267  14.418   8.806  1.00 20.00    -0.000 C 
HETATM    5  C4  UNL     1     -41.506  14.633   9.661  1.00 20.00     0.005 C 
ENDBRANCH   3   4
ENDBRANCH   2   3
BRANCH   2   6
HETATM    6  C8  UNL     1     -41.952  13.645   5.613  1.00 20.00     0.033 C 
BRANCH   6   7
HETATM    7  C10 UNL     1     -43.182  13.436   6.500  1.00 20.00    -0.000 C 
HETATM    8  C5  UNL     1     -43.147  12.079   7.185  1.00 20.00     0.005 C 
ENDBRANCH   6   7
ENDBRANCH   2   6
BRANCH   1   9
HETATM    9  C6  UNL     1     -39.713  11.498   5.501  1.00 20.00     0.023 C 
HETATM   10  C3  UNL     1     -39.034  11.730   4.161  1.00 20.00     0.009 C 
ENDBRANCH   1   9
TORSDOF 5
ENDMDL
MODEL 5
REMARK VINA RESULT:      -3.8      0.605      3.971
REMARK  5 active torsions:
REMARK  status: ('A' for Active; 'I' for Inactive)
REMARK    1  A    between atoms: C1_1  and  C6_6 
REMARK    2  A    between atoms: C2_2  and  C7_7 
REMARK    3  A    between atoms: C2_2  and  C8_8 
REMARK    4  A    between atoms: C7_7  and  C9_9 
REMARK    5  A    between atoms: C8_8  and  C10_10 
ROOT
HETATM    1  C1  UNL     1     -33.248   8.163   5.000  1.00 20.00    -0.024 C 
HETATM    2  C2  UNL     1     -32.820   7.888   3.752  1.00 20.00    -0.084 C 
ENDROOT
BRANCH   2   3
HETATM    3  C7  UNL     1     -32.891   8.956   2.677  1.00 20.00     0.033 C 
BRANCH   3   4
HETATM    4  C9  UNL     1     -32.154   8.544   1.400  1.00 20.00    -0.000 C 
HETATM    5  C4  UNL     1     -32.800   9.156   0.167  1.00 20.00     0.005 C 
ENDBRANCH   3   4
ENDBRANCH   2   3
BRANCH   2   6
HETATM    6  C8  UNL     1     -32.253   6.551   3.329  1.00 20.00     0.033 C 
BRANCH   6   7
HETATM    7  C10 UNL     1     -33.329   5.630   2.748  1.00 20.00    -0.000 C 
HETATM    8  C5  UNL     1     -33.688   4.516   3.720  1.00 20.00     0.005 C 
ENDBRANCH   6   7
ENDBRANCH   2   6
BRANCH   1   9
HETATM    9  C6  UNL     1     -33.292   7.228   6.174  1.00 20.00     0.023 C 
HETATM   10  C3  UNL     1     -34.634   6.521   6.269  1.00 20.00     0.009 C 
ENDBRANCH   1   9
TORSDOF 5
ENDMDL
MODEL 6
REMARK VINA RESULT:      -3.7     10.678     12.134
REMARK  5 active torsions:
REMARK  status: ('A' for Active; 'I' for Inactive)
REMARK    1  A    between atoms: C1_1  and  C6_6 
REMARK    2  A    between atoms: C2_2  and  C7_7 
REMARK    3  A    between atoms: C2_2  and  C8_8 
REMARK    4  A    between atoms: C7_7  and  C9_9 
REMARK    5  A    between atoms: C8_8  and  C10_10 
ROOT
HETATM    1  C1  UNL     1     -33.423  16.518  -2.376  1.00 20.00    -0.024 C 
HETATM    2  C2  UNL     1     -33.787  17.667  -1.772  1.00 20.00    -0.084 C 
ENDROOT
BRANCH   2   3
HETATM    3  C7  UNL     1     -33.669  17.798  -0.266  1.00 20.00     0.033 C 
BRANCH   3   4
HETATM    4  C9  UNL     1     -32.698  18.907   0.147  1.00 20.00    -0.000 C 
HETATM    5  C4  UNL     1     -31.270  18.568  -0.248  1.00 20.00     0.005 C 
ENDBRANCH   3   4
ENDBRANCH   2   3
BRANCH   2   6
HETATM    6  C8  UNL     1     -34.321  18.875  -2.509  1.00 20.00     0.033 C 
BRANCH   6   7
HETATM    7  C10 UNL     1     -35.845  18.980  -2.409  1.00 20.00    -0.000 C 
HETATM    8  C5  UNL     1     -36.516  18.539  -3.701  1.00 20.00     0.005 C 
ENDBRANCH   6   7
ENDBRANCH   2   6
BRANCH   1   9
HETATM    9  C6  UNL     1     -33.505  16.192  -3.840  1.00 20.00     0.023 C 
HETATM   10  C3  UNL     1     -33.839  14.726  -4.062  1.00 20.00     0.009 C 
ENDBRANCH   1   9
TORSDOF 5
ENDMDL
MODEL 7
REMARK VINA RESULT:      -3.6      1.161      4.697
REMARK  5 active torsions:
REMARK  status: ('A' for Active; 'I' for Inactive)
REMARK    1  A    between atoms: C1_1  and  C6_6 
REMARK    2  A    between atoms: C2_2  and  C7_7 
REMARK    3  A    between atoms: C2_2  and  C8_8 
REMARK    4  A    between atoms: C7_7  and  C9_9 
REMARK    5  A    between atoms: C8_8  and  C10_10 
ROOT
HETATM    1  C1  UNL     1     -33.900   5.448   3.941  1.00 20.00    -0.024 C 
HETATM    2  C2  UNL     1     -33.401   6.655   3.610  1.00 20.00    -0.084 C 
ENDROOT
BRANCH   2   3
HETATM    3  C7  UNL     1     -32.278   6.756   2.596  1.00 20.00     0.033 C 
BRANCH   3   4
HETATM    4  C9  UNL     1     -32.121   8.174   2.040  1.00 20.00    -0.000 C 
HETATM    5  C4  UNL     1     -32.177   8.183   0.521  1.00 20.00     0.005 C 
ENDBRANCH   3   4
ENDBRANCH   2   3
BRANCH   2   6
HETATM    6  C8  UNL     1     -33.894   7.961   4.193  1.00 20.00     0.033 C 
BRANCH   6   7
HETATM    7  C10 UNL     1     -33.153   8.330   5.481  1.00 20.00    -0.000 C 
HETATM    8  C5  UNL     1     -32.016   9.303   5.207  1.00 20.00     0.005 C 
ENDBRANCH   6   7
ENDBRANCH   2   6
BRANCH   1   9
HETATM    9  C6  UNL     1     -34.976   5.151   4.945  1.00 20.00     0.023 C 
HETATM   10  C3  UNL     1     -34.430   5.177   6.363  1.00 20.00     0.009 C 
ENDBRANCH   1   9
TORSDOF 5
ENDMDL
MODEL 8
REMARK VINA RESULT:      -3.6      0.787      3.735
REMARK  5 active torsions:
REMARK  status: ('A' for Active; 'I' for Inactive)
REMARK    1  A    between atoms: C1_1  and  C6_6 
REMARK    2  A    between atoms: C2_2  and  C7_7 
REMARK    3  A    between atoms: C2_2  and  C8_8 
REMARK    4  A    between atoms: C7_7  and  C9_9 
REMARK    5  A    between atoms: C8_8  and  C10_10 
ROOT
HETATM    1  C1  UNL     1     -32.417   8.375   3.832  1.00 20.00    -0.024 C 
HETATM    2  C2  UNL     1     -32.358   7.405   2.899  1.00 20.00    -0.084 C 
ENDROOT
BRANCH   2   3
HETATM    3  C7  UNL     1     -32.151   7.770   1.441  1.00 20.00     0.033 C 
BRANCH   3   4
HETATM    4  C9  UNL     1     -32.647   9.183   1.121  1.00 20.00    -0.000 C 
HETATM    5  C4  UNL     1     -33.145   9.283  -0.312  1.00 20.00     0.005 C 
ENDBRANCH   3   4
ENDBRANCH   2   3
BRANCH   2   6
HETATM    6  C8  UNL     1     -32.485   5.929   3.206  1.00 20.00     0.033 C 
BRANCH   6   7
HETATM    7  C10 UNL     1     -33.946   5.474   3.240  1.00 20.00    -0.000 C 
HETATM    8  C5  UNL     1     -34.280   4.780   4.552  1.00 20.00     0.005 C 
ENDBRANCH   6   7
ENDBRANCH   2   6
BRANCH   1   9
HETATM    9  C6  UNL     1     -32.653   8.209   5.306  1.00 20.00     0.023 C 
HETATM   10  C3  UNL     1     -34.136   8.251   5.636  1.00 20.00     0.009 C 
ENDBRANCH   1   9
TORSDOF 5
ENDMDL
MODEL 9
REMARK VINA RESULT:      -3.6     10.606     12.319
REMARK  5 active torsions:
REMARK  status: ('A' for Active; 'I' for Inactive)
REMARK    1  A    between atoms: C1_1  and  C6_6 
REMARK    2  A    between atoms: C2_2  and  C7_7 
REMARK    3  A    between atoms: C2_2  and  C8_8 
REMARK    4  A    between atoms: C7_7  and  C9_9 
REMARK    5  A    between atoms: C8_8  and  C10_10 
ROOT
HETATM    1  C1  UNL     1     -33.419  16.558  -2.197  1.00 20.00    -0.024 C 
HETATM    2  C2  UNL     1     -33.570  16.651  -3.533  1.00 20.00    -0.084 C 
ENDROOT
BRANCH   2   3
HETATM    3  C7  UNL     1     -33.355  15.429  -4.405  1.00 20.00     0.033 C 
BRANCH   3   4
HETATM    4  C9  UNL     1     -34.391  14.335  -4.137  1.00 20.00    -0.000 C 
HETATM    5  C4  UNL     1     -35.505  14.362  -5.171  1.00 20.00     0.005 C 
ENDBRANCH   3   4
ENDBRANCH   2   3
BRANCH   2   6
HETATM    6  C8  UNL     1     -33.952  17.926  -4.252  1.00 20.00     0.033 C 
BRANCH   6   7
HETATM    7  C10 UNL     1     -35.440  17.960  -4.608  1.00 20.00    -0.000 C 
HETATM    8  C5  UNL     1     -36.251  18.666  -3.533  1.00 20.00     0.005 C 
ENDBRANCH   6   7
ENDBRANCH   2   6
BRANCH   1   9
HETATM    9  C6  UNL     1     -33.551  17.660  -1.186  1.00 20.00     0.023 C 
HETATM   10  C3  UNL     1     -32.208  18.315  -0.904  1.00 20.00     0.009 C 
ENDBRANCH   1   9
TORSDOF 5
ENDMDL
