MODEL 1
REMARK VINA RESULT:      -4.9      0.000      0.000
REMARK  6 active torsions:
REMARK  status: ('A' for Active; 'I' for Inactive)
REMARK    1  A    between atoms: C1_1  and  C4_4 
REMARK    2  A    between atoms: C4_4  and  C5_5 
REMARK    3  A    between atoms: C5_5  and  C6_6 
REMARK    4  A    between atoms: C6_6  and  C7_7 
REMARK    5  A    between atoms: C7_7  and  C8_8 
REMARK    6  A    between atoms: C8_8  and  C9_9 
ROOT
HETATM    1  C6  UNL     1     -33.750   8.233   5.519  1.00 20.00     0.000 C 
ENDROOT
BRANCH   1   2
HETATM    2  C5  UNL     1     -33.402   6.952   6.280  1.00 20.00     0.008 C 
BRANCH   2   3
HETATM    3  C4  UNL     1     -34.605   6.016   6.376  1.00 20.00     0.096 C 
BRANCH   3   4
HETATM    4  C1  UNL     1     -34.844   5.250   5.086  1.00 20.00     0.218 C 
HETATM    5  O10 UNL     1     -34.273   4.198   4.818  1.00 20.00    -0.280 OA
HETATM    6 CL11 UNL     1     -36.008   6.055   4.070  1.00 20.00    -0.044 Cl
ENDBRANCH   3   4
ENDBRANCH   2   3
ENDBRANCH   1   2
BRANCH   1   7
HETATM    7  C7  UNL     1     -32.507   8.853   4.879  1.00 20.00     0.000 C 
BRANCH   7   8
HETATM    8  C8  UNL     1     -31.789   7.917   3.900  1.00 20.00     0.004 C 
BRANCH   8   9
HETATM    9  C9  UNL     1     -32.596   7.495   2.657  1.00 20.00    -0.023 C 
HETATM   10  C2  UNL     1     -32.075   8.146   1.375  1.00 20.00     0.009 C 
HETATM   11  C3  UNL     1     -32.563   5.971   2.515  1.00 20.00     0.009 C 
ENDBRANCH   8   9
ENDBRANCH   7   8
ENDBRANCH   1   7
TORSDOF 6
ENDMDL
MODEL 2
REMARK VINA RESULT:      -4.6      2.205      3.945
REMARK  6 active torsions:
REMARK  status: ('A' for Active; 'I' for Inactive)
REMARK    1  A    between atoms: C1_1  and  C4_4 
REMARK    2  A    between atoms: C4_4  and  C5_5 
REMARK    3  A    between atoms: C5_5  and  C6_6 
REMARK    4  A    between atoms: C6_6  and  C7_7 
REMARK    5  A    between atoms: C7_7  and  C8_8 
REMARK    6  A    between atoms: C8_8  and  C9_9 
ROOT
HETATM    1  C6  UNL     1     -33.574   8.127   5.556  1.00 20.00     0.000 C 
ENDROOT
BRANCH   1   2
HETATM    2  C5  UNL     1     -32.320   8.455   4.743  1.00 20.00     0.008 C 
BRANCH   2   3
HETATM    3  C4  UNL     1     -32.676   8.882   3.320  1.00 20.00     0.096 C 
BRANCH   3   4
HETATM    4  C1  UNL     1     -32.373   7.798   2.299  1.00 20.00     0.218 C 
HETATM    5  O10 UNL     1     -32.289   6.610   2.591  1.00 20.00    -0.280 OA
HETATM    6 CL11 UNL     1     -32.166   8.464   0.703  1.00 20.00    -0.044 Cl
ENDBRANCH   3   4
ENDBRANCH   2   3
ENDBRANCH   1   2
BRANCH   1   7
HETATM    7  C7  UNL     1     -33.407   6.818   6.330  1.00 20.00     0.000 C 
BRANCH   7   8
HETATM    8  C8  UNL     1     -34.701   6.006   6.446  1.00 20.00     0.004 C 
BRANCH   8   9
HETATM    9  C9  UNL     1     -35.113   5.211   5.192  1.00 20.00    -0.023 C 
HETATM   10  C2  UNL     1     -35.708   6.106   4.104  1.00 20.00     0.009 C 
HETATM   11  C3  UNL     1     -33.901   4.458   4.638  1.00 20.00     0.009 C 
ENDBRANCH   8   9
ENDBRANCH   7   8
ENDBRANCH   1   7
TORSDOF 6
ENDMDL
MODEL 3
REMARK VINA RESULT:      -4.5      2.656      4.272
REMARK  6 active torsions:
REMARK  status: ('A' for Active; 'I' for Inactive)
REMARK    1  A    between atoms: C1_1  and  C4_4 
REMARK    2  A    between atoms: C4_4  and  C5_5 
REMARK    3  A    between atoms: C5_5  and  C6_6 
REMARK    4  A    between atoms: C6_6  and  C7_7 
REMARK    5  A    between atoms: C7_7  and  C8_8 
REMARK    6  A    between atoms: C8_8  and  C9_9 
ROOT
HETATM    1  C6  UNL     1     -32.688   7.985   5.271  1.00 20.00     0.000 C 
ENDROOT
BRANCH   1   2
HETATM    2  C5  UNL     1     -32.926   8.558   3.873  1.00 20.00     0.008 C 
BRANCH   2   3
HETATM    3  C4  UNL     1     -32.292   7.680   2.796  1.00 20.00     0.096 C 
BRANCH   3   4
HETATM    4  C1  UNL     1     -32.225   8.378   1.448  1.00 20.00     0.218 C 
HETATM    5  O10 UNL     1     -31.692   7.880   0.462  1.00 20.00    -0.280 OA
HETATM    6 CL11 UNL     1     -32.990   9.943   1.501  1.00 20.00    -0.044 Cl
ENDBRANCH   3   4
ENDBRANCH   2   3
ENDBRANCH   1   2
BRANCH   1   7
HETATM    7  C7  UNL     1     -34.007   7.596   5.943  1.00 20.00     0.000 C 
BRANCH   7   8
HETATM    8  C8  UNL     1     -34.108   6.104   6.277  1.00 20.00     0.004 C 
BRANCH   8   9
HETATM    9  C9  UNL     1     -34.852   5.232   5.247  1.00 20.00    -0.023 C 
HETATM   10  C2  UNL     1     -35.715   6.062   4.295  1.00 20.00     0.009 C 
HETATM   11  C3  UNL     1     -33.842   4.408   4.444  1.00 20.00     0.009 C 
ENDBRANCH   8   9
ENDBRANCH   7   8
ENDBRANCH   1   7
TORSDOF 6
ENDMDL
MODEL 4
REMARK VINA RESULT:      -4.2      2.745      4.879
REMARK  6 active torsions:
REMARK  status: ('A' for Active; 'I' for Inactive)
REMARK    1  A    between atoms: C1_1  and  C4_4 
REMARK    2  A    between atoms: C4_4  and  C5_5 
REMARK    3  A    between atoms: C5_5  and  C6_6 
REMARK    4  A    between atoms: C6_6  and  C7_7 
REMARK    5  A    between atoms: C7_7  and  C8_8 
REMARK    6  A    between atoms: C8_8  and  C9_9 
ROOT
HETATM    1  C6  UNL     1     -32.963   5.313   2.714  1.00 20.00     0.000 C 
ENDROOT
BRANCH   1   2
HETATM    2  C5  UNL     1     -32.304   6.645   3.073  1.00 20.00     0.008 C 
BRANCH   2   3
HETATM    3  C4  UNL     1     -32.278   7.595   1.877  1.00 20.00     0.096 C 
BRANCH   3   4
HETATM    4  C1  UNL     1     -32.614   9.024   2.267  1.00 20.00     0.218 C 
HETATM    5  O10 UNL     1     -32.948   9.878   1.453  1.00 20.00    -0.280 OA
HETATM    6 CL11 UNL     1     -32.459   9.270   3.985  1.00 20.00    -0.044 Cl
ENDBRANCH   3   4
ENDBRANCH   2   3
ENDBRANCH   1   2
BRANCH   1   7
HETATM    7  C7  UNL     1     -34.002   4.907   3.762  1.00 20.00     0.000 C 
BRANCH   7   8
HETATM    8  C8  UNL     1     -34.754   6.095   4.371  1.00 20.00     0.004 C 
BRANCH   8   9
HETATM    9  C9  UNL     1     -34.776   6.162   5.909  1.00 20.00    -0.023 C 
HETATM   10  C2  UNL     1     -34.264   4.875   6.557  1.00 20.00     0.009 C 
HETATM   11  C3  UNL     1     -33.937   7.350   6.386  1.00 20.00     0.009 C 
ENDBRANCH   8   9
ENDBRANCH   7   8
ENDBRANCH   1   7
TORSDOF 6
ENDMDL
MODEL 5
REMARK VINA RESULT:      -4.1      1.327      2.027
REMARK  6 active torsions:
REMARK  status: ('A' for Active; 'I' for Inactive)
REMARK    1  A    between atoms: C1_1  and  C4_4 
REMARK    2  A    between atoms: C4_4  and  C5_5 
REMARK    3  A    between atoms: C5_5  and  C6_6 
REMARK    4  A    between atoms: C6_6  and  C7_7 
REMARK    5  A    between atoms: C7_7  and  C8_8 
REMARK    6  A    between atoms: C8_8  and  C9_9 
ROOT
HETATM    1  C6  UNL     1     -33.772   7.049   6.346  1.00 20.00     0.000 C 
ENDROOT
BRANCH   1   2
HETATM    2  C5  UNL     1     -34.807   5.942   6.141  1.00 20.00     0.008 C 
BRANCH   2   3
HETATM    3  C4  UNL     1     -34.999   5.627   4.659  1.00 20.00     0.096 C 
BRANCH   3   4
HETATM    4  C1  UNL     1     -34.040   4.555   4.167  1.00 20.00     0.218 C 
HETATM    5  O10 UNL     1     -33.754   3.561   4.826  1.00 20.00    -0.280 OA
HETATM    6 CL11 UNL     1     -33.423   4.930   2.582  1.00 20.00    -0.044 Cl
ENDBRANCH   3   4
ENDBRANCH   2   3
ENDBRANCH   1   2
BRANCH   1   7
HETATM    7  C7  UNL     1     -33.881   8.119   5.259  1.00 20.00     0.000 C 
BRANCH   7   8
HETATM    8  C8  UNL     1     -32.554   8.826   4.958  1.00 20.00     0.004 C 
BRANCH   8   9
HETATM    9  C9  UNL     1     -32.069   8.755   3.498  1.00 20.00    -0.023 C 
HETATM   10  C2  UNL     1     -31.962   7.318   2.987  1.00 20.00     0.009 C 
HETATM   11  C3  UNL     1     -33.018   9.554   2.600  1.00 20.00     0.009 C 
ENDBRANCH   8   9
ENDBRANCH   7   8
ENDBRANCH   1   7
TORSDOF 6
ENDMDL
MODEL 6
REMARK VINA RESULT:      -4.1      1.055      1.973
REMARK  6 active torsions:
REMARK  status: ('A' for Active; 'I' for Inactive)
REMARK    1  A    between atoms: C1_1  and  C4_4 
REMARK    2  A    between atoms: C4_4  and  C5_5 
REMARK    3  A    between atoms: C5_5  and  C6_6 
REMARK    4  A    between atoms: C6_6  and  C7_7 
REMARK    5  A    between atoms: C7_7  and  C8_8 
REMARK    6  A    between atoms: C8_8  and  C9_9 
ROOT
HETATM    1  C6  UNL     1     -32.380   8.568   4.692  1.00 20.00     0.000 C 
ENDROOT
BRANCH   1   2
HETATM    2  C5  UNL     1     -33.826   8.162   4.979  1.00 20.00     0.008 C 
BRANCH   2   3
HETATM    3  C4  UNL     1     -33.918   7.268   6.214  1.00 20.00     0.096 C 
BRANCH   3   4
HETATM    4  C1  UNL     1     -34.445   5.881   5.885  1.00 20.00     0.218 C 
HETATM    5  O10 UNL     1     -34.181   4.889   6.556  1.00 20.00    -0.280 OA
HETATM    6 CL11 UNL     1     -35.446   5.900   4.459  1.00 20.00    -0.044 Cl
ENDBRANCH   3   4
ENDBRANCH   2   3
ENDBRANCH   1   2
BRANCH   1   7
HETATM    7  C7  UNL     1     -31.749   7.662   3.632  1.00 20.00     0.000 C 
BRANCH   7   8
HETATM    8  C8  UNL     1     -32.538   7.615   2.318  1.00 20.00     0.004 C 
BRANCH   8   9
HETATM    9  C9  UNL     1     -32.177   8.693   1.278  1.00 20.00    -0.023 C 
HETATM   10  C2  UNL     1     -32.317   8.187  -0.159  1.00 20.00     0.009 C 
HETATM   11  C3  UNL     1     -33.066   9.923   1.481  1.00 20.00     0.009 C 
ENDBRANCH   8   9
ENDBRANCH   7   8
ENDBRANCH   1   7
TORSDOF 6
ENDMDL
MODEL 7
REMARK VINA RESULT:      -4.0     12.164     12.807
REMARK  6 active torsions:
REMARK  status: ('A' for Active; 'I' for Inactive)
REMARK    1  A    between atoms: C1_1  and  C4_4 
REMARK    2  A    between atoms: C4_4  and  C5_5 
REMARK    3  A    between atoms: C5_5  and  C6_6 
REMARK    4  A    between atoms: C6_6  and  C7_7 
REMARK    5  A    between atoms: C7_7  and  C8_8 
REMARK    6  A    between atoms: C8_8  and  C9_9 
ROOT
HETATM    1  C6  UNL     1     -33.532  16.702  -2.174  1.00 20.00     0.000 C 
ENDROOT
BRANCH   1   2
HETATM    2  C5  UNL     1     -32.881  18.036  -1.802  1.00 20.00     0.008 C 
BRANCH   2   3
HETATM    3  C4  UNL     1     -32.878  18.251  -0.290  1.00 20.00     0.096 C 
BRANCH   3   4
HETATM    4  C1  UNL     1     -31.479  18.481   0.257  1.00 20.00     0.218 C 
HETATM    5  O10 UNL     1     -30.510  18.708  -0.459  1.00 20.00    -0.280 OA
HETATM    6 CL11 UNL     1     -31.448  18.378   1.996  1.00 20.00    -0.044 Cl
ENDBRANCH   3   4
ENDBRANCH   2   3
ENDBRANCH   1   2
BRANCH   1   7
HETATM    7  C7  UNL     1     -33.183  16.296  -3.607  1.00 20.00     0.000 C 
BRANCH   7   8
HETATM    8  C8  UNL     1     -33.788  14.951  -4.027  1.00 20.00     0.004 C 
BRANCH   8   9
HETATM    9  C9  UNL     1     -34.517  14.935  -5.384  1.00 20.00    -0.023 C 
HETATM   10  C2  UNL     1     -35.909  14.308  -5.292  1.00 20.00     0.009 C 
HETATM   11  C3  UNL     1     -34.627  16.362  -5.928  1.00 20.00     0.009 C 
ENDBRANCH   8   9
ENDBRANCH   7   8
ENDBRANCH   1   7
TORSDOF 6
ENDMDL
MODEL 8
REMARK VINA RESULT:      -4.0     11.830     12.577
REMARK  6 active torsions:
REMARK  status: ('A' for Active; 'I' for Inactive)
REMARK    1  A    between atoms: C1_1  and  C4_4 
REMARK    2  A    between atoms: C4_4  and  C5_5 
REMARK    3  A    between atoms: C5_5  and  C6_6 
REMARK    4  A    between atoms: C6_6  and  C7_7 
REMARK    5  A    between atoms: C7_7  and  C8_8 
REMARK    6  A    between atoms: C8_8  and  C9_9 
ROOT
HETATM    1  C6  UNL     1     -33.431  16.997  -1.871  1.00 20.00     0.000 C 
ENDROOT
BRANCH   1   2
HETATM    2  C5  UNL     1     -33.561  16.842  -3.387  1.00 20.00     0.008 C 
BRANCH   2   3
HETATM    3  C4  UNL     1     -32.923  15.541  -3.870  1.00 20.00     0.096 C 
BRANCH   3   4
HETATM    4  C1  UNL     1     -33.915  14.644  -4.591  1.00 20.00     0.218 C 
HETATM    5  O10 UNL     1     -34.559  13.767  -4.023  1.00 20.00    -0.280 OA
HETATM    6 CL11 UNL     1     -34.005  15.025  -6.288  1.00 20.00    -0.044 Cl
ENDBRANCH   3   4
ENDBRANCH   2   3
ENDBRANCH   1   2
BRANCH   1   7
HETATM    7  C7  UNL     1     -32.883  18.377  -1.500  1.00 20.00     0.000 C 
BRANCH   7   8
HETATM    8  C8  UNL     1     -31.590  18.323  -0.680  1.00 20.00     0.004 C 
BRANCH   8   9
HETATM    9  C9  UNL     1     -31.635  19.012   0.697  1.00 20.00    -0.023 C 
HETATM   10  C2  UNL     1     -33.057  19.110   1.254  1.00 20.00     0.009 C 
HETATM   11  C3  UNL     1     -30.745  18.252   1.684  1.00 20.00     0.009 C 
ENDBRANCH   8   9
ENDBRANCH   7   8
ENDBRANCH   1   7
TORSDOF 6
ENDMDL
MODEL 9
REMARK VINA RESULT:      -3.9     12.053     12.840
REMARK  6 active torsions:
REMARK  status: ('A' for Active; 'I' for Inactive)
REMARK    1  A    between atoms: C1_1  and  C4_4 
REMARK    2  A    between atoms: C4_4  and  C5_5 
REMARK    3  A    between atoms: C5_5  and  C6_6 
REMARK    4  A    between atoms: C6_6  and  C7_7 
REMARK    5  A    between atoms: C7_7  and  C8_8 
REMARK    6  A    between atoms: C8_8  and  C9_9 
ROOT
HETATM    1  C6  UNL     1     -33.681  16.779  -3.483  1.00 20.00     0.000 C 
ENDROOT
BRANCH   1   2
HETATM    2  C5  UNL     1     -33.058  15.444  -3.895  1.00 20.00     0.008 C 
BRANCH   2   3
HETATM    3  C4  UNL     1     -34.119  14.467  -4.400  1.00 20.00     0.096 C 
BRANCH   3   4
HETATM    4  C1  UNL     1     -34.706  14.892  -5.735  1.00 20.00     0.218 C 
HETATM    5  O10 UNL     1     -34.062  14.893  -6.779  1.00 20.00    -0.280 OA
HETATM    6 CL11 UNL     1     -36.376  15.363  -5.577  1.00 20.00    -0.044 Cl
ENDBRANCH   3   4
ENDBRANCH   2   3
ENDBRANCH   1   2
BRANCH   1   7
HETATM    7  C7  UNL     1     -33.468  17.054  -1.993  1.00 20.00     0.000 C 
BRANCH   7   8
HETATM    8  C8  UNL     1     -32.468  18.182  -1.715  1.00 20.00     0.004 C 
BRANCH   8   9
HETATM    9  C9  UNL     1     -32.503  18.779  -0.295  1.00 20.00    -0.023 C 
HETATM   10  C2  UNL     1     -33.651  18.217   0.545  1.00 20.00     0.009 C 
HETATM   11  C3  UNL     1     -31.169  18.515   0.408  1.00 20.00     0.009 C 
ENDBRANCH   8   9
ENDBRANCH   7   8
ENDBRANCH   1   7
TORSDOF 6
ENDMDL
