MODEL 1
REMARK VINA RESULT:      -6.1      0.000      0.000
REMARK  1 active torsions:
REMARK  status: ('A' for Active; 'I' for Inactive)
REMARK    1  A    between atoms: C9_9  and  O10_10 
ROOT
HETATM    1  C1  UNL     1     -34.854   5.231   6.107  1.00 20.00     0.001 C 
HETATM    2  C2  UNL     1     -34.283   6.618   6.444  1.00 20.00     0.005 C 
HETATM    3  C3  UNL     1     -34.458   4.937   4.650  1.00 20.00     0.005 C 
HETATM    4  C4  UNL     1     -32.886   8.322   5.069  1.00 20.00     0.007 C 
HETATM    5  C5  UNL     1     -32.547   8.680   3.618  1.00 20.00     0.032 C 
HETATM    6  C6  UNL     1     -33.137   6.303   2.883  1.00 20.00     0.036 C 
HETATM    7  C7  UNL     1     -33.915   7.201   5.088  1.00 20.00    -0.010 C 
HETATM    8  C8  UNL     1     -33.388   5.974   4.346  1.00 20.00    -0.008 C 
HETATM    9  C9  UNL     1     -32.131   7.459   2.783  1.00 20.00     0.118 C 
ENDROOT
BRANCH   9  10
HETATM   10  O10 UNL     1     -32.007   7.834   1.416  1.00 20.00    -0.396 OA
HETATM   11  H26 UNL     1     -32.805   8.339   1.193  1.00 20.00     0.210 HD
ENDBRANCH   9  10
TORSDOF 1
ENDMDL
MODEL 2
REMARK VINA RESULT:      -5.3      2.240      3.759
REMARK  1 active torsions:
REMARK  status: ('A' for Active; 'I' for Inactive)
REMARK    1  A    between atoms: C9_9  and  O10_10 
ROOT
HETATM    1  C1  UNL     1     -32.003   7.722   2.297  1.00 20.00     0.001 C 
HETATM    2  C2  UNL     1     -32.380   8.566   3.525  1.00 20.00     0.005 C 
HETATM    3  C3  UNL     1     -32.630   6.334   2.511  1.00 20.00     0.005 C 
HETATM    4  C4  UNL     1     -33.783   8.047   5.648  1.00 20.00     0.007 C 
HETATM    5  C5  UNL     1     -34.287   6.859   6.474  1.00 20.00     0.032 C 
HETATM    6  C6  UNL     1     -34.046   5.329   4.439  1.00 20.00     0.036 C 
HETATM    7  C7  UNL     1     -32.878   7.542   4.534  1.00 20.00    -0.010 C 
HETATM    8  C8  UNL     1     -33.623   6.552   3.641  1.00 20.00    -0.008 C 
HETATM    9  C9  UNL     1     -34.937   5.765   5.612  1.00 20.00     0.118 C 
ENDROOT
BRANCH   9  10
HETATM   10  O10 UNL     1     -35.216   4.625   6.417  1.00 20.00    -0.396 OA
HETATM   11  H26 UNL     1     -35.730   4.014   5.865  1.00 20.00     0.210 HD
ENDBRANCH   9  10
TORSDOF 1
ENDMDL
MODEL 3
REMARK VINA RESULT:      -5.2      2.338      4.242
REMARK  1 active torsions:
REMARK  status: ('A' for Active; 'I' for Inactive)
REMARK    1  A    between atoms: C9_9  and  O10_10 
ROOT
HETATM    1  C1  UNL     1     -32.142   8.968   3.778  1.00 20.00     0.001 C 
HETATM    2  C2  UNL     1     -32.347   7.634   3.043  1.00 20.00     0.005 C 
HETATM    3  C3  UNL     1     -32.835   8.828   5.144  1.00 20.00     0.005 C 
HETATM    4  C4  UNL     1     -33.540   5.427   3.716  1.00 20.00     0.007 C 
HETATM    5  C5  UNL     1     -34.594   4.900   4.694  1.00 20.00     0.032 C 
HETATM    6  C6  UNL     1     -34.167   6.890   6.241  1.00 20.00     0.036 C 
HETATM    7  C7  UNL     1     -33.437   6.939   3.846  1.00 20.00    -0.010 C 
HETATM    8  C8  UNL     1     -33.078   7.333   5.278  1.00 20.00    -0.008 C 
HETATM    9  C9  UNL     1     -34.356   5.370   6.139  1.00 20.00     0.118 C 
ENDROOT
BRANCH   9  10
HETATM   10  O10 UNL     1     -35.463   4.995   6.952  1.00 20.00    -0.396 OA
HETATM   11  H26 UNL     1     -35.227   5.225   7.865  1.00 20.00     0.210 HD
ENDBRANCH   9  10
TORSDOF 1
ENDMDL
MODEL 4
REMARK VINA RESULT:      -5.2      1.906      3.538
REMARK  1 active torsions:
REMARK  status: ('A' for Active; 'I' for Inactive)
REMARK    1  A    between atoms: C9_9  and  O10_10 
ROOT
HETATM    1  C1  UNL     1     -32.417   9.358   4.481  1.00 20.00     0.001 C 
HETATM    2  C2  UNL     1     -33.236   8.932   5.709  1.00 20.00     0.005 C 
HETATM    3  C3  UNL     1     -32.348   8.133   3.554  1.00 20.00     0.005 C 
HETATM    4  C4  UNL     1     -34.404   6.703   6.352  1.00 20.00     0.007 C 
HETATM    5  C5  UNL     1     -34.368   5.207   6.021  1.00 20.00     0.032 C 
HETATM    6  C6  UNL     1     -33.290   5.724   3.760  1.00 20.00     0.036 C 
HETATM    7  C7  UNL     1     -33.284   7.414   5.608  1.00 20.00    -0.010 C 
HETATM    8  C8  UNL     1     -33.416   7.200   4.101  1.00 20.00    -0.008 C 
HETATM    9  C9  UNL     1     -34.370   4.930   4.508  1.00 20.00     0.118 C 
ENDROOT
BRANCH   9  10
HETATM   10  O10 UNL     1     -34.155   3.542   4.276  1.00 20.00    -0.396 OA
HETATM   11  H26 UNL     1     -34.347   3.384   3.338  1.00 20.00     0.210 HD
ENDBRANCH   9  10
TORSDOF 1
ENDMDL
MODEL 5
REMARK VINA RESULT:      -5.1      0.998      2.210
REMARK  1 active torsions:
REMARK  status: ('A' for Active; 'I' for Inactive)
REMARK    1  A    between atoms: C9_9  and  O10_10 
ROOT
HETATM    1  C1  UNL     1     -34.845   4.926   6.100  1.00 20.00     0.001 C 
HETATM    2  C2  UNL     1     -34.300   4.676   4.685  1.00 20.00     0.005 C 
HETATM    3  C3  UNL     1     -34.508   6.385   6.449  1.00 20.00     0.005 C 
HETATM    4  C4  UNL     1     -33.056   6.201   2.991  1.00 20.00     0.007 C 
HETATM    5  C5  UNL     1     -32.227   7.489   2.941  1.00 20.00     0.032 C 
HETATM    6  C6  UNL     1     -33.270   8.256   5.146  1.00 20.00     0.036 C 
HETATM    7  C7  UNL     1     -33.372   5.856   4.438  1.00 20.00    -0.010 C 
HETATM    8  C8  UNL     1     -34.126   7.001   5.113  1.00 20.00    -0.008 C 
HETATM    9  C9  UNL     1     -32.877   8.648   3.714  1.00 20.00     0.118 C 
ENDROOT
BRANCH   9  10
HETATM   10  O10 UNL     1     -31.974   9.747   3.776  1.00 20.00    -0.396 OA
HETATM   11  H26 UNL     1     -32.371  10.461   3.253  1.00 20.00     0.210 HD
ENDBRANCH   9  10
TORSDOF 1
ENDMDL
MODEL 6
REMARK VINA RESULT:      -4.7      1.363      2.117
REMARK  1 active torsions:
REMARK  status: ('A' for Active; 'I' for Inactive)
REMARK    1  A    between atoms: C9_9  and  O10_10 
ROOT
HETATM    1  C1  UNL     1     -34.063   4.195   3.752  1.00 20.00     0.001 C 
HETATM    2  C2  UNL     1     -34.463   4.889   5.063  1.00 20.00     0.005 C 
HETATM    3  C3  UNL     1     -33.235   5.214   2.951  1.00 20.00     0.005 C 
HETATM    4  C4  UNL     1     -33.975   7.256   6.014  1.00 20.00     0.007 C 
HETATM    5  C5  UNL     1     -33.559   8.657   5.552  1.00 20.00     0.032 C 
HETATM    6  C6  UNL     1     -32.525   7.662   3.436  1.00 20.00     0.036 C 
HETATM    7  C7  UNL     1     -34.172   6.359   4.801  1.00 20.00    -0.010 C 
HETATM    8  C8  UNL     1     -32.891   6.287   3.971  1.00 20.00    -0.008 C 
HETATM    9  C9  UNL     1     -32.346   8.638   4.607  1.00 20.00     0.118 C 
ENDROOT
BRANCH   9  10
HETATM   10  O10 UNL     1     -32.130   9.943   4.081  1.00 20.00    -0.396 OA
HETATM   11  H26 UNL     1     -31.329   9.894   3.536  1.00 20.00     0.210 HD
ENDBRANCH   9  10
TORSDOF 1
ENDMDL
MODEL 7
REMARK VINA RESULT:      -4.6      0.805      2.144
REMARK  1 active torsions:
REMARK  status: ('A' for Active; 'I' for Inactive)
REMARK    1  A    between atoms: C9_9  and  O10_10 
ROOT
HETATM    1  C1  UNL     1     -34.777   6.019   6.741  1.00 20.00     0.001 C 
HETATM    2  C2  UNL     1     -34.728   4.999   5.592  1.00 20.00     0.005 C 
HETATM    3  C3  UNL     1     -34.024   7.267   6.251  1.00 20.00     0.005 C 
HETATM    4  C4  UNL     1     -33.696   5.087   3.211  1.00 20.00     0.007 C 
HETATM    5  C5  UNL     1     -32.638   5.849   2.405  1.00 20.00     0.032 C 
HETATM    6  C6  UNL     1     -32.806   7.818   4.026  1.00 20.00     0.036 C 
HETATM    7  C7  UNL     1     -33.660   5.550   4.659  1.00 20.00    -0.010 C 
HETATM    8  C8  UNL     1     -33.904   7.056   4.750  1.00 20.00    -0.008 C 
HETATM    9  C9  UNL     1     -32.754   7.374   2.558  1.00 20.00     0.118 C 
ENDROOT
BRANCH   9  10
HETATM   10  O10 UNL     1     -31.641   8.003   1.932  1.00 20.00    -0.396 OA
HETATM   11  H26 UNL     1     -31.572   7.623   1.042  1.00 20.00     0.210 HD
ENDBRANCH   9  10
TORSDOF 1
ENDMDL
MODEL 8
REMARK VINA RESULT:      -4.4      1.389      1.927
REMARK  1 active torsions:
REMARK  status: ('A' for Active; 'I' for Inactive)
REMARK    1  A    between atoms: C9_9  and  O10_10 
ROOT
HETATM    1  C1  UNL     1     -34.594   6.874   6.902  1.00 20.00     0.001 C 
HETATM    2  C2  UNL     1     -33.670   7.795   6.090  1.00 20.00     0.005 C 
HETATM    3  C3  UNL     1     -34.784   5.597   6.067  1.00 20.00     0.005 C 
HETATM    4  C4  UNL     1     -32.503   7.519   3.786  1.00 20.00     0.007 C 
HETATM    5  C5  UNL     1     -32.609   6.703   2.493  1.00 20.00     0.032 C 
HETATM    6  C6  UNL     1     -33.888   4.875   3.741  1.00 20.00     0.036 C 
HETATM    7  C7  UNL     1     -33.671   7.178   4.699  1.00 20.00    -0.010 C 
HETATM    8  C8  UNL     1     -33.692   5.684   5.013  1.00 20.00    -0.008 C 
HETATM    9  C9  UNL     1     -32.761   5.195   2.749  1.00 20.00     0.118 C 
ENDROOT
BRANCH   9  10
HETATM   10  O10 UNL     1     -33.033   4.527   1.522  1.00 20.00    -0.396 OA
HETATM   11  H26 UNL     1     -32.267   3.959   1.340  1.00 20.00     0.210 HD
ENDBRANCH   9  10
TORSDOF 1
ENDMDL
MODEL 9
REMARK VINA RESULT:      -4.3      1.519      3.008
REMARK  1 active torsions:
REMARK  status: ('A' for Active; 'I' for Inactive)
REMARK    1  A    between atoms: C9_9  and  O10_10 
ROOT
HETATM    1  C1  UNL     1     -33.062   9.010   5.730  1.00 20.00     0.001 C 
HETATM    2  C2  UNL     1     -34.044   7.890   6.109  1.00 20.00     0.005 C 
HETATM    3  C3  UNL     1     -32.327   8.538   4.464  1.00 20.00     0.005 C 
HETATM    4  C4  UNL     1     -34.589   5.594   5.026  1.00 20.00     0.007 C 
HETATM    5  C5  UNL     1     -33.982   4.559   4.072  1.00 20.00     0.032 C 
HETATM    6  C6  UNL     1     -32.477   6.361   3.060  1.00 20.00     0.036 C 
HETATM    7  C7  UNL     1     -33.577   6.700   5.284  1.00 20.00    -0.010 C 
HETATM    8  C8  UNL     1     -33.160   7.365   3.973  1.00 20.00    -0.008 C 
HETATM    9  C9  UNL     1     -33.428   5.188   2.783  1.00 20.00     0.118 C 
ENDROOT
BRANCH   9  10
HETATM   10  O10 UNL     1     -32.726   4.202   2.034  1.00 20.00    -0.396 OA
HETATM   11  H26 UNL     1     -31.882   4.056   2.490  1.00 20.00     0.210 HD
ENDBRANCH   9  10
TORSDOF 1
ENDMDL
