MODEL 1
REMARK VINA RESULT:      -3.7      0.000      0.000
REMARK  4 active torsions:
REMARK  status: ('A' for Active; 'I' for Inactive)
REMARK    1  A    between atoms: C1_1  and  C6_6 
REMARK    2  A    between atoms: C6_6  and  C8_8 
REMARK    3  A    between atoms: C7_7  and  C8_8 
REMARK    4  A    between atoms: C7_7  and  C9_9 
ROOT
HETATM    1  C2  UNL     1     -31.879   8.822   5.182  1.00 20.00     0.010 C 
HETATM    2  C8  UNL     1     -32.765   8.078   4.173  1.00 20.00    -0.010 C 
ENDROOT
BRANCH   2   3
HETATM    3  C6  UNL     1     -33.022   9.019   2.976  1.00 20.00     0.100 C 
BRANCH   3   4
HETATM    4  C1  UNL     1     -32.496   8.476   1.657  1.00 20.00     0.219 C 
HETATM    5  O10 UNL     1     -31.928   7.393   1.559  1.00 20.00    -0.280 OA
HETATM    6 CL11 UNL     1     -32.757   9.597   0.349  1.00 20.00    -0.044 Cl
ENDBRANCH   3   4
ENDBRANCH   2   3
BRANCH   2   7
HETATM    7  C7  UNL     1     -34.103   7.639   4.821  1.00 20.00     0.013 C 
BRANCH   7   8
HETATM    8  C9  UNL     1     -34.458   6.124   4.769  1.00 20.00    -0.051 C 
HETATM    9  C3  UNL     1     -35.905   5.992   4.249  1.00 20.00     0.014 C 
HETATM   10  C4  UNL     1     -34.379   5.452   6.145  1.00 20.00     0.014 C 
HETATM   11  C5  UNL     1     -33.530   5.378   3.792  1.00 20.00     0.014 C 
ENDBRANCH   7   8
ENDBRANCH   2   7
TORSDOF 4
ENDMDL
MODEL 2
REMARK VINA RESULT:      -3.7      0.042      1.299
REMARK  4 active torsions:
REMARK  status: ('A' for Active; 'I' for Inactive)
REMARK    1  A    between atoms: C1_1  and  C6_6 
REMARK    2  A    between atoms: C6_6  and  C8_8 
REMARK    3  A    between atoms: C7_7  and  C8_8 
REMARK    4  A    between atoms: C7_7  and  C9_9 
ROOT
HETATM    1  C2  UNL     1     -31.873   8.858   5.202  1.00 20.00     0.010 C 
HETATM    2  C8  UNL     1     -32.750   8.099   4.197  1.00 20.00    -0.010 C 
ENDROOT
BRANCH   2   3
HETATM    3  C6  UNL     1     -33.006   9.025   2.989  1.00 20.00     0.100 C 
BRANCH   3   4
HETATM    4  C1  UNL     1     -32.487   8.463   1.675  1.00 20.00     0.219 C 
HETATM    5  O10 UNL     1     -31.925   7.375   1.590  1.00 20.00    -0.280 OA
HETATM    6 CL11 UNL     1     -32.747   9.569   0.353  1.00 20.00    -0.044 Cl
ENDBRANCH   3   4
ENDBRANCH   2   3
BRANCH   2   7
HETATM    7  C7  UNL     1     -34.090   7.660   4.844  1.00 20.00     0.013 C 
BRANCH   7   8
HETATM    8  C9  UNL     1     -34.472   6.155   4.740  1.00 20.00    -0.051 C 
HETATM    9  C3  UNL     1     -34.385   5.544   6.155  1.00 20.00     0.014 C 
HETATM   10  C4  UNL     1     -33.530   5.370   3.819  1.00 20.00     0.014 C 
HETATM   11  C5  UNL     1     -35.918   5.990   4.237  1.00 20.00     0.014 C 
ENDBRANCH   7   8
ENDBRANCH   2   7
TORSDOF 4
ENDMDL
MODEL 3
REMARK VINA RESULT:      -3.7     10.039     10.956
REMARK  4 active torsions:
REMARK  status: ('A' for Active; 'I' for Inactive)
REMARK    1  A    between atoms: C1_1  and  C6_6 
REMARK    2  A    between atoms: C6_6  and  C8_8 
REMARK    3  A    between atoms: C7_7  and  C8_8 
REMARK    4  A    between atoms: C7_7  and  C9_9 
ROOT
HETATM    1  C2  UNL     1     -42.057  14.239   4.725  1.00 20.00     0.010 C 
HETATM    2  C8  UNL     1     -41.308  13.927   6.027  1.00 20.00    -0.010 C 
ENDROOT
BRANCH   2   3
HETATM    3  C6  UNL     1     -41.090  12.401   6.100  1.00 20.00     0.100 C 
BRANCH   3   4
HETATM    4  C1  UNL     1     -39.626  11.994   6.029  1.00 20.00     0.219 C 
HETATM    5  O10 UNL     1     -38.909  11.907   7.021  1.00 20.00    -0.280 OA
HETATM    6 CL11 UNL     1     -39.109  11.729   4.386  1.00 20.00    -0.044 Cl
ENDBRANCH   3   4
ENDBRANCH   2   3
BRANCH   2   7
HETATM    7  C7  UNL     1     -42.100  14.427   7.263  1.00 20.00     0.013 C 
BRANCH   7   8
HETATM    8  C9  UNL     1     -41.338  15.318   8.286  1.00 20.00    -0.051 C 
HETATM    9  C3  UNL     1     -40.655  16.461   7.505  1.00 20.00     0.014 C 
HETATM   10  C4  UNL     1     -40.256  14.545   9.049  1.00 20.00     0.014 C 
HETATM   11  C5  UNL     1     -42.313  15.948   9.298  1.00 20.00     0.014 C 
ENDBRANCH   7   8
ENDBRANCH   2   7
TORSDOF 4
ENDMDL
MODEL 4
REMARK VINA RESULT:      -3.7      1.506      2.597
REMARK  4 active torsions:
REMARK  status: ('A' for Active; 'I' for Inactive)
REMARK    1  A    between atoms: C1_1  and  C6_6 
REMARK    2  A    between atoms: C6_6  and  C8_8 
REMARK    3  A    between atoms: C7_7  and  C8_8 
REMARK    4  A    between atoms: C7_7  and  C9_9 
ROOT
HETATM    1  C2  UNL     1     -32.921   4.956   2.209  1.00 20.00     0.010 C 
HETATM    2  C8  UNL     1     -33.143   6.236   3.025  1.00 20.00    -0.010 C 
ENDROOT
BRANCH   2   3
HETATM    3  C6  UNL     1     -32.065   7.260   2.610  1.00 20.00     0.100 C 
BRANCH   3   4
HETATM    4  C1  UNL     1     -32.420   8.694   2.974  1.00 20.00     0.219 C 
HETATM    5  O10 UNL     1     -32.365   9.124   4.122  1.00 20.00    -0.280 OA
HETATM    6 CL11 UNL     1     -32.951   9.600   1.583  1.00 20.00    -0.044 Cl
ENDBRANCH   3   4
ENDBRANCH   2   3
BRANCH   2   7
HETATM    7  C7  UNL     1     -33.068   5.950   4.548  1.00 20.00     0.013 C 
BRANCH   7   8
HETATM    8  C9  UNL     1     -34.378   6.126   5.371  1.00 20.00    -0.051 C 
HETATM    9  C3  UNL     1     -34.537   4.888   6.280  1.00 20.00     0.014 C 
HETATM   10  C4  UNL     1     -35.623   6.232   4.482  1.00 20.00     0.014 C 
HETATM   11  C5  UNL     1     -34.296   7.372   6.271  1.00 20.00     0.014 C 
ENDBRANCH   7   8
ENDBRANCH   2   7
TORSDOF 4
ENDMDL
MODEL 5
REMARK VINA RESULT:      -3.6     10.051     10.960
REMARK  4 active torsions:
REMARK  status: ('A' for Active; 'I' for Inactive)
REMARK    1  A    between atoms: C1_1  and  C6_6 
REMARK    2  A    between atoms: C6_6  and  C8_8 
REMARK    3  A    between atoms: C7_7  and  C8_8 
REMARK    4  A    between atoms: C7_7  and  C9_9 
ROOT
HETATM    1  C2  UNL     1     -42.212  14.330   4.946  1.00 20.00     0.010 C 
HETATM    2  C8  UNL     1     -41.334  13.905   6.131  1.00 20.00    -0.010 C 
ENDROOT
BRANCH   2   3
HETATM    3  C6  UNL     1     -41.078  12.387   6.018  1.00 20.00     0.100 C 
BRANCH   3   4
HETATM    4  C1  UNL     1     -39.603  12.019   6.032  1.00 20.00     0.219 C 
HETATM    5  O10 UNL     1     -38.944  11.944   7.064  1.00 20.00    -0.280 OA
HETATM    6 CL11 UNL     1     -38.983  11.778   4.421  1.00 20.00    -0.044 Cl
ENDBRANCH   3   4
ENDBRANCH   2   3
BRANCH   2   7
HETATM    7  C7  UNL     1     -42.014  14.248   7.482  1.00 20.00     0.013 C 
BRANCH   7   8
HETATM    8  C9  UNL     1     -41.319  15.312   8.381  1.00 20.00    -0.051 C 
HETATM    9  C3  UNL     1     -40.286  14.584   9.267  1.00 20.00     0.014 C 
HETATM   10  C4  UNL     1     -42.307  16.045   9.297  1.00 20.00     0.014 C 
HETATM   11  C5  UNL     1     -40.568  16.347   7.523  1.00 20.00     0.014 C 
ENDBRANCH   7   8
ENDBRANCH   2   7
TORSDOF 4
ENDMDL
MODEL 6
REMARK VINA RESULT:      -3.6     11.151     12.612
REMARK  4 active torsions:
REMARK  status: ('A' for Active; 'I' for Inactive)
REMARK    1  A    between atoms: C1_1  and  C6_6 
REMARK    2  A    between atoms: C6_6  and  C8_8 
REMARK    3  A    between atoms: C7_7  and  C8_8 
REMARK    4  A    between atoms: C7_7  and  C9_9 
ROOT
HETATM    1  C2  UNL     1     -33.788  14.408  -4.150  1.00 20.00     0.010 C 
HETATM    2  C8  UNL     1     -34.320  15.832  -4.361  1.00 20.00    -0.010 C 
ENDROOT
BRANCH   2   3
HETATM    3  C6  UNL     1     -34.650  16.003  -5.859  1.00 20.00     0.100 C 
BRANCH   3   4
HETATM    4  C1  UNL     1     -35.942  15.317  -6.277  1.00 20.00     0.219 C 
HETATM    5  O10 UNL     1     -35.974  14.383  -7.072  1.00 20.00    -0.280 OA
HETATM    6 CL11 UNL     1     -37.334  16.054  -5.532  1.00 20.00    -0.044 Cl
ENDBRANCH   3   4
ENDBRANCH   2   3
BRANCH   2   7
HETATM    7  C7  UNL     1     -33.283  16.891  -3.904  1.00 20.00     0.013 C 
BRANCH   7   8
HETATM    8  C9  UNL     1     -33.717  17.877  -2.781  1.00 20.00    -0.051 C 
HETATM    9  C3  UNL     1     -32.762  19.089  -2.818  1.00 20.00     0.014 C 
HETATM   10  C4  UNL     1     -33.643  17.249  -1.384  1.00 20.00     0.014 C 
HETATM   11  C5  UNL     1     -35.148  18.390  -3.026  1.00 20.00     0.014 C 
ENDBRANCH   7   8
ENDBRANCH   2   7
TORSDOF 4
ENDMDL
MODEL 7
REMARK VINA RESULT:      -3.6     11.243     12.201
REMARK  4 active torsions:
REMARK  status: ('A' for Active; 'I' for Inactive)
REMARK    1  A    between atoms: C1_1  and  C6_6 
REMARK    2  A    between atoms: C6_6  and  C8_8 
REMARK    3  A    between atoms: C7_7  and  C8_8 
REMARK    4  A    between atoms: C7_7  and  C9_9 
ROOT
HETATM    1  C2  UNL     1     -34.897  17.160  -4.158  1.00 20.00     0.010 C 
HETATM    2  C8  UNL     1     -33.532  16.674  -3.652  1.00 20.00    -0.010 C 
ENDROOT
BRANCH   2   3
HETATM    3  C6  UNL     1     -33.393  15.180  -4.012  1.00 20.00     0.100 C 
BRANCH   3   4
HETATM    4  C1  UNL     1     -34.389  14.714  -5.061  1.00 20.00     0.219 C 
HETATM    5  O10 UNL     1     -35.410  14.092  -4.783  1.00 20.00    -0.280 OA
HETATM    6 CL11 UNL     1     -33.869  15.126  -6.673  1.00 20.00    -0.044 Cl
ENDBRANCH   3   4
ENDBRANCH   2   3
BRANCH   2   7
HETATM    7  C7  UNL     1     -33.394  16.885  -2.122  1.00 20.00     0.013 C 
BRANCH   7   8
HETATM    8  C9  UNL     1     -33.008  18.311  -1.631  1.00 20.00    -0.051 C 
HETATM    9  C3  UNL     1     -34.220  18.896  -0.875  1.00 20.00     0.014 C 
HETATM   10  C4  UNL     1     -32.659  19.258  -2.785  1.00 20.00     0.014 C 
HETATM   11  C5  UNL     1     -31.820  18.251  -0.654  1.00 20.00     0.014 C 
ENDBRANCH   7   8
ENDBRANCH   2   7
TORSDOF 4
ENDMDL
MODEL 8
REMARK VINA RESULT:      -3.5     11.464     12.833
REMARK  4 active torsions:
REMARK  status: ('A' for Active; 'I' for Inactive)
REMARK    1  A    between atoms: C1_1  and  C6_6 
REMARK    2  A    between atoms: C6_6  and  C8_8 
REMARK    3  A    between atoms: C7_7  and  C8_8 
REMARK    4  A    between atoms: C7_7  and  C9_9 
ROOT
HETATM    1  C2  UNL     1     -35.855  18.669  -3.853  1.00 20.00     0.010 C 
HETATM    2  C8  UNL     1     -34.612  17.779  -3.987  1.00 20.00    -0.010 C 
ENDROOT
BRANCH   2   3
HETATM    3  C6  UNL     1     -33.369  18.645  -3.694  1.00 20.00     0.100 C 
BRANCH   3   4
HETATM    4  C1  UNL     1     -32.812  18.452  -2.292  1.00 20.00     0.219 C 
HETATM    5  O10 UNL     1     -31.912  19.147  -1.830  1.00 20.00    -0.280 OA
HETATM    6 CL11 UNL     1     -33.569  17.111  -1.477  1.00 20.00    -0.044 Cl
ENDBRANCH   3   4
ENDBRANCH   2   3
BRANCH   2   7
HETATM    7  C7  UNL     1     -34.522  17.152  -5.402  1.00 20.00     0.013 C 
BRANCH   7   8
HETATM    8  C9  UNL     1     -34.616  15.601  -5.503  1.00 20.00    -0.051 C 
HETATM    9  C3  UNL     1     -33.954  15.170  -6.829  1.00 20.00     0.014 C 
HETATM   10  C4  UNL     1     -36.065  15.098  -5.503  1.00 20.00     0.014 C 
HETATM   11  C5  UNL     1     -33.851  14.930  -4.348  1.00 20.00     0.014 C 
ENDBRANCH   7   8
ENDBRANCH   2   7
TORSDOF 4
ENDMDL
MODEL 9
REMARK VINA RESULT:      -3.5     11.460     12.927
REMARK  4 active torsions:
REMARK  status: ('A' for Active; 'I' for Inactive)
REMARK    1  A    between atoms: C1_1  and  C6_6 
REMARK    2  A    between atoms: C6_6  and  C8_8 
REMARK    3  A    between atoms: C7_7  and  C8_8 
REMARK    4  A    between atoms: C7_7  and  C9_9 
ROOT
HETATM    1  C2  UNL     1     -34.640  17.756  -6.544  1.00 20.00     0.010 C 
HETATM    2  C8  UNL     1     -34.934  16.929  -5.285  1.00 20.00    -0.010 C 
ENDROOT
BRANCH   2   3
HETATM    3  C6  UNL     1     -36.217  16.109  -5.540  1.00 20.00     0.100 C 
BRANCH   3   4
HETATM    4  C1  UNL     1     -35.945  14.662  -5.919  1.00 20.00     0.219 C 
HETATM    5  O10 UNL     1     -35.989  14.256  -7.076  1.00 20.00    -0.280 OA
HETATM    6 CL11 UNL     1     -35.625  13.677  -4.517  1.00 20.00    -0.044 Cl
ENDBRANCH   3   4
ENDBRANCH   2   3
BRANCH   2   7
HETATM    7  C7  UNL     1     -35.106  17.842  -4.043  1.00 20.00     0.013 C 
BRANCH   7   8
HETATM    8  C9  UNL     1     -33.965  17.828  -2.984  1.00 20.00    -0.051 C 
HETATM    9  C3  UNL     1     -32.889  18.840  -3.431  1.00 20.00     0.014 C 
HETATM   10  C4  UNL     1     -33.303  16.451  -2.851  1.00 20.00     0.014 C 
HETATM   11  C5  UNL     1     -34.491  18.267  -1.606  1.00 20.00     0.014 C 
ENDBRANCH   7   8
ENDBRANCH   2   7
TORSDOF 4
ENDMDL
