MODEL 1
REMARK VINA RESULT:      -4.6      0.000      0.000
REMARK  1 active torsions:
REMARK  status: ('A' for Active; 'I' for Inactive)
REMARK    1  A    between atoms: C1_1  and  C6_6 
ROOT
HETATM    1  C2  UNL     1     -33.593   7.442   5.640  1.00 20.00     0.038 C 
HETATM    2  C3  UNL     1     -33.100   6.254   3.489  1.00 20.00     0.038 C 
HETATM    3  C4  UNL     1     -32.775   8.610   5.102  1.00 20.00     0.168 C 
HETATM    4  C5  UNL     1     -32.309   7.487   3.068  1.00 20.00     0.168 C 
HETATM    5  C6  UNL     1     -34.183   6.635   4.491  1.00 20.00     0.051 C 
HETATM    6  O8  UNL     1     -31.762   8.149   4.208  1.00 20.00    -0.391 OA
ENDROOT
BRANCH   5   7
HETATM    7  C1  UNL     1     -34.773   5.359   5.059  1.00 20.00     0.235 C 
HETATM    8  O7  UNL     1     -34.391   4.237   4.743  1.00 20.00    -0.306 OA
ENDBRANCH   5   7
TORSDOF 1
ENDMDL
MODEL 2
REMARK VINA RESULT:      -4.5      1.010      3.758
REMARK  1 active torsions:
REMARK  status: ('A' for Active; 'I' for Inactive)
REMARK    1  A    between atoms: C1_1  and  C6_6 
ROOT
HETATM    1  C2  UNL     1     -33.419   6.301   3.918  1.00 20.00     0.038 C 
HETATM    2  C3  UNL     1     -33.872   6.809   6.331  1.00 20.00     0.038 C 
HETATM    3  C4  UNL     1     -34.370   5.119   4.060  1.00 20.00     0.168 C 
HETATM    4  C5  UNL     1     -34.799   5.599   6.341  1.00 20.00     0.168 C 
HETATM    5  C6  UNL     1     -33.772   7.389   4.925  1.00 20.00     0.051 C 
HETATM    6  O8  UNL     1     -34.362   4.620   5.398  1.00 20.00    -0.391 OA
ENDROOT
BRANCH   5   7
HETATM    7  C1  UNL     1     -32.662   8.422   4.916  1.00 20.00     0.235 C 
HETATM    8  O7  UNL     1     -32.312   9.030   3.909  1.00 20.00    -0.306 OA
ENDBRANCH   5   7
TORSDOF 1
ENDMDL
MODEL 3
REMARK VINA RESULT:      -4.5      1.167      3.596
REMARK  1 active torsions:
REMARK  status: ('A' for Active; 'I' for Inactive)
REMARK    1  A    between atoms: C1_1  and  C6_6 
ROOT
HETATM    1  C2  UNL     1     -33.747   5.818   3.921  1.00 20.00     0.038 C 
HETATM    2  C3  UNL     1     -33.440   7.342   5.888  1.00 20.00     0.038 C 
HETATM    3  C4  UNL     1     -34.766   5.055   4.759  1.00 20.00     0.168 C 
HETATM    4  C5  UNL     1     -34.477   6.496   6.618  1.00 20.00     0.168 C 
HETATM    5  C6  UNL     1     -33.661   7.268   4.382  1.00 20.00     0.051 C 
HETATM    6  O8  UNL     1     -34.451   5.148   6.148  1.00 20.00    -0.391 OA
ENDROOT
BRANCH   5   7
HETATM    7  C1  UNL     1     -32.473   7.915   3.696  1.00 20.00     0.235 C 
HETATM    8  O7  UNL     1     -32.093   7.609   2.570  1.00 20.00    -0.306 OA
ENDBRANCH   5   7
TORSDOF 1
ENDMDL
MODEL 4
REMARK VINA RESULT:      -4.3      1.075      3.427
REMARK  1 active torsions:
REMARK  status: ('A' for Active; 'I' for Inactive)
REMARK    1  A    between atoms: C1_1  and  C6_6 
ROOT
HETATM    1  C2  UNL     1     -34.274   6.723   6.324  1.00 20.00     0.038 C 
HETATM    2  C3  UNL     1     -33.687   6.433   3.904  1.00 20.00     0.038 C 
HETATM    3  C4  UNL     1     -34.573   5.228   6.359  1.00 20.00     0.168 C 
HETATM    4  C5  UNL     1     -34.017   4.954   4.071  1.00 20.00     0.168 C 
HETATM    5  C6  UNL     1     -33.253   7.033   5.236  1.00 20.00     0.051 C 
HETATM    6  O8  UNL     1     -35.011   4.770   5.080  1.00 20.00    -0.391 OA
ENDROOT
BRANCH   5   7
HETATM    7  C1  UNL     1     -33.175   8.539   5.075  1.00 20.00     0.235 C 
HETATM    8  O7  UNL     1     -32.256   9.110   4.496  1.00 20.00    -0.306 OA
ENDBRANCH   5   7
TORSDOF 1
ENDMDL
MODEL 5
REMARK VINA RESULT:      -4.3      1.041      1.054
REMARK  1 active torsions:
REMARK  status: ('A' for Active; 'I' for Inactive)
REMARK    1  A    between atoms: C1_1  and  C6_6 
ROOT
HETATM    1  C2  UNL     1     -33.208   7.817   5.306  1.00 20.00     0.038 C 
HETATM    2  C3  UNL     1     -33.515   5.764   3.900  1.00 20.00     0.038 C 
HETATM    3  C4  UNL     1     -32.484   8.439   4.117  1.00 20.00     0.168 C 
HETATM    4  C5  UNL     1     -32.775   6.499   2.788  1.00 20.00     0.168 C 
HETATM    5  C6  UNL     1     -34.197   6.760   4.831  1.00 20.00     0.051 C 
HETATM    6  O8  UNL     1     -31.843   7.433   3.333  1.00 20.00    -0.391 OA
ENDROOT
BRANCH   5   7
HETATM    7  C1  UNL     1     -34.705   6.005   6.043  1.00 20.00     0.235 C 
HETATM    8  O7  UNL     1     -34.409   4.840   6.288  1.00 20.00    -0.306 OA
ENDBRANCH   5   7
TORSDOF 1
ENDMDL
MODEL 6
REMARK VINA RESULT:      -4.1      0.696      1.843
REMARK  1 active torsions:
REMARK  status: ('A' for Active; 'I' for Inactive)
REMARK    1  A    between atoms: C1_1  and  C6_6 
ROOT
HETATM    1  C2  UNL     1     -33.309   6.408   3.558  1.00 20.00     0.038 C 
HETATM    2  C3  UNL     1     -33.708   8.025   5.430  1.00 20.00     0.038 C 
HETATM    3  C4  UNL     1     -32.185   7.327   3.095  1.00 20.00     0.168 C 
HETATM    4  C5  UNL     1     -32.562   8.857   4.866  1.00 20.00     0.168 C 
HETATM    5  C6  UNL     1     -33.533   6.558   5.057  1.00 20.00     0.051 C 
HETATM    6  O8  UNL     1     -32.460   8.682   3.452  1.00 20.00    -0.391 OA
ENDROOT
BRANCH   5   7
HETATM    7  C1  UNL     1     -34.806   5.820   5.423  1.00 20.00     0.235 C 
HETATM    8  O7  UNL     1     -35.082   4.700   5.007  1.00 20.00    -0.306 OA
ENDBRANCH   5   7
TORSDOF 1
ENDMDL
MODEL 7
REMARK VINA RESULT:      -4.0      1.274      3.191
REMARK  1 active torsions:
REMARK  status: ('A' for Active; 'I' for Inactive)
REMARK    1  A    between atoms: C1_1  and  C6_6 
ROOT
HETATM    1  C2  UNL     1     -33.643   7.673   5.444  1.00 20.00     0.038 C 
HETATM    2  C3  UNL     1     -33.801   5.910   3.669  1.00 20.00     0.038 C 
HETATM    3  C4  UNL     1     -34.274   6.667   6.401  1.00 20.00     0.168 C 
HETATM    4  C5  UNL     1     -34.422   5.001   4.722  1.00 20.00     0.168 C 
HETATM    5  C6  UNL     1     -32.901   6.949   4.329  1.00 20.00     0.051 C 
HETATM    6  O8  UNL     1     -35.130   5.767   5.698  1.00 20.00    -0.391 OA
ENDROOT
BRANCH   5   7
HETATM    7  C1  UNL     1     -32.507   7.970   3.279  1.00 20.00     0.235 C 
HETATM    8  O7  UNL     1     -32.169   7.672   2.138  1.00 20.00    -0.306 OA
ENDBRANCH   5   7
TORSDOF 1
ENDMDL
MODEL 8
REMARK VINA RESULT:      -3.9      1.851      2.570
REMARK  1 active torsions:
REMARK  status: ('A' for Active; 'I' for Inactive)
REMARK    1  A    between atoms: C1_1  and  C6_6 
ROOT
HETATM    1  C2  UNL     1     -34.392   5.128   5.453  1.00 20.00     0.038 C 
HETATM    2  C3  UNL     1     -33.295   7.028   4.241  1.00 20.00     0.038 C 
HETATM    3  C4  UNL     1     -34.747   6.124   6.551  1.00 20.00     0.168 C 
HETATM    4  C5  UNL     1     -33.710   7.921   5.404  1.00 20.00     0.168 C 
HETATM    5  C6  UNL     1     -34.245   5.843   4.116  1.00 20.00     0.051 C 
HETATM    6  O8  UNL     1     -33.778   7.170   6.618  1.00 20.00    -0.391 OA
ENDROOT
BRANCH   5   7
HETATM    7  C1  UNL     1     -33.657   4.866   3.116  1.00 20.00     0.235 C 
HETATM    8  O7  UNL     1     -32.638   5.090   2.470  1.00 20.00    -0.306 OA
ENDBRANCH   5   7
TORSDOF 1
ENDMDL
MODEL 9
REMARK VINA RESULT:      -3.5      1.463      2.373
REMARK  1 active torsions:
REMARK  status: ('A' for Active; 'I' for Inactive)
REMARK    1  A    between atoms: C1_1  and  C6_6 
ROOT
HETATM    1  C2  UNL     1     -32.477   7.904   3.596  1.00 20.00     0.038 C 
HETATM    2  C3  UNL     1     -34.131   6.402   4.732  1.00 20.00     0.038 C 
HETATM    3  C4  UNL     1     -32.457   8.734   4.874  1.00 20.00     0.168 C 
HETATM    4  C5  UNL     1     -34.020   7.313   5.949  1.00 20.00     0.168 C 
HETATM    5  C6  UNL     1     -32.851   6.461   3.907  1.00 20.00     0.051 C 
HETATM    6  O8  UNL     1     -33.711   8.650   5.552  1.00 20.00    -0.391 OA
ENDROOT
BRANCH   5   7
HETATM    7  C1  UNL     1     -33.098   5.740   2.596  1.00 20.00     0.235 C 
HETATM    8  O7  UNL     1     -32.761   4.579   2.388  1.00 20.00    -0.306 OA
ENDBRANCH   5   7
TORSDOF 1
ENDMDL
