MODEL 1
REMARK VINA RESULT:      -4.6      0.000      0.000
REMARK  2 active torsions:
REMARK  status: ('A' for Active; 'I' for Inactive)
REMARK    1  A    between atoms: C1_1  and  C2_2 
REMARK    2  A    between atoms: C1_1  and  C3_3 
ROOT
HETATM    1  C3  UNL     1     -34.716   5.589   4.703  1.00 20.00     0.390 C 
HETATM    2  F5  UNL     1     -34.526   4.260   4.542  1.00 20.00    -0.171 F 
HETATM    3  F6  UNL     1     -35.956   5.882   4.258  1.00 20.00    -0.171 F 
HETATM    4  F7  UNL     1     -33.828   6.227   3.912  1.00 20.00    -0.171 F 
ENDROOT
BRANCH   1   5
HETATM    5  C1  UNL     1     -34.546   5.977   6.156  1.00 20.00     0.148 C 
BRANCH   5   6
HETATM    6  C2  UNL     1     -33.543   7.102   6.335  1.00 20.00     0.230 C 
HETATM    7  F4  UNL     1     -34.105   8.273   5.933  1.00 20.00    -0.255 F 
ENDBRANCH   5   6
ENDBRANCH   1   5
TORSDOF 2
ENDMDL
MODEL 2
REMARK VINA RESULT:      -4.6      0.018      1.427
REMARK  2 active torsions:
REMARK  status: ('A' for Active; 'I' for Inactive)
REMARK    1  A    between atoms: C1_1  and  C2_2 
REMARK    2  A    between atoms: C1_1  and  C3_3 
ROOT
HETATM    1  C3  UNL     1     -34.727   5.574   4.712  1.00 20.00     0.390 C 
HETATM    2  F5  UNL     1     -33.831   6.224   3.935  1.00 20.00    -0.171 F 
HETATM    3  F6  UNL     1     -34.537   4.250   4.535  1.00 20.00    -0.171 F 
HETATM    4  F7  UNL     1     -35.960   5.882   4.258  1.00 20.00    -0.171 F 
ENDROOT
BRANCH   1   5
HETATM    5  C1  UNL     1     -34.554   5.967   6.163  1.00 20.00     0.148 C 
BRANCH   5   6
HETATM    6  C2  UNL     1     -33.558   7.099   6.336  1.00 20.00     0.230 C 
HETATM    7  F4  UNL     1     -34.130   8.267   5.936  1.00 20.00    -0.255 F 
ENDBRANCH   5   6
ENDBRANCH   1   5
TORSDOF 2
ENDMDL
MODEL 3
REMARK VINA RESULT:      -4.4      0.880      1.686
REMARK  2 active torsions:
REMARK  status: ('A' for Active; 'I' for Inactive)
REMARK    1  A    between atoms: C1_1  and  C2_2 
REMARK    2  A    between atoms: C1_1  and  C3_3 
ROOT
HETATM    1  C3  UNL     1     -34.609   5.671   4.782  1.00 20.00     0.390 C 
HETATM    2  F5  UNL     1     -35.869   5.941   4.374  1.00 20.00    -0.171 F 
HETATM    3  F6  UNL     1     -33.804   5.742   3.701  1.00 20.00    -0.171 F 
HETATM    4  F7  UNL     1     -34.589   4.399   5.234  1.00 20.00    -0.171 F 
ENDROOT
BRANCH   1   5
HETATM    5  C1  UNL     1     -34.177   6.648   5.855  1.00 20.00     0.148 C 
BRANCH   5   6
HETATM    6  C2  UNL     1     -33.276   7.740   5.306  1.00 20.00     0.230 C 
HETATM    7  F4  UNL     1     -33.974   8.494   4.416  1.00 20.00    -0.255 F 
ENDBRANCH   5   6
ENDBRANCH   1   5
TORSDOF 2
ENDMDL
MODEL 4
REMARK VINA RESULT:      -4.4      1.591      3.112
REMARK  2 active torsions:
REMARK  status: ('A' for Active; 'I' for Inactive)
REMARK    1  A    between atoms: C1_1  and  C2_2 
REMARK    2  A    between atoms: C1_1  and  C3_3 
ROOT
HETATM    1  C3  UNL     1     -34.136   6.304   6.267  1.00 20.00     0.390 C 
HETATM    2  F5  UNL     1     -33.021   6.972   5.894  1.00 20.00    -0.171 F 
HETATM    3  F6  UNL     1     -34.820   7.095   7.121  1.00 20.00    -0.171 F 
HETATM    4  F7  UNL     1     -33.746   5.202   6.942  1.00 20.00    -0.171 F 
ENDROOT
BRANCH   1   5
HETATM    5  C1  UNL     1     -34.971   5.948   5.056  1.00 20.00     0.148 C 
BRANCH   5   6
HETATM    6  C2  UNL     1     -34.147   5.290   3.965  1.00 20.00     0.230 C 
HETATM    7  F4  UNL     1     -33.950   3.981   4.277  1.00 20.00    -0.255 F 
ENDBRANCH   5   6
ENDBRANCH   1   5
TORSDOF 2
ENDMDL
MODEL 5
REMARK VINA RESULT:      -4.3      1.541      2.995
REMARK  2 active torsions:
REMARK  status: ('A' for Active; 'I' for Inactive)
REMARK    1  A    between atoms: C1_1  and  C2_2 
REMARK    2  A    between atoms: C1_1  and  C3_3 
ROOT
HETATM    1  C3  UNL     1     -34.092   6.369   6.260  1.00 20.00     0.390 C 
HETATM    2  F5  UNL     1     -33.690   5.280   6.952  1.00 20.00    -0.171 F 
HETATM    3  F6  UNL     1     -32.986   7.037   5.869  1.00 20.00    -0.171 F 
HETATM    4  F7  UNL     1     -34.779   7.162   7.108  1.00 20.00    -0.171 F 
ENDROOT
BRANCH   1   5
HETATM    5  C1  UNL     1     -34.937   5.961   5.073  1.00 20.00     0.148 C 
BRANCH   5   6
HETATM    6  C2  UNL     1     -34.317   4.814   4.295  1.00 20.00     0.230 C 
HETATM    7  F4  UNL     1     -33.446   5.312   3.377  1.00 20.00    -0.255 F 
ENDBRANCH   5   6
ENDBRANCH   1   5
TORSDOF 2
ENDMDL
MODEL 6
REMARK VINA RESULT:      -4.3      1.394      3.129
REMARK  2 active torsions:
REMARK  status: ('A' for Active; 'I' for Inactive)
REMARK    1  A    between atoms: C1_1  and  C2_2 
REMARK    2  A    between atoms: C1_1  and  C3_3 
ROOT
HETATM    1  C3  UNL     1     -33.569   7.409   5.476  1.00 20.00     0.390 C 
HETATM    2  F5  UNL     1     -33.142   6.923   6.663  1.00 20.00    -0.171 F 
HETATM    3  F6  UNL     1     -32.494   7.516   4.667  1.00 20.00    -0.171 F 
HETATM    4  F7  UNL     1     -34.053   8.650   5.693  1.00 20.00    -0.171 F 
ENDROOT
BRANCH   1   5
HETATM    5  C1  UNL     1     -34.621   6.499   4.878  1.00 20.00     0.148 C 
BRANCH   5   6
HETATM    6  C2  UNL     1     -34.593   5.111   5.491  1.00 20.00     0.230 C 
HETATM    7  F4  UNL     1     -34.095   4.228   4.584  1.00 20.00    -0.255 F 
ENDBRANCH   5   6
ENDBRANCH   1   5
TORSDOF 2
ENDMDL
MODEL 7
REMARK VINA RESULT:      -4.3      1.397      3.095
REMARK  2 active torsions:
REMARK  status: ('A' for Active; 'I' for Inactive)
REMARK    1  A    between atoms: C1_1  and  C2_2 
REMARK    2  A    between atoms: C1_1  and  C3_3 
ROOT
HETATM    1  C3  UNL     1     -33.583   7.373   5.439  1.00 20.00     0.390 C 
HETATM    2  F5  UNL     1     -32.508   7.441   4.623  1.00 20.00    -0.171 F 
HETATM    3  F6  UNL     1     -34.054   8.628   5.601  1.00 20.00    -0.171 F 
HETATM    4  F7  UNL     1     -33.157   6.930   6.640  1.00 20.00    -0.171 F 
ENDROOT
BRANCH   1   5
HETATM    5  C1  UNL     1     -34.638   6.460   4.852  1.00 20.00     0.148 C 
BRANCH   5   6
HETATM    6  C2  UNL     1     -34.580   5.063   5.442  1.00 20.00     0.230 C 
HETATM    7  F4  UNL     1     -34.062   4.207   4.522  1.00 20.00    -0.255 F 
ENDBRANCH   5   6
ENDBRANCH   1   5
TORSDOF 2
ENDMDL
MODEL 8
REMARK VINA RESULT:      -4.3      1.210      2.895
REMARK  2 active torsions:
REMARK  status: ('A' for Active; 'I' for Inactive)
REMARK    1  A    between atoms: C1_1  and  C2_2 
REMARK    2  A    between atoms: C1_1  and  C3_3 
ROOT
HETATM    1  C3  UNL     1     -33.368   7.596   4.961  1.00 20.00     0.390 C 
HETATM    2  F5  UNL     1     -34.280   8.431   4.415  1.00 20.00    -0.171 F 
HETATM    3  F6  UNL     1     -32.268   8.323   5.248  1.00 20.00    -0.171 F 
HETATM    4  F7  UNL     1     -33.033   6.686   4.022  1.00 20.00    -0.171 F 
ENDROOT
BRANCH   1   5
HETATM    5  C1  UNL     1     -33.931   6.934   6.201  1.00 20.00     0.148 C 
BRANCH   5   6
HETATM    6  C2  UNL     1     -34.639   5.630   5.883  1.00 20.00     0.230 C 
HETATM    7  F4  UNL     1     -35.622   5.861   4.972  1.00 20.00    -0.255 F 
ENDBRANCH   5   6
ENDBRANCH   1   5
TORSDOF 2
ENDMDL
MODEL 9
REMARK VINA RESULT:      -4.2      1.211      2.594
REMARK  2 active torsions:
REMARK  status: ('A' for Active; 'I' for Inactive)
REMARK    1  A    between atoms: C1_1  and  C2_2 
REMARK    2  A    between atoms: C1_1  and  C3_3 
ROOT
HETATM    1  C3  UNL     1     -33.368   7.613   4.967  1.00 20.00     0.390 C 
HETATM    2  F5  UNL     1     -32.981   6.719   4.031  1.00 20.00    -0.171 F 
HETATM    3  F6  UNL     1     -34.261   8.447   4.393  1.00 20.00    -0.171 F 
HETATM    4  F7  UNL     1     -32.284   8.338   5.314  1.00 20.00    -0.171 F 
ENDROOT
BRANCH   1   5
HETATM    5  C1  UNL     1     -33.968   6.903   6.162  1.00 20.00     0.148 C 
BRANCH   5   6
HETATM    6  C2  UNL     1     -34.677   5.620   5.770  1.00 20.00     0.230 C 
HETATM    7  F4  UNL     1     -35.656   5.904   4.870  1.00 20.00    -0.255 F 
ENDBRANCH   5   6
ENDBRANCH   1   5
TORSDOF 2
ENDMDL
