MODEL 1
REMARK VINA RESULT:      -5.5      0.000      0.000
REMARK  0 active torsions:
REMARK  status: ('A' for Active; 'I' for Inactive)
ROOT
HETATM    1  C1  UNL     1     -34.589   5.497   6.369  1.00 20.00    -0.003 A 
HETATM    2  C2  UNL     1     -34.668   5.050   4.992  1.00 20.00    -0.003 A 
HETATM    3  C3  UNL     1     -34.032   6.723   6.379  1.00 20.00    -0.013 A 
HETATM    4  C4  UNL     1     -34.156   6.017   4.208  1.00 20.00    -0.013 A 
HETATM    5  C5  UNL     1     -32.486   7.950   4.688  1.00 20.00     0.019 A 
HETATM    6  C6  UNL     1     -33.855   8.574   4.564  1.00 20.00     0.019 A 
HETATM    7  C7  UNL     1     -33.708   7.159   5.016  1.00 20.00    -0.005 A 
ENDROOT
TORSDOF 0
ENDMDL
MODEL 2
REMARK VINA RESULT:      -5.5      0.031      1.657
REMARK  0 active torsions:
REMARK  status: ('A' for Active; 'I' for Inactive)
ROOT
HETATM    1  C1  UNL     1     -34.670   5.034   4.981  1.00 20.00    -0.003 A 
HETATM    2  C2  UNL     1     -34.618   5.500   6.353  1.00 20.00    -0.003 A 
HETATM    3  C3  UNL     1     -34.142   5.992   4.195  1.00 20.00    -0.013 A 
HETATM    4  C4  UNL     1     -34.060   6.726   6.359  1.00 20.00    -0.013 A 
HETATM    5  C5  UNL     1     -33.849   8.553   4.523  1.00 20.00     0.019 A 
HETATM    6  C6  UNL     1     -32.483   7.931   4.682  1.00 20.00     0.019 A 
HETATM    7  C7  UNL     1     -33.711   7.144   4.995  1.00 20.00    -0.005 A 
ENDROOT
TORSDOF 0
ENDMDL
MODEL 3
REMARK VINA RESULT:      -5.3      0.901      3.089
REMARK  0 active torsions:
REMARK  status: ('A' for Active; 'I' for Inactive)
ROOT
HETATM    1  C1  UNL     1     -32.372   7.629   3.684  1.00 20.00    -0.003 A 
HETATM    2  C2  UNL     1     -32.762   8.342   4.885  1.00 20.00    -0.003 A 
HETATM    3  C3  UNL     1     -33.127   6.517   3.595  1.00 20.00    -0.013 A 
HETATM    4  C4  UNL     1     -33.741   7.641   5.489  1.00 20.00    -0.013 A 
HETATM    5  C5  UNL     1     -34.411   5.132   5.381  1.00 20.00     0.019 A 
HETATM    6  C6  UNL     1     -35.445   5.897   4.591  1.00 20.00     0.019 A 
HETATM    7  C7  UNL     1     -34.057   6.426   4.726  1.00 20.00    -0.005 A 
ENDROOT
TORSDOF 0
ENDMDL
MODEL 4
REMARK VINA RESULT:      -5.3      0.911      2.865
REMARK  0 active torsions:
REMARK  status: ('A' for Active; 'I' for Inactive)
ROOT
HETATM    1  C1  UNL     1     -32.749   8.355   4.824  1.00 20.00    -0.003 A 
HETATM    2  C2  UNL     1     -32.359   7.608   3.645  1.00 20.00    -0.003 A 
HETATM    3  C3  UNL     1     -33.728   7.672   5.447  1.00 20.00    -0.013 A 
HETATM    4  C4  UNL     1     -33.114   6.494   3.586  1.00 20.00    -0.013 A 
HETATM    5  C5  UNL     1     -35.435   5.905   4.597  1.00 20.00     0.019 A 
HETATM    6  C6  UNL     1     -34.401   5.162   5.408  1.00 20.00     0.019 A 
HETATM    7  C7  UNL     1     -34.046   6.437   4.720  1.00 20.00    -0.005 A 
ENDROOT
TORSDOF 0
ENDMDL
MODEL 5
REMARK VINA RESULT:      -4.1      1.339      2.654
REMARK  0 active torsions:
REMARK  status: ('A' for Active; 'I' for Inactive)
ROOT
HETATM    1  C1  UNL     1     -32.974   5.714   2.750  1.00 20.00    -0.003 A 
HETATM    2  C2  UNL     1     -32.130   6.888   2.655  1.00 20.00    -0.003 A 
HETATM    3  C3  UNL     1     -33.725   5.828   3.862  1.00 20.00    -0.013 A 
HETATM    4  C4  UNL     1     -32.393   7.680   3.712  1.00 20.00    -0.013 A 
HETATM    5  C5  UNL     1     -33.399   7.182   6.056  1.00 20.00     0.019 A 
HETATM    6  C6  UNL     1     -34.470   7.888   5.260  1.00 20.00     0.019 A 
HETATM    7  C7  UNL     1     -33.425   7.079   4.567  1.00 20.00    -0.005 A 
ENDROOT
TORSDOF 0
ENDMDL
MODEL 6
REMARK VINA RESULT:      -3.9      0.895      2.368
REMARK  0 active torsions:
REMARK  status: ('A' for Active; 'I' for Inactive)
ROOT
HETATM    1  C1  UNL     1     -34.671   5.668   6.375  1.00 20.00    -0.003 A 
HETATM    2  C2  UNL     1     -34.093   6.987   6.214  1.00 20.00    -0.003 A 
HETATM    3  C3  UNL     1     -34.526   5.004   5.212  1.00 20.00    -0.013 A 
HETATM    4  C4  UNL     1     -33.614   7.085   4.959  1.00 20.00    -0.013 A 
HETATM    5  C5  UNL     1     -34.201   5.820   2.766  1.00 20.00     0.019 A 
HETATM    6  C6  UNL     1     -32.866   5.292   3.234  1.00 20.00     0.019 A 
HETATM    7  C7  UNL     1     -33.846   5.840   4.216  1.00 20.00    -0.005 A 
ENDROOT
TORSDOF 0
ENDMDL
MODEL 7
REMARK VINA RESULT:      -3.7      8.745      9.323
REMARK  0 active torsions:
REMARK  status: ('A' for Active; 'I' for Inactive)
ROOT
HETATM    1  C1  UNL     1     -43.376   5.877   2.087  1.00 20.00    -0.003 A 
HETATM    2  C2  UNL     1     -42.517   4.898   1.450  1.00 20.00    -0.003 A 
HETATM    3  C3  UNL     1     -43.040   7.095   1.620  1.00 20.00    -0.013 A 
HETATM    4  C4  UNL     1     -41.685   5.550   0.616  1.00 20.00    -0.013 A 
HETATM    5  C5  UNL     1     -40.853   8.012   0.556  1.00 20.00     0.019 A 
HETATM    6  C6  UNL     1     -41.855   7.860  -0.563  1.00 20.00     0.019 A 
HETATM    7  C7  UNL     1     -41.942   6.996   0.651  1.00 20.00    -0.005 A 
ENDROOT
TORSDOF 0
ENDMDL
MODEL 8
REMARK VINA RESULT:      -3.6     15.388     16.478
REMARK  0 active torsions:
REMARK  status: ('A' for Active; 'I' for Inactive)
ROOT
HETATM    1  C1  UNL     1     -22.872  18.032  12.258  1.00 20.00    -0.003 A 
HETATM    2  C2  UNL     1     -23.912  17.089  11.899  1.00 20.00    -0.003 A 
HETATM    3  C3  UNL     1     -22.279  18.452  11.123  1.00 20.00    -0.013 A 
HETATM    4  C4  UNL     1     -23.920  16.963  10.558  1.00 20.00    -0.013 A 
HETATM    5  C5  UNL     1     -22.097  17.394   8.756  1.00 20.00     0.019 A 
HETATM    6  C6  UNL     1     -23.090  18.526   8.656  1.00 20.00     0.019 A 
HETATM    7  C7  UNL     1     -22.888  17.813   9.951  1.00 20.00    -0.005 A 
ENDROOT
TORSDOF 0
ENDMDL
MODEL 9
REMARK VINA RESULT:      -3.6      8.744      9.390
REMARK  0 active torsions:
REMARK  status: ('A' for Active; 'I' for Inactive)
ROOT
HETATM    1  C1  UNL     1     -42.496   5.036   1.443  1.00 20.00    -0.003 A 
HETATM    2  C2  UNL     1     -43.417   6.033   1.951  1.00 20.00    -0.003 A 
HETATM    3  C3  UNL     1     -41.600   5.660   0.653  1.00 20.00    -0.013 A 
HETATM    4  C4  UNL     1     -43.054   7.231   1.456  1.00 20.00    -0.013 A 
HETATM    5  C5  UNL     1     -41.691   7.906  -0.652  1.00 20.00     0.019 A 
HETATM    6  C6  UNL     1     -40.793   8.128   0.541  1.00 20.00     0.019 A 
HETATM    7  C7  UNL     1     -41.874   7.100   0.591  1.00 20.00    -0.005 A 
ENDROOT
TORSDOF 0
ENDMDL
