MODEL 1
REMARK VINA RESULT:      -3.4      0.000      0.000
REMARK  2 active torsions:
REMARK  status: ('A' for Active; 'I' for Inactive)
REMARK    1  A    between atoms: C5_5  and  C6_6 
REMARK    2  A    between atoms: C6_6  and  N7_7 
ROOT
HETATM    1  C1  UNL     1     -32.451   7.697   2.892  1.00 20.00     0.158 C 
HETATM    2  N7  UNL     1     -32.707   7.269   3.953  1.00 20.00    -0.270 NA
HETATM    3  S8  UNL     1     -32.075   8.295   1.464  1.00 20.00    -0.055 SA
ENDROOT
BRANCH   2   4
HETATM    4  C6  UNL     1     -33.900   6.413   3.998  1.00 20.00     0.109 C 
HETATM    5  C4  UNL     1     -33.516   5.034   3.473  1.00 20.00     0.035 C 
BRANCH   4   6
HETATM    6  C5  UNL     1     -34.482   6.383   5.427  1.00 20.00     0.002 C 
HETATM    7  C2  UNL     1     -33.700   7.318   6.358  1.00 20.00     0.011 C 
HETATM    8  C3  UNL     1     -34.547   4.981   6.039  1.00 20.00     0.011 C 
ENDBRANCH   4   6
ENDBRANCH   2   4
TORSDOF 2
ENDMDL
MODEL 2
REMARK VINA RESULT:      -3.3      1.142      1.771
REMARK  2 active torsions:
REMARK  status: ('A' for Active; 'I' for Inactive)
REMARK    1  A    between atoms: C5_5  and  C6_6 
REMARK    2  A    between atoms: C6_6  and  N7_7 
ROOT
HETATM    1  C1  UNL     1     -32.397   7.653   2.170  1.00 20.00     0.158 C 
HETATM    2  N7  UNL     1     -32.411   6.827   3.002  1.00 20.00    -0.270 NA
HETATM    3  S8  UNL     1     -32.371   8.751   1.015  1.00 20.00    -0.055 SA
ENDROOT
BRANCH   2   4
HETATM    4  C6  UNL     1     -32.668   7.328   4.359  1.00 20.00     0.109 C 
HETATM    5  C4  UNL     1     -32.500   8.843   4.346  1.00 20.00     0.035 C 
BRANCH   4   6
HETATM    6  C5  UNL     1     -34.060   6.870   4.842  1.00 20.00     0.002 C 
HETATM    7  C2  UNL     1     -34.170   6.965   6.368  1.00 20.00     0.011 C 
HETATM    8  C3  UNL     1     -34.441   5.461   4.383  1.00 20.00     0.011 C 
ENDBRANCH   4   6
ENDBRANCH   2   4
TORSDOF 2
ENDMDL
MODEL 3
REMARK VINA RESULT:      -3.3     12.011     12.724
REMARK  2 active torsions:
REMARK  status: ('A' for Active; 'I' for Inactive)
REMARK    1  A    between atoms: C5_5  and  C6_6 
REMARK    2  A    between atoms: C6_6  and  N7_7 
ROOT
HETATM    1  C1  UNL     1     -33.483  16.274  -2.835  1.00 20.00     0.158 C 
HETATM    2  N7  UNL     1     -33.547  16.962  -1.888  1.00 20.00    -0.270 NA
HETATM    3  S8  UNL     1     -33.423  15.320  -4.109  1.00 20.00    -0.055 SA
ENDROOT
BRANCH   2   4
HETATM    4  C6  UNL     1     -32.566  18.055  -1.856  1.00 20.00     0.109 C 
HETATM    5  C4  UNL     1     -32.903  19.029  -2.980  1.00 20.00     0.035 C 
BRANCH   4   6
HETATM    6  C5  UNL     1     -32.546  18.714  -0.461  1.00 20.00     0.002 C 
HETATM    7  C2  UNL     1     -31.179  18.537   0.210  1.00 20.00     0.011 C 
HETATM    8  C3  UNL     1     -33.650  18.215   0.474  1.00 20.00     0.011 C 
ENDBRANCH   4   6
ENDBRANCH   2   4
TORSDOF 2
ENDMDL
MODEL 4
REMARK VINA RESULT:      -3.2     12.475     13.222
REMARK  2 active torsions:
REMARK  status: ('A' for Active; 'I' for Inactive)
REMARK    1  A    between atoms: C5_5  and  C6_6 
REMARK    2  A    between atoms: C6_6  and  N7_7 
ROOT
HETATM    1  C1  UNL     1     -31.296  18.897  -0.062  1.00 20.00     0.158 C 
HETATM    2  N7  UNL     1     -31.792  18.728  -1.111  1.00 20.00    -0.270 NA
HETATM    3  S8  UNL     1     -30.601  19.151   1.349  1.00 20.00    -0.055 SA
ENDROOT
BRANCH   2   4
HETATM    4  C6  UNL     1     -32.889  17.751  -1.121  1.00 20.00     0.109 C 
HETATM    5  C4  UNL     1     -33.882  18.139  -0.031  1.00 20.00     0.035 C 
BRANCH   4   6
HETATM    6  C5  UNL     1     -33.522  17.673  -2.526  1.00 20.00     0.002 C 
HETATM    7  C2  UNL     1     -33.309  16.288  -3.148  1.00 20.00     0.011 C 
HETATM    8  C3  UNL     1     -33.023  18.754  -3.489  1.00 20.00     0.011 C 
ENDBRANCH   4   6
ENDBRANCH   2   4
TORSDOF 2
ENDMDL
MODEL 5
REMARK VINA RESULT:      -3.1      9.767     10.419
REMARK  2 active torsions:
REMARK  status: ('A' for Active; 'I' for Inactive)
REMARK    1  A    between atoms: C5_5  and  C6_6 
REMARK    2  A    between atoms: C6_6  and  N7_7 
ROOT
HETATM    1  C1  UNL     1     -41.801  13.786   7.689  1.00 20.00     0.158 C 
HETATM    2  N7  UNL     1     -40.852  13.198   7.330  1.00 20.00    -0.270 NA
HETATM    3  S8  UNL     1     -43.072  14.595   8.206  1.00 20.00    -0.055 SA
ENDROOT
BRANCH   2   4
HETATM    4  C6  UNL     1     -41.009  12.507   6.043  1.00 20.00     0.109 C 
HETATM    5  C4  UNL     1     -41.331  13.551   4.979  1.00 20.00     0.035 C 
BRANCH   4   6
HETATM    6  C5  UNL     1     -39.747  11.677   5.725  1.00 20.00     0.002 C 
HETATM    7  C2  UNL     1     -38.578  12.089   6.628  1.00 20.00     0.011 C 
HETATM    8  C3  UNL     1     -39.317  11.745   4.258  1.00 20.00     0.011 C 
ENDBRANCH   4   6
ENDBRANCH   2   4
TORSDOF 2
ENDMDL
MODEL 6
REMARK VINA RESULT:      -3.1     12.281     13.125
REMARK  2 active torsions:
REMARK  status: ('A' for Active; 'I' for Inactive)
REMARK    1  A    between atoms: C5_5  and  C6_6 
REMARK    2  A    between atoms: C6_6  and  N7_7 
ROOT
HETATM    1  C1  UNL     1     -30.883  18.672   0.597  1.00 20.00     0.158 C 
HETATM    2  N7  UNL     1     -31.016  18.738  -0.566  1.00 20.00    -0.270 NA
HETATM    3  S8  UNL     1     -30.670  18.575   2.172  1.00 20.00    -0.055 SA
ENDROOT
BRANCH   2   4
HETATM    4  C6  UNL     1     -32.360  19.131  -1.009  1.00 20.00     0.109 C 
HETATM    5  C4  UNL     1     -32.342  19.258  -2.529  1.00 20.00     0.035 C 
BRANCH   4   6
HETATM    6  C5  UNL     1     -33.409  18.123  -0.493  1.00 20.00     0.002 C 
HETATM    7  C2  UNL     1     -33.684  17.034  -1.536  1.00 20.00     0.011 C 
HETATM    8  C3  UNL     1     -34.727  18.770  -0.061  1.00 20.00     0.011 C 
ENDBRANCH   4   6
ENDBRANCH   2   4
TORSDOF 2
ENDMDL
MODEL 7
REMARK VINA RESULT:      -3.1      9.826     10.375
REMARK  2 active torsions:
REMARK  status: ('A' for Active; 'I' for Inactive)
REMARK    1  A    between atoms: C5_5  and  C6_6 
REMARK    2  A    between atoms: C6_6  and  N7_7 
ROOT
HETATM    1  C1  UNL     1     -42.121  14.444   4.326  1.00 20.00     0.158 C 
HETATM    2  N7  UNL     1     -41.373  13.542   4.307  1.00 20.00    -0.270 NA
HETATM    3  S8  UNL     1     -43.141  15.668   4.319  1.00 20.00    -0.055 SA
ENDROOT
BRANCH   2   4
HETATM    4  C6  UNL     1     -40.859  13.142   5.623  1.00 20.00     0.109 C 
HETATM    5  C4  UNL     1     -42.049  12.827   6.523  1.00 20.00     0.035 C 
BRANCH   4   6
HETATM    6  C5  UNL     1     -39.874  11.963   5.476  1.00 20.00     0.002 C 
HETATM    7  C2  UNL     1     -38.760  12.044   6.526  1.00 20.00     0.011 C 
HETATM    8  C3  UNL     1     -39.261  11.840   4.079  1.00 20.00     0.011 C 
ENDBRANCH   4   6
ENDBRANCH   2   4
TORSDOF 2
ENDMDL
MODEL 8
REMARK VINA RESULT:      -3.1      0.861      2.129
REMARK  2 active torsions:
REMARK  status: ('A' for Active; 'I' for Inactive)
REMARK    1  A    between atoms: C5_5  and  C6_6 
REMARK    2  A    between atoms: C6_6  and  N7_7 
ROOT
HETATM    1  C1  UNL     1     -32.729   8.327   3.225  1.00 20.00     0.158 C 
HETATM    2  N7  UNL     1     -33.152   8.330   4.319  1.00 20.00    -0.270 NA
HETATM    3  S8  UNL     1     -32.157   8.357   1.739  1.00 20.00    -0.055 SA
ENDROOT
BRANCH   2   4
HETATM    4  C6  UNL     1     -33.254   7.004   4.941  1.00 20.00     0.109 C 
HETATM    5  C4  UNL     1     -33.780   7.184   6.361  1.00 20.00     0.035 C 
BRANCH   4   6
HETATM    6  C5  UNL     1     -34.132   6.075   4.077  1.00 20.00     0.002 C 
HETATM    7  C2  UNL     1     -35.157   5.329   4.940  1.00 20.00     0.011 C 
HETATM    8  C3  UNL     1     -33.333   5.072   3.240  1.00 20.00     0.011 C 
ENDBRANCH   4   6
ENDBRANCH   2   4
TORSDOF 2
ENDMDL
MODEL 9
REMARK VINA RESULT:      -3.1      2.554      3.746
REMARK  2 active torsions:
REMARK  status: ('A' for Active; 'I' for Inactive)
REMARK    1  A    between atoms: C5_5  and  C6_6 
REMARK    2  A    between atoms: C6_6  and  N7_7 
ROOT
HETATM    1  C1  UNL     1     -34.331   6.102   5.171  1.00 20.00     0.158 C 
HETATM    2  N7  UNL     1     -34.075   6.662   4.174  1.00 20.00    -0.270 NA
HETATM    3  S8  UNL     1     -34.709   5.357   6.527  1.00 20.00    -0.055 SA
ENDROOT
BRANCH   2   4
HETATM    4  C6  UNL     1     -32.753   6.349   3.615  1.00 20.00     0.109 C 
HETATM    5  C4  UNL     1     -32.943   5.359   2.471  1.00 20.00     0.035 C 
BRANCH   4   6
HETATM    6  C5  UNL     1     -32.032   7.645   3.189  1.00 20.00     0.002 C 
HETATM    7  C2  UNL     1     -32.405   8.810   4.114  1.00 20.00     0.011 C 
HETATM    8  C3  UNL     1     -32.283   8.041   1.732  1.00 20.00     0.011 C 
ENDBRANCH   4   6
ENDBRANCH   2   4
TORSDOF 2
ENDMDL
