MODEL 1
REMARK VINA RESULT:      -4.9      0.000      0.000
REMARK  5 active torsions:
REMARK  status: ('A' for Active; 'I' for Inactive)
REMARK    1  A    between atoms: C3_3  and  C7_7 
REMARK    2  A    between atoms: C4_4  and  C8_8 
REMARK    3  A    between atoms: C7_7  and  C9_9 
REMARK    4  A    between atoms: C8_8  and  C10_10 
REMARK    5  A    between atoms: C9_9  and  C10_10 
ROOT
HETATM    1  C9  UNL     1     -33.901   6.842   6.397  1.00 20.00     0.004 C 
ENDROOT
BRANCH   1   2
HETATM    2  C7  UNL     1     -34.796   5.721   5.867  1.00 20.00     0.026 C 
BRANCH   2   3
HETATM    3  C3  UNL     1     -34.588   5.509   4.395  1.00 20.00    -0.031 C 
HETATM    4  C1  UNL     1     -33.500   4.923   3.873  1.00 20.00    -0.035 C 
HETATM    5  C5  UNL     1     -33.290   4.716   2.409  1.00 20.00     0.035 C 
ENDBRANCH   2   3
ENDBRANCH   1   2
BRANCH   1   6
HETATM    6  C10 UNL     1     -33.916   8.055   5.463  1.00 20.00     0.004 C 
BRANCH   6   7
HETATM    7  C8  UNL     1     -32.511   8.374   4.948  1.00 20.00     0.026 C 
BRANCH   7   8
HETATM    8  C4  UNL     1     -32.542   8.811   3.513  1.00 20.00    -0.031 C 
HETATM    9  C2  UNL     1     -32.188   8.026   2.486  1.00 20.00    -0.035 C 
HETATM   10  C6  UNL     1     -32.225   8.457   1.057  1.00 20.00     0.035 C 
ENDBRANCH   7   8
ENDBRANCH   6   7
ENDBRANCH   1   6
TORSDOF 5
ENDMDL
MODEL 2
REMARK VINA RESULT:      -4.9      0.034      3.503
REMARK  5 active torsions:
REMARK  status: ('A' for Active; 'I' for Inactive)
REMARK    1  A    between atoms: C3_3  and  C7_7 
REMARK    2  A    between atoms: C4_4  and  C8_8 
REMARK    3  A    between atoms: C7_7  and  C9_9 
REMARK    4  A    between atoms: C8_8  and  C10_10 
REMARK    5  A    between atoms: C9_9  and  C10_10 
ROOT
HETATM    1  C9  UNL     1     -33.946   8.028   5.459  1.00 20.00     0.004 C 
ENDROOT
BRANCH   1   2
HETATM    2  C7  UNL     1     -32.538   8.366   4.965  1.00 20.00     0.026 C 
BRANCH   2   3
HETATM    3  C3  UNL     1     -32.556   8.804   3.529  1.00 20.00    -0.031 C 
HETATM    4  C1  UNL     1     -32.178   8.022   2.507  1.00 20.00    -0.035 C 
HETATM    5  C5  UNL     1     -32.190   8.458   1.079  1.00 20.00     0.035 C 
ENDBRANCH   2   3
ENDBRANCH   1   2
BRANCH   1   6
HETATM    6  C10 UNL     1     -33.930   6.824   6.403  1.00 20.00     0.004 C 
BRANCH   6   7
HETATM    7  C8  UNL     1     -34.782   5.677   5.854  1.00 20.00     0.026 C 
BRANCH   7   8
HETATM    8  C4  UNL     1     -34.567   5.496   4.380  1.00 20.00    -0.031 C 
HETATM    9  C2  UNL     1     -33.486   4.907   3.850  1.00 20.00    -0.035 C 
HETATM   10  C6  UNL     1     -33.274   4.721   2.384  1.00 20.00     0.035 C 
ENDBRANCH   7   8
ENDBRANCH   6   7
ENDBRANCH   1   6
TORSDOF 5
ENDMDL
MODEL 3
REMARK VINA RESULT:      -4.7      0.874      3.017
REMARK  5 active torsions:
REMARK  status: ('A' for Active; 'I' for Inactive)
REMARK    1  A    between atoms: C3_3  and  C7_7 
REMARK    2  A    between atoms: C4_4  and  C8_8 
REMARK    3  A    between atoms: C7_7  and  C9_9 
REMARK    4  A    between atoms: C8_8  and  C10_10 
REMARK    5  A    between atoms: C9_9  and  C10_10 
ROOT
HETATM    1  C9  UNL     1     -34.802   5.071   4.546  1.00 20.00     0.004 C 
ENDROOT
BRANCH   1   2
HETATM    2  C7  UNL     1     -33.577   4.612   3.753  1.00 20.00     0.026 C 
BRANCH   2   3
HETATM    3  C3  UNL     1     -33.260   5.568   2.640  1.00 20.00    -0.031 C 
HETATM    4  C1  UNL     1     -32.390   6.583   2.754  1.00 20.00    -0.035 C 
HETATM    5  C5  UNL     1     -32.078   7.537   1.649  1.00 20.00     0.035 C 
ENDBRANCH   2   3
ENDBRANCH   1   2
BRANCH   1   6
HETATM    6  C10 UNL     1     -34.518   5.086   6.049  1.00 20.00     0.004 C 
BRANCH   6   7
HETATM    7  C8  UNL     1     -34.612   6.505   6.616  1.00 20.00     0.026 C 
BRANCH   7   8
HETATM    8  C4  UNL     1     -33.424   7.331   6.218  1.00 20.00    -0.031 C 
HETATM    9  C2  UNL     1     -33.484   8.358   5.359  1.00 20.00    -0.035 C 
HETATM   10  C6  UNL     1     -32.305   9.185   4.967  1.00 20.00     0.035 C 
ENDBRANCH   7   8
ENDBRANCH   6   7
ENDBRANCH   1   6
TORSDOF 5
ENDMDL
MODEL 4
REMARK VINA RESULT:      -4.7      0.883      3.122
REMARK  5 active torsions:
REMARK  status: ('A' for Active; 'I' for Inactive)
REMARK    1  A    between atoms: C3_3  and  C7_7 
REMARK    2  A    between atoms: C4_4  and  C8_8 
REMARK    3  A    between atoms: C7_7  and  C9_9 
REMARK    4  A    between atoms: C8_8  and  C10_10 
REMARK    5  A    between atoms: C9_9  and  C10_10 
ROOT
HETATM    1  C9  UNL     1     -34.476   5.052   6.072  1.00 20.00     0.004 C 
ENDROOT
BRANCH   1   2
HETATM    2  C7  UNL     1     -34.608   6.481   6.602  1.00 20.00     0.026 C 
BRANCH   2   3
HETATM    3  C3  UNL     1     -33.424   7.317   6.212  1.00 20.00    -0.031 C 
HETATM    4  C1  UNL     1     -33.489   8.355   5.364  1.00 20.00    -0.035 C 
HETATM    5  C5  UNL     1     -32.311   9.183   4.973  1.00 20.00     0.035 C 
ENDBRANCH   2   3
ENDBRANCH   1   2
BRANCH   1   6
HETATM    6  C10 UNL     1     -34.787   4.984   4.575  1.00 20.00     0.004 C 
BRANCH   6   7
HETATM    7  C8  UNL     1     -33.551   4.576   3.770  1.00 20.00     0.026 C 
BRANCH   7   8
HETATM    8  C4  UNL     1     -33.269   5.555   2.669  1.00 20.00    -0.031 C 
HETATM    9  C2  UNL     1     -32.389   6.560   2.771  1.00 20.00    -0.035 C 
HETATM   10  C6  UNL     1     -32.103   7.532   1.674  1.00 20.00     0.035 C 
ENDBRANCH   7   8
ENDBRANCH   6   7
ENDBRANCH   1   6
TORSDOF 5
ENDMDL
MODEL 5
REMARK VINA RESULT:      -4.3      0.853      3.698
REMARK  5 active torsions:
REMARK  status: ('A' for Active; 'I' for Inactive)
REMARK    1  A    between atoms: C3_3  and  C7_7 
REMARK    2  A    between atoms: C4_4  and  C8_8 
REMARK    3  A    between atoms: C7_7  and  C9_9 
REMARK    4  A    between atoms: C8_8  and  C10_10 
REMARK    5  A    between atoms: C9_9  and  C10_10 
ROOT
HETATM    1  C9  UNL     1     -32.657   9.125   3.203  1.00 20.00     0.004 C 
ENDROOT
BRANCH   1   2
HETATM    2  C7  UNL     1     -32.188   8.092   2.177  1.00 20.00     0.026 C 
BRANCH   2   3
HETATM    3  C3  UNL     1     -32.180   6.709   2.762  1.00 20.00    -0.031 C 
HETATM    4  C1  UNL     1     -33.034   5.741   2.399  1.00 20.00    -0.035 C 
HETATM    5  C5  UNL     1     -33.029   4.368   2.985  1.00 20.00     0.035 C 
ENDBRANCH   2   3
ENDBRANCH   1   2
BRANCH   1   6
HETATM    6  C10 UNL     1     -32.292   8.700   4.627  1.00 20.00     0.004 C 
BRANCH   6   7
HETATM    7  C8  UNL     1     -33.537   8.595   5.510  1.00 20.00     0.026 C 
BRANCH   7   8
HETATM    8  C4  UNL     1     -33.667   7.226   6.110  1.00 20.00    -0.031 C 
HETATM    9  C2  UNL     1     -34.552   6.310   5.695  1.00 20.00    -0.035 C 
HETATM   10  C6  UNL     1     -34.678   4.945   6.287  1.00 20.00     0.035 C 
ENDBRANCH   7   8
ENDBRANCH   6   7
ENDBRANCH   1   6
TORSDOF 5
ENDMDL
MODEL 6
REMARK VINA RESULT:      -4.3      0.856      3.130
REMARK  5 active torsions:
REMARK  status: ('A' for Active; 'I' for Inactive)
REMARK    1  A    between atoms: C3_3  and  C7_7 
REMARK    2  A    between atoms: C4_4  and  C8_8 
REMARK    3  A    between atoms: C7_7  and  C9_9 
REMARK    4  A    between atoms: C8_8  and  C10_10 
REMARK    5  A    between atoms: C9_9  and  C10_10 
ROOT
HETATM    1  C9  UNL     1     -32.275   8.639   4.574  1.00 20.00     0.004 C 
ENDROOT
BRANCH   1   2
HETATM    2  C7  UNL     1     -33.507   8.584   5.479  1.00 20.00     0.026 C 
BRANCH   2   3
HETATM    3  C3  UNL     1     -33.671   7.223   6.092  1.00 20.00    -0.031 C 
HETATM    4  C1  UNL     1     -34.544   6.306   5.649  1.00 20.00    -0.035 C 
HETATM    5  C5  UNL     1     -34.711   4.955   6.262  1.00 20.00     0.035 C 
ENDBRANCH   2   3
ENDBRANCH   1   2
BRANCH   1   6
HETATM    6  C10 UNL     1     -32.642   9.101   3.162  1.00 20.00     0.004 C 
BRANCH   6   7
HETATM    7  C8  UNL     1     -32.249   8.055   2.117  1.00 20.00     0.026 C 
BRANCH   7   8
HETATM    8  C4  UNL     1     -32.196   6.680   2.715  1.00 20.00    -0.031 C 
HETATM    9  C2  UNL     1     -33.036   5.689   2.383  1.00 20.00    -0.035 C 
HETATM   10  C6  UNL     1     -32.980   4.318   2.972  1.00 20.00     0.035 C 
ENDBRANCH   7   8
ENDBRANCH   6   7
ENDBRANCH   1   6
TORSDOF 5
ENDMDL
MODEL 7
REMARK VINA RESULT:      -4.1     11.598     12.498
REMARK  5 active torsions:
REMARK  status: ('A' for Active; 'I' for Inactive)
REMARK    1  A    between atoms: C3_3  and  C7_7 
REMARK    2  A    between atoms: C4_4  and  C8_8 
REMARK    3  A    between atoms: C7_7  and  C9_9 
REMARK    4  A    between atoms: C8_8  and  C10_10 
REMARK    5  A    between atoms: C9_9  and  C10_10 
ROOT
HETATM    1  C9  UNL     1     -31.052  18.535   0.052  1.00 20.00     0.004 C 
ENDROOT
BRANCH   1   2
HETATM    2  C7  UNL     1     -31.767  18.765   1.385  1.00 20.00     0.026 C 
BRANCH   2   3
HETATM    3  C3  UNL     1     -30.846  18.519   2.546  1.00 20.00    -0.031 C 
HETATM    4  C1  UNL     1     -29.560  18.898   2.571  1.00 20.00    -0.035 C 
HETATM    5  C5  UNL     1     -28.644  18.648   3.723  1.00 20.00     0.035 C 
ENDBRANCH   2   3
ENDBRANCH   1   2
BRANCH   1   6
HETATM    6  C10 UNL     1     -32.020  18.658  -1.127  1.00 20.00     0.004 C 
BRANCH   6   7
HETATM    7  C8  UNL     1     -33.382  18.046  -0.791  1.00 20.00     0.026 C 
BRANCH   7   8
HETATM    8  C4  UNL     1     -33.706  16.900  -1.704  1.00 20.00    -0.031 C 
HETATM    9  C2  UNL     1     -33.108  16.696  -2.886  1.00 20.00    -0.035 C 
HETATM   10  C6  UNL     1     -33.424  15.553  -3.793  1.00 20.00     0.035 C 
ENDBRANCH   7   8
ENDBRANCH   6   7
ENDBRANCH   1   6
TORSDOF 5
ENDMDL
MODEL 8
REMARK VINA RESULT:      -4.1     11.588     12.338
REMARK  5 active torsions:
REMARK  status: ('A' for Active; 'I' for Inactive)
REMARK    1  A    between atoms: C3_3  and  C7_7 
REMARK    2  A    between atoms: C4_4  and  C8_8 
REMARK    3  A    between atoms: C7_7  and  C9_9 
REMARK    4  A    between atoms: C8_8  and  C10_10 
REMARK    5  A    between atoms: C9_9  and  C10_10 
ROOT
HETATM    1  C9  UNL     1     -32.230  18.723  -1.438  1.00 20.00     0.004 C 
ENDROOT
BRANCH   1   2
HETATM    2  C7  UNL     1     -33.554  17.979  -1.253  1.00 20.00     0.026 C 
BRANCH   2   3
HETATM    3  C3  UNL     1     -33.558  16.682  -2.009  1.00 20.00    -0.031 C 
HETATM    4  C1  UNL     1     -33.230  16.572  -3.304  1.00 20.00    -0.035 C 
HETATM    5  C5  UNL     1     -33.239  15.282  -4.057  1.00 20.00     0.035 C 
ENDBRANCH   2   3
ENDBRANCH   1   2
BRANCH   1   6
HETATM    6  C10 UNL     1     -31.338  18.588  -0.201  1.00 20.00     0.004 C 
BRANCH   6   7
HETATM    7  C8  UNL     1     -32.168  18.608   1.085  1.00 20.00     0.026 C 
BRANCH   7   8
HETATM    8  C4  UNL     1     -31.289  18.625   2.301  1.00 20.00    -0.031 C 
HETATM    9  C2  UNL     1     -29.950  18.649   2.253  1.00 20.00    -0.035 C 
HETATM   10  C6  UNL     1     -29.074  18.672   3.462  1.00 20.00     0.035 C 
ENDBRANCH   7   8
ENDBRANCH   6   7
ENDBRANCH   1   6
TORSDOF 5
ENDMDL
MODEL 9
REMARK VINA RESULT:      -4.1      1.017      1.712
REMARK  5 active torsions:
REMARK  status: ('A' for Active; 'I' for Inactive)
REMARK    1  A    between atoms: C3_3  and  C7_7 
REMARK    2  A    between atoms: C4_4  and  C8_8 
REMARK    3  A    between atoms: C7_7  and  C9_9 
REMARK    4  A    between atoms: C8_8  and  C10_10 
REMARK    5  A    between atoms: C9_9  and  C10_10 
ROOT
HETATM    1  C9  UNL     1     -33.822   8.481   5.206  1.00 20.00     0.004 C 
ENDROOT
BRANCH   1   2
HETATM    2  C7  UNL     1     -34.118   7.595   6.417  1.00 20.00     0.026 C 
BRANCH   2   3
HETATM    3  C3  UNL     1     -34.070   6.139   6.051  1.00 20.00    -0.031 C 
HETATM    4  C1  UNL     1     -34.295   5.674   4.813  1.00 20.00    -0.035 C 
HETATM    5  C5  UNL     1     -34.252   4.226   4.450  1.00 20.00     0.035 C 
ENDBRANCH   2   3
ENDBRANCH   1   2
BRANCH   1   6
HETATM    6  C10 UNL     1     -32.315   8.613   4.969  1.00 20.00     0.004 C 
BRANCH   6   7
HETATM    7  C8  UNL     1     -31.903   7.957   3.649  1.00 20.00     0.026 C 
BRANCH   7   8
HETATM    8  C4  UNL     1     -32.577   8.613   2.480  1.00 20.00    -0.031 C 
HETATM    9  C2  UNL     1     -32.179   8.463   1.209  1.00 20.00    -0.035 C 
HETATM   10  C6  UNL     1     -32.851   9.110   0.043  1.00 20.00     0.035 C 
ENDBRANCH   7   8
ENDBRANCH   6   7
ENDBRANCH   1   6
TORSDOF 5
ENDMDL
