MODEL 1
REMARK VINA RESULT:      -4.7      0.000      0.000
REMARK  2 active torsions:
REMARK  status: ('A' for Active; 'I' for Inactive)
REMARK    1  A    between atoms: C7_7  and  C10_10 
REMARK    2  A    between atoms: C8_8  and  C9_9 
ROOT
HETATM    1  C1  UNL     1     -32.869   6.931   3.373  1.00 20.00    -0.019 A 
HETATM    2  C3  UNL     1     -32.379   7.980   2.705  1.00 20.00    -0.087 A 
HETATM    3  C5  UNL     1     -32.119   9.158   3.591  1.00 20.00     0.039 A 
HETATM    4  C8  UNL     1     -33.012   7.199   4.835  1.00 20.00     0.021 A 
HETATM    5  C10 UNL     1     -32.527   8.682   4.992  1.00 20.00     0.005 A 
HETATM    6  C11 UNL     1     -32.105   8.050   1.245  1.00 20.00     0.043 C 
ENDROOT
BRANCH   4   7
HETATM    7  C9  UNL     1     -34.470   7.261   5.357  1.00 20.00     0.022 C 
HETATM    8  C4  UNL     1     -35.166   6.001   4.878  1.00 20.00    -0.082 C 
HETATM    9  C2  UNL     1     -34.651   4.973   5.573  1.00 20.00    -0.019 C 
HETATM   10  C12 UNL     1     -36.176   5.992   3.797  1.00 20.00     0.043 C 
HETATM   11  C7  UNL     1     -33.611   5.544   6.512  1.00 20.00     0.014 C 
HETATM   12  C6  UNL     1     -34.310   6.870   6.834  1.00 20.00     0.018 C 
ENDBRANCH   4   7
TORSDOF 2
ENDMDL
MODEL 2
REMARK VINA RESULT:      -4.0     11.929     14.124
REMARK  2 active torsions:
REMARK  status: ('A' for Active; 'I' for Inactive)
REMARK    1  A    between atoms: C7_7  and  C10_10 
REMARK    2  A    between atoms: C8_8  and  C9_9 
ROOT
HETATM    1  C1  UNL     1     -34.515  17.000  -4.412  1.00 20.00    -0.019 A 
HETATM    2  C3  UNL     1     -33.705  16.387  -3.543  1.00 20.00    -0.087 A 
HETATM    3  C5  UNL     1     -33.163  15.096  -4.072  1.00 20.00     0.039 A 
HETATM    4  C8  UNL     1     -34.654  16.249  -5.694  1.00 20.00     0.021 A 
HETATM    5  C10 UNL     1     -33.768  14.973  -5.478  1.00 20.00     0.005 A 
HETATM    6  C11 UNL     1     -33.344  16.863  -2.181  1.00 20.00     0.043 C 
ENDROOT
BRANCH   4   7
HETATM    7  C9  UNL     1     -36.057  15.648  -5.962  1.00 20.00     0.022 C 
HETATM    8  C4  UNL     1     -37.018  16.812  -6.104  1.00 20.00    -0.082 C 
HETATM    9  C2  UNL     1     -36.736  17.422  -7.268  1.00 20.00    -0.019 C 
HETATM   10  C12 UNL     1     -38.015  17.173  -5.073  1.00 20.00     0.043 C 
HETATM   11  C7  UNL     1     -35.587  16.668  -7.900  1.00 20.00     0.014 C 
HETATM   12  C6  UNL     1     -35.973  15.255  -7.445  1.00 20.00     0.018 C 
ENDBRANCH   4   7
TORSDOF 2
ENDMDL
MODEL 3
REMARK VINA RESULT:      -3.8      9.213     10.107
REMARK  2 active torsions:
REMARK  status: ('A' for Active; 'I' for Inactive)
REMARK    1  A    between atoms: C7_7  and  C10_10 
REMARK    2  A    between atoms: C8_8  and  C9_9 
ROOT
HETATM    1  C1  UNL     1     -40.667  12.508   4.974  1.00 20.00    -0.019 A 
HETATM    2  C3  UNL     1     -39.423  12.083   4.727  1.00 20.00    -0.087 A 
HETATM    3  C5  UNL     1     -38.562  12.073   5.952  1.00 20.00     0.039 A 
HETATM    4  C8  UNL     1     -40.881  12.843   6.413  1.00 20.00     0.021 A 
HETATM    5  C10 UNL     1     -39.486  12.569   7.074  1.00 20.00     0.005 A 
HETATM    6  C11 UNL     1     -38.877  11.662   3.410  1.00 20.00     0.043 C 
ENDROOT
BRANCH   4   7
HETATM    7  C9  UNL     1     -41.113  14.346   6.716  1.00 20.00     0.022 C 
HETATM    8  C4  UNL     1     -42.453  14.718   6.111  1.00 20.00    -0.082 C 
HETATM    9  C2  UNL     1     -43.403  14.123   6.852  1.00 20.00    -0.019 C 
HETATM   10  C12 UNL     1     -42.594  15.545   4.893  1.00 20.00     0.043 C 
HETATM   11  C7  UNL     1     -42.698  13.352   7.947  1.00 20.00     0.014 C 
HETATM   12  C6  UNL     1     -41.539  14.326   8.191  1.00 20.00     0.018 C 
ENDBRANCH   4   7
TORSDOF 2
ENDMDL
MODEL 4
REMARK VINA RESULT:      -3.6     10.531     11.644
REMARK  2 active torsions:
REMARK  status: ('A' for Active; 'I' for Inactive)
REMARK    1  A    between atoms: C7_7  and  C10_10 
REMARK    2  A    between atoms: C8_8  and  C9_9 
ROOT
HETATM    1  C1  UNL     1     -40.866  15.979   7.276  1.00 20.00    -0.019 A 
HETATM    2  C3  UNL     1     -41.133  16.633   8.411  1.00 20.00    -0.087 A 
HETATM    3  C5  UNL     1     -41.562  15.719   9.516  1.00 20.00     0.039 A 
HETATM    4  C8  UNL     1     -41.044  14.503   7.410  1.00 20.00     0.021 A 
HETATM    5  C10 UNL     1     -41.519  14.316   8.893  1.00 20.00     0.005 A 
HETATM    6  C11 UNL     1     -41.049  18.102   8.628  1.00 20.00     0.043 C 
ENDROOT
BRANCH   4   7
HETATM    7  C9  UNL     1     -42.220  13.902   6.598  1.00 20.00     0.022 C 
HETATM    8  C4  UNL     1     -41.851  14.018   5.132  1.00 20.00    -0.082 C 
HETATM    9  C2  UNL     1     -40.859  13.142   4.900  1.00 20.00    -0.019 C 
HETATM   10  C12 UNL     1     -42.482  14.988   4.210  1.00 20.00     0.043 C 
HETATM   11  C7  UNL     1     -40.564  12.444   6.209  1.00 20.00     0.014 C 
HETATM   12  C6  UNL     1     -41.995  12.390   6.758  1.00 20.00     0.018 C 
ENDBRANCH   4   7
TORSDOF 2
ENDMDL
MODEL 5
REMARK VINA RESULT:      -3.6     10.892     11.980
REMARK  2 active torsions:
REMARK  status: ('A' for Active; 'I' for Inactive)
REMARK    1  A    between atoms: C7_7  and  C10_10 
REMARK    2  A    between atoms: C8_8  and  C9_9 
ROOT
HETATM    1  C1  UNL     1     -42.178  15.194   6.194  1.00 20.00    -0.019 A 
HETATM    2  C3  UNL     1     -41.983  14.435   5.111  1.00 20.00    -0.087 A 
HETATM    3  C5  UNL     1     -41.080  13.271   5.377  1.00 20.00     0.039 A 
HETATM    4  C8  UNL     1     -41.460  14.674   7.395  1.00 20.00     0.021 A 
HETATM    5  C10 UNL     1     -40.716  13.400   6.863  1.00 20.00     0.005 A 
HETATM    6  C11 UNL     1     -42.555  14.660   3.757  1.00 20.00     0.043 C 
ENDROOT
BRANCH   4   7
HETATM    7  C9  UNL     1     -40.296  15.560   7.906  1.00 20.00     0.022 C 
HETATM    8  C4  UNL     1     -40.875  16.933   8.189  1.00 20.00    -0.082 C 
HETATM    9  C2  UNL     1     -41.655  16.820   9.277  1.00 20.00    -0.019 C 
HETATM   10  C12 UNL     1     -40.620  18.114   7.335  1.00 20.00     0.043 C 
HETATM   11  C7  UNL     1     -41.599  15.374   9.719  1.00 20.00     0.014 C 
HETATM   12  C6  UNL     1     -40.135  15.091   9.360  1.00 20.00     0.018 C 
ENDBRANCH   4   7
TORSDOF 2
ENDMDL
MODEL 6
REMARK VINA RESULT:      -3.5     10.514     11.670
REMARK  2 active torsions:
REMARK  status: ('A' for Active; 'I' for Inactive)
REMARK    1  A    between atoms: C7_7  and  C10_10 
REMARK    2  A    between atoms: C8_8  and  C9_9 
ROOT
HETATM    1  C1  UNL     1     -40.230  13.734   7.221  1.00 20.00    -0.019 A 
HETATM    2  C3  UNL     1     -40.436  12.976   6.138  1.00 20.00    -0.087 A 
HETATM    3  C5  UNL     1     -41.486  13.537   5.232  1.00 20.00     0.039 A 
HETATM    4  C8  UNL     1     -41.088  14.956   7.234  1.00 20.00     0.021 A 
HETATM    5  C10 UNL     1     -41.937  14.833   5.922  1.00 20.00     0.005 A 
HETATM    6  C11 UNL     1     -39.748  11.700   5.808  1.00 20.00     0.043 C 
ENDROOT
BRANCH   4   7
HETATM    7  C9  UNL     1     -42.173  14.992   8.340  1.00 20.00     0.022 C 
HETATM    8  C4  UNL     1     -41.449  15.117   9.667  1.00 20.00    -0.082 C 
HETATM    9  C2  UNL     1     -40.934  16.356   9.725  1.00 20.00    -0.019 C 
HETATM   10  C12 UNL     1     -41.333  14.006  10.637  1.00 20.00     0.043 C 
HETATM   11  C7  UNL     1     -41.311  17.057   8.438  1.00 20.00     0.014 C 
HETATM   12  C6  UNL     1     -42.698  16.432   8.244  1.00 20.00     0.018 C 
ENDBRANCH   4   7
TORSDOF 2
ENDMDL
MODEL 7
REMARK VINA RESULT:      -3.4     12.169     14.191
REMARK  2 active torsions:
REMARK  status: ('A' for Active; 'I' for Inactive)
REMARK    1  A    between atoms: C7_7  and  C10_10 
REMARK    2  A    between atoms: C8_8  and  C9_9 
ROOT
HETATM    1  C1  UNL     1     -25.322  -2.860  10.055  1.00 20.00    -0.019 A 
HETATM    2  C3  UNL     1     -24.160  -3.465  10.325  1.00 20.00    -0.087 A 
HETATM    3  C5  UNL     1     -24.324  -4.658  11.215  1.00 20.00     0.039 A 
HETATM    4  C8  UNL     1     -26.485  -3.543  10.695  1.00 20.00     0.021 A 
HETATM    5  C10 UNL     1     -25.835  -4.735  11.479  1.00 20.00     0.005 A 
HETATM    6  C11 UNL     1     -22.815  -3.054   9.843  1.00 20.00     0.043 C 
ENDROOT
BRANCH   4   7
HETATM    7  C9  UNL     1     -27.189  -2.740  11.818  1.00 20.00     0.022 C 
HETATM    8  C4  UNL     1     -27.560  -1.391  11.232  1.00 20.00    -0.082 C 
HETATM    9  C2  UNL     1     -28.556  -1.598  10.355  1.00 20.00    -0.019 C 
HETATM   10  C12 UNL     1     -26.860  -0.135  11.580  1.00 20.00     0.043 C 
HETATM   11  C7  UNL     1     -28.848  -3.082  10.352  1.00 20.00     0.014 C 
HETATM   12  C6  UNL     1     -28.594  -3.360  11.839  1.00 20.00     0.018 C 
ENDBRANCH   4   7
TORSDOF 2
ENDMDL
MODEL 8
REMARK VINA RESULT:      -3.4     11.675     13.701
REMARK  2 active torsions:
REMARK  status: ('A' for Active; 'I' for Inactive)
REMARK    1  A    between atoms: C7_7  and  C10_10 
REMARK    2  A    between atoms: C8_8  and  C9_9 
ROOT
HETATM    1  C1  UNL     1     -34.021  17.343  -2.707  1.00 20.00    -0.019 A 
HETATM    2  C3  UNL     1     -33.105  18.184  -2.212  1.00 20.00    -0.087 A 
HETATM    3  C5  UNL     1     -32.731  19.263  -3.180  1.00 20.00     0.039 A 
HETATM    4  C8  UNL     1     -34.447  17.710  -4.089  1.00 20.00     0.021 A 
HETATM    5  C10 UNL     1     -33.589  18.980  -4.421  1.00 20.00     0.005 A 
HETATM    6  C11 UNL     1     -32.475  18.115  -0.867  1.00 20.00     0.043 C 
ENDROOT
BRANCH   4   7
HETATM    7  C9  UNL     1     -34.026  16.714  -5.199  1.00 20.00     0.022 C 
HETATM    8  C4  UNL     1     -34.810  15.437  -4.969  1.00 20.00    -0.082 C 
HETATM    9  C2  UNL     1     -36.092  15.694  -5.281  1.00 20.00    -0.019 C 
HETATM   10  C12 UNL     1     -34.204  14.195  -4.441  1.00 20.00     0.043 C 
HETATM   11  C7  UNL     1     -36.163  17.142  -5.716  1.00 20.00     0.014 C 
HETATM   12  C6  UNL     1     -34.804  17.228  -6.420  1.00 20.00     0.018 C 
ENDBRANCH   4   7
TORSDOF 2
ENDMDL
MODEL 9
REMARK VINA RESULT:      -3.3     11.813     14.215
REMARK  2 active torsions:
REMARK  status: ('A' for Active; 'I' for Inactive)
REMARK    1  A    between atoms: C7_7  and  C10_10 
REMARK    2  A    between atoms: C8_8  and  C9_9 
ROOT
HETATM    1  C1  UNL     1     -36.663  17.357  -4.916  1.00 20.00    -0.019 A 
HETATM    2  C3  UNL     1     -37.535  17.721  -5.863  1.00 20.00    -0.087 A 
HETATM    3  C5  UNL     1     -37.457  16.856  -7.082  1.00 20.00     0.039 A 
HETATM    4  C8  UNL     1     -35.851  16.169  -5.312  1.00 20.00     0.021 A 
HETATM    5  C10 UNL     1     -36.361  15.831  -6.756  1.00 20.00     0.005 A 
HETATM    6  C11 UNL     1     -38.498  18.852  -5.792  1.00 20.00     0.043 C 
ENDROOT
BRANCH   4   7
HETATM    7  C9  UNL     1     -34.342  16.444  -5.540  1.00 20.00     0.022 C 
HETATM    8  C4  UNL     1     -33.734  16.730  -4.180  1.00 20.00    -0.082 C 
HETATM    9  C2  UNL     1     -33.720  15.571  -3.499  1.00 20.00    -0.019 C 
HETATM   10  C12 UNL     1     -33.313  18.079  -3.746  1.00 20.00     0.043 C 
HETATM   11  C7  UNL     1     -34.319  14.515  -4.401  1.00 20.00     0.014 C 
HETATM   12  C6  UNL     1     -33.773  15.031  -5.738  1.00 20.00     0.018 C 
ENDBRANCH   4   7
TORSDOF 2
ENDMDL
