MODEL 1
REMARK VINA RESULT:      -5.5      0.000      0.000
REMARK  2 active torsions:
REMARK  status: ('A' for Active; 'I' for Inactive)
REMARK    1  A    between atoms: C1_1  and  C3_3 
REMARK    2  A    between atoms: C2_2  and  C3_3 
ROOT
HETATM    1  C3  UNL     1     -34.570   5.774   4.848  1.00 20.00     0.358 C 
HETATM    2  F8  UNL     1     -35.752   6.089   4.261  1.00 20.00    -0.194 F 
HETATM    3  F9  UNL     1     -34.208   4.554   4.376  1.00 20.00    -0.194 F 
ENDROOT
BRANCH   1   4
HETATM    4  C1  UNL     1     -33.529   6.787   4.439  1.00 20.00     0.430 C 
HETATM    5  F4  UNL     1     -33.008   6.435   3.236  1.00 20.00    -0.208 F 
HETATM    6  F5  UNL     1     -34.102   8.005   4.276  1.00 20.00    -0.208 F 
ENDBRANCH   1   4
BRANCH   1   7
HETATM    7  C2  UNL     1     -34.769   5.689   6.341  1.00 20.00     0.430 C 
HETATM    8  F6  UNL     1     -33.819   4.878   6.873  1.00 20.00    -0.208 F 
HETATM    9  F7  UNL     1     -34.600   6.910   6.903  1.00 20.00    -0.208 F 
ENDBRANCH   1   7
TORSDOF 2
ENDMDL
MODEL 2
REMARK VINA RESULT:      -5.5      0.003      2.820
REMARK  2 active torsions:
REMARK  status: ('A' for Active; 'I' for Inactive)
REMARK    1  A    between atoms: C1_1  and  C3_3 
REMARK    2  A    between atoms: C2_2  and  C3_3 
ROOT
HETATM    1  C3  UNL     1     -34.569   5.774   4.846  1.00 20.00     0.358 C 
HETATM    2  F8  UNL     1     -34.206   4.554   4.378  1.00 20.00    -0.194 F 
HETATM    3  F9  UNL     1     -35.751   6.087   4.258  1.00 20.00    -0.194 F 
ENDROOT
BRANCH   1   4
HETATM    4  C1  UNL     1     -34.769   5.690   6.340  1.00 20.00     0.430 C 
HETATM    5  F4  UNL     1     -33.823   4.878   6.874  1.00 20.00    -0.208 F 
HETATM    6  F5  UNL     1     -34.601   6.911   6.902  1.00 20.00    -0.208 F 
ENDBRANCH   1   4
BRANCH   1   7
HETATM    7  C2  UNL     1     -33.528   6.788   4.438  1.00 20.00     0.430 C 
HETATM    8  F6  UNL     1     -33.009   6.435   3.234  1.00 20.00    -0.208 F 
HETATM    9  F7  UNL     1     -34.101   8.004   4.277  1.00 20.00    -0.208 F 
ENDBRANCH   1   7
TORSDOF 2
ENDMDL
MODEL 3
REMARK VINA RESULT:      -5.4      0.706      2.795
REMARK  2 active torsions:
REMARK  status: ('A' for Active; 'I' for Inactive)
REMARK    1  A    between atoms: C1_1  and  C3_3 
REMARK    2  A    between atoms: C2_2  and  C3_3 
ROOT
HETATM    1  C3  UNL     1     -34.676   6.126   4.814  1.00 20.00     0.358 C 
HETATM    2  F8  UNL     1     -35.903   5.918   4.275  1.00 20.00    -0.194 F 
HETATM    3  F9  UNL     1     -34.321   7.400   4.512  1.00 20.00    -0.194 F 
ENDROOT
BRANCH   1   4
HETATM    4  C1  UNL     1     -34.765   5.984   6.314  1.00 20.00     0.430 C 
HETATM    5  F4  UNL     1     -33.852   5.071   6.733  1.00 20.00    -0.208 F 
HETATM    6  F5  UNL     1     -34.448   7.157   6.914  1.00 20.00    -0.208 F 
ENDBRANCH   1   4
BRANCH   1   7
HETATM    7  C2  UNL     1     -33.692   5.173   4.181  1.00 20.00     0.430 C 
HETATM    8  F6  UNL     1     -34.206   3.917   4.207  1.00 20.00    -0.208 F 
HETATM    9  F7  UNL     1     -33.507   5.493   2.878  1.00 20.00    -0.208 F 
ENDBRANCH   1   7
TORSDOF 2
ENDMDL
MODEL 4
REMARK VINA RESULT:      -5.4      0.703      1.791
REMARK  2 active torsions:
REMARK  status: ('A' for Active; 'I' for Inactive)
REMARK    1  A    between atoms: C1_1  and  C3_3 
REMARK    2  A    between atoms: C2_2  and  C3_3 
ROOT
HETATM    1  C3  UNL     1     -34.674   6.130   4.818  1.00 20.00     0.358 C 
HETATM    2  F8  UNL     1     -34.324   7.402   4.503  1.00 20.00    -0.194 F 
HETATM    3  F9  UNL     1     -35.903   5.914   4.284  1.00 20.00    -0.194 F 
ENDROOT
BRANCH   1   4
HETATM    4  C1  UNL     1     -33.690   5.176   4.187  1.00 20.00     0.430 C 
HETATM    5  F4  UNL     1     -34.212   3.923   4.196  1.00 20.00    -0.208 F 
HETATM    6  F5  UNL     1     -33.486   5.506   2.889  1.00 20.00    -0.208 F 
ENDBRANCH   1   4
BRANCH   1   7
HETATM    7  C2  UNL     1     -34.756   5.999   6.319  1.00 20.00     0.430 C 
HETATM    8  F6  UNL     1     -33.860   5.069   6.736  1.00 20.00    -0.208 F 
HETATM    9  F7  UNL     1     -34.410   7.169   6.908  1.00 20.00    -0.208 F 
ENDBRANCH   1   7
TORSDOF 2
ENDMDL
MODEL 5
REMARK VINA RESULT:      -5.3      0.935      2.554
REMARK  2 active torsions:
REMARK  status: ('A' for Active; 'I' for Inactive)
REMARK    1  A    between atoms: C1_1  and  C3_3 
REMARK    2  A    between atoms: C2_2  and  C3_3 
ROOT
HETATM    1  C3  UNL     1     -34.814   5.766   5.010  1.00 20.00     0.358 C 
HETATM    2  F8  UNL     1     -35.125   5.076   6.135  1.00 20.00    -0.194 F 
HETATM    3  F9  UNL     1     -35.981   6.232   4.497  1.00 20.00    -0.194 F 
ENDROOT
BRANCH   1   4
HETATM    4  C1  UNL     1     -33.936   6.938   5.376  1.00 20.00     0.430 C 
HETATM    5  F4  UNL     1     -34.193   7.971   4.534  1.00 20.00    -0.208 F 
HETATM    6  F5  UNL     1     -34.231   7.370   6.626  1.00 20.00    -0.208 F 
ENDBRANCH   1   4
BRANCH   1   7
HETATM    7  C2  UNL     1     -34.175   4.827   4.017  1.00 20.00     0.430 C 
HETATM    8  F6  UNL     1     -33.154   5.467   3.392  1.00 20.00    -0.208 F 
HETATM    9  F7  UNL     1     -33.637   3.764   4.660  1.00 20.00    -0.208 F 
ENDBRANCH   1   7
TORSDOF 2
ENDMDL
MODEL 6
REMARK VINA RESULT:      -5.2      0.905      2.245
REMARK  2 active torsions:
REMARK  status: ('A' for Active; 'I' for Inactive)
REMARK    1  A    between atoms: C1_1  and  C3_3 
REMARK    2  A    between atoms: C2_2  and  C3_3 
ROOT
HETATM    1  C3  UNL     1     -34.772   5.816   4.955  1.00 20.00     0.358 C 
HETATM    2  F8  UNL     1     -35.973   6.268   4.517  1.00 20.00    -0.194 F 
HETATM    3  F9  UNL     1     -35.015   5.022   6.028  1.00 20.00    -0.194 F 
ENDROOT
BRANCH   1   4
HETATM    4  C1  UNL     1     -34.129   4.989   3.868  1.00 20.00     0.430 C 
HETATM    5  F4  UNL     1     -33.033   5.639   3.400  1.00 20.00    -0.208 F 
HETATM    6  F5  UNL     1     -33.698   3.808   4.372  1.00 20.00    -0.208 F 
ENDBRANCH   1   4
BRANCH   1   7
HETATM    7  C2  UNL     1     -33.931   6.992   5.388  1.00 20.00     0.430 C 
HETATM    8  F6  UNL     1     -34.163   8.037   4.554  1.00 20.00    -0.208 F 
HETATM    9  F7  UNL     1     -34.296   7.393   6.629  1.00 20.00    -0.208 F 
ENDBRANCH   1   7
TORSDOF 2
ENDMDL
MODEL 7
REMARK VINA RESULT:      -5.1      1.101      2.648
REMARK  2 active torsions:
REMARK  status: ('A' for Active; 'I' for Inactive)
REMARK    1  A    between atoms: C1_1  and  C3_3 
REMARK    2  A    between atoms: C2_2  and  C3_3 
ROOT
HETATM    1  C3  UNL     1     -34.028   6.738   6.037  1.00 20.00     0.358 C 
HETATM    2  F8  UNL     1     -32.901   6.246   6.608  1.00 20.00    -0.194 F 
HETATM    3  F9  UNL     1     -34.639   7.511   6.969  1.00 20.00    -0.194 F 
ENDROOT
BRANCH   1   4
HETATM    4  C1  UNL     1     -33.648   7.600   4.857  1.00 20.00     0.430 C 
HETATM    5  F4  UNL     1     -32.817   8.589   5.273  1.00 20.00    -0.208 F 
HETATM    6  F5  UNL     1     -32.960   6.869   3.947  1.00 20.00    -0.208 F 
ENDBRANCH   1   4
BRANCH   1   7
HETATM    7  C2  UNL     1     -34.937   5.591   5.671  1.00 20.00     0.430 C 
HETATM    8  F6  UNL     1     -35.690   5.942   4.597  1.00 20.00    -0.208 F 
HETATM    9  F7  UNL     1     -34.203   4.515   5.298  1.00 20.00    -0.208 F 
ENDBRANCH   1   7
TORSDOF 2
ENDMDL
MODEL 8
REMARK VINA RESULT:      -5.1      1.090      3.080
REMARK  2 active torsions:
REMARK  status: ('A' for Active; 'I' for Inactive)
REMARK    1  A    between atoms: C1_1  and  C3_3 
REMARK    2  A    between atoms: C2_2  and  C3_3 
ROOT
HETATM    1  C3  UNL     1     -34.025   6.712   6.028  1.00 20.00     0.358 C 
HETATM    2  F8  UNL     1     -34.646   7.484   6.955  1.00 20.00    -0.194 F 
HETATM    3  F9  UNL     1     -32.909   6.212   6.614  1.00 20.00    -0.194 F 
ENDROOT
BRANCH   1   4
HETATM    4  C1  UNL     1     -34.934   5.570   5.646  1.00 20.00     0.430 C 
HETATM    5  F4  UNL     1     -35.687   5.933   4.578  1.00 20.00    -0.208 F 
HETATM    6  F5  UNL     1     -34.200   4.498   5.261  1.00 20.00    -0.208 F 
ENDBRANCH   1   4
BRANCH   1   7
HETATM    7  C2  UNL     1     -33.626   7.576   4.856  1.00 20.00     0.430 C 
HETATM    8  F6  UNL     1     -32.746   8.520   5.277  1.00 20.00    -0.208 F 
HETATM    9  F7  UNL     1     -32.984   6.830   3.925  1.00 20.00    -0.208 F 
ENDBRANCH   1   7
TORSDOF 2
ENDMDL
MODEL 9
REMARK VINA RESULT:      -4.9      1.054      2.928
REMARK  2 active torsions:
REMARK  status: ('A' for Active; 'I' for Inactive)
REMARK    1  A    between atoms: C1_1  and  C3_3 
REMARK    2  A    between atoms: C2_2  and  C3_3 
ROOT
HETATM    1  C3  UNL     1     -34.340   6.406   4.848  1.00 20.00     0.358 C 
HETATM    2  F8  UNL     1     -33.677   5.400   4.225  1.00 20.00    -0.194 F 
HETATM    3  F9  UNL     1     -35.626   6.356   4.419  1.00 20.00    -0.194 F 
ENDROOT
BRANCH   1   4
HETATM    4  C1  UNL     1     -34.309   6.169   6.338  1.00 20.00     0.430 C 
HETATM    5  F4  UNL     1     -34.312   4.834   6.581  1.00 20.00    -0.208 F 
HETATM    6  F5  UNL     1     -33.162   6.661   6.865  1.00 20.00    -0.208 F 
ENDBRANCH   1   4
BRANCH   1   7
HETATM    7  C2  UNL     1     -33.732   7.724   4.439  1.00 20.00     0.430 C 
HETATM    8  F6  UNL     1     -33.935   8.635   5.425  1.00 20.00    -0.208 F 
HETATM    9  F7  UNL     1     -32.391   7.595   4.295  1.00 20.00    -0.208 F 
ENDBRANCH   1   7
TORSDOF 2
ENDMDL
