MODEL 1
REMARK VINA RESULT:      -4.1      0.000      0.000
REMARK  2 active torsions:
REMARK  status: ('A' for Active; 'I' for Inactive)
REMARK    1  A    between atoms: C1_1  and  C2_2 
REMARK    2  A    between atoms: C1_1  and  C3_3 
ROOT
HETATM    1  C3  UNL     1     -32.609   7.875   3.693  1.00 20.00     0.256 C 
HETATM    2  F4  UNL     1     -31.422   8.034   4.345  1.00 20.00    -0.207 F 
HETATM    3 CL5  UNL     1     -32.723   9.141   2.445  1.00 20.00    -0.066 Cl
HETATM    4 CL6  UNL     1     -32.601   6.270   2.921  1.00 20.00    -0.066 Cl
ENDROOT
BRANCH   1   5
HETATM    5  C1  UNL     1     -33.728   8.000   4.730  1.00 20.00     0.089 C 
BRANCH   5   6
HETATM    6  C2  UNL     1     -33.518   7.210   6.015  1.00 20.00     0.090 C 
HETATM    7 BR7  UNL     1     -34.638   5.611   5.984  1.00 20.00    -0.096 Br
ENDBRANCH   5   6
ENDBRANCH   1   5
TORSDOF 2
ENDMDL
MODEL 2
REMARK VINA RESULT:      -4.0      3.195      3.682
REMARK  2 active torsions:
REMARK  status: ('A' for Active; 'I' for Inactive)
REMARK    1  A    between atoms: C1_1  and  C2_2 
REMARK    2  A    between atoms: C1_1  and  C3_3 
ROOT
HETATM    1  C3  UNL     1     -34.695   6.000   4.777  1.00 20.00     0.256 C 
HETATM    2  F4  UNL     1     -35.993   5.909   4.369  1.00 20.00    -0.207 F 
HETATM    3 CL5  UNL     1     -34.530   5.080   6.293  1.00 20.00    -0.066 Cl
HETATM    4 CL6  UNL     1     -33.670   5.270   3.516  1.00 20.00    -0.066 Cl
ENDROOT
BRANCH   1   5
HETATM    5  C1  UNL     1     -34.376   7.485   4.978  1.00 20.00     0.089 C 
BRANCH   5   6
HETATM    6  C2  UNL     1     -32.898   7.822   5.111  1.00 20.00     0.090 C 
HETATM    7 BR7  UNL     1     -32.252   8.585   3.434  1.00 20.00    -0.096 Br
ENDBRANCH   5   6
ENDBRANCH   1   5
TORSDOF 2
ENDMDL
MODEL 3
REMARK VINA RESULT:      -3.9      3.299      3.817
REMARK  2 active torsions:
REMARK  status: ('A' for Active; 'I' for Inactive)
REMARK    1  A    between atoms: C1_1  and  C2_2 
REMARK    2  A    between atoms: C1_1  and  C3_3 
ROOT
HETATM    1  C3  UNL     1     -34.671   5.644   5.330  1.00 20.00     0.256 C 
HETATM    2  F4  UNL     1     -35.267   5.162   6.457  1.00 20.00    -0.207 F 
HETATM    3 CL5  UNL     1     -33.789   4.302   4.559  1.00 20.00    -0.066 Cl
HETATM    4 CL6  UNL     1     -35.952   6.227   4.238  1.00 20.00    -0.066 Cl
ENDROOT
BRANCH   1   5
HETATM    5  C1  UNL     1     -33.727   6.774   5.751  1.00 20.00     0.089 C 
BRANCH   5   6
HETATM    6  C2  UNL     1     -33.656   7.956   4.795  1.00 20.00     0.090 C 
HETATM    7 BR7  UNL     1     -32.299   7.612   3.435  1.00 20.00    -0.096 Br
ENDBRANCH   5   6
ENDBRANCH   1   5
TORSDOF 2
ENDMDL
MODEL 4
REMARK VINA RESULT:      -3.8      1.684      2.244
REMARK  2 active torsions:
REMARK  status: ('A' for Active; 'I' for Inactive)
REMARK    1  A    between atoms: C1_1  and  C2_2 
REMARK    2  A    between atoms: C1_1  and  C3_3 
ROOT
HETATM    1  C3  UNL     1     -33.066   7.970   4.693  1.00 20.00     0.256 C 
HETATM    2  F4  UNL     1     -34.323   8.373   4.353  1.00 20.00    -0.207 F 
HETATM    3 CL5  UNL     1     -32.404   7.030   3.333  1.00 20.00    -0.066 Cl
HETATM    4 CL6  UNL     1     -32.075   9.427   4.955  1.00 20.00    -0.066 Cl
ENDROOT
BRANCH   1   5
HETATM    5  C1  UNL     1     -33.179   7.124   5.965  1.00 20.00     0.089 C 
BRANCH   5   6
HETATM    6  C2  UNL     1     -34.525   6.447   6.181  1.00 20.00     0.090 C 
HETATM    7 BR7  UNL     1     -34.714   4.962   4.926  1.00 20.00    -0.096 Br
ENDBRANCH   5   6
ENDBRANCH   1   5
TORSDOF 2
ENDMDL
MODEL 5
REMARK VINA RESULT:      -3.6      1.229      1.610
REMARK  2 active torsions:
REMARK  status: ('A' for Active; 'I' for Inactive)
REMARK    1  A    between atoms: C1_1  and  C2_2 
REMARK    2  A    between atoms: C1_1  and  C3_3 
ROOT
HETATM    1  C3  UNL     1     -32.489   8.255   3.828  1.00 20.00     0.256 C 
HETATM    2  F4  UNL     1     -31.443   7.418   3.574  1.00 20.00    -0.207 F 
HETATM    3 CL5  UNL     1     -31.979   9.405   5.089  1.00 20.00    -0.066 Cl
HETATM    4 CL6  UNL     1     -32.864   9.137   2.327  1.00 20.00    -0.066 Cl
ENDROOT
BRANCH   1   5
HETATM    5  C1  UNL     1     -33.669   7.395   4.291  1.00 20.00     0.089 C 
BRANCH   5   6
HETATM    6  C2  UNL     1     -33.791   7.211   5.797  1.00 20.00     0.090 C 
HETATM    7 BR7  UNL     1     -34.595   5.472   6.176  1.00 20.00    -0.096 Br
ENDBRANCH   5   6
ENDBRANCH   1   5
TORSDOF 2
ENDMDL
MODEL 6
REMARK VINA RESULT:      -3.5      3.655      3.942
REMARK  2 active torsions:
REMARK  status: ('A' for Active; 'I' for Inactive)
REMARK    1  A    between atoms: C1_1  and  C2_2 
REMARK    2  A    between atoms: C1_1  and  C3_3 
ROOT
HETATM    1  C3  UNL     1     -34.584   5.903   4.797  1.00 20.00     0.256 C 
HETATM    2  F4  UNL     1     -35.831   6.103   4.282  1.00 20.00    -0.207 F 
HETATM    3 CL5  UNL     1     -34.707   5.970   6.573  1.00 20.00    -0.066 Cl
HETATM    4 CL6  UNL     1     -34.035   4.286   4.294  1.00 20.00    -0.066 Cl
ENDROOT
BRANCH   1   5
HETATM    5  C1  UNL     1     -33.675   7.008   4.251  1.00 20.00     0.089 C 
BRANCH   5   6
HETATM    6  C2  UNL     1     -32.662   6.561   3.206  1.00 20.00     0.090 C 
HETATM    7 BR7  UNL     1     -32.288   8.041   1.989  1.00 20.00    -0.096 Br
ENDBRANCH   5   6
ENDBRANCH   1   5
TORSDOF 2
ENDMDL
MODEL 7
REMARK VINA RESULT:      -3.4      3.192      3.442
REMARK  2 active torsions:
REMARK  status: ('A' for Active; 'I' for Inactive)
REMARK    1  A    between atoms: C1_1  and  C2_2 
REMARK    2  A    between atoms: C1_1  and  C3_3 
ROOT
HETATM    1  C3  UNL     1     -34.334   6.235   4.938  1.00 20.00     0.256 C 
HETATM    2  F4  UNL     1     -33.422   5.687   4.085  1.00 20.00    -0.207 F 
HETATM    3 CL5  UNL     1     -35.946   6.067   4.199  1.00 20.00    -0.066 Cl
HETATM    4 CL6  UNL     1     -34.275   5.319   6.465  1.00 20.00    -0.066 Cl
ENDROOT
BRANCH   1   5
HETATM    5  C1  UNL     1     -33.955   7.704   5.143  1.00 20.00     0.089 C 
BRANCH   5   6
HETATM    6  C2  UNL     1     -32.533   8.073   4.742  1.00 20.00     0.090 C 
HETATM    7 BR7  UNL     1     -32.508   8.623   2.869  1.00 20.00    -0.096 Br
ENDBRANCH   5   6
ENDBRANCH   1   5
TORSDOF 2
ENDMDL
MODEL 8
REMARK VINA RESULT:      -3.3      2.773      2.854
REMARK  2 active torsions:
REMARK  status: ('A' for Active; 'I' for Inactive)
REMARK    1  A    between atoms: C1_1  and  C2_2 
REMARK    2  A    between atoms: C1_1  and  C3_3 
ROOT
HETATM    1  C3  UNL     1     -33.607   7.710   5.300  1.00 20.00     0.256 C 
HETATM    2  F4  UNL     1     -34.269   8.823   5.726  1.00 20.00    -0.207 F 
HETATM    3 CL5  UNL     1     -32.099   8.235   4.512  1.00 20.00    -0.066 Cl
HETATM    4 CL6  UNL     1     -33.225   6.718   6.729  1.00 20.00    -0.066 Cl
ENDROOT
BRANCH   1   5
HETATM    5  C1  UNL     1     -34.527   6.969   4.325  1.00 20.00     0.089 C 
BRANCH   5   6
HETATM    6  C2  UNL     1     -34.266   5.475   4.188  1.00 20.00     0.090 C 
HETATM    7 BR7  UNL     1     -32.994   5.168   2.740  1.00 20.00    -0.096 Br
ENDBRANCH   5   6
ENDBRANCH   1   5
TORSDOF 2
ENDMDL
MODEL 9
REMARK VINA RESULT:      -3.2      3.634      3.982
REMARK  2 active torsions:
REMARK  status: ('A' for Active; 'I' for Inactive)
REMARK    1  A    between atoms: C1_1  and  C2_2 
REMARK    2  A    between atoms: C1_1  and  C3_3 
ROOT
HETATM    1  C3  UNL     1     -34.577   5.655   5.185  1.00 20.00     0.256 C 
HETATM    2  F4  UNL     1     -35.008   4.718   6.077  1.00 20.00    -0.207 F 
HETATM    3 CL5  UNL     1     -35.967   6.138   4.182  1.00 20.00    -0.066 Cl
HETATM    4 CL6  UNL     1     -33.984   7.059   6.106  1.00 20.00    -0.066 Cl
ENDROOT
BRANCH   1   5
HETATM    5  C1  UNL     1     -33.466   5.017   4.344  1.00 20.00     0.089 C 
BRANCH   5   6
HETATM    6  C2  UNL     1     -33.284   5.604   2.951  1.00 20.00     0.090 C 
HETATM    7 BR7  UNL     1     -32.291   7.280   3.077  1.00 20.00    -0.096 Br
ENDBRANCH   5   6
ENDBRANCH   1   5
TORSDOF 2
ENDMDL
