MODEL 1
REMARK VINA RESULT:      -4.5      0.000      0.000
REMARK  2 active torsions:
REMARK  status: ('A' for Active; 'I' for Inactive)
REMARK    1  A    between atoms: C1_1  and  C4_4 
REMARK    2  A    between atoms: C1_1  and  O8_8 
ROOT
HETATM    1  C2  UNL     1     -34.403   4.818   4.698  1.00 20.00     0.020 A 
HETATM    2  C3  UNL     1     -35.529   5.774   4.450  1.00 20.00     0.020 A 
HETATM    3  C4  UNL     1     -34.278   6.258   5.153  1.00 20.00     0.044 A 
HETATM    4  C5  UNL     1     -34.381   6.520   6.634  1.00 20.00     0.026 C 
ENDROOT
BRANCH   3   5
HETATM    5  C1  UNL     1     -33.366   7.131   4.374  1.00 20.00     0.266 C 
HETATM    6  O7  UNL     1     -32.742   6.765   3.389  1.00 20.00    -0.264 OA
BRANCH   5   7
HETATM    7  O8  UNL     1     -33.341   8.376   4.931  1.00 20.00    -0.326 OA
HETATM    8  C6  UNL     1     -32.119   9.101   4.763  1.00 20.00     0.213 C 
ENDBRANCH   5   7
ENDBRANCH   3   5
TORSDOF 2
ENDMDL
MODEL 2
REMARK VINA RESULT:      -4.4      1.071      1.948
REMARK  2 active torsions:
REMARK  status: ('A' for Active; 'I' for Inactive)
REMARK    1  A    between atoms: C1_1  and  C4_4 
REMARK    2  A    between atoms: C1_1  and  O8_8 
ROOT
HETATM    1  C2  UNL     1     -35.497   5.696   4.494  1.00 20.00     0.020 A 
HETATM    2  C3  UNL     1     -34.544   4.878   5.310  1.00 20.00     0.020 A 
HETATM    3  C4  UNL     1     -34.012   5.993   4.433  1.00 20.00     0.044 A 
HETATM    4  C5  UNL     1     -33.284   5.588   3.176  1.00 20.00     0.026 C 
ENDROOT
BRANCH   3   5
HETATM    5  C1  UNL     1     -33.544   7.221   5.119  1.00 20.00     0.266 C 
HETATM    6  O7  UNL     1     -33.630   7.408   6.324  1.00 20.00    -0.264 OA
BRANCH   5   7
HETATM    7  O8  UNL     1     -33.018   8.083   4.202  1.00 20.00    -0.326 OA
HETATM    8  C6  UNL     1     -32.164   9.101   4.733  1.00 20.00     0.213 C 
ENDBRANCH   5   7
ENDBRANCH   3   5
TORSDOF 2
ENDMDL
MODEL 3
REMARK VINA RESULT:      -4.1      0.969      1.982
REMARK  2 active torsions:
REMARK  status: ('A' for Active; 'I' for Inactive)
REMARK    1  A    between atoms: C1_1  and  C4_4 
REMARK    2  A    between atoms: C1_1  and  O8_8 
ROOT
HETATM    1  C2  UNL     1     -34.703   5.447   6.297  1.00 20.00     0.020 A 
HETATM    2  C3  UNL     1     -34.115   4.668   5.161  1.00 20.00     0.020 A 
HETATM    3  C4  UNL     1     -34.651   6.063   4.914  1.00 20.00     0.044 A 
HETATM    4  C5  UNL     1     -35.955   6.173   4.164  1.00 20.00     0.026 C 
ENDROOT
BRANCH   3   5
HETATM    5  C1  UNL     1     -33.653   7.137   4.694  1.00 20.00     0.266 C 
HETATM    6  O7  UNL     1     -33.616   8.180   5.332  1.00 20.00    -0.264 OA
BRANCH   5   7
HETATM    7  O8  UNL     1     -32.808   6.775   3.686  1.00 20.00    -0.326 OA
HETATM    8  C6  UNL     1     -32.154   7.856   3.014  1.00 20.00     0.213 C 
ENDBRANCH   5   7
ENDBRANCH   3   5
TORSDOF 2
ENDMDL
MODEL 4
REMARK VINA RESULT:      -3.9      1.627      2.965
REMARK  2 active torsions:
REMARK  status: ('A' for Active; 'I' for Inactive)
REMARK    1  A    between atoms: C1_1  and  C4_4 
REMARK    2  A    between atoms: C1_1  and  O8_8 
ROOT
HETATM    1  C2  UNL     1     -33.918   8.658   4.773  1.00 20.00     0.020 A 
HETATM    2  C3  UNL     1     -32.544   8.111   5.010  1.00 20.00     0.020 A 
HETATM    3  C4  UNL     1     -33.752   7.226   5.241  1.00 20.00     0.044 A 
HETATM    4  C5  UNL     1     -34.118   6.927   6.673  1.00 20.00     0.026 C 
ENDROOT
BRANCH   3   5
HETATM    5  C1  UNL     1     -34.004   6.160   4.242  1.00 20.00     0.266 C 
HETATM    6  O7  UNL     1     -34.959   5.397   4.280  1.00 20.00    -0.264 OA
BRANCH   5   7
HETATM    7  O8  UNL     1     -33.017   6.174   3.301  1.00 20.00    -0.326 OA
HETATM    8  C6  UNL     1     -32.912   4.991   2.502  1.00 20.00     0.213 C 
ENDBRANCH   5   7
ENDBRANCH   3   5
TORSDOF 2
ENDMDL
MODEL 5
REMARK VINA RESULT:      -3.8      1.629      3.160
REMARK  2 active torsions:
REMARK  status: ('A' for Active; 'I' for Inactive)
REMARK    1  A    between atoms: C1_1  and  C4_4 
REMARK    2  A    between atoms: C1_1  and  O8_8 
ROOT
HETATM    1  C2  UNL     1     -32.849   8.502   3.114  1.00 20.00     0.020 A 
HETATM    2  C3  UNL     1     -31.726   7.859   3.868  1.00 20.00     0.020 A 
HETATM    3  C4  UNL     1     -33.150   7.685   4.354  1.00 20.00     0.044 A 
HETATM    4  C5  UNL     1     -33.549   8.444   5.594  1.00 20.00     0.026 C 
ENDROOT
BRANCH   3   5
HETATM    5  C1  UNL     1     -33.771   6.354   4.147  1.00 20.00     0.266 C 
HETATM    6  O7  UNL     1     -33.391   5.542   3.316  1.00 20.00    -0.264 OA
BRANCH   5   7
HETATM    7  O8  UNL     1     -34.811   6.197   5.016  1.00 20.00    -0.326 OA
HETATM    8  C6  UNL     1     -34.628   5.191   6.018  1.00 20.00     0.213 C 
ENDBRANCH   5   7
ENDBRANCH   3   5
TORSDOF 2
ENDMDL
MODEL 6
REMARK VINA RESULT:      -3.8      1.570      3.471
REMARK  2 active torsions:
REMARK  status: ('A' for Active; 'I' for Inactive)
REMARK    1  A    between atoms: C1_1  and  C4_4 
REMARK    2  A    between atoms: C1_1  and  O8_8 
ROOT
HETATM    1  C2  UNL     1     -31.636   7.999   3.919  1.00 20.00     0.020 A 
HETATM    2  C3  UNL     1     -32.739   8.543   3.064  1.00 20.00     0.020 A 
HETATM    3  C4  UNL     1     -32.908   7.196   3.736  1.00 20.00     0.044 A 
HETATM    4  C5  UNL     1     -32.828   5.976   2.855  1.00 20.00     0.026 C 
ENDROOT
BRANCH   3   5
HETATM    5  C1  UNL     1     -33.835   7.135   4.892  1.00 20.00     0.266 C 
HETATM    6  O7  UNL     1     -33.963   8.029   5.716  1.00 20.00    -0.264 OA
BRANCH   5   7
HETATM    7  O8  UNL     1     -34.501   5.945   4.880  1.00 20.00    -0.326 OA
HETATM    8  C6  UNL     1     -34.598   5.282   6.145  1.00 20.00     0.213 C 
ENDBRANCH   5   7
ENDBRANCH   3   5
TORSDOF 2
ENDMDL
MODEL 7
REMARK VINA RESULT:      -3.7      1.450      2.342
REMARK  2 active torsions:
REMARK  status: ('A' for Active; 'I' for Inactive)
REMARK    1  A    between atoms: C1_1  and  C4_4 
REMARK    2  A    between atoms: C1_1  and  O8_8 
ROOT
HETATM    1  C2  UNL     1     -33.739   5.754   6.427  1.00 20.00     0.020 A 
HETATM    2  C3  UNL     1     -35.050   5.855   5.710  1.00 20.00     0.020 A 
HETATM    3  C4  UNL     1     -33.947   6.845   5.397  1.00 20.00     0.044 A 
HETATM    4  C5  UNL     1     -34.121   8.250   5.914  1.00 20.00     0.026 C 
ENDROOT
BRANCH   3   5
HETATM    5  C1  UNL     1     -33.250   6.684   4.098  1.00 20.00     0.266 C 
HETATM    6  O7  UNL     1     -32.381   7.440   3.688  1.00 20.00    -0.264 OA
BRANCH   5   7
HETATM    7  O8  UNL     1     -33.732   5.581   3.455  1.00 20.00    -0.326 OA
HETATM    8  C6  UNL     1     -32.841   4.982   2.509  1.00 20.00     0.213 C 
ENDBRANCH   5   7
ENDBRANCH   3   5
TORSDOF 2
ENDMDL
MODEL 8
REMARK VINA RESULT:      -3.6     12.274     12.777
REMARK  2 active torsions:
REMARK  status: ('A' for Active; 'I' for Inactive)
REMARK    1  A    between atoms: C1_1  and  C4_4 
REMARK    2  A    between atoms: C1_1  and  O8_8 
ROOT
HETATM    1  C2  UNL     1     -33.267  17.316  -1.561  1.00 20.00     0.020 A 
HETATM    2  C3  UNL     1     -33.177  18.747  -1.993  1.00 20.00     0.020 A 
HETATM    3  C4  UNL     1     -33.034  18.398  -0.526  1.00 20.00     0.044 A 
HETATM    4  C5  UNL     1     -34.192  18.743   0.375  1.00 20.00     0.026 C 
ENDROOT
BRANCH   3   5
HETATM    5  C1  UNL     1     -31.674  18.489   0.056  1.00 20.00     0.266 C 
HETATM    6  O7  UNL     1     -30.663  18.712  -0.594  1.00 20.00    -0.264 OA
BRANCH   5   7
HETATM    7  O8  UNL     1     -31.741  18.286   1.404  1.00 20.00    -0.326 OA
HETATM    8  C6  UNL     1     -30.515  18.479   2.116  1.00 20.00     0.213 C 
ENDBRANCH   5   7
ENDBRANCH   3   5
TORSDOF 2
ENDMDL
MODEL 9
REMARK VINA RESULT:      -3.6      8.835      9.979
REMARK  2 active torsions:
REMARK  status: ('A' for Active; 'I' for Inactive)
REMARK    1  A    between atoms: C1_1  and  C4_4 
REMARK    2  A    between atoms: C1_1  and  O8_8 
ROOT
HETATM    1  C2  UNL     1     -42.074   8.242  -0.656  1.00 20.00     0.020 A 
HETATM    2  C3  UNL     1     -40.869   8.238   0.234  1.00 20.00     0.020 A 
HETATM    3  C4  UNL     1     -41.898   7.134   0.362  1.00 20.00     0.044 A 
HETATM    4  C5  UNL     1     -42.793   7.169   1.575  1.00 20.00     0.026 C 
ENDROOT
BRANCH   3   5
HETATM    5  C1  UNL     1     -41.517   5.799  -0.158  1.00 20.00     0.266 C 
HETATM    6  O7  UNL     1     -40.461   5.559  -0.726  1.00 20.00    -0.264 OA
BRANCH   5   7
HETATM    7  O8  UNL     1     -42.519   4.908   0.096  1.00 20.00    -0.326 OA
HETATM    8  C6  UNL     1     -43.365   4.600  -1.017  1.00 20.00     0.213 C 
ENDBRANCH   5   7
ENDBRANCH   3   5
TORSDOF 2
ENDMDL
