MODEL 1
REMARK VINA RESULT:      -5.0      0.000      0.000
REMARK  1 active torsions:
REMARK  status: ('A' for Active; 'I' for Inactive)
REMARK    1  A    between atoms: C1_1  and  C6_6 
ROOT
HETATM    1  C2  UNL     1     -33.819   5.027   6.033  1.00 20.00     0.005 C 
HETATM    2  C3  UNL     1     -34.079   6.513   6.310  1.00 20.00     0.006 C 
HETATM    3  C4  UNL     1     -33.473   5.507   3.600  1.00 20.00     0.017 C 
HETATM    4  C5  UNL     1     -35.599   5.786   4.645  1.00 20.00     0.010 C 
HETATM    5  C6  UNL     1     -33.735   7.004   3.834  1.00 20.00     0.059 C 
HETATM    6  C7  UNL     1     -34.405   4.831   4.624  1.00 20.00    -0.013 C 
HETATM    7  C8  UNL     1     -34.739   7.001   5.006  1.00 20.00    -0.003 C 
ENDROOT
BRANCH   5   8
HETATM    8  C1  UNL     1     -32.492   7.788   4.108  1.00 20.00     0.127 C 
HETATM    9  C9  UNL     1     -32.618   8.948   5.059  1.00 20.00     0.091 C 
HETATM   10  O10 UNL     1     -31.417   7.499   3.583  1.00 20.00    -0.298 OA
ENDBRANCH   5   8
TORSDOF 1
ENDMDL
MODEL 2
REMARK VINA RESULT:      -4.4      8.747     10.177
REMARK  1 active torsions:
REMARK  status: ('A' for Active; 'I' for Inactive)
REMARK    1  A    between atoms: C1_1  and  C6_6 
ROOT
HETATM    1  C2  UNL     1     -42.168   8.274  -0.754  1.00 20.00     0.005 C 
HETATM    2  C3  UNL     1     -43.058   7.778   0.392  1.00 20.00     0.006 C 
HETATM    3  C4  UNL     1     -40.801   6.179  -0.643  1.00 20.00     0.017 C 
HETATM    4  C5  UNL     1     -40.809   7.771   1.135  1.00 20.00     0.010 C 
HETATM    5  C6  UNL     1     -41.664   5.649   0.515  1.00 20.00     0.059 C 
HETATM    6  C7  UNL     1     -40.788   7.700  -0.393  1.00 20.00    -0.013 C 
HETATM    7  C8  UNL     1     -42.089   6.939   1.248  1.00 20.00    -0.003 C 
ENDROOT
BRANCH   5   8
HETATM    8  C1  UNL     1     -42.813   4.808   0.060  1.00 20.00     0.127 C 
HETATM    9  C9  UNL     1     -43.417   3.879   1.079  1.00 20.00     0.091 C 
HETATM   10  O10 UNL     1     -43.245   4.872  -1.090  1.00 20.00    -0.298 OA
ENDBRANCH   5   8
TORSDOF 1
ENDMDL
MODEL 3
REMARK VINA RESULT:      -4.0      8.871     10.459
REMARK  1 active torsions:
REMARK  status: ('A' for Active; 'I' for Inactive)
REMARK    1  A    between atoms: C1_1  and  C6_6 
ROOT
HETATM    1  C2  UNL     1     -40.674   6.843   1.042  1.00 20.00     0.005 C 
HETATM    2  C3  UNL     1     -40.852   6.386  -0.411  1.00 20.00     0.006 C 
HETATM    3  C4  UNL     1     -43.150   6.760   1.406  1.00 20.00     0.017 C 
HETATM    4  C5  UNL     1     -42.150   8.339  -0.077  1.00 20.00     0.010 C 
HETATM    5  C6  UNL     1     -43.372   6.309  -0.048  1.00 20.00     0.059 C 
HETATM    6  C7  UNL     1     -41.930   7.695   1.292  1.00 20.00    -0.013 C 
HETATM    7  C8  UNL     1     -42.213   6.992  -0.803  1.00 20.00    -0.003 C 
ENDROOT
BRANCH   5   8
HETATM    8  C1  UNL     1     -43.403   4.823  -0.209  1.00 20.00     0.127 C 
HETATM    9  C9  UNL     1     -43.417   4.004   1.054  1.00 20.00     0.091 C 
HETATM   10  O10 UNL     1     -43.417   4.294  -1.320  1.00 20.00    -0.298 OA
ENDBRANCH   5   8
TORSDOF 1
ENDMDL
MODEL 4
REMARK VINA RESULT:      -3.9      9.396     10.375
REMARK  1 active torsions:
REMARK  status: ('A' for Active; 'I' for Inactive)
REMARK    1  A    between atoms: C1_1  and  C6_6 
ROOT
HETATM    1  C2  UNL     1     -41.450  14.148   8.331  1.00 20.00     0.005 C 
HETATM    2  C3  UNL     1     -40.477  14.657   7.260  1.00 20.00     0.006 C 
HETATM    3  C4  UNL     1     -42.168  12.275   6.834  1.00 20.00     0.017 C 
HETATM    4  C5  UNL     1     -42.645  14.554   6.312  1.00 20.00     0.010 C 
HETATM    5  C6  UNL     1     -41.212  12.758   5.731  1.00 20.00     0.059 C 
HETATM    6  C7  UNL     1     -42.617  13.590   7.500  1.00 20.00    -0.013 C 
HETATM    7  C8  UNL     1     -41.184  14.286   5.942  1.00 20.00    -0.003 C 
ENDROOT
BRANCH   5   8
HETATM    8  C1  UNL     1     -39.864  12.115   5.792  1.00 20.00     0.127 C 
HETATM    9  C9  UNL     1     -39.178  11.852   4.479  1.00 20.00     0.091 C 
HETATM   10  O10 UNL     1     -39.338  11.818   6.865  1.00 20.00    -0.298 OA
ENDBRANCH   5   8
TORSDOF 1
ENDMDL
MODEL 5
REMARK VINA RESULT:      -3.9      1.484      2.329
REMARK  1 active torsions:
REMARK  status: ('A' for Active; 'I' for Inactive)
REMARK    1  A    between atoms: C1_1  and  C6_6 
ROOT
HETATM    1  C2  UNL     1     -35.859   5.825   4.455  1.00 20.00     0.005 C 
HETATM    2  C3  UNL     1     -34.742   6.234   3.486  1.00 20.00     0.006 C 
HETATM    3  C4  UNL     1     -34.389   6.335   6.417  1.00 20.00     0.017 C 
HETATM    4  C5  UNL     1     -33.907   4.542   4.918  1.00 20.00     0.010 C 
HETATM    5  C6  UNL     1     -33.240   6.745   5.480  1.00 20.00     0.059 C 
HETATM    6  C7  UNL     1     -35.085   5.207   5.632  1.00 20.00    -0.013 C 
HETATM    7  C8  UNL     1     -33.460   5.844   4.247  1.00 20.00    -0.003 C 
ENDROOT
BRANCH   5   8
HETATM    8  C1  UNL     1     -33.228   8.207   5.163  1.00 20.00     0.127 C 
HETATM    9  C9  UNL     1     -32.215   8.672   4.152  1.00 20.00     0.091 C 
HETATM   10  O10 UNL     1     -34.009   8.991   5.700  1.00 20.00    -0.298 OA
ENDBRANCH   5   8
TORSDOF 1
ENDMDL
MODEL 6
REMARK VINA RESULT:      -3.8     12.993     14.244
REMARK  1 active torsions:
REMARK  status: ('A' for Active; 'I' for Inactive)
REMARK    1  A    between atoms: C1_1  and  C6_6 
ROOT
HETATM    1  C2  UNL     1     -34.359  17.052  -7.331  1.00 20.00     0.005 C 
HETATM    2  C3  UNL     1     -34.059  15.548  -7.281  1.00 20.00     0.006 C 
HETATM    3  C4  UNL     1     -35.496  16.932  -5.104  1.00 20.00     0.017 C 
HETATM    4  C5  UNL     1     -36.395  15.853  -7.034  1.00 20.00     0.010 C 
HETATM    5  C6  UNL     1     -35.224  15.421  -5.019  1.00 20.00     0.059 C 
HETATM    6  C7  UNL     1     -35.714  17.157  -6.613  1.00 20.00    -0.013 C 
HETATM    7  C8  UNL     1     -35.257  14.979  -6.497  1.00 20.00    -0.003 C 
ENDROOT
BRANCH   5   8
HETATM    8  C1  UNL     1     -33.944  15.088  -4.320  1.00 20.00     0.127 C 
HETATM    9  C9  UNL     1     -33.270  16.206  -3.572  1.00 20.00     0.091 C 
HETATM   10  O10 UNL     1     -33.467  13.954  -4.353  1.00 20.00    -0.298 OA
ENDBRANCH   5   8
TORSDOF 1
ENDMDL
MODEL 7
REMARK VINA RESULT:      -3.7     10.228     11.075
REMARK  1 active torsions:
REMARK  status: ('A' for Active; 'I' for Inactive)
REMARK    1  A    between atoms: C1_1  and  C6_6 
ROOT
HETATM    1  C2  UNL     1     -42.492  12.344   6.829  1.00 20.00     0.005 C 
HETATM    2  C3  UNL     1     -42.926  13.765   7.213  1.00 20.00     0.006 C 
HETATM    3  C4  UNL     1     -40.095  13.062   6.748  1.00 20.00     0.017 C 
HETATM    4  C5  UNL     1     -41.704  13.878   5.187  1.00 20.00     0.010 C 
HETATM    5  C6  UNL     1     -40.489  14.500   7.124  1.00 20.00     0.059 C 
HETATM    6  C7  UNL     1     -41.292  12.590   5.900  1.00 20.00    -0.013 C 
HETATM    7  C8  UNL     1     -41.890  14.651   6.495  1.00 20.00    -0.003 C 
ENDROOT
BRANCH   5   8
HETATM    8  C1  UNL     1     -40.458  14.758   8.596  1.00 20.00     0.127 C 
HETATM    9  C9  UNL     1     -40.681  16.179   9.040  1.00 20.00     0.091 C 
HETATM   10  O10 UNL     1     -40.262  13.853   9.406  1.00 20.00    -0.298 OA
ENDBRANCH   5   8
TORSDOF 1
ENDMDL
MODEL 8
REMARK VINA RESULT:      -3.7     12.952     14.101
REMARK  1 active torsions:
REMARK  status: ('A' for Active; 'I' for Inactive)
REMARK    1  A    between atoms: C1_1  and  C6_6 
ROOT
HETATM    1  C2  UNL     1     -37.115  16.421  -5.685  1.00 20.00     0.005 C 
HETATM    2  C3  UNL     1     -36.017  17.194  -4.944  1.00 20.00     0.006 C 
HETATM    3  C4  UNL     1     -35.427  14.785  -6.546  1.00 20.00     0.017 C 
HETATM    4  C5  UNL     1     -35.427  17.069  -7.235  1.00 20.00     0.010 C 
HETATM    5  C6  UNL     1     -34.296  15.536  -5.825  1.00 20.00     0.059 C 
HETATM    6  C7  UNL     1     -36.392  15.918  -6.945  1.00 20.00    -0.013 C 
HETATM    7  C8  UNL     1     -34.784  17.000  -5.847  1.00 20.00    -0.003 C 
ENDROOT
BRANCH   5   8
HETATM    8  C1  UNL     1     -34.018  15.014  -4.452  1.00 20.00     0.127 C 
HETATM    9  C9  UNL     1     -33.155  15.869  -3.564  1.00 20.00     0.091 C 
HETATM   10  O10 UNL     1     -34.474  13.939  -4.066  1.00 20.00    -0.298 OA
ENDBRANCH   5   8
TORSDOF 1
ENDMDL
MODEL 9
REMARK VINA RESULT:      -3.6     11.416     12.796
REMARK  1 active torsions:
REMARK  status: ('A' for Active; 'I' for Inactive)
REMARK    1  A    between atoms: C1_1  and  C6_6 
ROOT
HETATM    1  C2  UNL     1     -26.532  -2.064  10.290  1.00 20.00     0.005 C 
HETATM    2  C3  UNL     1     -27.766  -1.168  10.125  1.00 20.00     0.006 C 
HETATM    3  C4  UNL     1     -27.528  -3.115  12.332  1.00 20.00     0.017 C 
HETATM    4  C5  UNL     1     -26.875  -0.821  12.292  1.00 20.00     0.010 C 
HETATM    5  C6  UNL     1     -28.779  -2.229  12.207  1.00 20.00     0.059 C 
HETATM    6  C7  UNL     1     -26.404  -2.196  11.817  1.00 20.00    -0.013 C 
HETATM    7  C8  UNL     1     -28.225  -0.934  11.577  1.00 20.00    -0.003 C 
ENDROOT
BRANCH   5   8
HETATM    8  C1  UNL     1     -29.877  -2.862  11.414  1.00 20.00     0.127 C 
HETATM    9  C9  UNL     1     -29.604  -4.232  10.852  1.00 20.00     0.091 C 
HETATM   10  O10 UNL     1     -30.953  -2.293  11.232  1.00 20.00    -0.298 OA
ENDBRANCH   5   8
TORSDOF 1
ENDMDL
