MODEL 1
REMARK VINA RESULT:      -4.1      0.000      0.000
REMARK  1 active torsions:
REMARK  status: ('A' for Active; 'I' for Inactive)
REMARK    1  A    between atoms: C1_1  and  C6_6 
ROOT
HETATM    1  C2  UNL     1     -33.077   7.590   5.507  1.00 20.00     0.022 C 
HETATM    2  C3  UNL     1     -33.584   5.782   3.785  1.00 20.00     0.022 C 
HETATM    3  C4  UNL     1     -34.220   7.180   6.427  1.00 20.00     0.074 C 
HETATM    4  C5  UNL     1     -34.768   5.224   4.564  1.00 20.00     0.074 C 
HETATM    5  C6  UNL     1     -33.356   7.275   4.035  1.00 20.00     0.048 C 
HETATM    6  S8  UNL     1     -34.537   5.394   6.356  1.00 20.00    -0.169 SA
ENDROOT
BRANCH   5   7
HETATM    7  C1  UNL     1     -32.196   7.732   3.201  1.00 20.00     0.235 C 
HETATM    8  O7  UNL     1     -32.150   7.610   1.982  1.00 20.00    -0.306 OA
ENDBRANCH   5   7
TORSDOF 1
ENDMDL
MODEL 2
REMARK VINA RESULT:      -4.0      2.423      3.533
REMARK  1 active torsions:
REMARK  status: ('A' for Active; 'I' for Inactive)
REMARK    1  A    between atoms: C1_1  and  C6_6 
ROOT
HETATM    1  C2  UNL     1     -33.039   6.282   3.615  1.00 20.00     0.022 C 
HETATM    2  C3  UNL     1     -34.009   7.060   5.838  1.00 20.00     0.022 C 
HETATM    3  C4  UNL     1     -32.595   7.680   3.201  1.00 20.00     0.074 C 
HETATM    4  C5  UNL     1     -33.644   8.521   5.607  1.00 20.00     0.074 C 
HETATM    5  C6  UNL     1     -34.260   6.294   4.536  1.00 20.00     0.048 C 
HETATM    6  S8  UNL     1     -32.122   8.690   4.633  1.00 20.00    -0.169 SA
ENDROOT
BRANCH   5   7
HETATM    7  C1  UNL     1     -34.643   4.885   4.873  1.00 20.00     0.235 C 
HETATM    8  O7  UNL     1     -34.039   3.901   4.458  1.00 20.00    -0.306 OA
ENDBRANCH   5   7
TORSDOF 1
ENDMDL
MODEL 3
REMARK VINA RESULT:      -3.7      0.591      1.955
REMARK  1 active torsions:
REMARK  status: ('A' for Active; 'I' for Inactive)
REMARK    1  A    between atoms: C1_1  and  C6_6 
ROOT
HETATM    1  C2  UNL     1     -33.596   5.940   3.407  1.00 20.00     0.022 C 
HETATM    2  C3  UNL     1     -33.516   7.788   5.158  1.00 20.00     0.022 C 
HETATM    3  C4  UNL     1     -33.949   4.855   4.417  1.00 20.00     0.074 C 
HETATM    4  C5  UNL     1     -33.863   6.856   6.311  1.00 20.00     0.074 C 
HETATM    5  C6  UNL     1     -32.779   7.080   4.019  1.00 20.00     0.048 C 
HETATM    6  S8  UNL     1     -34.954   5.505   5.782  1.00 20.00    -0.169 SA
ENDROOT
BRANCH   5   7
HETATM    7  C1  UNL     1     -32.455   8.086   2.956  1.00 20.00     0.235 C 
HETATM    8  O7  UNL     1     -32.127   7.782   1.813  1.00 20.00    -0.306 OA
ENDBRANCH   5   7
TORSDOF 1
ENDMDL
MODEL 4
REMARK VINA RESULT:      -3.6      1.754      1.890
REMARK  1 active torsions:
REMARK  status: ('A' for Active; 'I' for Inactive)
REMARK    1  A    between atoms: C1_1  and  C6_6 
ROOT
HETATM    1  C2  UNL     1     -33.741   7.157   5.517  1.00 20.00     0.022 C 
HETATM    2  C3  UNL     1     -32.618   6.463   3.338  1.00 20.00     0.022 C 
HETATM    3  C4  UNL     1     -34.785   6.048   5.454  1.00 20.00     0.074 C 
HETATM    4  C5  UNL     1     -33.569   5.297   3.096  1.00 20.00     0.074 C 
HETATM    5  C6  UNL     1     -33.261   7.602   4.134  1.00 20.00     0.048 C 
HETATM    6  S8  UNL     1     -34.135   4.554   4.652  1.00 20.00    -0.169 SA
ENDROOT
BRANCH   5   7
HETATM    7  C1  UNL     1     -32.260   8.707   4.287  1.00 20.00     0.235 C 
HETATM    8  O7  UNL     1     -32.187   9.422   5.281  1.00 20.00    -0.306 OA
ENDBRANCH   5   7
TORSDOF 1
ENDMDL
MODEL 5
REMARK VINA RESULT:      -3.5     15.681     16.570
REMARK  1 active torsions:
REMARK  status: ('A' for Active; 'I' for Inactive)
REMARK    1  A    between atoms: C1_1  and  C6_6 
ROOT
HETATM    1  C2  UNL     1     -23.961  17.660   9.702  1.00 20.00     0.022 C 
HETATM    2  C3  UNL     1     -21.756  18.569  10.596  1.00 20.00     0.022 C 
HETATM    3  C4  UNL     1     -24.517  17.354  11.088  1.00 20.00     0.074 C 
HETATM    4  C5  UNL     1     -22.130  18.338  12.055  1.00 20.00     0.074 C 
HETATM    5  C6  UNL     1     -22.434  17.582   9.643  1.00 20.00     0.048 C 
HETATM    6  S8  UNL     1     -23.914  18.531  12.332  1.00 20.00    -0.169 SA
ENDROOT
BRANCH   5   7
HETATM    7  C1  UNL     1     -21.976  17.871   8.245  1.00 20.00     0.235 C 
HETATM    8  O7  UNL     1     -21.719  16.998   7.422  1.00 20.00    -0.306 OA
ENDBRANCH   5   7
TORSDOF 1
ENDMDL
MODEL 6
REMARK VINA RESULT:      -3.5      2.773      3.410
REMARK  1 active torsions:
REMARK  status: ('A' for Active; 'I' for Inactive)
REMARK    1  A    between atoms: C1_1  and  C6_6 
ROOT
HETATM    1  C2  UNL     1     -33.703   8.022   5.389  1.00 20.00     0.022 C 
HETATM    2  C3  UNL     1     -33.501   6.220   3.600  1.00 20.00     0.022 C 
HETATM    3  C4  UNL     1     -32.521   8.825   4.863  1.00 20.00     0.074 C 
HETATM    4  C5  UNL     1     -32.302   6.876   2.926  1.00 20.00     0.074 C 
HETATM    5  C6  UNL     1     -33.583   6.525   5.098  1.00 20.00     0.048 C 
HETATM    6  S8  UNL     1     -32.358   8.685   3.060  1.00 20.00    -0.169 SA
ENDROOT
BRANCH   5   7
HETATM    7  C1  UNL     1     -34.771   5.810   5.670  1.00 20.00     0.235 C 
HETATM    8  O7  UNL     1     -35.194   4.745   5.234  1.00 20.00    -0.306 OA
ENDBRANCH   5   7
TORSDOF 1
ENDMDL
MODEL 7
REMARK VINA RESULT:      -3.2     12.231     13.058
REMARK  1 active torsions:
REMARK  status: ('A' for Active; 'I' for Inactive)
REMARK    1  A    between atoms: C1_1  and  C6_6 
ROOT
HETATM    1  C2  UNL     1     -33.499  16.483  -2.376  1.00 20.00     0.022 C 
HETATM    2  C3  UNL     1     -34.698  16.856  -4.592  1.00 20.00     0.022 C 
HETATM    3  C4  UNL     1     -33.617  17.940  -1.948  1.00 20.00     0.074 C 
HETATM    4  C5  UNL     1     -34.915  18.344  -4.345  1.00 20.00     0.074 C 
HETATM    5  C6  UNL     1     -33.448  16.312  -3.896  1.00 20.00     0.048 C 
HETATM    6  S8  UNL     1     -35.134  18.710  -2.581  1.00 20.00    -0.169 SA
ENDROOT
BRANCH   5   7
HETATM    7  C1  UNL     1     -33.307  14.857  -4.228  1.00 20.00     0.235 C 
HETATM    8  O7  UNL     1     -34.186  14.027  -4.022  1.00 20.00    -0.306 OA
ENDBRANCH   5   7
TORSDOF 1
ENDMDL
MODEL 8
REMARK VINA RESULT:      -3.2     12.481     13.442
REMARK  1 active torsions:
REMARK  status: ('A' for Active; 'I' for Inactive)
REMARK    1  A    between atoms: C1_1  and  C6_6 
ROOT
HETATM    1  C2  UNL     1     -34.125  14.641  -4.460  1.00 20.00     0.022 C 
HETATM    2  C3  UNL     1     -35.376  16.768  -5.092  1.00 20.00     0.022 C 
HETATM    3  C4  UNL     1     -32.941  15.390  -3.862  1.00 20.00     0.074 C 
HETATM    4  C5  UNL     1     -34.295  17.692  -4.546  1.00 20.00     0.074 C 
HETATM    5  C6  UNL     1     -34.825  15.424  -5.574  1.00 20.00     0.048 C 
HETATM    6  S8  UNL     1     -33.446  16.966  -3.115  1.00 20.00    -0.169 SA
ENDROOT
BRANCH   5   7
HETATM    7  C1  UNL     1     -35.957  14.607  -6.120  1.00 20.00     0.235 C 
HETATM    8  O7  UNL     1     -36.031  14.251  -7.291  1.00 20.00    -0.306 OA
ENDBRANCH   5   7
TORSDOF 1
ENDMDL
MODEL 9
REMARK VINA RESULT:      -3.1     12.450     13.343
REMARK  1 active torsions:
REMARK  status: ('A' for Active; 'I' for Inactive)
REMARK    1  A    between atoms: C1_1  and  C6_6 
ROOT
HETATM    1  C2  UNL     1     -34.515  17.621  -4.143  1.00 20.00     0.022 C 
HETATM    2  C3  UNL     1     -33.724  15.224  -3.800  1.00 20.00     0.022 C 
HETATM    3  C4  UNL     1     -34.614  17.482  -5.657  1.00 20.00     0.074 C 
HETATM    4  C5  UNL     1     -33.758  14.889  -5.286  1.00 20.00     0.074 C 
HETATM    5  C6  UNL     1     -33.453  16.707  -3.529  1.00 20.00     0.048 C 
HETATM    6  S8  UNL     1     -35.070  15.796  -6.152  1.00 20.00    -0.169 SA
ENDROOT
BRANCH   5   7
HETATM    7  C1  UNL     1     -33.405  16.925  -2.047  1.00 20.00     0.235 C 
HETATM    8  O7  UNL     1     -32.595  17.664  -1.497  1.00 20.00    -0.306 OA
ENDBRANCH   5   7
TORSDOF 1
ENDMDL
