MODEL 1
REMARK VINA RESULT:      -3.5      0.000      0.000
REMARK  0 active torsions:
REMARK  status: ('A' for Active; 'I' for Inactive)
ROOT
HETATM    1  C1  UNL     1     -36.515  16.899  -5.264  1.00 20.00     0.009 C 
HETATM    2  C2  UNL     1     -34.567  17.537  -6.711  1.00 20.00     0.009 C 
HETATM    3  C3  UNL     1     -36.109  15.692  -7.426  1.00 20.00     0.009 C 
HETATM    4  C4  UNL     1     -34.178  16.364  -4.528  1.00 20.00     0.048 C 
HETATM    5  C5  UNL     1     -35.719  14.520  -5.245  1.00 20.00     0.048 C 
HETATM    6  C6  UNL     1     -33.772  15.158  -6.690  1.00 20.00     0.048 C 
HETATM    7  C7  UNL     1     -35.057  17.394  -5.257  1.00 20.00    -0.011 C 
HETATM    8  C8  UNL     1     -36.609  15.538  -5.979  1.00 20.00    -0.011 C 
HETATM    9  C9  UNL     1     -34.649  16.180  -7.434  1.00 20.00    -0.011 C 
HETATM   10  C10 UNL     1     -34.265  15.010  -5.244  1.00 20.00     0.104 C 
HETATM   11  F11 UNL     1     -33.488  14.108  -4.595  1.00 20.00    -0.243 F 
ENDROOT
TORSDOF 0
ENDMDL
MODEL 2
REMARK VINA RESULT:      -3.5      0.024      2.272
REMARK  0 active torsions:
REMARK  status: ('A' for Active; 'I' for Inactive)
ROOT
HETATM    1  C1  UNL     1     -36.121  15.695  -7.437  1.00 20.00     0.009 C 
HETATM    2  C2  UNL     1     -36.513  16.901  -5.272  1.00 20.00     0.009 C 
HETATM    3  C3  UNL     1     -34.578  17.546  -6.733  1.00 20.00     0.009 C 
HETATM    4  C4  UNL     1     -35.709  14.526  -5.257  1.00 20.00     0.048 C 
HETATM    5  C5  UNL     1     -33.776  15.171  -6.718  1.00 20.00     0.048 C 
HETATM    6  C6  UNL     1     -34.169  16.375  -4.554  1.00 20.00     0.048 C 
HETATM    7  C7  UNL     1     -36.609  15.539  -5.985  1.00 20.00    -0.011 C 
HETATM    8  C8  UNL     1     -34.661  16.189  -7.456  1.00 20.00    -0.011 C 
HETATM    9  C9  UNL     1     -35.057  17.402  -5.277  1.00 20.00    -0.011 C 
HETATM   10  C10 UNL     1     -34.257  15.021  -5.268  1.00 20.00     0.104 C 
HETATM   11  F11 UNL     1     -33.472  14.122  -4.625  1.00 20.00    -0.243 F 
ENDROOT
TORSDOF 0
ENDMDL
MODEL 3
REMARK VINA RESULT:      -3.5      0.066      2.282
REMARK  0 active torsions:
REMARK  status: ('A' for Active; 'I' for Inactive)
ROOT
HETATM    1  C1  UNL     1     -34.562  17.578  -6.681  1.00 20.00     0.009 C 
HETATM    2  C2  UNL     1     -36.153  15.776  -7.400  1.00 20.00     0.009 C 
HETATM    3  C3  UNL     1     -36.482  16.933  -5.198  1.00 20.00     0.009 C 
HETATM    4  C4  UNL     1     -33.806  15.187  -6.738  1.00 20.00     0.048 C 
HETATM    5  C5  UNL     1     -34.136  16.345  -4.538  1.00 20.00     0.048 C 
HETATM    6  C6  UNL     1     -35.725  14.543  -5.258  1.00 20.00     0.048 C 
HETATM    7  C7  UNL     1     -34.685  16.241  -7.434  1.00 20.00    -0.011 C 
HETATM    8  C8  UNL     1     -35.017  17.406  -5.219  1.00 20.00    -0.011 C 
HETATM    9  C9  UNL     1     -36.618  15.592  -5.943  1.00 20.00    -0.011 C 
HETATM   10  C10 UNL     1     -34.264  15.010  -5.285  1.00 20.00     0.104 C 
HETATM   11  F11 UNL     1     -33.485  14.080  -4.679  1.00 20.00    -0.243 F 
ENDROOT
TORSDOF 0
ENDMDL
MODEL 4
REMARK VINA RESULT:      -3.4     24.691     26.035
REMARK  0 active torsions:
REMARK  status: ('A' for Active; 'I' for Inactive)
ROOT
HETATM    1  C1  UNL     1     -28.724  -2.806  10.413  1.00 20.00     0.009 C 
HETATM    2  C2  UNL     1     -28.598  -1.191  12.328  1.00 20.00     0.009 C 
HETATM    3  C3  UNL     1     -27.667  -0.554  10.087  1.00 20.00     0.009 C 
HETATM    4  C4  UNL     1     -27.173  -3.255  12.332  1.00 20.00     0.048 C 
HETATM    5  C5  UNL     1     -26.244  -2.617  10.092  1.00 20.00     0.048 C 
HETATM    6  C6  UNL     1     -26.118  -1.003  12.006  1.00 20.00     0.048 C 
HETATM    7  C7  UNL     1     -28.544  -2.680  11.937  1.00 20.00    -0.011 C 
HETATM    8  C8  UNL     1     -27.608  -2.037   9.681  1.00 20.00    -0.011 C 
HETATM    9  C9  UNL     1     -27.481  -0.412  11.609  1.00 20.00    -0.011 C 
HETATM   10  C10 UNL     1     -26.060  -2.484  11.610  1.00 20.00     0.104 C 
HETATM   11  F11 UNL     1     -24.856  -2.997  11.963  1.00 20.00    -0.243 F 
ENDROOT
TORSDOF 0
ENDMDL
MODEL 5
REMARK VINA RESULT:      -3.4     24.678     25.943
REMARK  0 active torsions:
REMARK  status: ('A' for Active; 'I' for Inactive)
ROOT
HETATM    1  C1  UNL     1     -28.726  -1.204  12.312  1.00 20.00     0.009 C 
HETATM    2  C2  UNL     1     -27.626  -0.440  10.191  1.00 20.00     0.009 C 
HETATM    3  C3  UNL     1     -28.712  -2.699  10.297  1.00 20.00     0.009 C 
HETATM    4  C4  UNL     1     -26.228  -1.019  12.191  1.00 20.00     0.048 C 
HETATM    5  C5  UNL     1     -27.314  -3.276  12.296  1.00 20.00     0.048 C 
HETATM    6  C6  UNL     1     -26.214  -2.512  10.176  1.00 20.00     0.048 C 
HETATM    7  C7  UNL     1     -27.555  -0.392  11.729  1.00 20.00    -0.011 C 
HETATM    8  C8  UNL     1     -28.648  -2.666  11.834  1.00 20.00    -0.011 C 
HETATM    9  C9  UNL     1     -27.541  -1.897   9.700  1.00 20.00    -0.011 C 
HETATM   10  C10 UNL     1     -26.147  -2.473  11.708  1.00 20.00     0.104 C 
HETATM   11  F11 UNL     1     -24.975  -3.016  12.120  1.00 20.00    -0.243 F 
ENDROOT
TORSDOF 0
ENDMDL
MODEL 6
REMARK VINA RESULT:      -3.3     24.723     26.115
REMARK  0 active torsions:
REMARK  status: ('A' for Active; 'I' for Inactive)
ROOT
HETATM    1  C1  UNL     1     -26.209  -2.648  10.192  1.00 20.00     0.009 C 
HETATM    2  C2  UNL     1     -27.643  -0.589  10.215  1.00 20.00     0.009 C 
HETATM    3  C3  UNL     1     -26.252  -1.171  12.220  1.00 20.00     0.009 C 
HETATM    4  C4  UNL     1     -28.706  -2.859  10.295  1.00 20.00     0.048 C 
HETATM    5  C5  UNL     1     -27.316  -3.440  12.299  1.00 20.00     0.048 C 
HETATM    6  C6  UNL     1     -28.749  -1.383  12.321  1.00 20.00     0.048 C 
HETATM    7  C7  UNL     1     -27.541  -2.042   9.712  1.00 20.00    -0.011 C 
HETATM    8  C8  UNL     1     -26.141  -2.626  11.731  1.00 20.00    -0.011 C 
HETATM    9  C9  UNL     1     -27.583  -0.554  11.753  1.00 20.00    -0.011 C 
HETATM   10  C10 UNL     1     -28.643  -2.831  11.827  1.00 20.00     0.104 C 
HETATM   11  F11 UNL     1     -29.673  -3.554  12.332  1.00 20.00    -0.243 F 
ENDROOT
TORSDOF 0
ENDMDL
MODEL 7
REMARK VINA RESULT:      -3.3     13.091     14.151
REMARK  0 active torsions:
REMARK  status: ('A' for Active; 'I' for Inactive)
ROOT
HETATM    1  C1  UNL     1     -43.361   7.504  -0.029  1.00 20.00     0.009 C 
HETATM    2  C2  UNL     1     -41.332   7.381   1.441  1.00 20.00     0.009 C 
HETATM    3  C3  UNL     1     -41.333   6.240  -0.793  1.00 20.00     0.009 C 
HETATM    4  C4  UNL     1     -43.417   6.140   2.075  1.00 20.00     0.048 C 
HETATM    5  C5  UNL     1     -43.417   5.000  -0.159  1.00 20.00     0.048 C 
HETATM    6  C6  UNL     1     -41.390   4.877   1.311  1.00 20.00     0.048 C 
HETATM    7  C7  UNL     1     -42.872   7.425   1.429  1.00 20.00    -0.011 C 
HETATM    8  C8  UNL     1     -42.872   6.277  -0.820  1.00 20.00    -0.011 C 
HETATM    9  C9  UNL     1     -40.830   6.153   0.659  1.00 20.00    -0.011 C 
HETATM   10  C10 UNL     1     -42.923   4.917   1.292  1.00 20.00     0.104 C 
HETATM   11  F11 UNL     1     -43.409   3.790   1.867  1.00 20.00    -0.243 F 
ENDROOT
TORSDOF 0
ENDMDL
MODEL 8
REMARK VINA RESULT:      -3.3     12.993     14.221
REMARK  0 active torsions:
REMARK  status: ('A' for Active; 'I' for Inactive)
ROOT
HETATM    1  C1  UNL     1     -41.291   6.348  -0.790  1.00 20.00     0.009 C 
HETATM    2  C2  UNL     1     -43.323   7.613  -0.041  1.00 20.00     0.009 C 
HETATM    3  C3  UNL     1     -41.316   7.464   1.457  1.00 20.00     0.009 C 
HETATM    4  C4  UNL     1     -43.391   5.111  -0.198  1.00 20.00     0.048 C 
HETATM    5  C5  UNL     1     -41.385   4.963   1.299  1.00 20.00     0.048 C 
HETATM    6  C6  UNL     1     -43.416   6.228   2.047  1.00 20.00     0.048 C 
HETATM    7  C7  UNL     1     -42.829   6.392  -0.839  1.00 20.00    -0.011 C 
HETATM    8  C8  UNL     1     -40.809   6.243   0.670  1.00 20.00    -0.011 C 
HETATM    9  C9  UNL     1     -42.855   7.517   1.423  1.00 20.00    -0.011 C 
HETATM   10  C10 UNL     1     -42.918   5.010   1.258  1.00 20.00     0.104 C 
HETATM   11  F11 UNL     1     -43.417   3.879   1.814  1.00 20.00    -0.243 F 
ENDROOT
TORSDOF 0
ENDMDL
MODEL 9
REMARK VINA RESULT:      -3.3     13.350     14.355
REMARK  0 active torsions:
REMARK  status: ('A' for Active; 'I' for Inactive)
ROOT
HETATM    1  C1  UNL     1     -41.885  13.929   8.518  1.00 20.00     0.009 C 
HETATM    2  C2  UNL     1     -41.237  15.634   6.796  1.00 20.00     0.009 C 
HETATM    3  C3  UNL     1     -43.417  14.411   6.590  1.00 20.00     0.009 C 
HETATM    4  C4  UNL     1     -40.021  13.444   6.913  1.00 20.00     0.048 C 
HETATM    5  C5  UNL     1     -42.200  12.222   6.708  1.00 20.00     0.048 C 
HETATM    6  C6  UNL     1     -41.552  13.926   4.987  1.00 20.00     0.048 C 
HETATM    7  C7  UNL     1     -40.705  14.543   7.744  1.00 20.00    -0.011 C 
HETATM    8  C8  UNL     1     -42.900  13.313   7.536  1.00 20.00    -0.011 C 
HETATM    9  C9  UNL     1     -42.247  15.029   5.804  1.00 20.00    -0.011 C 
HETATM   10  C10 UNL     1     -41.028  12.835   5.930  1.00 20.00     0.104 C 
HETATM   11  F11 UNL     1     -40.417  11.868   5.203  1.00 20.00    -0.243 F 
ENDROOT
TORSDOF 0
ENDMDL
