MODEL 1
REMARK VINA RESULT:      -5.4      0.000      0.000
REMARK  2 active torsions:
REMARK  status: ('A' for Active; 'I' for Inactive)
REMARK    1  A    between atoms: C1_1  and  C2_2 
REMARK    2  A    between atoms: C1_1  and  C3_3 
ROOT
HETATM    1  C1  UNL     1     -33.820   6.748   5.772  1.00 20.00     0.341 C 
HETATM    2  F4  UNL     1     -34.415   7.400   6.811  1.00 20.00    -0.234 F 
ENDROOT
BRANCH   1   3
HETATM    3  C2  UNL     1     -33.562   7.755   4.673  1.00 20.00     0.395 C 
HETATM    4  F5  UNL     1     -32.687   7.230   3.780  1.00 20.00    -0.211 F 
HETATM    5  F6  UNL     1     -32.981   8.867   5.185  1.00 20.00    -0.211 F 
ENDBRANCH   1   3
BRANCH   1   6
HETATM    6  C3  UNL     1     -34.732   5.626   5.340  1.00 20.00     0.423 C 
HETATM    7  F7  UNL     1     -35.268   5.007   6.416  1.00 20.00    -0.168 F 
HETATM    8  F8  UNL     1     -34.057   4.697   4.630  1.00 20.00    -0.168 F 
HETATM    9  F9  UNL     1     -35.747   6.077   4.575  1.00 20.00    -0.168 F 
ENDBRANCH   1   6
TORSDOF 2
ENDMDL
MODEL 2
REMARK VINA RESULT:      -5.4      0.022      1.260
REMARK  2 active torsions:
REMARK  status: ('A' for Active; 'I' for Inactive)
REMARK    1  A    between atoms: C1_1  and  C2_2 
REMARK    2  A    between atoms: C1_1  and  C3_3 
ROOT
HETATM    1  C1  UNL     1     -33.822   6.748   5.777  1.00 20.00     0.341 C 
HETATM    2  F4  UNL     1     -34.417   7.395   6.819  1.00 20.00    -0.234 F 
ENDROOT
BRANCH   1   3
HETATM    3  C2  UNL     1     -33.583   7.756   4.675  1.00 20.00     0.395 C 
HETATM    4  F5  UNL     1     -32.734   7.226   3.758  1.00 20.00    -0.211 F 
HETATM    5  F6  UNL     1     -32.979   8.861   5.175  1.00 20.00    -0.211 F 
ENDBRANCH   1   3
BRANCH   1   6
HETATM    6  C3  UNL     1     -34.725   5.616   5.352  1.00 20.00     0.423 C 
HETATM    7  F7  UNL     1     -35.738   6.077   4.585  1.00 20.00    -0.168 F 
HETATM    8  F8  UNL     1     -35.272   5.001   6.423  1.00 20.00    -0.168 F 
HETATM    9  F9  UNL     1     -34.056   4.688   4.638  1.00 20.00    -0.168 F 
ENDBRANCH   1   6
TORSDOF 2
ENDMDL
MODEL 3
REMARK VINA RESULT:      -5.2      0.980      2.133
REMARK  2 active torsions:
REMARK  status: ('A' for Active; 'I' for Inactive)
REMARK    1  A    between atoms: C1_1  and  C2_2 
REMARK    2  A    between atoms: C1_1  and  C3_3 
ROOT
HETATM    1  C1  UNL     1     -33.873   6.818   4.278  1.00 20.00     0.341 C 
HETATM    2  F4  UNL     1     -32.940   6.164   3.529  1.00 20.00    -0.234 F 
ENDROOT
BRANCH   1   3
HETATM    3  C2  UNL     1     -33.145   7.666   5.297  1.00 20.00     0.395 C 
HETATM    4  F5  UNL     1     -33.926   8.718   5.646  1.00 20.00    -0.211 F 
HETATM    5  F6  UNL     1     -32.014   8.179   4.756  1.00 20.00    -0.211 F 
ENDBRANCH   1   3
BRANCH   1   6
HETATM    6  C3  UNL     1     -34.775   5.785   4.909  1.00 20.00     0.423 C 
HETATM    7  F7  UNL     1     -36.027   5.877   4.407  1.00 20.00    -0.168 F 
HETATM    8  F8  UNL     1     -34.857   5.961   6.244  1.00 20.00    -0.168 F 
HETATM    9  F9  UNL     1     -34.330   4.533   4.681  1.00 20.00    -0.168 F 
ENDBRANCH   1   6
TORSDOF 2
ENDMDL
MODEL 4
REMARK VINA RESULT:      -5.2      0.986      2.096
REMARK  2 active torsions:
REMARK  status: ('A' for Active; 'I' for Inactive)
REMARK    1  A    between atoms: C1_1  and  C2_2 
REMARK    2  A    between atoms: C1_1  and  C3_3 
ROOT
HETATM    1  C1  UNL     1     -33.852   6.810   4.263  1.00 20.00     0.341 C 
HETATM    2  F4  UNL     1     -32.907   6.137   3.547  1.00 20.00    -0.234 F 
ENDROOT
BRANCH   1   3
HETATM    3  C2  UNL     1     -33.143   7.665   5.289  1.00 20.00     0.395 C 
HETATM    4  F5  UNL     1     -33.933   8.716   5.622  1.00 20.00    -0.211 F 
HETATM    5  F6  UNL     1     -32.006   8.180   4.762  1.00 20.00    -0.211 F 
ENDBRANCH   1   3
BRANCH   1   6
HETATM    6  C3  UNL     1     -34.781   5.795   4.883  1.00 20.00     0.423 C 
HETATM    7  F7  UNL     1     -34.349   4.539   4.631  1.00 20.00    -0.168 F 
HETATM    8  F8  UNL     1     -36.029   5.906   4.381  1.00 20.00    -0.168 F 
HETATM    9  F9  UNL     1     -34.856   5.944   6.221  1.00 20.00    -0.168 F 
ENDBRANCH   1   6
TORSDOF 2
ENDMDL
MODEL 5
REMARK VINA RESULT:      -5.2      0.962      3.245
REMARK  2 active torsions:
REMARK  status: ('A' for Active; 'I' for Inactive)
REMARK    1  A    between atoms: C1_1  and  C2_2 
REMARK    2  A    between atoms: C1_1  and  C3_3 
ROOT
HETATM    1  C1  UNL     1     -33.983   7.060   5.601  1.00 20.00     0.341 C 
HETATM    2  F4  UNL     1     -33.168   6.888   6.681  1.00 20.00    -0.234 F 
ENDROOT
BRANCH   1   3
HETATM    3  C2  UNL     1     -34.599   5.722   5.261  1.00 20.00     0.395 C 
HETATM    4  F5  UNL     1     -35.732   5.919   4.541  1.00 20.00    -0.211 F 
HETATM    5  F6  UNL     1     -34.963   5.073   6.394  1.00 20.00    -0.211 F 
ENDBRANCH   1   3
BRANCH   1   6
HETATM    6  C3  UNL     1     -33.154   7.630   4.476  1.00 20.00     0.423 C 
HETATM    7  F7  UNL     1     -32.002   8.152   4.951  1.00 20.00    -0.168 F 
HETATM    8  F8  UNL     1     -33.816   8.617   3.835  1.00 20.00    -0.168 F 
HETATM    9  F9  UNL     1     -32.835   6.685   3.568  1.00 20.00    -0.168 F 
ENDBRANCH   1   6
TORSDOF 2
ENDMDL
MODEL 6
REMARK VINA RESULT:      -5.1      1.196      3.198
REMARK  2 active torsions:
REMARK  status: ('A' for Active; 'I' for Inactive)
REMARK    1  A    between atoms: C1_1  and  C2_2 
REMARK    2  A    between atoms: C1_1  and  C3_3 
ROOT
HETATM    1  C1  UNL     1     -34.439   5.958   4.834  1.00 20.00     0.341 C 
HETATM    2  F4  UNL     1     -35.625   6.154   4.191  1.00 20.00    -0.234 F 
ENDROOT
BRANCH   1   3
HETATM    3  C2  UNL     1     -34.730   5.761   6.305  1.00 20.00     0.395 C 
HETATM    4  F5  UNL     1     -34.704   6.963   6.933  1.00 20.00    -0.211 F 
HETATM    5  F6  UNL     1     -33.764   5.000   6.874  1.00 20.00    -0.211 F 
ENDBRANCH   1   3
BRANCH   1   6
HETATM    6  C3  UNL     1     -33.557   7.152   4.564  1.00 20.00     0.423 C 
HETATM    7  F7  UNL     1     -32.809   6.951   3.456  1.00 20.00    -0.168 F 
HETATM    8  F8  UNL     1     -32.711   7.375   5.592  1.00 20.00    -0.168 F 
HETATM    9  F9  UNL     1     -34.284   8.272   4.373  1.00 20.00    -0.168 F 
ENDBRANCH   1   6
TORSDOF 2
ENDMDL
MODEL 7
REMARK VINA RESULT:      -5.1      1.101      3.375
REMARK  2 active torsions:
REMARK  status: ('A' for Active; 'I' for Inactive)
REMARK    1  A    between atoms: C1_1  and  C2_2 
REMARK    2  A    between atoms: C1_1  and  C3_3 
ROOT
HETATM    1  C1  UNL     1     -33.853   7.947   4.608  1.00 20.00     0.341 C 
HETATM    2  F4  UNL     1     -33.672   8.855   5.609  1.00 20.00    -0.234 F 
ENDROOT
BRANCH   1   3
HETATM    3  C2  UNL     1     -34.156   6.607   5.240  1.00 20.00     0.395 C 
HETATM    4  F5  UNL     1     -35.239   6.060   4.635  1.00 20.00    -0.211 F 
HETATM    5  F6  UNL     1     -34.476   6.768   6.547  1.00 20.00    -0.211 F 
ENDBRANCH   1   3
BRANCH   1   6
HETATM    6  C3  UNL     1     -32.605   7.930   3.761  1.00 20.00     0.423 C 
HETATM    7  F7  UNL     1     -31.521   8.250   4.503  1.00 20.00    -0.168 F 
HETATM    8  F8  UNL     1     -32.688   8.824   2.753  1.00 20.00    -0.168 F 
HETATM    9  F9  UNL     1     -32.389   6.713   3.220  1.00 20.00    -0.168 F 
ENDBRANCH   1   6
TORSDOF 2
ENDMDL
MODEL 8
REMARK VINA RESULT:      -5.0      1.292      2.515
REMARK  2 active torsions:
REMARK  status: ('A' for Active; 'I' for Inactive)
REMARK    1  A    between atoms: C1_1  and  C2_2 
REMARK    2  A    between atoms: C1_1  and  C3_3 
ROOT
HETATM    1  C1  UNL     1     -33.583   6.476   4.845  1.00 20.00     0.341 C 
HETATM    2  F4  UNL     1     -33.913   7.731   4.426  1.00 20.00    -0.234 F 
ENDROOT
BRANCH   1   3
HETATM    3  C2  UNL     1     -33.887   5.511   3.721  1.00 20.00     0.395 C 
HETATM    4  F5  UNL     1     -33.882   4.244   4.204  1.00 20.00    -0.211 F 
HETATM    5  F6  UNL     1     -32.917   5.575   2.776  1.00 20.00    -0.211 F 
ENDBRANCH   1   3
BRANCH   1   6
HETATM    6  C3  UNL     1     -34.366   6.182   6.101  1.00 20.00     0.423 C 
HETATM    7  F7  UNL     1     -33.745   5.233   6.837  1.00 20.00    -0.168 F 
HETATM    8  F8  UNL     1     -35.603   5.726   5.808  1.00 20.00    -0.168 F 
HETATM    9  F9  UNL     1     -34.500   7.280   6.872  1.00 20.00    -0.168 F 
ENDBRANCH   1   6
TORSDOF 2
ENDMDL
MODEL 9
REMARK VINA RESULT:      -5.0      1.003      1.822
REMARK  2 active torsions:
REMARK  status: ('A' for Active; 'I' for Inactive)
REMARK    1  A    between atoms: C1_1  and  C2_2 
REMARK    2  A    between atoms: C1_1  and  C3_3 
ROOT
HETATM    1  C1  UNL     1     -34.087   5.806   5.840  1.00 20.00     0.341 C 
HETATM    2  F4  UNL     1     -35.072   5.379   6.680  1.00 20.00    -0.234 F 
ENDROOT
BRANCH   1   3
HETATM    3  C2  UNL     1     -34.014   7.314   5.932  1.00 20.00     0.395 C 
HETATM    4  F5  UNL     1     -32.724   7.711   5.794  1.00 20.00    -0.211 F 
HETATM    5  F6  UNL     1     -34.423   7.728   7.155  1.00 20.00    -0.211 F 
ENDBRANCH   1   3
BRANCH   1   6
HETATM    6  C3  UNL     1     -34.412   5.317   4.450  1.00 20.00     0.423 C 
HETATM    7  F7  UNL     1     -34.187   3.988   4.349  1.00 20.00    -0.168 F 
HETATM    8  F8  UNL     1     -33.644   5.931   3.525  1.00 20.00    -0.168 F 
HETATM    9  F9  UNL     1     -35.703   5.541   4.134  1.00 20.00    -0.168 F 
ENDBRANCH   1   6
TORSDOF 2
ENDMDL
