MODEL 1
REMARK VINA RESULT:      -4.7      0.000      0.000
REMARK  1 active torsions:
REMARK  status: ('A' for Active; 'I' for Inactive)
REMARK    1  A    between atoms: C7_7  and  O8_8 
ROOT
HETATM    1  C1  UNL     1     -34.133   4.983   5.970  1.00 20.00    -0.025 C 
HETATM    2  C2  UNL     1     -34.328   6.227   6.434  1.00 20.00    -0.023 C 
HETATM    3  C3  UNL     1     -35.525   6.055   4.463  1.00 20.00     0.019 C 
HETATM    4  C4  UNL     1     -33.239   5.807   3.827  1.00 20.00     0.041 C 
HETATM    5  C5  UNL     1     -34.394   5.018   4.484  1.00 20.00     0.011 C 
HETATM    6  C6  UNL     1     -34.719   7.089   5.255  1.00 20.00     0.037 C 
HETATM    7  C7  UNL     1     -33.497   7.257   4.323  1.00 20.00     0.126 C 
ENDROOT
BRANCH   7   8
HETATM    8  O8  UNL     1     -32.372   7.795   4.990  1.00 20.00    -0.395 OA
HETATM    9  H18 UNL     1     -32.016   8.504   4.427  1.00 20.00     0.210 HD
ENDBRANCH   7   8
TORSDOF 1
ENDMDL
MODEL 2
REMARK VINA RESULT:      -4.0     15.468     16.459
REMARK  1 active torsions:
REMARK  status: ('A' for Active; 'I' for Inactive)
REMARK    1  A    between atoms: C7_7  and  O8_8 
ROOT
HETATM    1  C1  UNL     1     -24.105  18.300   9.938  1.00 20.00    -0.025 C 
HETATM    2  C2  UNL     1     -24.930  19.021  10.712  1.00 20.00    -0.023 C 
HETATM    3  C3  UNL     1     -23.185  18.327  12.062  1.00 20.00     0.019 C 
HETATM    4  C4  UNL     1     -24.293  16.321  11.395  1.00 20.00     0.041 C 
HETATM    5  C5  UNL     1     -23.319  17.392  10.852  1.00 20.00     0.011 C 
HETATM    6  C6  UNL     1     -24.692  18.591  12.143  1.00 20.00     0.037 C 
HETATM    7  C7  UNL     1     -25.214  17.149  12.332  1.00 20.00     0.126 C 
ENDROOT
BRANCH   7   8
HETATM    8  O8  UNL     1     -26.579  17.013  11.985  1.00 20.00    -0.395 OA
HETATM    9  H18 UNL     1     -26.694  17.422  11.110  1.00 20.00     0.210 HD
ENDBRANCH   7   8
TORSDOF 1
ENDMDL
MODEL 3
REMARK VINA RESULT:      -3.8      8.535      9.469
REMARK  1 active torsions:
REMARK  status: ('A' for Active; 'I' for Inactive)
REMARK    1  A    between atoms: C7_7  and  O8_8 
ROOT
HETATM    1  C1  UNL     1     -42.219   8.003  -0.673  1.00 20.00    -0.025 C 
HETATM    2  C2  UNL     1     -43.053   7.561   0.279  1.00 20.00    -0.023 C 
HETATM    3  C3  UNL     1     -40.955   7.696   1.241  1.00 20.00     0.019 C 
HETATM    4  C4  UNL     1     -40.755   6.033  -0.459  1.00 20.00     0.041 C 
HETATM    5  C5  UNL     1     -40.828   7.567  -0.283  1.00 20.00     0.011 C 
HETATM    6  C6  UNL     1     -42.216   6.828   1.304  1.00 20.00     0.037 C 
HETATM    7  C7  UNL     1     -41.680   5.520   0.678  1.00 20.00     0.126 C 
ENDROOT
BRANCH   7   8
HETATM    8  O8  UNL     1     -42.713   4.689   0.185  1.00 20.00    -0.395 OA
HETATM    9  H18 UNL     1     -43.317   5.255  -0.327  1.00 20.00     0.210 HD
ENDBRANCH   7   8
TORSDOF 1
ENDMDL
MODEL 4
REMARK VINA RESULT:      -3.8      8.539      9.590
REMARK  1 active torsions:
REMARK  status: ('A' for Active; 'I' for Inactive)
REMARK    1  A    between atoms: C7_7  and  O8_8 
ROOT
HETATM    1  C1  UNL     1     -41.052   7.387   0.857  1.00 20.00    -0.025 C 
HETATM    2  C2  UNL     1     -40.775   6.379   0.016  1.00 20.00    -0.023 C 
HETATM    3  C3  UNL     1     -42.938   7.057  -0.442  1.00 20.00     0.019 C 
HETATM    4  C4  UNL     1     -43.009   6.215   1.790  1.00 20.00     0.041 C 
HETATM    5  C5  UNL     1     -42.553   7.456   0.989  1.00 20.00     0.011 C 
HETATM    6  C6  UNL     1     -42.096   5.778  -0.412  1.00 20.00     0.037 C 
HETATM    7  C7  UNL     1     -42.738   5.055   0.794  1.00 20.00     0.126 C 
ENDROOT
BRANCH   7   8
HETATM    8  O8  UNL     1     -41.891   4.067   1.350  1.00 20.00    -0.395 OA
HETATM    9  H18 UNL     1     -41.337   3.724   0.628  1.00 20.00     0.210 HD
ENDBRANCH   7   8
TORSDOF 1
ENDMDL
MODEL 5
REMARK VINA RESULT:      -3.8      8.446      9.474
REMARK  1 active torsions:
REMARK  status: ('A' for Active; 'I' for Inactive)
REMARK    1  A    between atoms: C7_7  and  O8_8 
ROOT
HETATM    1  C1  UNL     1     -40.766   6.066  -0.527  1.00 20.00    -0.025 C 
HETATM    2  C2  UNL     1     -42.037   5.638  -0.536  1.00 20.00    -0.023 C 
HETATM    3  C3  UNL     1     -42.108   7.941  -0.730  1.00 20.00     0.019 C 
HETATM    4  C4  UNL     1     -41.157   7.526   1.420  1.00 20.00     0.041 C 
HETATM    5  C5  UNL     1     -40.787   7.508  -0.081  1.00 20.00     0.011 C 
HETATM    6  C6  UNL     1     -42.903   6.796  -0.095  1.00 20.00     0.037 C 
HETATM    7  C7  UNL     1     -42.646   7.080   1.403  1.00 20.00     0.126 C 
ENDROOT
BRANCH   7   8
HETATM    8  O8  UNL     1     -42.866   5.946   2.219  1.00 20.00    -0.395 OA
HETATM    9  H18 UNL     1     -43.388   5.313   1.696  1.00 20.00     0.210 HD
ENDBRANCH   7   8
TORSDOF 1
ENDMDL
MODEL 6
REMARK VINA RESULT:      -3.7      1.477      2.537
REMARK  1 active torsions:
REMARK  status: ('A' for Active; 'I' for Inactive)
REMARK    1  A    between atoms: C7_7  and  O8_8 
ROOT
HETATM    1  C1  UNL     1     -33.269   6.180   3.776  1.00 20.00    -0.025 C 
HETATM    2  C2  UNL     1     -33.765   4.968   4.066  1.00 20.00    -0.023 C 
HETATM    3  C3  UNL     1     -35.499   6.477   4.321  1.00 20.00     0.019 C 
HETATM    4  C4  UNL     1     -33.895   7.084   5.982  1.00 20.00     0.041 C 
HETATM    5  C5  UNL     1     -34.151   7.196   4.461  1.00 20.00     0.011 C 
HETATM    6  C6  UNL     1     -34.977   5.179   4.945  1.00 20.00     0.037 C 
HETATM    7  C7  UNL     1     -34.518   5.703   6.325  1.00 20.00     0.126 C 
ENDROOT
BRANCH   7   8
HETATM    8  O8  UNL     1     -33.584   4.844   6.951  1.00 20.00    -0.395 OA
HETATM    9  H18 UNL     1     -33.765   4.872   7.907  1.00 20.00     0.210 HD
ENDBRANCH   7   8
TORSDOF 1
ENDMDL
MODEL 7
REMARK VINA RESULT:      -3.7     15.850     16.802
REMARK  1 active torsions:
REMARK  status: ('A' for Active; 'I' for Inactive)
REMARK    1  A    between atoms: C7_7  and  O8_8 
ROOT
HETATM    1  C1  UNL     1     -22.806  18.127  12.332  1.00 20.00    -0.025 C 
HETATM    2  C2  UNL     1     -22.327  18.677  11.207  1.00 20.00    -0.023 C 
HETATM    3  C3  UNL     1     -24.633  18.761  11.061  1.00 20.00     0.019 C 
HETATM    4  C4  UNL     1     -24.094  16.436  11.085  1.00 20.00     0.041 C 
HETATM    5  C5  UNL     1     -24.207  17.652  12.032  1.00 20.00     0.011 C 
HETATM    6  C6  UNL     1     -23.411  18.568  10.158  1.00 20.00     0.037 C 
HETATM    7  C7  UNL     1     -23.590  17.084   9.766  1.00 20.00     0.126 C 
ENDROOT
BRANCH   7   8
HETATM    8  O8  UNL     1     -22.388  16.491   9.313  1.00 20.00    -0.395 OA
HETATM    9  H18 UNL     1     -22.635  15.769   8.708  1.00 20.00     0.210 HD
ENDBRANCH   7   8
TORSDOF 1
ENDMDL
MODEL 8
REMARK VINA RESULT:      -3.6      8.542      9.174
REMARK  1 active torsions:
REMARK  status: ('A' for Active; 'I' for Inactive)
REMARK    1  A    between atoms: C7_7  and  O8_8 
ROOT
HETATM    1  C1  UNL     1     -42.610   4.945   1.135  1.00 20.00    -0.025 C 
HETATM    2  C2  UNL     1     -42.928   6.042   1.837  1.00 20.00    -0.023 C 
HETATM    3  C3  UNL     1     -43.298   6.544  -0.390  1.00 20.00     0.019 C 
HETATM    4  C4  UNL     1     -40.949   6.160  -0.219  1.00 20.00     0.041 C 
HETATM    5  C5  UNL     1     -42.290   5.393  -0.270  1.00 20.00     0.011 C 
HETATM    6  C6  UNL     1     -42.819   7.222   0.897  1.00 20.00     0.037 C 
HETATM    7  C7  UNL     1     -41.332   7.456   0.548  1.00 20.00     0.126 C 
ENDROOT
BRANCH   7   8
HETATM    8  O8  UNL     1     -40.526   7.648   1.694  1.00 20.00    -0.395 OA
HETATM    9  H18 UNL     1     -40.308   6.766   2.043  1.00 20.00     0.210 HD
ENDBRANCH   7   8
TORSDOF 1
ENDMDL
MODEL 9
REMARK VINA RESULT:      -3.6      8.767      9.663
REMARK  1 active torsions:
REMARK  status: ('A' for Active; 'I' for Inactive)
REMARK    1  A    between atoms: C7_7  and  O8_8 
ROOT
HETATM    1  C1  UNL     1     -40.701   6.419   0.001  1.00 20.00    -0.025 C 
HETATM    2  C2  UNL     1     -40.996   7.463   0.790  1.00 20.00    -0.023 C 
HETATM    3  C3  UNL     1     -42.317   5.700   1.494  1.00 20.00     0.019 C 
HETATM    4  C4  UNL     1     -43.041   6.172  -0.730  1.00 20.00     0.041 C 
HETATM    5  C5  UNL     1     -41.887   5.487   0.037  1.00 20.00     0.011 C 
HETATM    6  C6  UNL     1     -42.380   7.224   1.351  1.00 20.00     0.037 C 
HETATM    7  C7  UNL     1     -43.417   7.349   0.211  1.00 20.00     0.126 C 
ENDROOT
BRANCH   7   8
HETATM    8  O8  UNL     1     -43.350   8.597  -0.452  1.00 20.00    -0.395 OA
HETATM    9  H18 UNL     1     -42.497   9.001  -0.218  1.00 20.00     0.210 HD
ENDBRANCH   7   8
TORSDOF 1
ENDMDL
