MODEL 1
REMARK VINA RESULT:      -5.0      0.000      0.000
REMARK  0 active torsions:
REMARK  status: ('A' for Active; 'I' for Inactive)
ROOT
HETATM    1  C1  UNL     1     -32.638   8.709   2.478  1.00 20.00     0.071 C 
HETATM    2  C2  UNL     1     -34.516   5.774   4.157  1.00 20.00    -0.000 C 
HETATM    3  C3  UNL     1     -34.584   6.682   5.137  1.00 20.00    -0.000 C 
HETATM    4  C4  UNL     1     -33.407   5.506   3.277  1.00 20.00    -0.002 C 
HETATM    5  C5  UNL     1     -33.568   7.615   5.549  1.00 20.00    -0.002 C 
HETATM    6  C6  UNL     1     -32.410   6.336   2.940  1.00 20.00    -0.004 C 
HETATM    7  C7  UNL     1     -32.543   8.083   4.823  1.00 20.00    -0.004 C 
HETATM    8  C8  UNL     1     -32.105   7.724   3.430  1.00 20.00     0.138 C 
HETATM    9  N9  UNL     1     -33.058   9.487   1.727  1.00 20.00    -0.196 NA
ENDROOT
TORSDOF 0
ENDMDL
MODEL 2
REMARK VINA RESULT:      -4.3      1.913      3.638
REMARK  0 active torsions:
REMARK  status: ('A' for Active; 'I' for Inactive)
ROOT
HETATM    1  C1  UNL     1     -35.650   6.023   4.264  1.00 20.00     0.071 C 
HETATM    2  C2  UNL     1     -32.543   8.320   4.088  1.00 20.00    -0.000 C 
HETATM    3  C3  UNL     1     -32.326   7.555   3.012  1.00 20.00    -0.000 C 
HETATM    4  C4  UNL     1     -33.063   7.914   5.368  1.00 20.00    -0.002 C 
HETATM    5  C5  UNL     1     -32.562   6.143   2.870  1.00 20.00    -0.002 C 
HETATM    6  C6  UNL     1     -33.828   6.848   5.641  1.00 20.00    -0.004 C 
HETATM    7  C7  UNL     1     -33.413   5.380   3.570  1.00 20.00    -0.004 C 
HETATM    8  C8  UNL     1     -34.289   5.737   4.739  1.00 20.00     0.138 C 
HETATM    9  N9  UNL     1     -36.725   6.249   3.887  1.00 20.00    -0.196 NA
ENDROOT
TORSDOF 0
ENDMDL
MODEL 3
REMARK VINA RESULT:      -4.3      1.540      2.800
REMARK  0 active torsions:
REMARK  status: ('A' for Active; 'I' for Inactive)
ROOT
HETATM    1  C1  UNL     1     -32.582   7.660   3.775  1.00 20.00     0.071 C 
HETATM    2  C2  UNL     1     -34.134   5.660   6.700  1.00 20.00    -0.000 C 
HETATM    3  C3  UNL     1     -34.555   4.922   5.667  1.00 20.00    -0.000 C 
HETATM    4  C4  UNL     1     -34.044   7.096   6.780  1.00 20.00    -0.002 C 
HETATM    5  C5  UNL     1     -35.017   5.381   4.383  1.00 20.00    -0.002 C 
HETATM    6  C6  UNL     1     -33.935   7.967   5.768  1.00 20.00    -0.004 C 
HETATM    7  C7  UNL     1     -34.741   6.546   3.782  1.00 20.00    -0.004 C 
HETATM    8  C8  UNL     1     -33.960   7.729   4.284  1.00 20.00     0.138 C 
HETATM    9  N9  UNL     1     -31.495   7.605   3.372  1.00 20.00    -0.196 NA
ENDROOT
TORSDOF 0
ENDMDL
MODEL 4
REMARK VINA RESULT:      -4.3      2.034      3.167
REMARK  0 active torsions:
REMARK  status: ('A' for Active; 'I' for Inactive)
ROOT
HETATM    1  C1  UNL     1     -33.396   5.481   3.032  1.00 20.00     0.071 C 
HETATM    2  C2  UNL     1     -33.329   7.252   6.469  1.00 20.00    -0.000 C 
HETATM    3  C3  UNL     1     -33.950   6.117   6.807  1.00 20.00    -0.000 C 
HETATM    4  C4  UNL     1     -33.498   8.027   5.267  1.00 20.00    -0.002 C 
HETATM    5  C5  UNL     1     -34.935   5.390   6.051  1.00 20.00    -0.002 C 
HETATM    6  C6  UNL     1     -33.944   7.603   4.076  1.00 20.00    -0.004 C 
HETATM    7  C7  UNL     1     -35.136   5.419   4.726  1.00 20.00    -0.004 C 
HETATM    8  C8  UNL     1     -34.471   6.256   3.669  1.00 20.00     0.138 C 
HETATM    9  N9  UNL     1     -32.548   4.868   2.530  1.00 20.00    -0.196 NA
ENDROOT
TORSDOF 0
ENDMDL
MODEL 5
REMARK VINA RESULT:      -4.3      2.441      3.514
REMARK  0 active torsions:
REMARK  status: ('A' for Active; 'I' for Inactive)
ROOT
HETATM    1  C1  UNL     1     -34.213   5.570   6.026  1.00 20.00     0.071 C 
HETATM    2  C2  UNL     1     -32.121   6.693   2.973  1.00 20.00    -0.000 C 
HETATM    3  C3  UNL     1     -32.141   7.834   3.671  1.00 20.00    -0.000 C 
HETATM    4  C4  UNL     1     -33.192   5.746   2.799  1.00 20.00    -0.002 C 
HETATM    5  C5  UNL     1     -33.236   8.392   4.420  1.00 20.00    -0.002 C 
HETATM    6  C6  UNL     1     -34.250   5.550   3.598  1.00 20.00    -0.004 C 
HETATM    7  C7  UNL     1     -34.286   7.743   4.941  1.00 20.00    -0.004 C 
HETATM    8  C8  UNL     1     -34.675   6.295   4.833  1.00 20.00     0.138 C 
HETATM    9  N9  UNL     1     -33.849   5.000   6.968  1.00 20.00    -0.196 NA
ENDROOT
TORSDOF 0
ENDMDL
MODEL 6
REMARK VINA RESULT:      -4.3     15.528     16.362
REMARK  0 active torsions:
REMARK  status: ('A' for Active; 'I' for Inactive)
ROOT
HETATM    1  C1  UNL     1     -21.805  17.831   8.017  1.00 20.00     0.071 C 
HETATM    2  C2  UNL     1     -23.508  17.789  11.489  1.00 20.00    -0.000 C 
HETATM    3  C3  UNL     1     -24.569  18.041  10.715  1.00 20.00    -0.000 C 
HETATM    4  C4  UNL     1     -22.171  18.308  11.352  1.00 20.00    -0.002 C 
HETATM    5  C5  UNL     1     -24.634  18.891   9.555  1.00 20.00    -0.002 C 
HETATM    6  C6  UNL     1     -21.585  18.778  10.242  1.00 20.00    -0.004 C 
HETATM    7  C7  UNL     1     -23.626  19.260   8.753  1.00 20.00    -0.004 C 
HETATM    8  C8  UNL     1     -22.153  18.980   8.865  1.00 20.00     0.138 C 
HETATM    9  N9  UNL     1     -21.531  16.924   7.347  1.00 20.00    -0.196 NA
ENDROOT
TORSDOF 0
ENDMDL
MODEL 7
REMARK VINA RESULT:      -3.9     11.403     12.613
REMARK  0 active torsions:
REMARK  status: ('A' for Active; 'I' for Inactive)
ROOT
HETATM    1  C1  UNL     1     -32.102  18.281  -0.958  1.00 20.00     0.071 C 
HETATM    2  C2  UNL     1     -34.087  17.950  -4.261  1.00 20.00    -0.000 C 
HETATM    3  C3  UNL     1     -34.706  19.008  -3.725  1.00 20.00    -0.000 C 
HETATM    4  C4  UNL     1     -33.615  16.768  -3.586  1.00 20.00    -0.002 C 
HETATM    5  C5  UNL     1     -35.049  19.225  -2.343  1.00 20.00    -0.002 C 
HETATM    6  C6  UNL     1     -33.292  16.638  -2.293  1.00 20.00    -0.004 C 
HETATM    7  C7  UNL     1     -34.480  18.673  -1.262  1.00 20.00    -0.004 C 
HETATM    8  C8  UNL     1     -33.402  17.629  -1.167  1.00 20.00     0.138 C 
HETATM    9  N9  UNL     1     -31.076  18.797  -0.793  1.00 20.00    -0.196 NA
ENDROOT
TORSDOF 0
ENDMDL
MODEL 8
REMARK VINA RESULT:      -3.8     11.464     12.776
REMARK  0 active torsions:
REMARK  status: ('A' for Active; 'I' for Inactive)
ROOT
HETATM    1  C1  UNL     1     -34.197  15.168  -6.694  1.00 20.00     0.071 C 
HETATM    2  C2  UNL     1     -34.311  17.983  -4.045  1.00 20.00    -0.000 C 
HETATM    3  C3  UNL     1     -33.369  17.200  -3.508  1.00 20.00    -0.000 C 
HETATM    4  C4  UNL     1     -35.521  17.578  -4.713  1.00 20.00    -0.002 C 
HETATM    5  C5  UNL     1     -33.333  15.762  -3.470  1.00 20.00    -0.002 C 
HETATM    6  C6  UNL     1     -35.769  16.410  -5.321  1.00 20.00    -0.004 C 
HETATM    7  C7  UNL     1     -33.955  14.904  -4.291  1.00 20.00    -0.004 C 
HETATM    8  C8  UNL     1     -34.919  15.173  -5.414  1.00 20.00     0.138 C 
HETATM    9  N9  UNL     1     -33.627  15.163  -7.704  1.00 20.00    -0.196 NA
ENDROOT
TORSDOF 0
ENDMDL
MODEL 9
REMARK VINA RESULT:      -3.7     11.373     12.657
REMARK  0 active torsions:
REMARK  status: ('A' for Active; 'I' for Inactive)
ROOT
HETATM    1  C1  UNL     1     -36.193  15.471  -5.682  1.00 20.00     0.071 C 
HETATM    2  C2  UNL     1     -33.319  16.127  -3.179  1.00 20.00    -0.000 C 
HETATM    3  C3  UNL     1     -33.727  17.383  -3.395  1.00 20.00    -0.000 C 
HETATM    4  C4  UNL     1     -33.204  15.058  -4.138  1.00 20.00    -0.002 C 
HETATM    5  C5  UNL     1     -34.155  17.970  -4.637  1.00 20.00    -0.002 C 
HETATM    6  C6  UNL     1     -33.857  14.929  -5.301  1.00 20.00    -0.004 C 
HETATM    7  C7  UNL     1     -34.645  17.342  -5.715  1.00 20.00    -0.004 C 
HETATM    8  C8  UNL     1     -34.810  15.871  -5.981  1.00 20.00     0.138 C 
HETATM    9  N9  UNL     1     -37.285  15.156  -5.446  1.00 20.00    -0.196 NA
ENDROOT
TORSDOF 0
ENDMDL
