MODEL 1
REMARK VINA RESULT:      -4.9      0.000      0.000
REMARK  5 active torsions:
REMARK  status: ('A' for Active; 'I' for Inactive)
REMARK    1  A    between atoms: C2_2  and  C3_3 
REMARK    2  A    between atoms: C3_3  and  C4_4 
REMARK    3  A    between atoms: C4_4  and  C5_5 
REMARK    4  A    between atoms: C5_5  and  C6_6 
REMARK    5  A    between atoms: C6_6  and  C7_7 
ROOT
HETATM    1  C1  UNL     1     -32.308   8.278   3.381  1.00 20.00     0.059 C 
HETATM    2  C2  UNL     1     -32.528   8.537   4.810  1.00 20.00     0.124 C 
HETATM    3  N8  UNL     1     -32.133   8.074   2.252  1.00 20.00    -0.197 NA
ENDROOT
BRANCH   2   4
HETATM    4  C3  UNL     1     -33.878   8.009   5.295  1.00 20.00     0.014 C 
BRANCH   4   5
HETATM    5  C4  UNL     1     -33.743   6.946   6.392  1.00 20.00     0.001 C 
BRANCH   5   6
HETATM    6  C5  UNL     1     -34.755   5.815   6.195  1.00 20.00     0.001 C 
BRANCH   6   7
HETATM    7  C6  UNL     1     -34.939   5.489   4.710  1.00 20.00     0.015 C 
BRANCH   7   8
HETATM    8  C7  UNL     1     -33.975   4.420   4.203  1.00 20.00     0.114 C 
HETATM    9 CL9  UNL     1     -33.095   4.949   2.750  1.00 20.00    -0.130 Cl
ENDBRANCH   7   8
ENDBRANCH   6   7
ENDBRANCH   5   6
ENDBRANCH   4   5
ENDBRANCH   2   4
TORSDOF 5
ENDMDL
MODEL 2
REMARK VINA RESULT:      -4.8      1.672      3.205
REMARK  5 active torsions:
REMARK  status: ('A' for Active; 'I' for Inactive)
REMARK    1  A    between atoms: C2_2  and  C3_3 
REMARK    2  A    between atoms: C3_3  and  C4_4 
REMARK    3  A    between atoms: C4_4  and  C5_5 
REMARK    4  A    between atoms: C5_5  and  C6_6 
REMARK    5  A    between atoms: C6_6  and  C7_7 
ROOT
HETATM    1  C1  UNL     1     -33.398   5.022   3.279  1.00 20.00     0.059 C 
HETATM    2  C2  UNL     1     -34.228   4.592   4.413  1.00 20.00     0.124 C 
HETATM    3  N8  UNL     1     -32.741   5.359   2.384  1.00 20.00    -0.197 NA
ENDROOT
BRANCH   2   4
HETATM    4  C3  UNL     1     -35.105   5.723   4.950  1.00 20.00     0.014 C 
BRANCH   4   5
HETATM    5  C4  UNL     1     -34.757   6.113   6.391  1.00 20.00     0.001 C 
BRANCH   5   6
HETATM    6  C5  UNL     1     -33.572   7.081   6.432  1.00 20.00     0.001 C 
BRANCH   6   7
HETATM    7  C6  UNL     1     -33.674   8.129   5.320  1.00 20.00     0.015 C 
BRANCH   7   8
HETATM    8  C7  UNL     1     -32.352   8.375   4.600  1.00 20.00     0.114 C 
HETATM    9 CL9  UNL     1     -32.592   8.818   2.894  1.00 20.00    -0.130 Cl
ENDBRANCH   7   8
ENDBRANCH   6   7
ENDBRANCH   5   6
ENDBRANCH   4   5
ENDBRANCH   2   4
TORSDOF 5
ENDMDL
MODEL 3
REMARK VINA RESULT:      -4.7      2.393      3.843
REMARK  5 active torsions:
REMARK  status: ('A' for Active; 'I' for Inactive)
REMARK    1  A    between atoms: C2_2  and  C3_3 
REMARK    2  A    between atoms: C3_3  and  C4_4 
REMARK    3  A    between atoms: C4_4  and  C5_5 
REMARK    4  A    between atoms: C5_5  and  C6_6 
REMARK    5  A    between atoms: C6_6  and  C7_7 
ROOT
HETATM    1  C1  UNL     1     -34.422   5.017   5.232  1.00 20.00     0.059 C 
HETATM    2  C2  UNL     1     -34.657   6.006   6.294  1.00 20.00     0.124 C 
HETATM    3  N8  UNL     1     -34.237   4.236   4.395  1.00 20.00    -0.197 NA
ENDROOT
BRANCH   2   4
HETATM    4  C3  UNL     1     -33.697   7.192   6.205  1.00 20.00     0.014 C 
BRANCH   4   5
HETATM    5  C4  UNL     1     -33.858   7.993   4.908  1.00 20.00     0.001 C 
BRANCH   5   6
HETATM    6  C5  UNL     1     -32.500   8.284   4.264  1.00 20.00     0.001 C 
BRANCH   6   7
HETATM    7  C6  UNL     1     -32.208   7.305   3.123  1.00 20.00     0.015 C 
BRANCH   7   8
HETATM    8  C7  UNL     1     -32.168   7.971   1.751  1.00 20.00     0.114 C 
HETATM    9 CL9  UNL     1     -32.901   9.593   1.775  1.00 20.00    -0.130 Cl
ENDBRANCH   7   8
ENDBRANCH   6   7
ENDBRANCH   5   6
ENDBRANCH   4   5
ENDBRANCH   2   4
TORSDOF 5
ENDMDL
MODEL 4
REMARK VINA RESULT:      -4.6      1.041      1.713
REMARK  5 active torsions:
REMARK  status: ('A' for Active; 'I' for Inactive)
REMARK    1  A    between atoms: C2_2  and  C3_3 
REMARK    2  A    between atoms: C3_3  and  C4_4 
REMARK    3  A    between atoms: C4_4  and  C5_5 
REMARK    4  A    between atoms: C5_5  and  C6_6 
REMARK    5  A    between atoms: C6_6  and  C7_7 
ROOT
HETATM    1  C1  UNL     1     -32.177   7.944   1.929  1.00 20.00     0.059 C 
HETATM    2  C2  UNL     1     -32.151   7.308   3.253  1.00 20.00     0.124 C 
HETATM    3  N8  UNL     1     -32.195   8.444   0.883  1.00 20.00    -0.197 NA
ENDROOT
BRANCH   2   4
HETATM    4  C3  UNL     1     -32.544   8.277   4.370  1.00 20.00     0.014 C 
BRANCH   4   5
HETATM    5  C4  UNL     1     -33.909   7.952   4.987  1.00 20.00     0.001 C 
BRANCH   5   6
HETATM    6  C5  UNL     1     -33.753   7.270   6.349  1.00 20.00     0.001 C 
BRANCH   6   7
HETATM    7  C6  UNL     1     -34.424   5.894   6.359  1.00 20.00     0.015 C 
BRANCH   7   8
HETATM    8  C7  UNL     1     -35.004   5.495   5.006  1.00 20.00     0.114 C 
HETATM    9 CL9  UNL     1     -33.982   4.306   4.165  1.00 20.00    -0.130 Cl
ENDBRANCH   7   8
ENDBRANCH   6   7
ENDBRANCH   5   6
ENDBRANCH   4   5
ENDBRANCH   2   4
TORSDOF 5
ENDMDL
MODEL 5
REMARK VINA RESULT:      -4.6      1.781      2.356
REMARK  5 active torsions:
REMARK  status: ('A' for Active; 'I' for Inactive)
REMARK    1  A    between atoms: C2_2  and  C3_3 
REMARK    2  A    between atoms: C3_3  and  C4_4 
REMARK    3  A    between atoms: C4_4  and  C5_5 
REMARK    4  A    between atoms: C5_5  and  C6_6 
REMARK    5  A    between atoms: C6_6  and  C7_7 
ROOT
HETATM    1  C1  UNL     1     -32.537   6.157   2.707  1.00 20.00     0.059 C 
HETATM    2  C2  UNL     1     -32.035   7.533   2.830  1.00 20.00     0.124 C 
HETATM    3  N8  UNL     1     -32.932   5.071   2.608  1.00 20.00    -0.197 NA
ENDROOT
BRANCH   2   4
HETATM    4  C3  UNL     1     -32.919   8.394   3.732  1.00 20.00     0.014 C 
BRANCH   4   5
HETATM    5  C4  UNL     1     -32.737   8.080   5.221  1.00 20.00     0.001 C 
BRANCH   5   6
HETATM    6  C5  UNL     1     -34.068   7.692   5.872  1.00 20.00     0.001 C 
BRANCH   6   7
HETATM    7  C6  UNL     1     -33.983   6.308   6.522  1.00 20.00     0.015 C 
BRANCH   7   8
HETATM    8  C7  UNL     1     -34.699   5.222   5.724  1.00 20.00     0.114 C 
HETATM    9 CL9  UNL     1     -35.685   5.901   4.408  1.00 20.00    -0.130 Cl
ENDBRANCH   7   8
ENDBRANCH   6   7
ENDBRANCH   5   6
ENDBRANCH   4   5
ENDBRANCH   2   4
TORSDOF 5
ENDMDL
MODEL 6
REMARK VINA RESULT:      -4.5      1.839      3.607
REMARK  5 active torsions:
REMARK  status: ('A' for Active; 'I' for Inactive)
REMARK    1  A    between atoms: C2_2  and  C3_3 
REMARK    2  A    between atoms: C3_3  and  C4_4 
REMARK    3  A    between atoms: C4_4  and  C5_5 
REMARK    4  A    between atoms: C5_5  and  C6_6 
REMARK    5  A    between atoms: C6_6  and  C7_7 
ROOT
HETATM    1  C1  UNL     1     -34.540   5.068   5.375  1.00 20.00     0.059 C 
HETATM    2  C2  UNL     1     -34.718   6.098   6.407  1.00 20.00     0.124 C 
HETATM    3  N8  UNL     1     -34.401   4.253   4.560  1.00 20.00    -0.197 NA
ENDROOT
BRANCH   2   4
HETATM    4  C3  UNL     1     -33.583   7.122   6.406  1.00 20.00     0.014 C 
BRANCH   4   5
HETATM    5  C4  UNL     1     -33.707   8.148   5.274  1.00 20.00     0.001 C 
BRANCH   5   6
HETATM    6  C5  UNL     1     -32.370   8.343   4.554  1.00 20.00     0.001 C 
BRANCH   6   7
HETATM    7  C6  UNL     1     -32.582   8.811   3.111  1.00 20.00     0.015 C 
BRANCH   7   8
HETATM    8  C7  UNL     1     -32.171   7.771   2.073  1.00 20.00     0.114 C 
HETATM    9 CL9  UNL     1     -32.527   6.113   2.612  1.00 20.00    -0.130 Cl
ENDBRANCH   7   8
ENDBRANCH   6   7
ENDBRANCH   5   6
ENDBRANCH   4   5
ENDBRANCH   2   4
TORSDOF 5
ENDMDL
MODEL 7
REMARK VINA RESULT:      -4.3      1.862      3.120
REMARK  5 active torsions:
REMARK  status: ('A' for Active; 'I' for Inactive)
REMARK    1  A    between atoms: C2_2  and  C3_3 
REMARK    2  A    between atoms: C3_3  and  C4_4 
REMARK    3  A    between atoms: C4_4  and  C5_5 
REMARK    4  A    between atoms: C5_5  and  C6_6 
REMARK    5  A    between atoms: C6_6  and  C7_7 
ROOT
HETATM    1  C1  UNL     1     -32.643   6.211   2.643  1.00 20.00     0.059 C 
HETATM    2  C2  UNL     1     -33.282   4.889   2.702  1.00 20.00     0.124 C 
HETATM    3  N8  UNL     1     -32.138   7.254   2.595  1.00 20.00    -0.197 NA
ENDROOT
BRANCH   2   4
HETATM    4  C3  UNL     1     -33.800   4.557   4.102  1.00 20.00     0.014 C 
BRANCH   4   5
HETATM    5  C4  UNL     1     -34.844   5.561   4.604  1.00 20.00     0.001 C 
BRANCH   5   6
HETATM    6  C5  UNL     1     -34.729   5.770   6.116  1.00 20.00     0.001 C 
BRANCH   6   7
HETATM    7  C6  UNL     1     -33.841   6.975   6.443  1.00 20.00     0.015 C 
BRANCH   7   8
HETATM    8  C7  UNL     1     -33.964   8.107   5.428  1.00 20.00     0.114 C 
HETATM    9 CL9  UNL     1     -32.418   8.952   5.179  1.00 20.00    -0.130 Cl
ENDBRANCH   7   8
ENDBRANCH   6   7
ENDBRANCH   5   6
ENDBRANCH   4   5
ENDBRANCH   2   4
TORSDOF 5
ENDMDL
MODEL 8
REMARK VINA RESULT:      -4.3      1.280      1.885
REMARK  5 active torsions:
REMARK  status: ('A' for Active; 'I' for Inactive)
REMARK    1  A    between atoms: C2_2  and  C3_3 
REMARK    2  A    between atoms: C3_3  and  C4_4 
REMARK    3  A    between atoms: C4_4  and  C5_5 
REMARK    4  A    between atoms: C5_5  and  C6_6 
REMARK    5  A    between atoms: C6_6  and  C7_7 
ROOT
HETATM    1  C1  UNL     1     -32.954   8.626   5.113  1.00 20.00     0.059 C 
HETATM    2  C2  UNL     1     -34.159   7.887   5.514  1.00 20.00     0.124 C 
HETATM    3  N8  UNL     1     -32.004   9.211   4.794  1.00 20.00    -0.197 NA
ENDROOT
BRANCH   2   4
HETATM    4  C3  UNL     1     -33.840   6.723   6.452  1.00 20.00     0.014 C 
BRANCH   4   5
HETATM    5  C4  UNL     1     -34.729   5.499   6.206  1.00 20.00     0.001 C 
BRANCH   5   6
HETATM    6  C5  UNL     1     -34.923   5.247   4.709  1.00 20.00     0.001 C 
BRANCH   6   7
HETATM    7  C6  UNL     1     -33.721   4.509   4.112  1.00 20.00     0.015 C 
BRANCH   7   8
HETATM    8  C7  UNL     1     -33.378   4.962   2.695  1.00 20.00     0.114 C 
HETATM    9 CL9  UNL     1     -32.361   6.422   2.688  1.00 20.00    -0.130 Cl
ENDBRANCH   7   8
ENDBRANCH   6   7
ENDBRANCH   5   6
ENDBRANCH   4   5
ENDBRANCH   2   4
TORSDOF 5
ENDMDL
MODEL 9
REMARK VINA RESULT:      -4.2      2.093      2.839
REMARK  5 active torsions:
REMARK  status: ('A' for Active; 'I' for Inactive)
REMARK    1  A    between atoms: C2_2  and  C3_3 
REMARK    2  A    between atoms: C3_3  and  C4_4 
REMARK    3  A    between atoms: C4_4  and  C5_5 
REMARK    4  A    between atoms: C5_5  and  C6_6 
REMARK    5  A    between atoms: C6_6  and  C7_7 
ROOT
HETATM    1  C1  UNL     1     -32.156   8.367   4.121  1.00 20.00     0.059 C 
HETATM    2  C2  UNL     1     -32.070   7.386   3.032  1.00 20.00     0.124 C 
HETATM    3  N8  UNL     1     -32.221   9.143   4.982  1.00 20.00    -0.197 NA
ENDROOT
BRANCH   2   4
HETATM    4  C3  UNL     1     -33.322   6.513   2.937  1.00 20.00     0.014 C 
BRANCH   4   5
HETATM    5  C4  UNL     1     -33.009   5.014   2.996  1.00 20.00     0.001 C 
BRANCH   5   6
HETATM    6  C5  UNL     1     -33.887   4.305   4.030  1.00 20.00     0.001 C 
BRANCH   6   7
HETATM    7  C6  UNL     1     -34.853   5.285   4.701  1.00 20.00     0.015 C 
BRANCH   7   8
HETATM    8  C7  UNL     1     -34.650   5.395   6.209  1.00 20.00     0.114 C 
HETATM    9 CL9  UNL     1     -34.277   7.060   6.714  1.00 20.00    -0.130 Cl
ENDBRANCH   7   8
ENDBRANCH   6   7
ENDBRANCH   5   6
ENDBRANCH   4   5
ENDBRANCH   2   4
TORSDOF 5
ENDMDL
