MODEL 1
REMARK VINA RESULT:      -4.3      0.000      0.000
REMARK  0 active torsions:
REMARK  status: ('A' for Active; 'I' for Inactive)
ROOT
HETATM    1  C1  UNL     1     -33.292  16.638  -2.293  1.00 20.00     0.031 A 
HETATM    2  C2  UNL     1     -34.814  18.526  -2.465  1.00 20.00     0.043 A 
HETATM    3  C3  UNL     1     -34.496  17.024  -4.318  1.00 20.00     0.033 A 
HETATM    4  C4  UNL     1     -33.588  16.257  -3.602  1.00 20.00    -0.045 A 
HETATM    5  C5  UNL     1     -35.107  18.145  -3.768  1.00 20.00     0.017 A 
HETATM    6  C6  UNL     1     -33.901  17.766  -1.727  1.00 20.00     0.035 A 
HETATM    7  C7  UNL     1     -34.919  16.769  -5.698  1.00 20.00     0.171 A 
HETATM    8  C8  UNL     1     -35.921  17.775  -6.217  1.00 20.00     0.163 A 
HETATM    9  C9  UNL     1     -32.917  15.053  -4.168  1.00 20.00     0.049 C 
HETATM   10  O10 UNL     1     -34.504  15.834  -6.367  1.00 20.00    -0.291 OA
HETATM   11  S11 UNL     1     -36.221  18.957  -4.870  1.00 20.00    -0.121 SA
HETATM   12 CL12 UNL     1     -33.524  18.220  -0.108  1.00 20.00    -0.084 Cl
ENDROOT
TORSDOF 0
ENDMDL
MODEL 2
REMARK VINA RESULT:      -4.2      1.183      1.183
REMARK  0 active torsions:
REMARK  status: ('A' for Active; 'I' for Inactive)
ROOT
HETATM    1  C1  UNL     1     -33.295  16.315  -2.734  1.00 20.00     0.031 A 
HETATM    2  C2  UNL     1     -33.462  18.641  -3.421  1.00 20.00     0.043 A 
HETATM    3  C3  UNL     1     -34.189  16.868  -4.878  1.00 20.00     0.033 A 
HETATM    4  C4  UNL     1     -33.841  15.898  -3.948  1.00 20.00    -0.045 A 
HETATM    5  C5  UNL     1     -34.006  18.223  -4.629  1.00 20.00     0.017 A 
HETATM    6  C6  UNL     1     -33.106  17.678  -2.472  1.00 20.00     0.035 A 
HETATM    7  C7  UNL     1     -34.771  16.607  -6.198  1.00 20.00     0.171 A 
HETATM    8  C8  UNL     1     -35.045  17.862  -6.994  1.00 20.00     0.163 A 
HETATM    9  C9  UNL     1     -34.023  14.438  -4.190  1.00 20.00     0.049 C 
HETATM   10  O10 UNL     1     -35.014  15.485  -6.616  1.00 20.00    -0.291 OA
HETATM   11  S11 UNL     1     -34.521  19.263  -5.960  1.00 20.00    -0.121 SA
HETATM   12 CL12 UNL     1     -32.430  18.174  -0.967  1.00 20.00    -0.084 Cl
ENDROOT
TORSDOF 0
ENDMDL
MODEL 3
REMARK VINA RESULT:      -4.1     12.522     13.752
REMARK  0 active torsions:
REMARK  status: ('A' for Active; 'I' for Inactive)
ROOT
HETATM    1  C1  UNL     1     -32.530   8.569   3.351  1.00 20.00     0.031 A 
HETATM    2  C2  UNL     1     -32.866   6.299   2.547  1.00 20.00     0.043 A 
HETATM    3  C3  UNL     1     -33.558   6.940   4.762  1.00 20.00     0.033 A 
HETATM    4  C4  UNL     1     -33.110   8.241   4.577  1.00 20.00    -0.045 A 
HETATM    5  C5  UNL     1     -33.443   5.974   3.768  1.00 20.00     0.017 A 
HETATM    6  C6  UNL     1     -32.409   7.605   2.342  1.00 20.00     0.035 A 
HETATM    7  C7  UNL     1     -34.188   6.426   5.982  1.00 20.00     0.171 A 
HETATM    8  C8  UNL     1     -34.572   4.967   5.892  1.00 20.00     0.163 A 
HETATM    9  C9  UNL     1     -33.218   9.294   5.625  1.00 20.00     0.049 C 
HETATM   10  O10 UNL     1     -34.385   7.108   6.976  1.00 20.00    -0.291 OA
HETATM   11  S11 UNL     1     -34.081   4.397   4.237  1.00 20.00    -0.121 SA
HETATM   12 CL12 UNL     1     -31.691   8.030   0.835  1.00 20.00    -0.084 Cl
ENDROOT
TORSDOF 0
ENDMDL
MODEL 4
REMARK VINA RESULT:      -4.0      1.709      2.717
REMARK  0 active torsions:
REMARK  status: ('A' for Active; 'I' for Inactive)
ROOT
HETATM    1  C1  UNL     1     -34.613  18.628  -2.563  1.00 20.00     0.031 A 
HETATM    2  C2  UNL     1     -33.407  16.532  -2.322  1.00 20.00     0.043 A 
HETATM    3  C3  UNL     1     -34.514  17.089  -4.385  1.00 20.00     0.033 A 
HETATM    4  C4  UNL     1     -34.956  18.301  -3.875  1.00 20.00    -0.045 A 
HETATM    5  C5  UNL     1     -33.750  16.208  -3.628  1.00 20.00     0.017 A 
HETATM    6  C6  UNL     1     -33.843  17.749  -1.791  1.00 20.00     0.035 A 
HETATM    7  C7  UNL     1     -34.782  16.589  -5.737  1.00 20.00     0.171 A 
HETATM    8  C8  UNL     1     -34.171  15.234  -6.010  1.00 20.00     0.163 A 
HETATM    9  C9  UNL     1     -35.779  19.263  -4.663  1.00 20.00     0.049 C 
HETATM   10  O10 UNL     1     -35.435  17.206  -6.565  1.00 20.00    -0.291 OA
HETATM   11  S11 UNL     1     -33.308  14.732  -4.491  1.00 20.00    -0.121 SA
HETATM   12 CL12 UNL     1     -33.429  18.171  -0.172  1.00 20.00    -0.084 Cl
ENDROOT
TORSDOF 0
ENDMDL
MODEL 5
REMARK VINA RESULT:      -3.9      1.777      2.066
REMARK  0 active torsions:
REMARK  status: ('A' for Active; 'I' for Inactive)
ROOT
HETATM    1  C1  UNL     1     -33.601  16.591  -3.599  1.00 20.00     0.031 A 
HETATM    2  C2  UNL     1     -34.263  18.472  -4.989  1.00 20.00     0.043 A 
HETATM    3  C3  UNL     1     -34.940  16.230  -5.542  1.00 20.00     0.033 A 
HETATM    4  C4  UNL     1     -34.281  15.708  -4.438  1.00 20.00    -0.045 A 
HETATM    5  C5  UNL     1     -34.938  17.591  -5.824  1.00 20.00     0.017 A 
HETATM    6  C6  UNL     1     -33.592  17.965  -3.872  1.00 20.00     0.035 A 
HETATM    7  C7  UNL     1     -35.699  15.449  -6.524  1.00 20.00     0.171 A 
HETATM    8  C8  UNL     1     -36.309  16.291  -7.621  1.00 20.00     0.163 A 
HETATM    9  C9  UNL     1     -34.264  14.253  -4.114  1.00 20.00     0.049 C 
HETATM   10  O10 UNL     1     -35.828  14.235  -6.464  1.00 20.00    -0.291 OA
HETATM   11  S11 UNL     1     -35.843  18.014  -7.279  1.00 20.00    -0.121 SA
HETATM   12 CL12 UNL     1     -32.748  19.040  -2.823  1.00 20.00    -0.084 Cl
ENDROOT
TORSDOF 0
ENDMDL
MODEL 6
REMARK VINA RESULT:      -3.6     12.431     13.453
REMARK  0 active torsions:
REMARK  status: ('A' for Active; 'I' for Inactive)
ROOT
HETATM    1  C1  UNL     1     -41.349  13.480   4.800  1.00 20.00     0.031 A 
HETATM    2  C2  UNL     1     -39.961  13.110   6.762  1.00 20.00     0.043 A 
HETATM    3  C3  UNL     1     -41.691  14.783   6.771  1.00 20.00     0.033 A 
HETATM    4  C4  UNL     1     -42.052  14.485   5.464  1.00 20.00    -0.045 A 
HETATM    5  C5  UNL     1     -40.662  14.112   7.421  1.00 20.00     0.017 A 
HETATM    6  C6  UNL     1     -40.309  12.796   5.445  1.00 20.00     0.035 A 
HETATM    7  C7  UNL     1     -42.321  15.806   7.612  1.00 20.00     0.171 A 
HETATM    8  C8  UNL     1     -41.716  15.905   8.993  1.00 20.00     0.163 A 
HETATM    9  C9  UNL     1     -43.149  15.190   4.743  1.00 20.00     0.049 C 
HETATM   10  O10 UNL     1     -43.245  16.511   7.236  1.00 20.00    -0.291 OA
HETATM   11  S11 UNL     1     -40.388  14.666   9.074  1.00 20.00    -0.121 SA
HETATM   12 CL12 UNL     1     -39.453  11.556   4.608  1.00 20.00    -0.084 Cl
ENDROOT
TORSDOF 0
ENDMDL
MODEL 7
REMARK VINA RESULT:      -3.6     12.293     13.255
REMARK  0 active torsions:
REMARK  status: ('A' for Active; 'I' for Inactive)
ROOT
HETATM    1  C1  UNL     1     -40.057  13.129   6.873  1.00 20.00     0.031 A 
HETATM    2  C2  UNL     1     -41.360  13.584   4.871  1.00 20.00     0.043 A 
HETATM    3  C3  UNL     1     -41.665  14.894   6.867  1.00 20.00     0.033 A 
HETATM    4  C4  UNL     1     -40.700  14.166   7.549  1.00 20.00    -0.045 A 
HETATM    5  C5  UNL     1     -41.999  14.615   5.546  1.00 20.00     0.017 A 
HETATM    6  C6  UNL     1     -40.385  12.839   5.542  1.00 20.00     0.035 A 
HETATM    7  C7  UNL     1     -42.434  16.011   7.423  1.00 20.00     0.171 A 
HETATM    8  C8  UNL     1     -43.416  16.612   6.444  1.00 20.00     0.163 A 
HETATM    9  C9  UNL     1     -40.324  14.441   8.965  1.00 20.00     0.049 C 
HETATM   10  O10 UNL     1     -42.298  16.419   8.566  1.00 20.00    -0.291 OA
HETATM   11  S11 UNL     1     -43.253  15.674   4.895  1.00 20.00    -0.121 SA
HETATM   12 CL12 UNL     1     -39.580  11.554   4.723  1.00 20.00    -0.084 Cl
ENDROOT
TORSDOF 0
ENDMDL
MODEL 8
REMARK VINA RESULT:      -3.5     12.612     13.723
REMARK  0 active torsions:
REMARK  status: ('A' for Active; 'I' for Inactive)
ROOT
HETATM    1  C1  UNL     1     -32.591   7.426   2.595  1.00 20.00     0.031 A 
HETATM    2  C2  UNL     1     -33.301   8.428   4.694  1.00 20.00     0.043 A 
HETATM    3  C3  UNL     1     -33.568   6.069   4.299  1.00 20.00     0.033 A 
HETATM    4  C4  UNL     1     -33.010   6.170   3.032  1.00 20.00    -0.045 A 
HETATM    5  C5  UNL     1     -33.717   7.176   5.126  1.00 20.00     0.017 A 
HETATM    6  C6  UNL     1     -32.736   8.549   3.420  1.00 20.00     0.035 A 
HETATM    7  C7  UNL     1     -34.060   4.832   4.913  1.00 20.00     0.171 A 
HETATM    8  C8  UNL     1     -34.616   5.030   6.303  1.00 20.00     0.163 A 
HETATM    9  C9  UNL     1     -32.841   5.001   2.123  1.00 20.00     0.049 C 
HETATM   10  O10 UNL     1     -34.024   3.744   4.357  1.00 20.00    -0.291 OA
HETATM   11  S11 UNL     1     -34.453   6.799   6.686  1.00 20.00    -0.121 SA
HETATM   12 CL12 UNL     1     -32.212  10.094   2.863  1.00 20.00    -0.084 Cl
ENDROOT
TORSDOF 0
ENDMDL
MODEL 9
REMARK VINA RESULT:      -3.5      2.991      3.954
REMARK  0 active torsions:
REMARK  status: ('A' for Active; 'I' for Inactive)
ROOT
HETATM    1  C1  UNL     1     -34.546  15.246  -5.904  1.00 20.00     0.031 A 
HETATM    2  C2  UNL     1     -36.012  17.183  -5.818  1.00 20.00     0.043 A 
HETATM    3  C3  UNL     1     -34.366  16.803  -4.103  1.00 20.00     0.033 A 
HETATM    4  C4  UNL     1     -33.926  15.638  -4.718  1.00 20.00    -0.045 A 
HETATM    5  C5  UNL     1     -35.394  17.572  -4.636  1.00 20.00     0.017 A 
HETATM    6  C6  UNL     1     -35.583  16.013  -6.451  1.00 20.00     0.035 A 
HETATM    7  C7  UNL     1     -33.830  17.358  -2.857  1.00 20.00     0.171 A 
HETATM    8  C8  UNL     1     -34.507  18.639  -2.428  1.00 20.00     0.163 A 
HETATM    9  C9  UNL     1     -32.829  14.793  -4.167  1.00 20.00     0.049 C 
HETATM   10  O10 UNL     1     -32.922  16.839  -2.224  1.00 20.00    -0.291 OA
HETATM   11  S11 UNL     1     -35.776  19.004  -3.678  1.00 20.00    -0.121 SA
HETATM   12 CL12 UNL     1     -36.335  15.512  -7.918  1.00 20.00    -0.084 Cl
ENDROOT
TORSDOF 0
ENDMDL
