MODEL 1
REMARK VINA RESULT:      -3.7      0.000      0.000
REMARK  4 active torsions:
REMARK  status: ('A' for Active; 'I' for Inactive)
REMARK    1  A    between atoms: C4_4  and  C7_7 
REMARK    2  A    between atoms: C5_5  and  C8_8 
REMARK    3  A    between atoms: C6_6  and  C8_8 
REMARK    4  A    between atoms: C7_7  and  C8_8 
ROOT
HETATM    1  C8  UNL     1     -34.640   6.125   4.583  1.00 20.00     0.036 C 
HETATM    2 CL9  UNL     1     -36.338   6.163   3.939  1.00 20.00    -0.119 Cl
ENDROOT
BRANCH   1   3
HETATM    3  C5  UNL     1     -34.744   5.967   6.119  1.00 20.00     0.021 C 
HETATM    4  C2  UNL     1     -33.756   4.982   6.735  1.00 20.00     0.007 C 
ENDBRANCH   1   3
BRANCH   1   5
HETATM    5  C6  UNL     1     -33.897   4.941   3.903  1.00 20.00     0.021 C 
HETATM    6  C3  UNL     1     -32.958   5.305   2.758  1.00 20.00     0.007 C 
ENDBRANCH   1   5
BRANCH   1   7
HETATM    7  C7  UNL     1     -33.934   7.441   4.153  1.00 20.00     0.025 C 
BRANCH   7   8
HETATM    8  C4  UNL     1     -33.348   8.294   5.286  1.00 20.00    -0.003 C 
HETATM    9  C1  UNL     1     -32.110   9.050   4.821  1.00 20.00     0.005 C 
ENDBRANCH   7   8
ENDBRANCH   1   7
TORSDOF 4
ENDMDL
MODEL 2
REMARK VINA RESULT:      -3.6      2.479      3.927
REMARK  4 active torsions:
REMARK  status: ('A' for Active; 'I' for Inactive)
REMARK    1  A    between atoms: C4_4  and  C7_7 
REMARK    2  A    between atoms: C5_5  and  C8_8 
REMARK    3  A    between atoms: C6_6  and  C8_8 
REMARK    4  A    between atoms: C7_7  and  C8_8 
ROOT
HETATM    1  C8  UNL     1     -32.814   8.134   3.688  1.00 20.00     0.036 C 
HETATM    2 CL9  UNL     1     -31.699   8.801   4.957  1.00 20.00    -0.119 Cl
ENDROOT
BRANCH   1   3
HETATM    3  C5  UNL     1     -33.161   9.301   2.733  1.00 20.00     0.021 C 
HETATM    4  C2  UNL     1     -32.665   9.131   1.301  1.00 20.00     0.007 C 
ENDBRANCH   1   3
BRANCH   1   5
HETATM    5  C6  UNL     1     -32.081   6.965   2.973  1.00 20.00     0.021 C 
HETATM    6  C3  UNL     1     -32.895   5.695   2.751  1.00 20.00     0.007 C 
ENDBRANCH   1   5
BRANCH   1   7
HETATM    7  C7  UNL     1     -34.061   7.546   4.406  1.00 20.00     0.025 C 
BRANCH   7   8
HETATM    8  C4  UNL     1     -33.894   7.229   5.898  1.00 20.00    -0.003 C 
HETATM    9  C1  UNL     1     -34.489   5.869   6.241  1.00 20.00     0.005 C 
ENDBRANCH   7   8
ENDBRANCH   1   7
TORSDOF 4
ENDMDL
MODEL 3
REMARK VINA RESULT:      -3.5      9.263     10.285
REMARK  4 active torsions:
REMARK  status: ('A' for Active; 'I' for Inactive)
REMARK    1  A    between atoms: C4_4  and  C7_7 
REMARK    2  A    between atoms: C5_5  and  C8_8 
REMARK    3  A    between atoms: C6_6  and  C8_8 
REMARK    4  A    between atoms: C7_7  and  C8_8 
ROOT
HETATM    1  C8  UNL     1     -41.421  13.528   6.413  1.00 20.00     0.036 C 
HETATM    2 CL9  UNL     1     -41.933  14.221   4.814  1.00 20.00    -0.119 Cl
ENDROOT
BRANCH   1   3
HETATM    3  C5  UNL     1     -40.457  14.552   7.060  1.00 20.00     0.021 C 
HETATM    4  C2  UNL     1     -40.345  14.461   8.578  1.00 20.00     0.007 C 
ENDBRANCH   1   3
BRANCH   1   5
HETATM    5  C6  UNL     1     -42.700  13.283   7.260  1.00 20.00     0.021 C 
HETATM    6  C3  UNL     1     -43.262  11.865   7.236  1.00 20.00     0.007 C 
ENDBRANCH   1   5
BRANCH   1   7
HETATM    7  C7  UNL     1     -40.754  12.150   6.147  1.00 20.00     0.025 C 
BRANCH   7   8
HETATM    8  C4  UNL     1     -39.277  12.183   5.731  1.00 20.00    -0.003 C 
HETATM    9  C1  UNL     1     -39.100  11.718   4.292  1.00 20.00     0.005 C 
ENDBRANCH   7   8
ENDBRANCH   1   7
TORSDOF 4
ENDMDL
MODEL 4
REMARK VINA RESULT:      -3.4      9.198     10.391
REMARK  4 active torsions:
REMARK  status: ('A' for Active; 'I' for Inactive)
REMARK    1  A    between atoms: C4_4  and  C7_7 
REMARK    2  A    between atoms: C5_5  and  C8_8 
REMARK    3  A    between atoms: C6_6  and  C8_8 
REMARK    4  A    between atoms: C7_7  and  C8_8 
ROOT
HETATM    1  C8  UNL     1     -41.224  13.295   6.304  1.00 20.00     0.036 C 
HETATM    2 CL9  UNL     1     -42.606  12.872   7.403  1.00 20.00    -0.119 Cl
ENDROOT
BRANCH   1   3
HETATM    3  C5  UNL     1     -41.834  13.961   5.047  1.00 20.00     0.021 C 
HETATM    4  C2  UNL     1     -42.562  15.276   5.303  1.00 20.00     0.007 C 
ENDBRANCH   1   3
BRANCH   1   5
HETATM    5  C6  UNL     1     -40.266  14.239   7.082  1.00 20.00     0.021 C 
HETATM    6  C3  UNL     1     -40.491  14.335   8.588  1.00 20.00     0.007 C 
ENDBRANCH   1   5
BRANCH   1   7
HETATM    7  C7  UNL     1     -40.447  11.988   5.983  1.00 20.00     0.025 C 
BRANCH   7   8
HETATM    8  C4  UNL     1     -39.023  12.164   5.440  1.00 20.00    -0.003 C 
HETATM    9  C1  UNL     1     -38.914  11.654   4.009  1.00 20.00     0.005 C 
ENDBRANCH   7   8
ENDBRANCH   1   7
TORSDOF 4
ENDMDL
MODEL 5
REMARK VINA RESULT:      -3.3      1.261      1.360
REMARK  4 active torsions:
REMARK  status: ('A' for Active; 'I' for Inactive)
REMARK    1  A    between atoms: C4_4  and  C7_7 
REMARK    2  A    between atoms: C5_5  and  C8_8 
REMARK    3  A    between atoms: C6_6  and  C8_8 
REMARK    4  A    between atoms: C7_7  and  C8_8 
ROOT
HETATM    1  C8  UNL     1     -33.959   6.768   4.708  1.00 20.00     0.036 C 
HETATM    2 CL9  UNL     1     -35.587   6.241   4.100  1.00 20.00    -0.119 Cl
ENDROOT
BRANCH   1   3
HETATM    3  C5  UNL     1     -33.931   6.480   6.229  1.00 20.00     0.021 C 
HETATM    4  C2  UNL     1     -34.542   5.147   6.644  1.00 20.00     0.007 C 
ENDBRANCH   1   3
BRANCH   1   5
HETATM    5  C6  UNL     1     -32.876   5.976   3.924  1.00 20.00     0.021 C 
HETATM    6  C3  UNL     1     -33.371   5.140   2.748  1.00 20.00     0.007 C 
ENDBRANCH   1   5
BRANCH   1   7
HETATM    7  C7  UNL     1     -33.785   8.275   4.371  1.00 20.00     0.025 C 
BRANCH   7   8
HETATM    8  C4  UNL     1     -32.478   8.664   3.666  1.00 20.00    -0.003 C 
HETATM    9  C1  UNL     1     -32.747   9.189   2.263  1.00 20.00     0.005 C 
ENDBRANCH   7   8
ENDBRANCH   1   7
TORSDOF 4
ENDMDL
MODEL 6
REMARK VINA RESULT:      -3.3      9.340     10.276
REMARK  4 active torsions:
REMARK  status: ('A' for Active; 'I' for Inactive)
REMARK    1  A    between atoms: C4_4  and  C7_7 
REMARK    2  A    between atoms: C5_5  and  C8_8 
REMARK    3  A    between atoms: C6_6  and  C8_8 
REMARK    4  A    between atoms: C7_7  and  C8_8 
ROOT
HETATM    1  C8  UNL     1     -40.924  12.984   6.086  1.00 20.00     0.036 C 
HETATM    2 CL9  UNL     1     -42.392  12.274   6.886  1.00 20.00    -0.119 Cl
ENDROOT
BRANCH   1   3
HETATM    3  C5  UNL     1     -39.915  11.827   5.887  1.00 20.00     0.021 C 
HETATM    4  C2  UNL     1     -39.269  11.766   4.508  1.00 20.00     0.007 C 
ENDBRANCH   1   3
BRANCH   1   5
HETATM    5  C6  UNL     1     -41.374  13.631   4.747  1.00 20.00     0.021 C 
HETATM    6  C3  UNL     1     -42.653  14.460   4.795  1.00 20.00     0.007 C 
ENDBRANCH   1   5
BRANCH   1   7
HETATM    7  C7  UNL     1     -40.378  14.115   7.002  1.00 20.00     0.025 C 
BRANCH   7   8
HETATM    8  C4  UNL     1     -41.157  14.370   8.299  1.00 20.00    -0.003 C 
HETATM    9  C1  UNL     1     -40.238  14.880   9.401  1.00 20.00     0.005 C 
ENDBRANCH   7   8
ENDBRANCH   1   7
TORSDOF 4
ENDMDL
MODEL 7
REMARK VINA RESULT:      -3.2     12.715     13.682
REMARK  4 active torsions:
REMARK  status: ('A' for Active; 'I' for Inactive)
REMARK    1  A    between atoms: C4_4  and  C7_7 
REMARK    2  A    between atoms: C5_5  and  C8_8 
REMARK    3  A    between atoms: C6_6  and  C8_8 
REMARK    4  A    between atoms: C7_7  and  C8_8 
ROOT
HETATM    1  C8  UNL     1     -33.118  18.138  -1.850  1.00 20.00     0.036 C 
HETATM    2 CL9  UNL     1     -32.862  19.123  -3.355  1.00 20.00    -0.119 Cl
ENDROOT
BRANCH   1   3
HETATM    3  C5  UNL     1     -31.873  18.350  -0.955  1.00 20.00     0.021 C 
HETATM    4  C2  UNL     1     -32.173  18.578   0.522  1.00 20.00     0.007 C 
ENDBRANCH   1   3
BRANCH   1   5
HETATM    5  C6  UNL     1     -34.433  18.622  -1.180  1.00 20.00     0.021 C 
HETATM    6  C3  UNL     1     -35.510  19.158  -2.118  1.00 20.00     0.007 C 
ENDBRANCH   1   5
BRANCH   1   7
HETATM    7  C7  UNL     1     -33.316  16.656  -2.274  1.00 20.00     0.025 C 
BRANCH   7   8
HETATM    8  C4  UNL     1     -33.571  16.408  -3.767  1.00 20.00    -0.003 C 
HETATM    9  C1  UNL     1     -33.469  14.927  -4.104  1.00 20.00     0.005 C 
ENDBRANCH   7   8
ENDBRANCH   1   7
TORSDOF 4
ENDMDL
MODEL 8
REMARK VINA RESULT:      -3.2     12.393     13.775
REMARK  4 active torsions:
REMARK  status: ('A' for Active; 'I' for Inactive)
REMARK    1  A    between atoms: C4_4  and  C7_7 
REMARK    2  A    between atoms: C5_5  and  C8_8 
REMARK    3  A    between atoms: C6_6  and  C8_8 
REMARK    4  A    between atoms: C7_7  and  C8_8 
ROOT
HETATM    1  C8  UNL     1     -34.687  15.342  -5.163  1.00 20.00     0.036 C 
HETATM    2 CL9  UNL     1     -35.858  13.978  -4.904  1.00 20.00    -0.119 Cl
ENDROOT
BRANCH   1   3
HETATM    3  C5  UNL     1     -33.974  15.075  -6.511  1.00 20.00     0.021 C 
HETATM    4  C2  UNL     1     -34.158  16.162  -7.564  1.00 20.00     0.007 C 
ENDBRANCH   1   3
BRANCH   1   5
HETATM    5  C6  UNL     1     -35.492  16.671  -5.158  1.00 20.00     0.021 C 
HETATM    6  C3  UNL     1     -37.007  16.541  -5.273  1.00 20.00     0.007 C 
ENDBRANCH   1   5
BRANCH   1   7
HETATM    7  C7  UNL     1     -33.710  15.373  -3.955  1.00 20.00     0.025 C 
BRANCH   7   8
HETATM    8  C4  UNL     1     -33.299  16.764  -3.453  1.00 20.00    -0.003 C 
HETATM    9  C1  UNL     1     -33.519  16.893  -1.951  1.00 20.00     0.005 C 
ENDBRANCH   7   8
ENDBRANCH   1   7
TORSDOF 4
ENDMDL
MODEL 9
REMARK VINA RESULT:      -3.1      9.501     10.298
REMARK  4 active torsions:
REMARK  status: ('A' for Active; 'I' for Inactive)
REMARK    1  A    between atoms: C4_4  and  C7_7 
REMARK    2  A    between atoms: C5_5  and  C8_8 
REMARK    3  A    between atoms: C6_6  and  C8_8 
REMARK    4  A    between atoms: C7_7  and  C8_8 
ROOT
HETATM    1  C8  UNL     1     -40.946  12.960   6.194  1.00 20.00     0.036 C 
HETATM    2 CL9  UNL     1     -42.449  12.183   6.856  1.00 20.00    -0.119 Cl
ENDROOT
BRANCH   1   3
HETATM    3  C5  UNL     1     -40.507  14.036   7.216  1.00 20.00     0.021 C 
HETATM    4  C2  UNL     1     -41.452  14.229   8.396  1.00 20.00     0.007 C 
ENDBRANCH   1   3
BRANCH   1   5
HETATM    5  C6  UNL     1     -39.881  11.846   5.993  1.00 20.00     0.021 C 
HETATM    6  C3  UNL     1     -39.277  11.735   4.597  1.00 20.00     0.007 C 
ENDBRANCH   1   5
BRANCH   1   7
HETATM    7  C7  UNL     1     -41.286  13.551   4.797  1.00 20.00     0.025 C 
BRANCH   7   8
HETATM    8  C4  UNL     1     -42.469  14.526   4.746  1.00 20.00    -0.003 C 
HETATM    9  C1  UNL     1     -42.625  15.129   3.356  1.00 20.00     0.005 C 
ENDBRANCH   7   8
ENDBRANCH   1   7
TORSDOF 4
ENDMDL
