MODEL 1
REMARK VINA RESULT:      -3.6      0.000      0.000
REMARK  3 active torsions:
REMARK  status: ('A' for Active; 'I' for Inactive)
REMARK    1  A    between atoms: C4_4  and  C6_6 
REMARK    2  A    between atoms: C5_5  and  C6_6 
REMARK    3  A    between atoms: C6_6  and  N7_7 
ROOT
HETATM    1  C1  UNL     1     -33.172   8.112   5.041  1.00 20.00     0.158 C 
HETATM    2  N7  UNL     1     -33.993   7.312   5.290  1.00 20.00    -0.270 NA
HETATM    3  S8  UNL     1     -32.064   9.213   4.736  1.00 20.00    -0.055 SA
ENDROOT
BRANCH   2   4
HETATM    4  C6  UNL     1     -34.251   6.343   4.214  1.00 20.00     0.109 C 
BRANCH   4   5
HETATM    5  C4  UNL     1     -34.623   4.997   4.848  1.00 20.00     0.023 C 
HETATM    6  C2  UNL     1     -34.535   5.022   6.368  1.00 20.00     0.007 C 
ENDBRANCH   4   5
BRANCH   4   7
HETATM    7  C5  UNL     1     -32.985   6.214   3.359  1.00 20.00     0.023 C 
HETATM    8  C3  UNL     1     -32.960   4.947   2.555  1.00 20.00     0.007 C 
ENDBRANCH   4   7
ENDBRANCH   2   4
TORSDOF 3
ENDMDL
MODEL 2
REMARK VINA RESULT:      -3.5      9.468     10.239
REMARK  3 active torsions:
REMARK  status: ('A' for Active; 'I' for Inactive)
REMARK    1  A    between atoms: C4_4  and  C6_6 
REMARK    2  A    between atoms: C5_5  and  C6_6 
REMARK    3  A    between atoms: C6_6  and  N7_7 
ROOT
HETATM    1  C1  UNL     1     -40.335  14.378   8.216  1.00 20.00     0.158 C 
HETATM    2  N7  UNL     1     -40.147  13.294   7.810  1.00 20.00    -0.270 NA
HETATM    3  S8  UNL     1     -40.583  15.837   8.802  1.00 20.00    -0.055 SA
ENDROOT
BRANCH   2   4
HETATM    4  C6  UNL     1     -40.294  13.151   6.354  1.00 20.00     0.109 C 
BRANCH   4   5
HETATM    5  C4  UNL     1     -41.782  13.256   6.001  1.00 20.00     0.023 C 
HETATM    6  C2  UNL     1     -42.047  14.238   4.868  1.00 20.00     0.007 C 
ENDBRANCH   4   5
BRANCH   4   7
HETATM    7  C5  UNL     1     -39.726  11.790   5.935  1.00 20.00     0.023 C 
HETATM    8  C3  UNL     1     -39.239  11.781   4.516  1.00 20.00     0.007 C 
ENDBRANCH   4   7
ENDBRANCH   2   4
TORSDOF 3
ENDMDL
MODEL 3
REMARK VINA RESULT:      -3.4      1.093      1.218
REMARK  3 active torsions:
REMARK  status: ('A' for Active; 'I' for Inactive)
REMARK    1  A    between atoms: C4_4  and  C6_6 
REMARK    2  A    between atoms: C5_5  and  C6_6 
REMARK    3  A    between atoms: C6_6  and  N7_7 
ROOT
HETATM    1  C1  UNL     1     -32.471   8.195   4.322  1.00 20.00     0.158 C 
HETATM    2  N7  UNL     1     -32.763   7.212   3.754  1.00 20.00    -0.270 NA
HETATM    3  S8  UNL     1     -32.044   9.533   5.072  1.00 20.00    -0.055 SA
ENDROOT
BRANCH   2   4
HETATM    4  C6  UNL     1     -33.988   6.562   4.243  1.00 20.00     0.109 C 
BRANCH   4   5
HETATM    5  C4  UNL     1     -34.018   6.665   5.772  1.00 20.00     0.023 C 
HETATM    6  C2  UNL     1     -34.625   5.434   6.430  1.00 20.00     0.007 C 
ENDBRANCH   4   5
BRANCH   4   7
HETATM    7  C5  UNL     1     -33.978   5.096   3.794  1.00 20.00     0.023 C 
HETATM    8  C3  UNL     1     -33.010   4.843   2.675  1.00 20.00     0.007 C 
ENDBRANCH   4   7
ENDBRANCH   2   4
TORSDOF 3
ENDMDL
MODEL 4
REMARK VINA RESULT:      -3.4     12.607     13.074
REMARK  3 active torsions:
REMARK  status: ('A' for Active; 'I' for Inactive)
REMARK    1  A    between atoms: C4_4  and  C6_6 
REMARK    2  A    between atoms: C5_5  and  C6_6 
REMARK    3  A    between atoms: C6_6  and  N7_7 
ROOT
HETATM    1  C1  UNL     1     -30.791  18.754   0.661  1.00 20.00     0.158 C 
HETATM    2  N7  UNL     1     -31.061  18.587  -0.468  1.00 20.00    -0.270 NA
HETATM    3  S8  UNL     1     -30.390  18.970   2.187  1.00 20.00    -0.055 SA
ENDROOT
BRANCH   2   4
HETATM    4  C6  UNL     1     -32.464  18.864  -0.809  1.00 20.00     0.109 C 
BRANCH   4   5
HETATM    5  C4  UNL     1     -33.363  18.174   0.223  1.00 20.00     0.023 C 
HETATM    6  C2  UNL     1     -34.508  19.064   0.690  1.00 20.00     0.007 C 
ENDBRANCH   4   5
BRANCH   4   7
HETATM    7  C5  UNL     1     -32.740  18.328  -2.219  1.00 20.00     0.023 C 
HETATM    8  C3  UNL     1     -33.317  16.943  -2.207  1.00 20.00     0.007 C 
ENDBRANCH   4   7
ENDBRANCH   2   4
TORSDOF 3
ENDMDL
MODEL 5
REMARK VINA RESULT:      -3.3     16.353     17.163
REMARK  3 active torsions:
REMARK  status: ('A' for Active; 'I' for Inactive)
REMARK    1  A    between atoms: C4_4  and  C6_6 
REMARK    2  A    between atoms: C5_5  and  C6_6 
REMARK    3  A    between atoms: C6_6  and  N7_7 
ROOT
HETATM    1  C1  UNL     1     -22.395  17.494   9.106  1.00 20.00     0.158 C 
HETATM    2  N7  UNL     1     -23.079  17.292  10.037  1.00 20.00    -0.270 NA
HETATM    3  S8  UNL     1     -21.469  17.732   7.833  1.00 20.00    -0.055 SA
ENDROOT
BRANCH   2   4
HETATM    4  C6  UNL     1     -23.362  18.479  10.857  1.00 20.00     0.109 C 
BRANCH   4   5
HETATM    5  C4  UNL     1     -22.780  18.255  12.257  1.00 20.00     0.023 C 
HETATM    6  C2  UNL     1     -21.293  18.576  12.330  1.00 20.00     0.007 C 
ENDBRANCH   4   5
BRANCH   4   7
HETATM    7  C5  UNL     1     -24.881  18.679  10.922  1.00 20.00     0.023 C 
HETATM    8  C3  UNL     1     -25.379  18.858  12.326  1.00 20.00     0.007 C 
ENDBRANCH   4   7
ENDBRANCH   2   4
TORSDOF 3
ENDMDL
MODEL 6
REMARK VINA RESULT:      -3.3      9.682     10.518
REMARK  3 active torsions:
REMARK  status: ('A' for Active; 'I' for Inactive)
REMARK    1  A    between atoms: C4_4  and  C6_6 
REMARK    2  A    between atoms: C5_5  and  C6_6 
REMARK    3  A    between atoms: C6_6  and  N7_7 
ROOT
HETATM    1  C1  UNL     1     -40.495  14.313   7.584  1.00 20.00     0.158 C 
HETATM    2  N7  UNL     1     -40.386  13.145   7.597  1.00 20.00    -0.270 NA
HETATM    3  S8  UNL     1     -40.623  15.900   7.597  1.00 20.00    -0.055 SA
ENDROOT
BRANCH   2   4
HETATM    4  C6  UNL     1     -41.058  12.455   6.487  1.00 20.00     0.109 C 
BRANCH   4   5
HETATM    5  C4  UNL     1     -40.355  12.835   5.178  1.00 20.00     0.023 C 
HETATM    6  C2  UNL     1     -39.259  11.849   4.796  1.00 20.00     0.007 C 
ENDBRANCH   4   5
BRANCH   4   7
HETATM    7  C5  UNL     1     -42.530  12.884   6.462  1.00 20.00     0.023 C 
HETATM    8  C3  UNL     1     -43.416  11.950   7.234  1.00 20.00     0.007 C 
ENDBRANCH   4   7
ENDBRANCH   2   4
TORSDOF 3
ENDMDL
MODEL 7
REMARK VINA RESULT:      -3.3      1.940      3.133
REMARK  3 active torsions:
REMARK  status: ('A' for Active; 'I' for Inactive)
REMARK    1  A    between atoms: C4_4  and  C6_6 
REMARK    2  A    between atoms: C5_5  and  C6_6 
REMARK    3  A    between atoms: C6_6  and  N7_7 
ROOT
HETATM    1  C1  UNL     1     -32.380   7.358   2.390  1.00 20.00     0.158 C 
HETATM    2  N7  UNL     1     -32.525   6.647   3.312  1.00 20.00    -0.270 NA
HETATM    3  S8  UNL     1     -32.154   8.305   1.130  1.00 20.00    -0.055 SA
ENDROOT
BRANCH   2   4
HETATM    4  C6  UNL     1     -33.700   6.951   4.142  1.00 20.00     0.109 C 
BRANCH   4   5
HETATM    5  C4  UNL     1     -33.230   7.675   5.409  1.00 20.00     0.023 C 
HETATM    6  C2  UNL     1     -32.462   8.953   5.101  1.00 20.00     0.007 C 
ENDBRANCH   4   5
BRANCH   4   7
HETATM    7  C5  UNL     1     -34.405   5.635   4.492  1.00 20.00     0.023 C 
HETATM    8  C3  UNL     1     -34.671   5.498   5.963  1.00 20.00     0.007 C 
ENDBRANCH   4   7
ENDBRANCH   2   4
TORSDOF 3
ENDMDL
MODEL 8
REMARK VINA RESULT:      -3.2      9.364     10.416
REMARK  3 active torsions:
REMARK  status: ('A' for Active; 'I' for Inactive)
REMARK    1  A    between atoms: C4_4  and  C6_6 
REMARK    2  A    between atoms: C5_5  and  C6_6 
REMARK    3  A    between atoms: C6_6  and  N7_7 
ROOT
HETATM    1  C1  UNL     1     -39.433  12.088   5.593  1.00 20.00     0.158 C 
HETATM    2  N7  UNL     1     -39.754  12.412   6.673  1.00 20.00    -0.270 NA
HETATM    3  S8  UNL     1     -38.982  11.618   4.140  1.00 20.00    -0.055 SA
ENDROOT
BRANCH   2   4
HETATM    4  C6  UNL     1     -40.487  13.684   6.739  1.00 20.00     0.109 C 
BRANCH   4   5
HETATM    5  C4  UNL     1     -40.477  14.180   8.190  1.00 20.00     0.023 C 
HETATM    6  C2  UNL     1     -40.457  15.699   8.289  1.00 20.00     0.007 C 
ENDBRANCH   4   5
BRANCH   4   7
HETATM    7  C5  UNL     1     -41.921  13.449   6.251  1.00 20.00     0.023 C 
HETATM    8  C3  UNL     1     -42.718  12.594   7.194  1.00 20.00     0.007 C 
ENDBRANCH   4   7
ENDBRANCH   2   4
TORSDOF 3
ENDMDL
MODEL 9
REMARK VINA RESULT:      -3.2      2.143      3.572
REMARK  3 active torsions:
REMARK  status: ('A' for Active; 'I' for Inactive)
REMARK    1  A    between atoms: C4_4  and  C6_6 
REMARK    2  A    between atoms: C5_5  and  C6_6 
REMARK    3  A    between atoms: C6_6  and  N7_7 
ROOT
HETATM    1  C1  UNL     1     -33.832   5.495   3.419  1.00 20.00     0.158 C 
HETATM    2  N7  UNL     1     -34.613   5.905   4.192  1.00 20.00    -0.270 NA
HETATM    3  S8  UNL     1     -32.794   4.911   2.363  1.00 20.00    -0.055 SA
ENDROOT
BRANCH   2   4
HETATM    4  C6  UNL     1     -34.214   7.149   4.867  1.00 20.00     0.109 C 
BRANCH   4   5
HETATM    5  C4  UNL     1     -32.900   7.639   4.248  1.00 20.00     0.023 C 
HETATM    6  C2  UNL     1     -32.370   8.898   4.921  1.00 20.00     0.007 C 
ENDBRANCH   4   5
BRANCH   4   7
HETATM    7  C5  UNL     1     -34.040   6.860   6.362  1.00 20.00     0.023 C 
HETATM    8  C3  UNL     1     -34.503   5.484   6.741  1.00 20.00     0.007 C 
ENDBRANCH   4   7
ENDBRANCH   2   4
TORSDOF 3
ENDMDL
