MODEL 1
REMARK VINA RESULT:      -4.0      0.000      0.000
REMARK  1 active torsions:
REMARK  status: ('A' for Active; 'I' for Inactive)
REMARK    1  A    between atoms: C1_1  and  C5_5 
ROOT
HETATM    1  C2  UNL     1     -34.247   6.728   6.426  1.00 20.00     0.040 C 
HETATM    2  C3  UNL     1     -34.079   5.223   6.393  1.00 20.00     0.168 C 
HETATM    3  C4  UNL     1     -35.101   5.863   4.394  1.00 20.00     0.179 C 
HETATM    4  C5  UNL     1     -34.418   7.083   4.972  1.00 20.00     0.073 C 
HETATM    5  O7  UNL     1     -34.790   4.748   5.245  1.00 20.00    -0.390 OA
ENDROOT
BRANCH   4   6
HETATM    6  C1  UNL     1     -33.051   7.257   4.332  1.00 20.00     0.237 C 
HETATM    7  O6  UNL     1     -32.268   8.149   4.643  1.00 20.00    -0.306 OA
ENDBRANCH   4   6
TORSDOF 1
ENDMDL
MODEL 2
REMARK VINA RESULT:      -3.8      1.329      2.750
REMARK  1 active torsions:
REMARK  status: ('A' for Active; 'I' for Inactive)
REMARK    1  A    between atoms: C1_1  and  C5_5 
ROOT
HETATM    1  C2  UNL     1     -34.266   7.561   4.473  1.00 20.00     0.040 C 
HETATM    2  C3  UNL     1     -33.068   7.695   5.391  1.00 20.00     0.168 C 
HETATM    3  C4  UNL     1     -34.505   6.113   6.330  1.00 20.00     0.179 C 
HETATM    4  C5  UNL     1     -34.844   6.225   4.859  1.00 20.00     0.073 C 
HETATM    5  O7  UNL     1     -33.368   6.954   6.579  1.00 20.00    -0.390 OA
ENDROOT
BRANCH   4   6
HETATM    6  C1  UNL     1     -34.137   5.127   4.084  1.00 20.00     0.237 C 
HETATM    7  O6  UNL     1     -34.065   3.965   4.472  1.00 20.00    -0.306 OA
ENDBRANCH   4   6
TORSDOF 1
ENDMDL
MODEL 3
REMARK VINA RESULT:      -3.3      1.246      2.842
REMARK  1 active torsions:
REMARK  status: ('A' for Active; 'I' for Inactive)
REMARK    1  A    between atoms: C1_1  and  C5_5 
ROOT
HETATM    1  C2  UNL     1     -34.754   5.855   4.100  1.00 20.00     0.040 C 
HETATM    2  C3  UNL     1     -33.429   5.541   3.435  1.00 20.00     0.168 C 
HETATM    3  C4  UNL     1     -33.263   7.673   4.370  1.00 20.00     0.179 C 
HETATM    4  C5  UNL     1     -34.397   6.955   5.066  1.00 20.00     0.073 C 
HETATM    5  O7  UNL     1     -32.655   6.745   3.458  1.00 20.00    -0.390 OA
ENDROOT
BRANCH   4   6
HETATM    6  C1  UNL     1     -33.898   6.343   6.364  1.00 20.00     0.237 C 
HETATM    7  O6  UNL     1     -34.201   5.216   6.740  1.00 20.00    -0.306 OA
ENDBRANCH   4   6
TORSDOF 1
ENDMDL
MODEL 4
REMARK VINA RESULT:      -3.2      8.667      9.637
REMARK  1 active torsions:
REMARK  status: ('A' for Active; 'I' for Inactive)
REMARK    1  A    between atoms: C1_1  and  C5_5 
ROOT
HETATM    1  C2  UNL     1     -42.699   7.227   1.280  1.00 20.00     0.040 C 
HETATM    2  C3  UNL     1     -43.417   7.524  -0.019  1.00 20.00     0.168 C 
HETATM    3  C4  UNL     1     -41.207   8.235  -0.257  1.00 20.00     0.179 C 
HETATM    4  C5  UNL     1     -41.247   7.232   0.876  1.00 20.00     0.073 C 
HETATM    5  O7  UNL     1     -42.526   8.307  -0.820  1.00 20.00    -0.390 OA
ENDROOT
BRANCH   4   6
HETATM    6  C1  UNL     1     -40.864   5.856   0.358  1.00 20.00     0.237 C 
HETATM    7  O6  UNL     1     -40.435   5.656  -0.774  1.00 20.00    -0.306 OA
ENDBRANCH   4   6
TORSDOF 1
ENDMDL
MODEL 5
REMARK VINA RESULT:      -3.2     13.142     13.754
REMARK  1 active torsions:
REMARK  status: ('A' for Active; 'I' for Inactive)
REMARK    1  A    between atoms: C1_1  and  C5_5 
ROOT
HETATM    1  C2  UNL     1     -33.783  17.536  -0.947  1.00 20.00     0.040 C 
HETATM    2  C3  UNL     1     -33.242  16.988  -2.251  1.00 20.00     0.168 C 
HETATM    3  C4  UNL     1     -32.713  19.260  -2.167  1.00 20.00     0.179 C 
HETATM    4  C5  UNL     1     -32.986  18.800  -0.752  1.00 20.00     0.073 C 
HETATM    5  O7  UNL     1     -32.793  18.108  -3.021  1.00 20.00    -0.390 OA
ENDROOT
BRANCH   4   6
HETATM    6  C1  UNL     1     -31.676  18.467  -0.059  1.00 20.00     0.237 C 
HETATM    7  O6  UNL     1     -30.575  18.691  -0.551  1.00 20.00    -0.306 OA
ENDBRANCH   4   6
TORSDOF 1
ENDMDL
MODEL 6
REMARK VINA RESULT:      -3.1     16.161     16.786
REMARK  1 active torsions:
REMARK  status: ('A' for Active; 'I' for Inactive)
REMARK    1  A    between atoms: C1_1  and  C5_5 
ROOT
HETATM    1  C2  UNL     1     -22.821  18.500  10.890  1.00 20.00     0.040 C 
HETATM    2  C3  UNL     1     -24.240  18.076  10.571  1.00 20.00     0.168 C 
HETATM    3  C4  UNL     1     -23.411  19.219   8.713  1.00 20.00     0.179 C 
HETATM    4  C5  UNL     1     -22.226  18.749   9.528  1.00 20.00     0.073 C 
HETATM    5  O7  UNL     1     -24.599  18.709   9.339  1.00 20.00    -0.390 OA
ENDROOT
BRANCH   4   6
HETATM    6  C1  UNL     1     -21.700  17.441   8.962  1.00 20.00     0.237 C 
HETATM    7  O6  UNL     1     -21.970  17.035   7.837  1.00 20.00    -0.306 OA
ENDBRANCH   4   6
TORSDOF 1
ENDMDL
MODEL 7
REMARK VINA RESULT:      -3.1     15.788     17.113
REMARK  1 active torsions:
REMARK  status: ('A' for Active; 'I' for Inactive)
REMARK    1  A    between atoms: C1_1  and  C5_5 
ROOT
HETATM    1  C2  UNL     1     -23.429  18.774  10.033  1.00 20.00     0.040 C 
HETATM    2  C3  UNL     1     -21.946  18.505  10.190  1.00 20.00     0.168 C 
HETATM    3  C4  UNL     1     -22.905  18.435  12.317  1.00 20.00     0.179 C 
HETATM    4  C5  UNL     1     -24.012  18.220  11.307  1.00 20.00     0.073 C 
HETATM    5  O7  UNL     1     -21.667  18.512  11.594  1.00 20.00    -0.390 OA
ENDROOT
BRANCH   4   6
HETATM    6  C1  UNL     1     -24.271  16.733  11.138  1.00 20.00     0.237 C 
HETATM    7  O6  UNL     1     -24.293  15.940  12.074  1.00 20.00    -0.306 OA
ENDBRANCH   4   6
TORSDOF 1
ENDMDL
MODEL 8
REMARK VINA RESULT:      -3.1     12.530     13.418
REMARK  1 active torsions:
REMARK  status: ('A' for Active; 'I' for Inactive)
REMARK    1  A    between atoms: C1_1  and  C5_5 
ROOT
HETATM    1  C2  UNL     1     -33.408  14.606  -4.447  1.00 20.00     0.040 C 
HETATM    2  C3  UNL     1     -33.604  15.787  -3.518  1.00 20.00     0.168 C 
HETATM    3  C4  UNL     1     -34.699  16.274  -5.521  1.00 20.00     0.179 C 
HETATM    4  C5  UNL     1     -34.520  14.774  -5.450  1.00 20.00     0.073 C 
HETATM    5  O7  UNL     1     -34.210  16.829  -4.290  1.00 20.00    -0.390 OA
ENDROOT
BRANCH   4   6
HETATM    6  C1  UNL     1     -35.786  14.130  -4.911  1.00 20.00     0.237 C 
HETATM    7  O6  UNL     1     -35.803  13.041  -4.346  1.00 20.00    -0.306 OA
ENDBRANCH   4   6
TORSDOF 1
ENDMDL
MODEL 9
REMARK VINA RESULT:      -3.0      8.905      9.956
REMARK  1 active torsions:
REMARK  status: ('A' for Active; 'I' for Inactive)
REMARK    1  A    between atoms: C1_1  and  C5_5 
ROOT
HETATM    1  C2  UNL     1     -42.030   7.225   0.951  1.00 20.00     0.040 C 
HETATM    2  C3  UNL     1     -41.376   8.020  -0.160  1.00 20.00     0.168 C 
HETATM    3  C4  UNL     1     -40.680   5.803  -0.375  1.00 20.00     0.179 C 
HETATM    4  C5  UNL     1     -41.950   5.808   0.448  1.00 20.00     0.073 C 
HETATM    5  O7  UNL     1     -40.427   7.154  -0.791  1.00 20.00    -0.390 OA
ENDROOT
BRANCH   4   6
HETATM    6  C1  UNL     1     -43.143   5.523  -0.449  1.00 20.00     0.237 C 
HETATM    7  O6  UNL     1     -43.050   4.988  -1.548  1.00 20.00    -0.306 OA
ENDBRANCH   4   6
TORSDOF 1
ENDMDL
