MODEL 1
REMARK VINA RESULT:      -4.5      0.000      0.000
REMARK  3 active torsions:
REMARK  status: ('A' for Active; 'I' for Inactive)
REMARK    1  A    between atoms: C1_1  and  C7_7 
REMARK    2  A    between atoms: C5_5  and  C6_6 
REMARK    3  A    between atoms: C6_6  and  C7_7 
ROOT
HETATM    1  C3  UNL     1     -34.634   5.846   6.214  1.00 20.00     0.024 C 
HETATM    2  C4  UNL     1     -36.089   6.011   4.207  1.00 20.00     0.024 C 
HETATM    3  C7  UNL     1     -34.622   6.046   4.686  1.00 20.00     0.029 C 
ENDROOT
BRANCH   3   4
HETATM    4  C1  UNL     1     -33.846   4.880   4.029  1.00 20.00     0.226 C 
HETATM    5  O8  UNL     1     -33.897   3.735   4.473  1.00 20.00    -0.279 OA
HETATM    6 CL9  UNL     1     -32.905   5.337   2.628  1.00 20.00    -0.043 Cl
ENDBRANCH   3   4
BRANCH   3   7
HETATM    7  C6  UNL     1     -33.984   7.420   4.357  1.00 20.00     0.017 C 
BRANCH   7   8
HETATM    8  C5  UNL     1     -32.973   7.928   5.392  1.00 20.00    -0.003 C 
HETATM    9  C2  UNL     1     -32.124   9.057   4.826  1.00 20.00     0.005 C 
ENDBRANCH   7   8
ENDBRANCH   3   7
TORSDOF 3
ENDMDL
MODEL 2
REMARK VINA RESULT:      -3.9      9.696     10.304
REMARK  3 active torsions:
REMARK  status: ('A' for Active; 'I' for Inactive)
REMARK    1  A    between atoms: C1_1  and  C7_7 
REMARK    2  A    between atoms: C5_5  and  C6_6 
REMARK    3  A    between atoms: C6_6  and  C7_7 
ROOT
HETATM    1  C3  UNL     1     -41.645  13.906   5.218  1.00 20.00     0.024 C 
HETATM    2  C4  UNL     1     -42.635  12.491   7.005  1.00 20.00     0.024 C 
HETATM    3  C7  UNL     1     -41.305  13.040   6.446  1.00 20.00     0.029 C 
ENDROOT
BRANCH   3   4
HETATM    4  C1  UNL     1     -40.632  13.927   7.520  1.00 20.00     0.226 C 
HETATM    5  O8  UNL     1     -40.054  13.444   8.492  1.00 20.00    -0.279 OA
HETATM    6 CL9  UNL     1     -40.773  15.645   7.230  1.00 20.00    -0.043 Cl
ENDBRANCH   3   4
BRANCH   3   7
HETATM    7  C6  UNL     1     -40.386  11.870   6.007  1.00 20.00     0.017 C 
BRANCH   7   8
HETATM    8  C5  UNL     1     -39.072  12.296   5.339  1.00 20.00    -0.003 C 
HETATM    9  C2  UNL     1     -38.916  11.652   3.970  1.00 20.00     0.005 C 
ENDBRANCH   7   8
ENDBRANCH   3   7
TORSDOF 3
ENDMDL
MODEL 3
REMARK VINA RESULT:      -3.8      2.137      3.379
REMARK  3 active torsions:
REMARK  status: ('A' for Active; 'I' for Inactive)
REMARK    1  A    between atoms: C1_1  and  C7_7 
REMARK    2  A    between atoms: C5_5  and  C6_6 
REMARK    3  A    between atoms: C6_6  and  C7_7 
ROOT
HETATM    1  C3  UNL     1     -34.550   8.341   4.386  1.00 20.00     0.024 C 
HETATM    2  C4  UNL     1     -32.202   9.040   4.800  1.00 20.00     0.024 C 
HETATM    3  C7  UNL     1     -33.115   7.815   4.583  1.00 20.00     0.029 C 
ENDROOT
BRANCH   3   4
HETATM    4  C1  UNL     1     -32.669   7.070   3.304  1.00 20.00     0.226 C 
HETATM    5  O8  UNL     1     -31.969   7.609   2.449  1.00 20.00    -0.279 OA
HETATM    6 CL9  UNL     1     -33.245   5.423   3.188  1.00 20.00    -0.043 Cl
ENDBRANCH   3   4
BRANCH   3   7
HETATM    7  C6  UNL     1     -33.077   6.893   5.830  1.00 20.00     0.017 C 
BRANCH   7   8
HETATM    8  C5  UNL     1     -34.449   6.570   6.437  1.00 20.00    -0.003 C 
HETATM    9  C2  UNL     1     -34.814   5.109   6.227  1.00 20.00     0.005 C 
ENDBRANCH   7   8
ENDBRANCH   3   7
TORSDOF 3
ENDMDL
MODEL 4
REMARK VINA RESULT:      -3.8     12.819     13.741
REMARK  3 active torsions:
REMARK  status: ('A' for Active; 'I' for Inactive)
REMARK    1  A    between atoms: C1_1  and  C7_7 
REMARK    2  A    between atoms: C5_5  and  C6_6 
REMARK    3  A    between atoms: C6_6  and  C7_7 
ROOT
HETATM    1  C3  UNL     1     -32.714  19.263  -2.716  1.00 20.00     0.024 C 
HETATM    2  C4  UNL     1     -34.395  19.018  -0.902  1.00 20.00     0.024 C 
HETATM    3  C7  UNL     1     -33.098  18.418  -1.486  1.00 20.00     0.029 C 
ENDROOT
BRANCH   3   4
HETATM    4  C1  UNL     1     -31.972  18.521  -0.430  1.00 20.00     0.226 C 
HETATM    5  O8  UNL     1     -30.788  18.597  -0.750  1.00 20.00    -0.279 OA
HETATM    6 CL9  UNL     1     -32.532  18.515   1.226  1.00 20.00    -0.043 Cl
ENDBRANCH   3   4
BRANCH   3   7
HETATM    7  C6  UNL     1     -33.339  16.952  -1.929  1.00 20.00     0.017 C 
BRANCH   7   8
HETATM    8  C5  UNL     1     -33.306  16.722  -3.445  1.00 20.00    -0.003 C 
HETATM    9  C2  UNL     1     -33.586  15.266  -3.788  1.00 20.00     0.005 C 
ENDBRANCH   7   8
ENDBRANCH   3   7
TORSDOF 3
ENDMDL
MODEL 5
REMARK VINA RESULT:      -3.6      1.913      2.377
REMARK  3 active torsions:
REMARK  status: ('A' for Active; 'I' for Inactive)
REMARK    1  A    between atoms: C1_1  and  C7_7 
REMARK    2  A    between atoms: C5_5  and  C6_6 
REMARK    3  A    between atoms: C6_6  and  C7_7 
ROOT
HETATM    1  C3  UNL     1     -35.948   6.027   4.097  1.00 20.00     0.024 C 
HETATM    2  C4  UNL     1     -33.646   5.186   3.689  1.00 20.00     0.024 C 
HETATM    3  C7  UNL     1     -34.471   6.211   4.495  1.00 20.00     0.029 C 
ENDROOT
BRANCH   3   4
HETATM    4  C1  UNL     1     -34.313   5.913   6.004  1.00 20.00     0.226 C 
HETATM    5  O8  UNL     1     -34.211   4.766   6.433  1.00 20.00    -0.279 OA
HETATM    6 CL9  UNL     1     -34.297   7.334   7.024  1.00 20.00    -0.043 Cl
ENDBRANCH   3   4
BRANCH   3   7
HETATM    7  C6  UNL     1     -34.024   7.653   4.142  1.00 20.00     0.017 C 
BRANCH   7   8
HETATM    8  C5  UNL     1     -32.507   7.850   4.031  1.00 20.00    -0.003 C 
HETATM    9  C2  UNL     1     -32.050   9.069   4.819  1.00 20.00     0.005 C 
ENDBRANCH   7   8
ENDBRANCH   3   7
TORSDOF 3
ENDMDL
MODEL 6
REMARK VINA RESULT:      -3.6      9.557      9.981
REMARK  3 active torsions:
REMARK  status: ('A' for Active; 'I' for Inactive)
REMARK    1  A    between atoms: C1_1  and  C7_7 
REMARK    2  A    between atoms: C5_5  and  C6_6 
REMARK    3  A    between atoms: C6_6  and  C7_7 
ROOT
HETATM    1  C3  UNL     1     -42.091  12.428   6.790  1.00 20.00     0.024 C 
HETATM    2  C4  UNL     1     -41.400  13.684   4.761  1.00 20.00     0.024 C 
HETATM    3  C7  UNL     1     -40.924  13.203   6.148  1.00 20.00     0.029 C 
ENDROOT
BRANCH   3   4
HETATM    4  C1  UNL     1     -39.721  12.249   5.968  1.00 20.00     0.226 C 
HETATM    5  O8  UNL     1     -39.068  11.839   6.925  1.00 20.00    -0.279 OA
HETATM    6 CL9  UNL     1     -39.380  11.821   4.307  1.00 20.00    -0.043 Cl
ENDBRANCH   3   4
BRANCH   3   7
HETATM    7  C6  UNL     1     -40.566  14.419   7.042  1.00 20.00     0.017 C 
BRANCH   7   8
HETATM    8  C5  UNL     1     -41.089  14.338   8.482  1.00 20.00    -0.003 C 
HETATM    9  C2  UNL     1     -40.193  15.113   9.437  1.00 20.00     0.005 C 
ENDBRANCH   7   8
ENDBRANCH   3   7
TORSDOF 3
ENDMDL
MODEL 7
REMARK VINA RESULT:      -3.5     10.024     10.611
REMARK  3 active torsions:
REMARK  status: ('A' for Active; 'I' for Inactive)
REMARK    1  A    between atoms: C1_1  and  C7_7 
REMARK    2  A    between atoms: C5_5  and  C6_6 
REMARK    3  A    between atoms: C6_6  and  C7_7 
ROOT
HETATM    1  C3  UNL     1     -42.569  13.031   7.211  1.00 20.00     0.024 C 
HETATM    2  C4  UNL     1     -40.387  14.221   7.199  1.00 20.00     0.024 C 
HETATM    3  C7  UNL     1     -41.346  13.373   6.337  1.00 20.00     0.029 C 
ENDROOT
BRANCH   3   4
HETATM    4  C1  UNL     1     -41.810  14.210   5.122  1.00 20.00     0.226 C 
HETATM    5  O8  UNL     1     -41.574  13.863   3.967  1.00 20.00    -0.279 OA
HETATM    6 CL9  UNL     1     -42.681  15.668   5.539  1.00 20.00    -0.043 Cl
ENDBRANCH   3   4
BRANCH   3   7
HETATM    7  C6  UNL     1     -40.650  12.058   5.898  1.00 20.00     0.017 C 
BRANCH   7   8
HETATM    8  C5  UNL     1     -39.153  12.191   5.592  1.00 20.00    -0.003 C 
HETATM    9  C2  UNL     1     -38.831  11.696   4.190  1.00 20.00     0.005 C 
ENDBRANCH   7   8
ENDBRANCH   3   7
TORSDOF 3
ENDMDL
MODEL 8
REMARK VINA RESULT:      -3.5      1.106      1.216
REMARK  3 active torsions:
REMARK  status: ('A' for Active; 'I' for Inactive)
REMARK    1  A    between atoms: C1_1  and  C7_7 
REMARK    2  A    between atoms: C5_5  and  C6_6 
REMARK    3  A    between atoms: C6_6  and  C7_7 
ROOT
HETATM    1  C3  UNL     1     -34.270   6.336   6.397  1.00 20.00     0.024 C 
HETATM    2  C4  UNL     1     -35.302   7.283   4.345  1.00 20.00     0.024 C 
HETATM    3  C7  UNL     1     -34.053   6.557   4.888  1.00 20.00     0.029 C 
ENDROOT
BRANCH   3   4
HETATM    4  C1  UNL     1     -33.919   5.185   4.189  1.00 20.00     0.226 C 
HETATM    5  O8  UNL     1     -34.420   4.165   4.658  1.00 20.00    -0.279 OA
HETATM    6 CL9  UNL     1     -33.004   5.218   2.699  1.00 20.00    -0.043 Cl
ENDBRANCH   3   4
BRANCH   3   7
HETATM    7  C6  UNL     1     -32.792   7.436   4.679  1.00 20.00     0.017 C 
BRANCH   7   8
HETATM    8  C5  UNL     1     -33.049   8.783   3.993  1.00 20.00    -0.003 C 
HETATM    9  C2  UNL     1     -32.455   8.811   2.592  1.00 20.00     0.005 C 
ENDBRANCH   7   8
ENDBRANCH   3   7
TORSDOF 3
ENDMDL
MODEL 9
REMARK VINA RESULT:      -3.4     12.778     13.751
REMARK  3 active torsions:
REMARK  status: ('A' for Active; 'I' for Inactive)
REMARK    1  A    between atoms: C1_1  and  C7_7 
REMARK    2  A    between atoms: C5_5  and  C6_6 
REMARK    3  A    between atoms: C6_6  and  C7_7 
ROOT
HETATM    1  C3  UNL     1     -36.129  16.956  -5.172  1.00 20.00     0.024 C 
HETATM    2  C4  UNL     1     -34.433  16.519  -6.935  1.00 20.00     0.024 C 
HETATM    3  C7  UNL     1     -35.053  15.956  -5.638  1.00 20.00     0.029 C 
ENDROOT
BRANCH   3   4
HETATM    4  C1  UNL     1     -35.724  14.597  -5.945  1.00 20.00     0.226 C 
HETATM    5  O8  UNL     1     -36.081  14.291  -7.081  1.00 20.00    -0.279 OA
HETATM    6 CL9  UNL     1     -35.925  13.559  -4.553  1.00 20.00    -0.043 Cl
ENDBRANCH   3   4
BRANCH   3   7
HETATM    7  C6  UNL     1     -33.967  15.827  -4.539  1.00 20.00     0.017 C 
BRANCH   7   8
HETATM    8  C5  UNL     1     -33.726  17.099  -3.716  1.00 20.00    -0.003 C 
HETATM    9  C2  UNL     1     -33.413  16.765  -2.265  1.00 20.00     0.005 C 
ENDBRANCH   7   8
ENDBRANCH   3   7
TORSDOF 3
ENDMDL
