MODEL 1
REMARK VINA RESULT:      -3.6      0.000      0.000
REMARK  0 active torsions:
REMARK  status: ('A' for Active; 'I' for Inactive)
ROOT
HETATM    1  C1  UNL     1     -24.023  17.052  10.908  1.00 20.00     0.018 A 
HETATM    2  C2  UNL     1     -23.122  18.181  11.343  1.00 20.00     0.018 A 
HETATM    3  C3  UNL     1     -24.531  18.479  10.870  1.00 20.00     0.083 A 
HETATM    4  C4  UNL     1     -24.483  16.045  11.907  1.00 20.00     0.012 C 
HETATM    5  C5  UNL     1     -21.905  18.506  10.545  1.00 20.00     0.012 C 
HETATM    6 BR6  UNL     1     -24.845  19.263   9.154  1.00 20.00    -0.072 Br
HETATM    7 BR7  UNL     1     -25.787  19.108  12.166  1.00 20.00    -0.072 Br
ENDROOT
TORSDOF 0
ENDMDL
MODEL 2
REMARK VINA RESULT:      -3.2     15.515     16.231
REMARK  0 active torsions:
REMARK  status: ('A' for Active; 'I' for Inactive)
ROOT
HETATM    1  C1  UNL     1     -33.358   6.880   5.555  1.00 20.00     0.018 A 
HETATM    2  C2  UNL     1     -33.633   7.942   4.519  1.00 20.00     0.018 A 
HETATM    3  C3  UNL     1     -33.973   6.494   4.225  1.00 20.00     0.083 A 
HETATM    4  C4  UNL     1     -34.117   6.885   6.838  1.00 20.00     0.012 C 
HETATM    5  C5  UNL     1     -32.495   8.662   3.877  1.00 20.00     0.012 C 
HETATM    6 BR6  UNL     1     -32.906   5.461   3.021  1.00 20.00    -0.072 Br
HETATM    7 BR7  UNL     1     -35.822   6.026   4.099  1.00 20.00    -0.072 Br
ENDROOT
TORSDOF 0
ENDMDL
MODEL 3
REMARK VINA RESULT:      -3.2     15.531     16.423
REMARK  0 active torsions:
REMARK  status: ('A' for Active; 'I' for Inactive)
ROOT
HETATM    1  C1  UNL     1     -33.645   7.914   4.528  1.00 20.00     0.018 A 
HETATM    2  C2  UNL     1     -33.382   6.850   5.564  1.00 20.00     0.018 A 
HETATM    3  C3  UNL     1     -33.990   6.469   4.229  1.00 20.00     0.083 A 
HETATM    4  C4  UNL     1     -32.500   8.631   3.896  1.00 20.00     0.012 C 
HETATM    5  C5  UNL     1     -34.151   6.855   6.842  1.00 20.00     0.012 C 
HETATM    6 BR6  UNL     1     -35.841   6.011   4.089  1.00 20.00    -0.072 Br
HETATM    7 BR7  UNL     1     -32.921   5.433   3.030  1.00 20.00    -0.072 Br
ENDROOT
TORSDOF 0
ENDMDL
MODEL 4
REMARK VINA RESULT:      -3.0     16.587     17.419
REMARK  0 active torsions:
REMARK  status: ('A' for Active; 'I' for Inactive)
ROOT
HETATM    1  C1  UNL     1     -33.827  17.154  -2.285  1.00 20.00     0.018 A 
HETATM    2  C2  UNL     1     -33.180  16.434  -3.441  1.00 20.00     0.018 A 
HETATM    3  C3  UNL     1     -33.937  17.725  -3.684  1.00 20.00     0.083 A 
HETATM    4  C4  UNL     1     -32.976  17.756  -1.218  1.00 20.00     0.012 C 
HETATM    5  C5  UNL     1     -33.690  15.096  -3.859  1.00 20.00     0.012 C 
HETATM    6 BR6  UNL     1     -35.659  17.712  -4.515  1.00 20.00    -0.072 Br
HETATM    7 BR7  UNL     1     -32.924  19.263  -4.198  1.00 20.00    -0.072 Br
ENDROOT
TORSDOF 0
ENDMDL
MODEL 5
REMARK VINA RESULT:      -3.0     16.598     17.377
REMARK  0 active torsions:
REMARK  status: ('A' for Active; 'I' for Inactive)
ROOT
HETATM    1  C1  UNL     1     -33.196  16.431  -3.405  1.00 20.00     0.018 A 
HETATM    2  C2  UNL     1     -33.914  17.142  -2.285  1.00 20.00     0.018 A 
HETATM    3  C3  UNL     1     -33.950  17.714  -3.688  1.00 20.00     0.083 A 
HETATM    4  C4  UNL     1     -33.668  15.088  -3.852  1.00 20.00     0.012 C 
HETATM    5  C5  UNL     1     -33.129  17.750  -1.172  1.00 20.00     0.012 C 
HETATM    6 BR6  UNL     1     -32.924  19.263  -4.142  1.00 20.00    -0.072 Br
HETATM    7 BR7  UNL     1     -35.622  17.687  -4.613  1.00 20.00    -0.072 Br
ENDROOT
TORSDOF 0
ENDMDL
MODEL 6
REMARK VINA RESULT:      -2.9     17.772     18.517
REMARK  0 active torsions:
REMARK  status: ('A' for Active; 'I' for Inactive)
ROOT
HETATM    1  C1  UNL     1     -41.172  13.899   5.625  1.00 20.00     0.018 A 
HETATM    2  C2  UNL     1     -40.816  12.498   6.058  1.00 20.00     0.018 A 
HETATM    3  C3  UNL     1     -41.455  13.455   7.046  1.00 20.00     0.083 A 
HETATM    4  C4  UNL     1     -42.239  14.109   4.605  1.00 20.00     0.012 C 
HETATM    5  C5  UNL     1     -39.384  12.087   6.127  1.00 20.00     0.012 C 
HETATM    6 BR6  UNL     1     -40.425  14.252   8.446  1.00 20.00    -0.072 Br
HETATM    7 BR7  UNL     1     -43.239  13.076   7.619  1.00 20.00    -0.072 Br
ENDROOT
TORSDOF 0
ENDMDL
MODEL 7
REMARK VINA RESULT:      -2.9     17.767     18.508
REMARK  0 active torsions:
REMARK  status: ('A' for Active; 'I' for Inactive)
ROOT
HETATM    1  C1  UNL     1     -40.803  12.484   6.057  1.00 20.00     0.018 A 
HETATM    2  C2  UNL     1     -41.155  13.884   5.619  1.00 20.00     0.018 A 
HETATM    3  C3  UNL     1     -41.448  13.440   7.039  1.00 20.00     0.083 A 
HETATM    4  C4  UNL     1     -39.371  12.071   6.135  1.00 20.00     0.012 C 
HETATM    5  C5  UNL     1     -42.216  14.092   4.592  1.00 20.00     0.012 C 
HETATM    6 BR6  UNL     1     -43.236  13.062   7.600  1.00 20.00    -0.072 Br
HETATM    7 BR7  UNL     1     -40.428  14.239   8.445  1.00 20.00    -0.072 Br
ENDROOT
TORSDOF 0
ENDMDL
MODEL 8
REMARK VINA RESULT:      -2.9     15.932     16.995
REMARK  0 active torsions:
REMARK  status: ('A' for Active; 'I' for Inactive)
ROOT
HETATM    1  C1  UNL     1     -33.681   5.455   3.859  1.00 20.00     0.018 A 
HETATM    2  C2  UNL     1     -34.850   6.394   3.699  1.00 20.00     0.018 A 
HETATM    3  C3  UNL     1     -33.697   6.773   4.607  1.00 20.00     0.083 A 
HETATM    4  C4  UNL     1     -32.786   5.183   2.698  1.00 20.00     0.012 C 
HETATM    5  C5  UNL     1     -36.195   5.995   4.206  1.00 20.00     0.012 C 
HETATM    6 BR6  UNL     1     -33.885   6.710   6.509  1.00 20.00    -0.072 Br
HETATM    7 BR7  UNL     1     -32.579   8.224   4.062  1.00 20.00    -0.072 Br
ENDROOT
TORSDOF 0
ENDMDL
MODEL 9
REMARK VINA RESULT:      -2.8     14.416     15.204
REMARK  0 active torsions:
REMARK  status: ('A' for Active; 'I' for Inactive)
ROOT
HETATM    1  C1  UNL     1     -33.756  18.141   0.209  1.00 20.00     0.018 A 
HETATM    2  C2  UNL     1     -32.704  18.962  -0.497  1.00 20.00     0.018 A 
HETATM    3  C3  UNL     1     -33.751  18.220  -1.305  1.00 20.00     0.083 A 
HETATM    4  C4  UNL     1     -34.775  18.819   1.061  1.00 20.00     0.012 C 
HETATM    5  C5  UNL     1     -31.274  18.545  -0.431  1.00 20.00     0.012 C 
HETATM    6 BR6  UNL     1     -33.300  16.634  -2.273  1.00 20.00    -0.072 Br
HETATM    7 BR7  UNL     1     -35.054  19.263  -2.237  1.00 20.00    -0.072 Br
ENDROOT
TORSDOF 0
ENDMDL
