MODEL 1
REMARK VINA RESULT:      -4.8      0.000      0.000
REMARK  0 active torsions:
REMARK  status: ('A' for Active; 'I' for Inactive)
ROOT
HETATM    1  C1  UNL     1     -32.826   7.973   4.751  1.00 20.00     0.064 C 
HETATM    2  C2  UNL     1     -33.634   4.436   4.852  1.00 20.00     0.005 C 
HETATM    3  C3  UNL     1     -33.625   5.320   3.597  1.00 20.00     0.006 C 
HETATM    4  C4  UNL     1     -34.091   6.437   6.283  1.00 20.00     0.024 C 
HETATM    5  C5  UNL     1     -35.696   5.616   4.714  1.00 20.00     0.010 C 
HETATM    6  C6  UNL     1     -34.124   7.359   5.049  1.00 20.00     0.097 C 
HETATM    7  C7  UNL     1     -34.682   5.118   5.745  1.00 20.00    -0.013 C 
HETATM    8  C8  UNL     1     -34.649   6.422   3.938  1.00 20.00     0.003 C 
HETATM    9  N9  UNL     1     -31.800   8.457   4.514  1.00 20.00    -0.197 NA
ENDROOT
TORSDOF 0
ENDMDL
MODEL 2
REMARK VINA RESULT:      -4.3     15.387     16.733
REMARK  0 active torsions:
REMARK  status: ('A' for Active; 'I' for Inactive)
ROOT
HETATM    1  C1  UNL     1     -22.413  17.638   8.895  1.00 20.00     0.064 C 
HETATM    2  C2  UNL     1     -23.647  16.677  12.170  1.00 20.00     0.005 C 
HETATM    3  C3  UNL     1     -24.432  16.591  10.854  1.00 20.00     0.006 C 
HETATM    4  C4  UNL     1     -22.245  18.527  11.237  1.00 20.00     0.024 C 
HETATM    5  C5  UNL     1     -24.577  18.811  11.676  1.00 20.00     0.010 C 
HETATM    6  C6  UNL     1     -23.026  18.501   9.909  1.00 20.00     0.097 C 
HETATM    7  C7  UNL     1     -23.325  18.175  12.281  1.00 20.00    -0.013 C 
HETATM    8  C8  UNL     1     -24.435  18.050  10.353  1.00 20.00     0.003 C 
HETATM    9  N9  UNL     1     -21.930  16.954   8.092  1.00 20.00    -0.197 NA
ENDROOT
TORSDOF 0
ENDMDL
MODEL 3
REMARK VINA RESULT:      -3.8      8.740     10.066
REMARK  0 active torsions:
REMARK  status: ('A' for Active; 'I' for Inactive)
ROOT
HETATM    1  C1  UNL     1     -43.088   4.595   0.371  1.00 20.00     0.064 C 
HETATM    2  C2  UNL     1     -40.935   7.381   1.248  1.00 20.00     0.005 C 
HETATM    3  C3  UNL     1     -42.447   7.301   1.498  1.00 20.00     0.006 C 
HETATM    4  C4  UNL     1     -41.148   5.797  -0.676  1.00 20.00     0.024 C 
HETATM    5  C5  UNL     1     -42.087   7.993  -0.742  1.00 20.00     0.010 C 
HETATM    6  C6  UNL     1     -42.675   5.710  -0.485  1.00 20.00     0.097 C 
HETATM    7  C7  UNL     1     -40.831   7.253  -0.280  1.00 20.00    -0.013 C 
HETATM    8  C8  UNL     1     -43.025   7.104   0.081  1.00 20.00     0.003 C 
HETATM    9  N9  UNL     1     -43.416   3.713   1.050  1.00 20.00    -0.197 NA
ENDROOT
TORSDOF 0
ENDMDL
MODEL 4
REMARK VINA RESULT:      -3.8      8.768      9.994
REMARK  0 active torsions:
REMARK  status: ('A' for Active; 'I' for Inactive)
ROOT
HETATM    1  C1  UNL     1     -42.155   5.012  -1.290  1.00 20.00     0.064 C 
HETATM    2  C2  UNL     1     -43.175   7.967   0.555  1.00 20.00     0.005 C 
HETATM    3  C3  UNL     1     -42.335   7.956  -0.730  1.00 20.00     0.006 C 
HETATM    4  C4  UNL     1     -42.372   5.667   1.125  1.00 20.00     0.024 C 
HETATM    5  C5  UNL     1     -40.900   7.550   1.114  1.00 20.00     0.010 C 
HETATM    6  C6  UNL     1     -41.487   5.622  -0.136  1.00 20.00     0.097 C 
HETATM    7  C7  UNL     1     -42.315   7.153   1.534  1.00 20.00    -0.013 C 
HETATM    8  C8  UNL     1     -41.109   7.106  -0.338  1.00 20.00     0.003 C 
HETATM    9  N9  UNL     1     -42.683   4.531  -2.203  1.00 20.00    -0.197 NA
ENDROOT
TORSDOF 0
ENDMDL
MODEL 5
REMARK VINA RESULT:      -3.7     15.799     16.958
REMARK  0 active torsions:
REMARK  status: ('A' for Active; 'I' for Inactive)
ROOT
HETATM    1  C1  UNL     1     -22.324  18.712   9.100  1.00 20.00     0.064 C 
HETATM    2  C2  UNL     1     -23.959  18.954  12.331  1.00 20.00     0.005 C 
HETATM    3  C3  UNL     1     -22.786  18.026  11.985  1.00 20.00     0.006 C 
HETATM    4  C4  UNL     1     -24.678  18.973   9.936  1.00 20.00     0.024 C 
HETATM    5  C5  UNL     1     -24.799  16.995  11.272  1.00 20.00     0.010 C 
HETATM    6  C6  UNL     1     -23.535  18.016   9.545  1.00 20.00     0.097 C 
HETATM    7  C7  UNL     1     -25.055  18.501  11.355  1.00 20.00    -0.013 C 
HETATM    8  C8  UNL     1     -23.344  17.175  10.827  1.00 20.00     0.003 C 
HETATM    9  N9  UNL     1     -21.366  19.263   8.749  1.00 20.00    -0.197 NA
ENDROOT
TORSDOF 0
ENDMDL
MODEL 6
REMARK VINA RESULT:      -3.7     15.509     16.546
REMARK  0 active torsions:
REMARK  status: ('A' for Active; 'I' for Inactive)
ROOT
HETATM    1  C1  UNL     1     -24.630  19.040   8.970  1.00 20.00     0.064 C 
HETATM    2  C2  UNL     1     -25.067  16.835  11.818  1.00 20.00     0.005 C 
HETATM    3  C3  UNL     1     -25.517  18.300  11.740  1.00 20.00     0.006 C 
HETATM    4  C4  UNL     1     -23.275  17.273  10.129  1.00 20.00     0.024 C 
HETATM    5  C5  UNL     1     -23.216  18.246  12.311  1.00 20.00     0.010 C 
HETATM    6  C6  UNL     1     -23.669  18.760  10.040  1.00 20.00     0.097 C 
HETATM    7  C7  UNL     1     -23.548  16.930  11.608  1.00 20.00    -0.013 C 
HETATM    8  C8  UNL     1     -24.202  19.055  11.460  1.00 20.00     0.003 C 
HETATM    9  N9  UNL     1     -25.392  19.263   8.124  1.00 20.00    -0.197 NA
ENDROOT
TORSDOF 0
ENDMDL
MODEL 7
REMARK VINA RESULT:      -3.6     11.068     12.383
REMARK  0 active torsions:
REMARK  status: ('A' for Active; 'I' for Inactive)
ROOT
HETATM    1  C1  UNL     1     -29.933  -2.648  11.235  1.00 20.00     0.064 C 
HETATM    2  C2  UNL     1     -27.039  -0.479  11.527  1.00 20.00     0.005 C 
HETATM    3  C3  UNL     1     -27.933  -0.622  10.287  1.00 20.00     0.006 C 
HETATM    4  C4  UNL     1     -27.643  -2.794  12.256  1.00 20.00     0.024 C 
HETATM    5  C5  UNL     1     -26.352  -2.390  10.286  1.00 20.00     0.010 C 
HETATM    6  C6  UNL     1     -28.527  -2.997  11.010  1.00 20.00     0.097 C 
HETATM    7  C7  UNL     1     -26.500  -1.904  11.728  1.00 20.00    -0.013 C 
HETATM    8  C8  UNL     1     -27.823  -2.123   9.949  1.00 20.00     0.003 C 
HETATM    9  N9  UNL     1     -31.045  -2.372  11.412  1.00 20.00    -0.197 NA
ENDROOT
TORSDOF 0
ENDMDL
MODEL 8
REMARK VINA RESULT:      -3.5     15.756     16.738
REMARK  0 active torsions:
REMARK  status: ('A' for Active; 'I' for Inactive)
ROOT
HETATM    1  C1  UNL     1     -24.448  19.241   7.445  1.00 20.00     0.064 C 
HETATM    2  C2  UNL     1     -23.503  16.863  10.018  1.00 20.00     0.005 C 
HETATM    3  C3  UNL     1     -24.357  18.121  10.228  1.00 20.00     0.006 C 
HETATM    4  C4  UNL     1     -22.398  17.918   8.037  1.00 20.00     0.024 C 
HETATM    5  C5  UNL     1     -22.070  18.748  10.253  1.00 20.00     0.010 C 
HETATM    6  C6  UNL     1     -23.209  19.215   8.227  1.00 20.00     0.097 C 
HETATM    7  C7  UNL     1     -22.179  17.432   9.484  1.00 20.00    -0.013 C 
HETATM    8  C8  UNL     1     -23.426  19.257   9.756  1.00 20.00     0.003 C 
HETATM    9  N9  UNL     1     -25.430  19.263   6.827  1.00 20.00    -0.197 NA
ENDROOT
TORSDOF 0
ENDMDL
MODEL 9
REMARK VINA RESULT:      -3.5     12.558     13.891
REMARK  0 active torsions:
REMARK  status: ('A' for Active; 'I' for Inactive)
ROOT
HETATM    1  C1  UNL     1     -33.601  15.533  -3.656  1.00 20.00     0.064 C 
HETATM    2  C2  UNL     1     -35.323  18.557  -2.625  1.00 20.00     0.005 C 
HETATM    3  C3  UNL     1     -34.794  18.261  -4.035  1.00 20.00     0.006 C 
HETATM    4  C4  UNL     1     -33.607  17.027  -1.637  1.00 20.00     0.024 C 
HETATM    5  C5  UNL     1     -33.001  19.074  -2.711  1.00 20.00     0.010 C 
HETATM    6  C6  UNL     1     -33.020  16.724  -3.030  1.00 20.00     0.097 C 
HETATM    7  C7  UNL     1     -34.053  18.498  -1.762  1.00 20.00    -0.013 C 
HETATM    8  C8  UNL     1     -33.286  18.036  -3.802  1.00 20.00     0.003 C 
HETATM    9  N9  UNL     1     -34.061  14.591  -4.152  1.00 20.00    -0.197 NA
ENDROOT
TORSDOF 0
ENDMDL
