MODEL 1
REMARK VINA RESULT:      -3.8      0.000      0.000
REMARK  3 active torsions:
REMARK  status: ('A' for Active; 'I' for Inactive)
REMARK    1  A    between atoms: C1_1  and  C3_3 
REMARK    2  A    between atoms: C1_1  and  N4_4 
REMARK    3  A    between atoms: C2_2  and  C3_3 
ROOT
HETATM    1  C1  UNL     1     -34.388   6.907   4.725  1.00 20.00     0.222 C 
ENDROOT
BRANCH   1   2
HETATM    2  C3  UNL     1     -32.912   7.201   4.482  1.00 20.00     0.120 C 
HETATM    3 CL8  UNL     1     -32.515   8.888   4.958  1.00 20.00    -0.122 Cl
BRANCH   2   4
HETATM    4  C2  UNL     1     -32.488   6.949   3.032  1.00 20.00     0.136 C 
HETATM    5 CL7  UNL     1     -32.811   5.288   2.472  1.00 20.00    -0.129 Cl
ENDBRANCH   2   4
ENDBRANCH   1   2
BRANCH   1   6
HETATM    6  N4  UNL     1     -34.504   5.655   5.495  1.00 20.00    -0.154 N 
HETATM    7  O5  UNL     1     -34.927   4.653   4.896  1.00 20.00    -0.536 OA
HETATM    8  O6  UNL     1     -34.158   5.677   6.688  1.00 20.00    -0.536 OA
ENDBRANCH   1   6
TORSDOF 3
ENDMDL
MODEL 2
REMARK VINA RESULT:      -3.7      2.059      2.498
REMARK  3 active torsions:
REMARK  status: ('A' for Active; 'I' for Inactive)
REMARK    1  A    between atoms: C1_1  and  C3_3 
REMARK    2  A    between atoms: C1_1  and  N4_4 
REMARK    3  A    between atoms: C2_2  and  C3_3 
ROOT
HETATM    1  C1  UNL     1     -34.307   6.431   4.140  1.00 20.00     0.222 C 
ENDROOT
BRANCH   1   2
HETATM    2  C3  UNL     1     -33.450   6.971   5.279  1.00 20.00     0.120 C 
HETATM    3 CL8  UNL     1     -34.378   6.986   6.818  1.00 20.00    -0.122 Cl
BRANCH   2   4
HETATM    4  C2  UNL     1     -32.888   8.366   4.989  1.00 20.00     0.136 C 
HETATM    5 CL7  UNL     1     -32.557   8.657   3.263  1.00 20.00    -0.129 Cl
ENDBRANCH   2   4
ENDBRANCH   1   2
BRANCH   1   6
HETATM    6  N4  UNL     1     -33.791   5.108   3.741  1.00 20.00    -0.154 N 
HETATM    7  O5  UNL     1     -33.032   5.064   2.759  1.00 20.00    -0.536 OA
HETATM    8  O6  UNL     1     -34.135   4.126   4.419  1.00 20.00    -0.536 OA
ENDBRANCH   1   6
TORSDOF 3
ENDMDL
MODEL 3
REMARK VINA RESULT:      -3.6      3.112      3.359
REMARK  3 active torsions:
REMARK  status: ('A' for Active; 'I' for Inactive)
REMARK    1  A    between atoms: C1_1  and  C3_3 
REMARK    2  A    between atoms: C1_1  and  N4_4 
REMARK    3  A    between atoms: C2_2  and  C3_3 
ROOT
HETATM    1  C1  UNL     1     -32.935   7.075   4.157  1.00 20.00     0.222 C 
ENDROOT
BRANCH   1   2
HETATM    2  C3  UNL     1     -34.283   6.997   4.864  1.00 20.00     0.120 C 
HETATM    3 CL8  UNL     1     -34.070   7.101   6.646  1.00 20.00    -0.122 Cl
BRANCH   2   4
HETATM    4  C2  UNL     1     -35.071   5.735   4.501  1.00 20.00     0.136 C 
HETATM    5 CL7  UNL     1     -34.057   4.277   4.358  1.00 20.00    -0.129 Cl
ENDBRANCH   2   4
ENDBRANCH   1   2
BRANCH   1   6
HETATM    6  N4  UNL     1     -32.590   8.494   3.945  1.00 20.00    -0.154 N 
HETATM    7  O5  UNL     1     -32.695   8.941   2.791  1.00 20.00    -0.536 OA
HETATM    8  O6  UNL     1     -32.231   9.155   4.934  1.00 20.00    -0.536 OA
ENDBRANCH   1   6
TORSDOF 3
ENDMDL
MODEL 4
REMARK VINA RESULT:      -3.6      0.940      2.457
REMARK  3 active torsions:
REMARK  status: ('A' for Active; 'I' for Inactive)
REMARK    1  A    between atoms: C1_1  and  C3_3 
REMARK    2  A    between atoms: C1_1  and  N4_4 
REMARK    3  A    between atoms: C2_2  and  C3_3 
ROOT
HETATM    1  C1  UNL     1     -33.843   6.619   4.976  1.00 20.00     0.222 C 
ENDROOT
BRANCH   1   2
HETATM    2  C3  UNL     1     -33.285   6.935   3.593  1.00 20.00     0.120 C 
HETATM    3 CL8  UNL     1     -32.827   5.424   2.734  1.00 20.00    -0.122 Cl
BRANCH   2   4
HETATM    4  C2  UNL     1     -32.094   7.897   3.640  1.00 20.00     0.136 C 
HETATM    5 CL7  UNL     1     -32.210   9.114   4.936  1.00 20.00    -0.129 Cl
ENDBRANCH   2   4
ENDBRANCH   1   2
BRANCH   1   6
HETATM    6  N4  UNL     1     -34.910   5.609   4.840  1.00 20.00    -0.154 N 
HETATM    7  O5  UNL     1     -35.942   5.946   4.236  1.00 20.00    -0.536 OA
HETATM    8  O6  UNL     1     -34.705   4.484   5.324  1.00 20.00    -0.536 OA
ENDBRANCH   1   6
TORSDOF 3
ENDMDL
MODEL 5
REMARK VINA RESULT:      -3.4     13.553     13.890
REMARK  3 active torsions:
REMARK  status: ('A' for Active; 'I' for Inactive)
REMARK    1  A    between atoms: C1_1  and  C3_3 
REMARK    2  A    between atoms: C1_1  and  N4_4 
REMARK    3  A    between atoms: C2_2  and  C3_3 
ROOT
HETATM    1  C1  UNL     1     -35.210  16.126  -5.820  1.00 20.00     0.222 C 
ENDROOT
BRANCH   1   2
HETATM    2  C3  UNL     1     -34.075  16.033  -4.806  1.00 20.00     0.120 C 
HETATM    3 CL8  UNL     1     -34.072  14.426  -4.004  1.00 20.00    -0.122 Cl
BRANCH   2   4
HETATM    4  C2  UNL     1     -34.125  17.147  -3.756  1.00 20.00     0.136 C 
HETATM    5 CL7  UNL     1     -33.438  16.674  -2.181  1.00 20.00    -0.129 Cl
ENDBRANCH   2   4
ENDBRANCH   1   2
BRANCH   1   6
HETATM    6  N4  UNL     1     -35.037  15.062  -6.827  1.00 20.00    -0.154 N 
HETATM    7  O5  UNL     1     -36.003  14.309  -7.033  1.00 20.00    -0.536 OA
HETATM    8  O6  UNL     1     -33.945  14.995  -7.414  1.00 20.00    -0.536 OA
ENDBRANCH   1   6
TORSDOF 3
ENDMDL
MODEL 6
REMARK VINA RESULT:      -3.4      3.111      3.458
REMARK  3 active torsions:
REMARK  status: ('A' for Active; 'I' for Inactive)
REMARK    1  A    between atoms: C1_1  and  C3_3 
REMARK    2  A    between atoms: C1_1  and  N4_4 
REMARK    3  A    between atoms: C2_2  and  C3_3 
ROOT
HETATM    1  C1  UNL     1     -32.503   7.281   4.143  1.00 20.00     0.222 C 
ENDROOT
BRANCH   1   2
HETATM    2  C3  UNL     1     -33.883   6.855   4.630  1.00 20.00     0.120 C 
HETATM    3 CL8  UNL     1     -33.963   6.895   6.425  1.00 20.00    -0.122 Cl
BRANCH   2   4
HETATM    4  C2  UNL     1     -34.292   5.472   4.115  1.00 20.00     0.136 C 
HETATM    5 CL7  UNL     1     -33.255   4.864   2.800  1.00 20.00    -0.129 Cl
ENDBRANCH   2   4
ENDBRANCH   1   2
BRANCH   1   6
HETATM    6  N4  UNL     1     -32.483   8.749   3.995  1.00 20.00    -0.154 N 
HETATM    7  O5  UNL     1     -32.180   9.420   4.995  1.00 20.00    -0.536 OA
HETATM    8  O6  UNL     1     -32.755   9.220   2.878  1.00 20.00    -0.536 OA
ENDBRANCH   1   6
TORSDOF 3
ENDMDL
MODEL 7
REMARK VINA RESULT:      -3.3      3.189      3.659
REMARK  3 active torsions:
REMARK  status: ('A' for Active; 'I' for Inactive)
REMARK    1  A    between atoms: C1_1  and  C3_3 
REMARK    2  A    between atoms: C1_1  and  N4_4 
REMARK    3  A    between atoms: C2_2  and  C3_3 
ROOT
HETATM    1  C1  UNL     1     -33.964   7.522   4.193  1.00 20.00     0.222 C 
ENDROOT
BRANCH   1   2
HETATM    2  C3  UNL     1     -33.489   6.074   4.244  1.00 20.00     0.120 C 
HETATM    3 CL8  UNL     1     -33.012   5.506   2.607  1.00 20.00    -0.122 Cl
BRANCH   2   4
HETATM    4  C2  UNL     1     -34.533   5.129   4.846  1.00 20.00     0.136 C 
HETATM    5 CL7  UNL     1     -34.827   5.403   6.582  1.00 20.00    -0.129 Cl
ENDBRANCH   2   4
ENDBRANCH   1   2
BRANCH   1   6
HETATM    6  N4  UNL     1     -32.792   8.402   4.027  1.00 20.00    -0.154 N 
HETATM    7  O5  UNL     1     -32.582   8.866   2.894  1.00 20.00    -0.536 OA
HETATM    8  O6  UNL     1     -32.098   8.635   5.030  1.00 20.00    -0.536 OA
ENDBRANCH   1   6
TORSDOF 3
ENDMDL
MODEL 8
REMARK VINA RESULT:      -3.3     13.229     13.778
REMARK  3 active torsions:
REMARK  status: ('A' for Active; 'I' for Inactive)
REMARK    1  A    between atoms: C1_1  and  C3_3 
REMARK    2  A    between atoms: C1_1  and  N4_4 
REMARK    3  A    between atoms: C2_2  and  C3_3 
ROOT
HETATM    1  C1  UNL     1     -34.448  15.096  -6.082  1.00 20.00     0.222 C 
ENDROOT
BRANCH   1   2
HETATM    2  C3  UNL     1     -34.482  15.970  -4.833  1.00 20.00     0.120 C 
HETATM    3 CL8  UNL     1     -34.395  17.709  -5.275  1.00 20.00    -0.122 Cl
BRANCH   2   4
HETATM    4  C2  UNL     1     -33.371  15.623  -3.837  1.00 20.00     0.136 C 
HETATM    5 CL7  UNL     1     -33.438  16.577  -2.333  1.00 20.00    -0.129 Cl
ENDBRANCH   2   4
ENDBRANCH   1   2
BRANCH   1   6
HETATM    6  N4  UNL     1     -35.812  14.602  -6.354  1.00 20.00    -0.154 N 
HETATM    7  O5  UNL     1     -36.602  14.549  -5.397  1.00 20.00    -0.536 OA
HETATM    8  O6  UNL     1     -36.088  14.284  -7.523  1.00 20.00    -0.536 OA
ENDBRANCH   1   6
TORSDOF 3
ENDMDL
MODEL 9
REMARK VINA RESULT:      -3.3     12.808     13.299
REMARK  3 active torsions:
REMARK  status: ('A' for Active; 'I' for Inactive)
REMARK    1  A    between atoms: C1_1  and  C3_3 
REMARK    2  A    between atoms: C1_1  and  N4_4 
REMARK    3  A    between atoms: C2_2  and  C3_3 
ROOT
HETATM    1  C1  UNL     1     -34.609  14.804  -4.996  1.00 20.00     0.222 C 
ENDROOT
BRANCH   1   2
HETATM    2  C3  UNL     1     -34.935  16.284  -5.161  1.00 20.00     0.120 C 
HETATM    3 CL8  UNL     1     -34.516  16.845  -6.816  1.00 20.00    -0.122 Cl
BRANCH   2   4
HETATM    4  C2  UNL     1     -34.241  17.164  -4.116  1.00 20.00     0.136 C 
HETATM    5 CL7  UNL     1     -33.400  16.237  -2.848  1.00 20.00    -0.129 Cl
ENDBRANCH   2   4
ENDBRANCH   1   2
BRANCH   1   6
HETATM    6  N4  UNL     1     -35.871  14.049  -4.878  1.00 20.00    -0.154 N 
HETATM    7  O5  UNL     1     -35.824  12.945  -4.311  1.00 20.00    -0.536 OA
HETATM    8  O6  UNL     1     -36.900  14.570  -5.338  1.00 20.00    -0.536 OA
ENDBRANCH   1   6
TORSDOF 3
ENDMDL
