MODEL 1
REMARK VINA RESULT:      -4.3      0.000      0.000
REMARK  1 active torsions:
REMARK  status: ('A' for Active; 'I' for Inactive)
REMARK    1  A    between atoms: C8_8  and  C12_12 
ROOT
HETATM    1  C1  UNL     1     -43.072  15.220   6.205  1.00 20.00    -0.023 C 
HETATM    2  C2  UNL     1     -42.431  14.347   5.405  1.00 20.00    -0.081 C 
HETATM    3  C3  UNL     1     -43.229  15.012   7.689  1.00 20.00     0.034 C 
HETATM    4  C4  UNL     1     -42.544  12.654   7.254  1.00 20.00     0.018 C 
HETATM    5  C5  UNL     1     -40.899  14.232   8.334  1.00 20.00     0.173 C 
HETATM    6  C6  UNL     1     -41.835  13.051   5.951  1.00 20.00     0.043 C 
HETATM    7  C7  UNL     1     -42.386  13.834   8.217  1.00 20.00     0.014 C 
HETATM    8  C8  UNL     1     -40.322  13.239   6.235  1.00 20.00     0.133 C 
HETATM    9  C9  UNL     1     -42.275  14.589   3.931  1.00 20.00     0.043 C 
HETATM   10  O13 UNL     1     -40.049  13.315   7.645  1.00 20.00    -0.384 OA
ENDROOT
BRANCH   8  11
HETATM   11  C12 UNL     1     -39.515  12.058   5.703  1.00 20.00     0.007 C 
HETATM   12  C10 UNL     1     -39.570  12.016   4.178  1.00 20.00     0.012 C 
HETATM   13  C11 UNL     1     -38.070  12.135   6.187  1.00 20.00     0.012 C 
ENDBRANCH   8  11
TORSDOF 1
ENDMDL
MODEL 2
REMARK VINA RESULT:      -4.0     12.021     13.471
REMARK  1 active torsions:
REMARK  status: ('A' for Active; 'I' for Inactive)
REMARK    1  A    between atoms: C8_8  and  C12_12 
ROOT
HETATM    1  C1  UNL     1     -33.429  16.621  -2.199  1.00 20.00    -0.023 C 
HETATM    2  C2  UNL     1     -33.615  16.376  -3.510  1.00 20.00    -0.081 C 
HETATM    3  C3  UNL     1     -33.598  17.986  -1.586  1.00 20.00     0.034 C 
HETATM    4  C4  UNL     1     -33.547  18.850  -3.925  1.00 20.00     0.018 C 
HETATM    5  C5  UNL     1     -35.746  18.769  -2.693  1.00 20.00     0.173 C 
HETATM    6  C6  UNL     1     -33.987  17.490  -4.487  1.00 20.00     0.043 C 
HETATM    7  C7  UNL     1     -34.225  19.002  -2.561  1.00 20.00     0.014 C 
HETATM    8  C8  UNL     1     -35.521  17.508  -4.714  1.00 20.00     0.133 C 
HETATM    9  C9  UNL     1     -33.455  15.000  -4.090  1.00 20.00     0.043 C 
HETATM   10  O13 UNL     1     -36.144  18.624  -4.056  1.00 20.00    -0.384 OA
ENDROOT
BRANCH   8  11
HETATM   11  C12 UNL     1     -35.852  17.641  -6.197  1.00 20.00     0.007 C 
HETATM   12  C10 UNL     1     -34.679  17.168  -7.052  1.00 20.00     0.012 C 
HETATM   13  C11 UNL     1     -37.116  16.856  -6.537  1.00 20.00     0.012 C 
ENDBRANCH   8  11
TORSDOF 1
ENDMDL
MODEL 3
REMARK VINA RESULT:      -3.8     12.391     13.594
REMARK  1 active torsions:
REMARK  status: ('A' for Active; 'I' for Inactive)
REMARK    1  A    between atoms: C8_8  and  C12_12 
ROOT
HETATM    1  C1  UNL     1     -36.731  15.919  -5.646  1.00 20.00    -0.023 C 
HETATM    2  C2  UNL     1     -36.195  17.007  -5.060  1.00 20.00    -0.081 C 
HETATM    3  C3  UNL     1     -35.904  14.864  -6.332  1.00 20.00     0.034 C 
HETATM    4  C4  UNL     1     -34.044  16.523  -6.258  1.00 20.00     0.018 C 
HETATM    5  C5  UNL     1     -34.003  14.561  -4.674  1.00 20.00     0.173 C 
HETATM    6  C6  UNL     1     -34.690  17.265  -5.080  1.00 20.00     0.043 C 
HETATM    7  C7  UNL     1     -34.393  15.041  -6.089  1.00 20.00     0.014 C 
HETATM    8  C8  UNL     1     -34.048  16.770  -3.757  1.00 20.00     0.133 C 
HETATM    9  C9  UNL     1     -37.044  18.034  -4.368  1.00 20.00     0.043 C 
HETATM   10  O13 UNL     1     -33.290  15.563  -3.951  1.00 20.00    -0.384 OA
ENDROOT
BRANCH   8  11
HETATM   11  C12 UNL     1     -33.076  17.805  -3.201  1.00 20.00     0.007 C 
HETATM   12  C10 UNL     1     -33.450  19.205  -3.683  1.00 20.00     0.012 C 
HETATM   13  C11 UNL     1     -33.051  17.751  -1.675  1.00 20.00     0.012 C 
ENDBRANCH   8  11
TORSDOF 1
ENDMDL
MODEL 4
REMARK VINA RESULT:      -3.8     10.896     12.718
REMARK  1 active torsions:
REMARK  status: ('A' for Active; 'I' for Inactive)
REMARK    1  A    between atoms: C8_8  and  C12_12 
ROOT
HETATM    1  C1  UNL     1     -36.122  17.763  -4.360  1.00 20.00    -0.023 C 
HETATM    2  C2  UNL     1     -35.829  18.568  -3.320  1.00 20.00    -0.081 C 
HETATM    3  C3  UNL     1     -35.071  17.039  -5.160  1.00 20.00     0.034 C 
HETATM    4  C4  UNL     1     -33.435  18.576  -4.073  1.00 20.00     0.018 C 
HETATM    5  C5  UNL     1     -33.550  16.172  -3.320  1.00 20.00     0.173 C 
HETATM    6  C6  UNL     1     -34.386  18.831  -2.895  1.00 20.00     0.043 C 
HETATM    7  C7  UNL     1     -33.670  17.132  -4.524  1.00 20.00     0.014 C 
HETATM    8  C8  UNL     1     -33.999  17.894  -1.720  1.00 20.00     0.133 C 
HETATM    9  C9  UNL     1     -36.900  19.263  -2.530  1.00 20.00     0.043 C 
HETATM   10  O13 UNL     1     -33.107  16.849  -2.144  1.00 20.00    -0.384 OA
ENDROOT
BRANCH   8  11
HETATM   11  C12 UNL     1     -33.271  18.664  -0.624  1.00 20.00     0.007 C 
HETATM   12  C10 UNL     1     -33.825  18.293   0.750  1.00 20.00     0.012 C 
HETATM   13  C11 UNL     1     -31.770  18.397  -0.688  1.00 20.00     0.012 C 
ENDBRANCH   8  11
TORSDOF 1
ENDMDL
MODEL 5
REMARK VINA RESULT:      -3.7     12.137     14.130
REMARK  1 active torsions:
REMARK  status: ('A' for Active; 'I' for Inactive)
REMARK    1  A    between atoms: C8_8  and  C12_12 
ROOT
HETATM    1  C1  UNL     1     -34.314  15.660  -6.467  1.00 20.00    -0.023 C 
HETATM    2  C2  UNL     1     -34.178  15.695  -5.127  1.00 20.00    -0.081 C 
HETATM    3  C3  UNL     1     -34.995  16.749  -7.253  1.00 20.00     0.034 C 
HETATM    4  C4  UNL     1     -35.884  17.535  -5.059  1.00 20.00     0.018 C 
HETATM    5  C5  UNL     1     -34.026  18.831  -6.167  1.00 20.00     0.173 C 
HETATM    6  C6  UNL     1     -34.743  16.846  -4.297  1.00 20.00     0.043 C 
HETATM    7  C7  UNL     1     -35.303  17.995  -6.399  1.00 20.00     0.014 C 
HETATM    8  C8  UNL     1     -33.630  17.886  -4.004  1.00 20.00     0.133 C 
HETATM    9  C9  UNL     1     -33.478  14.602  -4.373  1.00 20.00     0.043 C 
HETATM   10  O13 UNL     1     -33.803  19.085  -4.780  1.00 20.00    -0.384 OA
ENDROOT
BRANCH   8  11
HETATM   11  C12 UNL     1     -33.652  18.313  -2.540  1.00 20.00     0.007 C 
HETATM   12  C10 UNL     1     -33.596  17.092  -1.626  1.00 20.00     0.012 C 
HETATM   13  C11 UNL     1     -32.495  19.263  -2.241  1.00 20.00     0.012 C 
ENDBRANCH   8  11
TORSDOF 1
ENDMDL
MODEL 6
REMARK VINA RESULT:      -3.7     12.600     14.011
REMARK  1 active torsions:
REMARK  status: ('A' for Active; 'I' for Inactive)
REMARK    1  A    between atoms: C8_8  and  C12_12 
ROOT
HETATM    1  C1  UNL     1     -35.670  17.326  -7.882  1.00 20.00    -0.023 C 
HETATM    2  C2  UNL     1     -34.990  16.378  -7.210  1.00 20.00    -0.081 C 
HETATM    3  C3  UNL     1     -36.802  18.112  -7.275  1.00 20.00     0.034 C 
HETATM    4  C4  UNL     1     -36.804  16.385  -5.476  1.00 20.00     0.018 C 
HETATM    5  C5  UNL     1     -35.852  18.669  -4.985  1.00 20.00     0.173 C 
HETATM    6  C6  UNL     1     -35.345  16.009  -5.771  1.00 20.00     0.043 C 
HETATM    7  C7  UNL     1     -36.937  17.884  -5.757  1.00 20.00     0.014 C 
HETATM    8  C8  UNL     1     -34.418  16.764  -4.783  1.00 20.00     0.133 C 
HETATM    9  C9  UNL     1     -33.854  15.622  -7.836  1.00 20.00     0.043 C 
HETATM   10  O13 UNL     1     -35.113  17.824  -4.104  1.00 20.00    -0.384 OA
ENDROOT
BRANCH   8  11
HETATM   11  C12 UNL     1     -33.895  15.827  -3.699  1.00 20.00     0.007 C 
HETATM   12  C10 UNL     1     -32.845  14.879  -4.272  1.00 20.00     0.012 C 
HETATM   13  C11 UNL     1     -33.318  16.626  -2.533  1.00 20.00     0.012 C 
ENDBRANCH   8  11
TORSDOF 1
ENDMDL
MODEL 7
REMARK VINA RESULT:      -3.6      1.896      3.938
REMARK  1 active torsions:
REMARK  status: ('A' for Active; 'I' for Inactive)
REMARK    1  A    between atoms: C8_8  and  C12_12 
ROOT
HETATM    1  C1  UNL     1     -42.008  15.499   5.939  1.00 20.00    -0.023 C 
HETATM    2  C2  UNL     1     -41.297  15.756   7.054  1.00 20.00    -0.081 C 
HETATM    3  C3  UNL     1     -42.269  14.104   5.433  1.00 20.00     0.034 C 
HETATM    4  C4  UNL     1     -40.468  13.388   7.003  1.00 20.00     0.018 C 
HETATM    5  C5  UNL     1     -42.873  12.896   7.585  1.00 20.00     0.173 C 
HETATM    6  C6  UNL     1     -40.671  14.633   7.878  1.00 20.00     0.043 C 
HETATM    7  C7  UNL     1     -41.843  13.018   6.440  1.00 20.00     0.014 C 
HETATM    8  C8  UNL     1     -41.594  14.269   9.070  1.00 20.00     0.133 C 
HETATM    9  C9  UNL     1     -41.069  17.157   7.543  1.00 20.00     0.043 C 
HETATM   10  O13 UNL     1     -42.255  13.009   8.867  1.00 20.00    -0.384 OA
ENDROOT
BRANCH   8  11
HETATM   11  C12 UNL     1     -40.792  14.132  10.360  1.00 20.00     0.007 C 
HETATM   12  C10 UNL     1     -40.194  15.478  10.765  1.00 20.00     0.012 C 
HETATM   13  C11 UNL     1     -41.668  13.575  11.479  1.00 20.00     0.012 C 
ENDBRANCH   8  11
TORSDOF 1
ENDMDL
MODEL 8
REMARK VINA RESULT:      -3.6      1.525      2.121
REMARK  1 active torsions:
REMARK  status: ('A' for Active; 'I' for Inactive)
REMARK    1  A    between atoms: C8_8  and  C12_12 
ROOT
HETATM    1  C1  UNL     1     -42.086  16.925   8.397  1.00 20.00    -0.023 C 
HETATM    2  C2  UNL     1     -42.165  16.140   7.305  1.00 20.00    -0.081 C 
HETATM    3  C3  UNL     1     -41.953  16.379   9.794  1.00 20.00     0.034 C 
HETATM    4  C4  UNL     1     -42.621  14.186   8.812  1.00 20.00     0.018 C 
HETATM    5  C5  UNL     1     -40.211  14.560   9.455  1.00 20.00     0.173 C 
HETATM    6  C6  UNL     1     -42.155  14.617   7.413  1.00 20.00     0.043 C 
HETATM    7  C7  UNL     1     -41.682  14.861   9.815  1.00 20.00     0.014 C 
HETATM    8  C8  UNL     1     -40.722  14.076   7.168  1.00 20.00     0.133 C 
HETATM    9  C9  UNL     1     -42.281  16.715   5.922  1.00 20.00     0.043 C 
HETATM   10  O13 UNL     1     -40.109  13.619   8.386  1.00 20.00    -0.384 OA
ENDROOT
BRANCH   8  11
HETATM   11  C12 UNL     1     -40.745  12.879   6.223  1.00 20.00     0.007 C 
HETATM   12  C10 UNL     1     -41.124  13.319   4.811  1.00 20.00     0.012 C 
HETATM   13  C11 UNL     1     -39.392  12.172   6.220  1.00 20.00     0.012 C 
ENDBRANCH   8  11
TORSDOF 1
ENDMDL
MODEL 9
REMARK VINA RESULT:      -3.6     12.374     13.758
REMARK  1 active torsions:
REMARK  status: ('A' for Active; 'I' for Inactive)
REMARK    1  A    between atoms: C8_8  and  C12_12 
ROOT
HETATM    1  C1  UNL     1     -37.483  17.593  -5.922  1.00 20.00    -0.023 C 
HETATM    2  C2  UNL     1     -36.449  17.893  -5.112  1.00 20.00    -0.081 C 
HETATM    3  C3  UNL     1     -37.342  16.735  -7.152  1.00 20.00     0.034 C 
HETATM    4  C4  UNL     1     -34.886  17.094  -6.905  1.00 20.00     0.018 C 
HETATM    5  C5  UNL     1     -35.869  14.855  -6.285  1.00 20.00     0.173 C 
HETATM    6  C6  UNL     1     -35.034  17.402  -5.408  1.00 20.00     0.043 C 
HETATM    7  C7  UNL     1     -35.960  16.058  -7.249  1.00 20.00     0.014 C 
HETATM    8  C8  UNL     1     -34.736  16.115  -4.595  1.00 20.00     0.133 C 
HETATM    9  C9  UNL     1     -36.624  18.736  -3.882  1.00 20.00     0.043 C 
HETATM   10  O13 UNL     1     -34.728  14.945  -5.432  1.00 20.00    -0.384 OA
ENDROOT
BRANCH   8  11
HETATM   11  C12 UNL     1     -33.360  16.187  -3.942  1.00 20.00     0.007 C 
HETATM   12  C10 UNL     1     -33.488  16.512  -2.456  1.00 20.00     0.012 C 
HETATM   13  C11 UNL     1     -32.602  14.877  -4.142  1.00 20.00     0.012 C 
ENDBRANCH   8  11
TORSDOF 1
ENDMDL
