MODEL 1
REMARK VINA RESULT:      -4.0      0.000      0.000
REMARK  1 active torsions:
REMARK  status: ('A' for Active; 'I' for Inactive)
REMARK    1  A    between atoms: C1_1  and  C3_3 
ROOT
HETATM    1  C1  UNL     1     -40.979  14.201   7.681  1.00 20.00     0.038 A 
HETATM    2  C2  UNL     1     -42.402  13.805   7.925  1.00 20.00     0.160 A 
HETATM    3  C4  UNL     1     -42.690  12.539   7.142  1.00 20.00     0.090 A 
HETATM    4  C5  UNL     1     -40.321  13.224   6.801  1.00 20.00     0.039 A 
HETATM    5  C6  UNL     1     -41.383  12.187   6.465  1.00 20.00     0.011 A 
HETATM    6  C7  UNL     1     -40.741  13.010   5.361  1.00 20.00    -0.035 A 
HETATM    7  C9  UNL     1     -41.539  14.062   4.632  1.00 20.00     0.016 C 
HETATM    8  C10 UNL     1     -39.755  12.297   4.467  1.00 20.00     0.016 C 
HETATM    9  O12 UNL     1     -43.201  14.400   8.629  1.00 20.00    -0.293 OA
ENDROOT
BRANCH   1  10
HETATM   10  C3  UNL     1     -40.473  15.311   8.225  1.00 20.00     0.155 C 
HETATM   11  C8  UNL     1     -40.686  16.627   7.491  1.00 20.00     0.096 C 
HETATM   12  O11 UNL     1     -39.815  15.487   9.294  1.00 20.00    -0.293 OA
ENDBRANCH   1  10
TORSDOF 1
ENDMDL
MODEL 2
REMARK VINA RESULT:      -3.9      1.841      3.647
REMARK  1 active torsions:
REMARK  status: ('A' for Active; 'I' for Inactive)
REMARK    1  A    between atoms: C1_1  and  C3_3 
ROOT
HETATM    1  C1  UNL     1     -40.944  13.361   6.610  1.00 20.00     0.038 A 
HETATM    2  C2  UNL     1     -42.290  12.863   7.036  1.00 20.00     0.160 A 
HETATM    3  C4  UNL     1     -43.156  14.057   7.386  1.00 20.00     0.090 A 
HETATM    4  C5  UNL     1     -40.913  14.831   6.633  1.00 20.00     0.039 A 
HETATM    5  C6  UNL     1     -42.290  15.268   7.114  1.00 20.00     0.011 A 
HETATM    6  C7  UNL     1     -41.048  15.631   7.913  1.00 20.00    -0.035 A 
HETATM    7  C9  UNL     1     -40.788  14.983   9.251  1.00 20.00     0.016 C 
HETATM    8  C10 UNL     1     -40.604  17.072   7.862  1.00 20.00     0.016 C 
HETATM    9  O12 UNL     1     -42.634  11.695   7.100  1.00 20.00    -0.293 OA
ENDROOT
BRANCH   1  10
HETATM   10  C3  UNL     1     -39.969  12.509   6.282  1.00 20.00     0.155 C 
HETATM   11  C8  UNL     1     -39.818  12.125   4.818  1.00 20.00     0.096 C 
HETATM   12  O11 UNL     1     -39.099  11.928   6.998  1.00 20.00    -0.293 OA
ENDBRANCH   1  10
TORSDOF 1
ENDMDL
MODEL 3
REMARK VINA RESULT:      -3.7     11.838     13.650
REMARK  1 active torsions:
REMARK  status: ('A' for Active; 'I' for Inactive)
REMARK    1  A    between atoms: C1_1  and  C3_3 
ROOT
HETATM    1  C1  UNL     1     -33.710  17.105  -3.558  1.00 20.00     0.038 A 
HETATM    2  C2  UNL     1     -33.291  18.373  -4.235  1.00 20.00     0.160 A 
HETATM    3  C4  UNL     1     -32.613  19.263  -3.211  1.00 20.00     0.090 A 
HETATM    4  C5  UNL     1     -33.299  17.119  -2.147  1.00 20.00     0.039 A 
HETATM    5  C6  UNL     1     -32.613  18.461  -1.928  1.00 20.00     0.011 A 
HETATM    6  C7  UNL     1     -33.864  18.103  -1.141  1.00 20.00    -0.035 A 
HETATM    7  C9  UNL     1     -35.166  18.814  -1.416  1.00 20.00     0.016 C 
HETATM    8  C10 UNL     1     -33.676  17.763   0.318  1.00 20.00     0.016 C 
HETATM    9  O12 UNL     1     -33.469  18.652  -5.409  1.00 20.00    -0.293 OA
ENDROOT
BRANCH   1  10
HETATM   10  C3  UNL     1     -34.370  16.157  -4.228  1.00 20.00     0.155 C 
HETATM   11  C8  UNL     1     -33.811  14.742  -4.201  1.00 20.00     0.096 C 
HETATM   12  O11 UNL     1     -35.432  16.213  -4.919  1.00 20.00    -0.293 OA
ENDBRANCH   1  10
TORSDOF 1
ENDMDL
MODEL 4
REMARK VINA RESULT:      -3.7     12.897     13.916
REMARK  1 active torsions:
REMARK  status: ('A' for Active; 'I' for Inactive)
REMARK    1  A    between atoms: C1_1  and  C3_3 
ROOT
HETATM    1  C1  UNL     1     -34.391  17.056  -4.597  1.00 20.00     0.038 A 
HETATM    2  C2  UNL     1     -33.714  16.044  -3.726  1.00 20.00     0.160 A 
HETATM    3  C4  UNL     1     -33.455  14.798  -4.550  1.00 20.00     0.090 A 
HETATM    4  C5  UNL     1     -34.549  16.532  -5.961  1.00 20.00     0.039 A 
HETATM    5  C6  UNL     1     -33.965  15.126  -5.936  1.00 20.00     0.011 A 
HETATM    6  C7  UNL     1     -35.430  15.341  -6.281  1.00 20.00    -0.035 A 
HETATM    7  C9  UNL     1     -36.510  14.908  -5.321  1.00 20.00     0.016 C 
HETATM    8  C10 UNL     1     -35.822  15.158  -7.728  1.00 20.00     0.016 C 
HETATM    9  O12 UNL     1     -33.423  16.190  -2.551  1.00 20.00    -0.293 OA
ENDROOT
BRANCH   1  10
HETATM   10  C3  UNL     1     -34.770  18.240  -4.106  1.00 20.00     0.155 C 
HETATM   11  C8  UNL     1     -36.253  18.469  -3.858  1.00 20.00     0.096 C 
HETATM   12  O11 UNL     1     -34.091  19.263  -3.789  1.00 20.00    -0.293 OA
ENDBRANCH   1  10
TORSDOF 1
ENDMDL
MODEL 5
REMARK VINA RESULT:      -3.7     13.053     14.145
REMARK  1 active torsions:
REMARK  status: ('A' for Active; 'I' for Inactive)
REMARK    1  A    between atoms: C1_1  and  C3_3 
ROOT
HETATM    1  C1  UNL     1     -34.264  15.553  -5.015  1.00 20.00     0.038 A 
HETATM    2  C2  UNL     1     -35.304  14.478  -5.062  1.00 20.00     0.160 A 
HETATM    3  C4  UNL     1     -36.306  14.824  -6.146  1.00 20.00     0.090 A 
HETATM    4  C5  UNL     1     -34.529  16.566  -6.048  1.00 20.00     0.039 A 
HETATM    5  C6  UNL     1     -35.799  16.114  -6.756  1.00 20.00     0.011 A 
HETATM    6  C7  UNL     1     -35.761  17.448  -6.029  1.00 20.00    -0.035 A 
HETATM    7  C9  UNL     1     -36.543  17.644  -4.754  1.00 20.00     0.016 C 
HETATM    8  C10 UNL     1     -35.718  18.689  -6.888  1.00 20.00     0.016 C 
HETATM    9  O12 UNL     1     -35.346  13.490  -4.348  1.00 20.00    -0.293 OA
ENDROOT
BRANCH   1  10
HETATM   10  C3  UNL     1     -33.278  15.514  -4.116  1.00 20.00     0.155 C 
HETATM   11  C8  UNL     1     -33.407  16.385  -2.875  1.00 20.00     0.096 C 
HETATM   12  O11 UNL     1     -32.196  14.853  -4.098  1.00 20.00    -0.293 OA
ENDBRANCH   1  10
TORSDOF 1
ENDMDL
MODEL 6
REMARK VINA RESULT:      -3.6     13.050     14.597
REMARK  1 active torsions:
REMARK  status: ('A' for Active; 'I' for Inactive)
REMARK    1  A    between atoms: C1_1  and  C3_3 
ROOT
HETATM    1  C1  UNL     1     -34.528  15.770  -5.290  1.00 20.00     0.038 A 
HETATM    2  C2  UNL     1     -34.397  15.930  -6.773  1.00 20.00     0.160 A 
HETATM    3  C4  UNL     1     -34.592  17.394  -7.117  1.00 20.00     0.090 A 
HETATM    4  C5  UNL     1     -34.764  17.074  -4.654  1.00 20.00     0.039 A 
HETATM    5  C6  UNL     1     -34.802  18.088  -5.789  1.00 20.00     0.011 A 
HETATM    6  C7  UNL     1     -36.019  17.888  -4.900  1.00 20.00    -0.035 A 
HETATM    7  C9  UNL     1     -37.262  17.230  -5.447  1.00 20.00     0.016 C 
HETATM    8  C10 UNL     1     -36.322  18.982  -3.905  1.00 20.00     0.016 C 
HETATM    9  O12 UNL     1     -34.177  15.037  -7.574  1.00 20.00    -0.293 OA
ENDROOT
BRANCH   1  10
HETATM   10  C3  UNL     1     -34.438  14.565  -4.721  1.00 20.00     0.155 C 
HETATM   11  C8  UNL     1     -35.704  13.727  -4.618  1.00 20.00     0.096 C 
HETATM   12  O11 UNL     1     -33.445  13.953  -4.223  1.00 20.00    -0.293 OA
ENDBRANCH   1  10
TORSDOF 1
ENDMDL
MODEL 7
REMARK VINA RESULT:      -3.6      1.954      4.234
REMARK  1 active torsions:
REMARK  status: ('A' for Active; 'I' for Inactive)
REMARK    1  A    between atoms: C1_1  and  C3_3 
ROOT
HETATM    1  C1  UNL     1     -40.934  14.079   7.363  1.00 20.00     0.038 A 
HETATM    2  C2  UNL     1     -41.526  15.326   6.783  1.00 20.00     0.160 A 
HETATM    3  C4  UNL     1     -41.260  16.474   7.737  1.00 20.00     0.090 A 
HETATM    4  C5  UNL     1     -40.263  14.378   8.637  1.00 20.00     0.039 A 
HETATM    5  C6  UNL     1     -40.462  15.869   8.872  1.00 20.00     0.011 A 
HETATM    6  C7  UNL     1     -41.015  14.857   9.863  1.00 20.00    -0.035 A 
HETATM    7  C9  UNL     1     -42.504  14.641   9.981  1.00 20.00     0.016 C 
HETATM    8  C10 UNL     1     -40.298  14.739  11.186  1.00 20.00     0.016 C 
HETATM    9  O12 UNL     1     -42.126  15.409   5.725  1.00 20.00    -0.293 OA
ENDROOT
BRANCH   1  10
HETATM   10  C3  UNL     1     -41.061  12.906   6.739  1.00 20.00     0.155 C 
HETATM   11  C8  UNL     1     -39.919  12.445   5.845  1.00 20.00     0.096 C 
HETATM   12  O11 UNL     1     -42.002  12.056   6.751  1.00 20.00    -0.293 OA
ENDBRANCH   1  10
TORSDOF 1
ENDMDL
MODEL 8
REMARK VINA RESULT:      -3.5     11.912     13.633
REMARK  1 active torsions:
REMARK  status: ('A' for Active; 'I' for Inactive)
REMARK    1  A    between atoms: C1_1  and  C3_3 
ROOT
HETATM    1  C1  UNL     1     -34.081  17.178  -4.017  1.00 20.00     0.038 A 
HETATM    2  C2  UNL     1     -35.337  17.993  -4.012  1.00 20.00     0.160 A 
HETATM    3  C4  UNL     1     -35.082  19.263  -3.223  1.00 20.00     0.090 A 
HETATM    4  C5  UNL     1     -33.011  17.883  -3.296  1.00 20.00     0.039 A 
HETATM    5  C6  UNL     1     -33.631  19.183  -2.801  1.00 20.00     0.011 A 
HETATM    6  C7  UNL     1     -33.081  18.171  -1.809  1.00 20.00    -0.035 A 
HETATM    7  C9  UNL     1     -34.017  17.388  -0.922  1.00 20.00     0.016 C 
HETATM    8  C10 UNL     1     -31.782  18.524  -1.126  1.00 20.00     0.016 C 
HETATM    9  O12 UNL     1     -36.391  17.689  -4.545  1.00 20.00    -0.293 OA
ENDROOT
BRANCH   1  10
HETATM   10  C3  UNL     1     -34.042  15.984  -4.614  1.00 20.00     0.155 C 
HETATM   11  C8  UNL     1     -33.696  14.771  -3.763  1.00 20.00     0.096 C 
HETATM   12  O11 UNL     1     -34.250  15.650  -5.819  1.00 20.00    -0.293 OA
ENDBRANCH   1  10
TORSDOF 1
ENDMDL
MODEL 9
REMARK VINA RESULT:      -3.5     13.337     14.484
REMARK  1 active torsions:
REMARK  status: ('A' for Active; 'I' for Inactive)
REMARK    1  A    between atoms: C1_1  and  C3_3 
ROOT
HETATM    1  C1  UNL     1     -34.824  15.662  -5.400  1.00 20.00     0.038 A 
HETATM    2  C2  UNL     1     -36.241  15.275  -5.692  1.00 20.00     0.160 A 
HETATM    3  C4  UNL     1     -36.750  16.137  -6.831  1.00 20.00     0.090 A 
HETATM    4  C5  UNL     1     -34.381  16.714  -6.327  1.00 20.00     0.039 A 
HETATM    5  C6  UNL     1     -35.577  17.011  -7.220  1.00 20.00     0.011 A 
HETATM    6  C7  UNL     1     -34.990  18.102  -6.339  1.00 20.00    -0.035 A 
HETATM    7  C9  UNL     1     -35.758  18.610  -5.144  1.00 20.00     0.016 C 
HETATM    8  C10 UNL     1     -34.197  19.184  -7.031  1.00 20.00     0.016 C 
HETATM    9  O12 UNL     1     -36.884  14.417  -5.111  1.00 20.00    -0.293 OA
ENDROOT
BRANCH   1  10
HETATM   10  C3  UNL     1     -34.146  15.080  -4.408  1.00 20.00     0.155 C 
HETATM   11  C8  UNL     1     -33.420  15.977  -3.416  1.00 20.00     0.096 C 
HETATM   12  O11 UNL     1     -33.983  13.856  -4.119  1.00 20.00    -0.293 OA
ENDBRANCH   1  10
TORSDOF 1
ENDMDL
