MODEL 1
REMARK VINA RESULT:      -5.1      0.000      0.000
REMARK  1 active torsions:
REMARK  status: ('A' for Active; 'I' for Inactive)
REMARK    1  A    between atoms: C6_6  and  C7_7 
ROOT
HETATM    1  C1  UNL     1     -34.035   6.849   5.276  1.00 20.00     0.051 A 
HETATM    2  C2  UNL     1     -33.369   5.451   3.268  1.00 20.00     0.051 A 
HETATM    3  C3  UNL     1     -33.186   7.802   4.876  1.00 20.00    -0.013 A 
HETATM    4  C4  UNL     1     -32.528   6.420   2.891  1.00 20.00    -0.013 A 
HETATM    5  C5  UNL     1     -34.195   5.608   4.486  1.00 20.00     0.171 A 
HETATM    6  C6  UNL     1     -32.344   7.718   3.630  1.00 20.00     0.044 A 
HETATM    7  O8  UNL     1     -34.983   4.734   4.833  1.00 20.00    -0.289 OA
ENDROOT
BRANCH   6   8
HETATM    8  C7  UNL     1     -32.651   8.897   2.707  1.00 20.00     0.127 C 
HETATM    9 CL9  UNL     1     -32.258   8.477   1.032  1.00 20.00    -0.130 Cl
ENDBRANCH   6   8
TORSDOF 1
ENDMDL
MODEL 2
REMARK VINA RESULT:      -4.6      3.047      3.775
REMARK  1 active torsions:
REMARK  status: ('A' for Active; 'I' for Inactive)
REMARK    1  A    between atoms: C6_6  and  C7_7 
ROOT
HETATM    1  C1  UNL     1     -33.828   8.129   5.228  1.00 20.00     0.051 A 
HETATM    2  C2  UNL     1     -32.212   7.404   3.413  1.00 20.00     0.051 A 
HETATM    3  C3  UNL     1     -34.567   7.041   4.985  1.00 20.00    -0.013 A 
HETATM    4  C4  UNL     1     -32.969   6.324   3.191  1.00 20.00    -0.013 A 
HETATM    5  C5  UNL     1     -32.585   8.378   4.464  1.00 20.00     0.171 A 
HETATM    6  C6  UNL     1     -34.223   5.997   3.955  1.00 20.00     0.044 A 
HETATM    7  O8  UNL     1     -31.890   9.363   4.689  1.00 20.00    -0.289 OA
ENDROOT
BRANCH   6   8
HETATM    8  C7  UNL     1     -34.092   4.626   4.620  1.00 20.00     0.127 C 
HETATM    9 CL9  UNL     1     -34.399   4.762   6.359  1.00 20.00    -0.130 Cl
ENDBRANCH   6   8
TORSDOF 1
ENDMDL
MODEL 3
REMARK VINA RESULT:      -4.6      1.194      2.175
REMARK  1 active torsions:
REMARK  status: ('A' for Active; 'I' for Inactive)
REMARK    1  A    between atoms: C6_6  and  C7_7 
ROOT
HETATM    1  C1  UNL     1     -34.436   5.215   4.687  1.00 20.00     0.051 A 
HETATM    2  C2  UNL     1     -34.019   7.080   6.354  1.00 20.00     0.051 A 
HETATM    3  C3  UNL     1     -34.000   6.013   3.706  1.00 20.00    -0.013 A 
HETATM    4  C4  UNL     1     -33.587   7.857   5.354  1.00 20.00    -0.013 A 
HETATM    5  C5  UNL     1     -34.461   5.693   6.087  1.00 20.00     0.171 A 
HETATM    6  C6  UNL     1     -33.505   7.420   3.916  1.00 20.00     0.044 A 
HETATM    7  O8  UNL     1     -34.842   4.964   6.998  1.00 20.00    -0.289 OA
ENDROOT
BRANCH   6   8
HETATM    8  C7  UNL     1     -32.070   7.555   3.407  1.00 20.00     0.127 C 
HETATM    9 CL9  UNL     1     -32.072   7.921   1.675  1.00 20.00    -0.130 Cl
ENDBRANCH   6   8
TORSDOF 1
ENDMDL
MODEL 4
REMARK VINA RESULT:      -4.3      2.954      3.701
REMARK  1 active torsions:
REMARK  status: ('A' for Active; 'I' for Inactive)
REMARK    1  A    between atoms: C6_6  and  C7_7 
ROOT
HETATM    1  C1  UNL     1     -32.587   8.423   3.913  1.00 20.00     0.051 A 
HETATM    2  C2  UNL     1     -33.334   6.119   3.162  1.00 20.00     0.051 A 
HETATM    3  C3  UNL     1     -33.450   8.355   4.932  1.00 20.00    -0.013 A 
HETATM    4  C4  UNL     1     -34.188   6.078   4.190  1.00 20.00    -0.013 A 
HETATM    5  C5  UNL     1     -32.459   7.296   2.962  1.00 20.00     0.171 A 
HETATM    6  C6  UNL     1     -34.341   7.173   5.210  1.00 20.00     0.044 A 
HETATM    7  O8  UNL     1     -31.659   7.339   2.033  1.00 20.00    -0.289 OA
ENDROOT
BRANCH   6   8
HETATM    8  C7  UNL     1     -34.070   6.628   6.612  1.00 20.00     0.127 C 
HETATM    9 CL9  UNL     1     -34.274   4.869   6.630  1.00 20.00    -0.130 Cl
ENDBRANCH   6   8
TORSDOF 1
ENDMDL
MODEL 5
REMARK VINA RESULT:      -4.1      1.767      2.559
REMARK  1 active torsions:
REMARK  status: ('A' for Active; 'I' for Inactive)
REMARK    1  A    between atoms: C6_6  and  C7_7 
ROOT
HETATM    1  C1  UNL     1     -33.856   5.712   3.679  1.00 20.00     0.051 A 
HETATM    2  C2  UNL     1     -34.363   5.298   6.129  1.00 20.00     0.051 A 
HETATM    3  C3  UNL     1     -33.886   7.029   3.911  1.00 20.00    -0.013 A 
HETATM    4  C4  UNL     1     -34.387   6.620   6.332  1.00 20.00    -0.013 A 
HETATM    5  C5  UNL     1     -34.079   4.752   4.783  1.00 20.00     0.171 A 
HETATM    6  C6  UNL     1     -34.135   7.647   5.261  1.00 20.00     0.044 A 
HETATM    7  O8  UNL     1     -34.037   3.542   4.587  1.00 20.00    -0.289 OA
ENDROOT
BRANCH   6   8
HETATM    8  C7  UNL     1     -32.959   8.540   5.656  1.00 20.00     0.127 C 
HETATM    9 CL9  UNL     1     -32.102   9.092   4.207  1.00 20.00    -0.130 Cl
ENDBRANCH   6   8
TORSDOF 1
ENDMDL
MODEL 6
REMARK VINA RESULT:      -3.9      2.654      3.886
REMARK  1 active torsions:
REMARK  status: ('A' for Active; 'I' for Inactive)
REMARK    1  A    between atoms: C6_6  and  C7_7 
ROOT
HETATM    1  C1  UNL     1     -32.753   6.902   3.227  1.00 20.00     0.051 A 
HETATM    2  C2  UNL     1     -33.325   8.229   5.311  1.00 20.00     0.051 A 
HETATM    3  C3  UNL     1     -33.245   5.802   3.809  1.00 20.00    -0.013 A 
HETATM    4  C4  UNL     1     -33.811   7.114   5.869  1.00 20.00    -0.013 A 
HETATM    5  C5  UNL     1     -32.774   8.199   3.938  1.00 20.00     0.171 A 
HETATM    6  C6  UNL     1     -33.850   5.773   5.188  1.00 20.00     0.044 A 
HETATM    7  O8  UNL     1     -32.341   9.218   3.408  1.00 20.00    -0.289 OA
ENDROOT
BRANCH   6   8
HETATM    8  C7  UNL     1     -35.288   5.259   5.120  1.00 20.00     0.127 C 
HETATM    9 CL9  UNL     1     -36.223   6.221   3.963  1.00 20.00    -0.130 Cl
ENDBRANCH   6   8
TORSDOF 1
ENDMDL
MODEL 7
REMARK VINA RESULT:      -3.8     16.137     16.762
REMARK  1 active torsions:
REMARK  status: ('A' for Active; 'I' for Inactive)
REMARK    1  A    between atoms: C6_6  and  C7_7 
ROOT
HETATM    1  C1  UNL     1     -24.712  18.931   9.865  1.00 20.00     0.051 A 
HETATM    2  C2  UNL     1     -23.502  18.288  12.000  1.00 20.00     0.051 A 
HETATM    3  C3  UNL     1     -23.531  19.039   9.246  1.00 20.00    -0.013 A 
HETATM    4  C4  UNL     1     -22.336  18.403  11.355  1.00 20.00    -0.013 A 
HETATM    5  C5  UNL     1     -24.778  18.531  11.288  1.00 20.00     0.171 A 
HETATM    6  C6  UNL     1     -22.203  18.772   9.902  1.00 20.00     0.044 A 
HETATM    7  O8  UNL     1     -25.855  18.412  11.863  1.00 20.00    -0.289 OA
ENDROOT
BRANCH   6   8
HETATM    8  C7  UNL     1     -21.454  17.673   9.147  1.00 20.00     0.127 C 
HETATM    9 CL9  UNL     1     -21.448  18.025   7.412  1.00 20.00    -0.130 Cl
ENDBRANCH   6   8
TORSDOF 1
ENDMDL
MODEL 8
REMARK VINA RESULT:      -3.7     11.704     12.449
REMARK  1 active torsions:
REMARK  status: ('A' for Active; 'I' for Inactive)
REMARK    1  A    between atoms: C6_6  and  C7_7 
ROOT
HETATM    1  C1  UNL     1     -34.200  14.540  -4.721  1.00 20.00     0.051 A 
HETATM    2  C2  UNL     1     -35.463  16.707  -5.094  1.00 20.00     0.051 A 
HETATM    3  C3  UNL     1     -33.348  15.191  -3.921  1.00 20.00    -0.013 A 
HETATM    4  C4  UNL     1     -34.597  17.332  -4.289  1.00 20.00    -0.013 A 
HETATM    5  C5  UNL     1     -35.330  15.255  -5.353  1.00 20.00     0.171 A 
HETATM    6  C6  UNL     1     -33.448  16.656  -3.591  1.00 20.00     0.044 A 
HETATM    7  O8  UNL     1     -36.128  14.666  -6.075  1.00 20.00    -0.289 OA
ENDROOT
BRANCH   6   8
HETATM    8  C7  UNL     1     -33.567  16.847  -2.078  1.00 20.00     0.127 C 
HETATM    9 CL9  UNL     1     -32.363  18.018  -1.517  1.00 20.00    -0.130 Cl
ENDBRANCH   6   8
TORSDOF 1
ENDMDL
MODEL 9
REMARK VINA RESULT:      -3.7      9.561     10.208
REMARK  1 active torsions:
REMARK  status: ('A' for Active; 'I' for Inactive)
REMARK    1  A    between atoms: C6_6  and  C7_7 
ROOT
HETATM    1  C1  UNL     1     -42.671   8.008  -0.062  1.00 20.00     0.051 A 
HETATM    2  C2  UNL     1     -40.582   6.586  -0.282  1.00 20.00     0.051 A 
HETATM    3  C3  UNL     1     -43.417   6.908  -0.213  1.00 20.00    -0.013 A 
HETATM    4  C4  UNL     1     -41.353   5.504  -0.430  1.00 20.00    -0.013 A 
HETATM    5  C5  UNL     1     -41.194   7.918  -0.071  1.00 20.00     0.171 A 
HETATM    6  C6  UNL     1     -42.857   5.523  -0.396  1.00 20.00     0.044 A 
HETATM    7  O8  UNL     1     -40.498   8.916   0.083  1.00 20.00    -0.289 OA
ENDROOT
BRANCH   6   8
HETATM    8  C7  UNL     1     -43.370   4.598   0.708  1.00 20.00     0.127 C 
HETATM    9 CL9  UNL     1     -43.251   5.404   2.281  1.00 20.00    -0.130 Cl
ENDBRANCH   6   8
TORSDOF 1
ENDMDL
