MODEL 1
REMARK VINA RESULT:      -4.8      0.000      0.000
REMARK  2 active torsions:
REMARK  status: ('A' for Active; 'I' for Inactive)
REMARK    1  A    between atoms: C7_7  and  C8_8 
REMARK    2  A    between atoms: C9_9  and  C10_10 
ROOT
HETATM    1  C1  UNL     1     -31.643   8.048   3.697  1.00 20.00     0.047 C 
HETATM    2  C2  UNL     1     -32.210   8.679   4.748  1.00 20.00    -0.017 C 
HETATM    3  C5  UNL     1     -32.639   7.000   3.286  1.00 20.00     0.154 C 
HETATM    4  C7  UNL     1     -33.647   8.298   4.852  1.00 20.00     0.028 C 
HETATM    5  C10 UNL     1     -33.528   6.803   4.464  1.00 20.00     0.075 C 
HETATM    6  O11 UNL     1     -32.629   6.378   2.241  1.00 20.00    -0.293 OA
ENDROOT
BRANCH   5   7
HETATM    7  C9  UNL     1     -34.901   6.254   4.814  1.00 20.00     0.021 C 
HETATM    8  C4  UNL     1     -35.144   6.037   6.290  1.00 20.00    -0.025 C 
HETATM    9  C3  UNL     1     -34.335   5.040   6.698  1.00 20.00    -0.025 C 
HETATM   10  C8  UNL     1     -33.439   4.669   5.516  1.00 20.00     0.017 C 
HETATM   11  C6  UNL     1     -34.553   4.774   4.462  1.00 20.00     0.018 C 
ENDBRANCH   5   7
TORSDOF 2
ENDMDL
MODEL 2
REMARK VINA RESULT:      -4.0      1.824      4.070
REMARK  2 active torsions:
REMARK  status: ('A' for Active; 'I' for Inactive)
REMARK    1  A    between atoms: C7_7  and  C8_8 
REMARK    2  A    between atoms: C9_9  and  C10_10 
ROOT
HETATM    1  C1  UNL     1     -34.466   5.136   6.092  1.00 20.00     0.047 C 
HETATM    2  C2  UNL     1     -34.578   4.946   4.759  1.00 20.00    -0.017 C 
HETATM    3  C5  UNL     1     -34.309   6.620   6.263  1.00 20.00     0.154 C 
HETATM    4  C7  UNL     1     -34.802   6.252   4.078  1.00 20.00     0.028 C 
HETATM    5  C10 UNL     1     -33.865   7.135   4.938  1.00 20.00     0.075 C 
HETATM    6  O11 UNL     1     -34.419   7.234   7.307  1.00 20.00    -0.293 OA
ENDROOT
BRANCH   5   7
HETATM    7  C9  UNL     1     -33.806   8.432   4.148  1.00 20.00     0.021 C 
HETATM    8  C4  UNL     1     -33.286   8.295   2.735  1.00 20.00    -0.025 C 
HETATM    9  C3  UNL     1     -31.985   7.954   2.806  1.00 20.00    -0.025 C 
HETATM   10  C8  UNL     1     -31.655   7.728   4.281  1.00 20.00     0.017 C 
HETATM   11  C6  UNL     1     -32.472   8.926   4.790  1.00 20.00     0.018 C 
ENDBRANCH   5   7
TORSDOF 2
ENDMDL
MODEL 3
REMARK VINA RESULT:      -3.9     15.478     16.750
REMARK  2 active torsions:
REMARK  status: ('A' for Active; 'I' for Inactive)
REMARK    1  A    between atoms: C7_7  and  C8_8 
REMARK    2  A    between atoms: C9_9  and  C10_10 
ROOT
HETATM    1  C1  UNL     1     -25.460  17.719  12.244  1.00 20.00     0.047 C 
HETATM    2  C2  UNL     1     -24.882  18.937  12.332  1.00 20.00    -0.017 C 
HETATM    3  C5  UNL     1     -24.417  16.835  11.620  1.00 20.00     0.154 C 
HETATM    4  C7  UNL     1     -23.419  18.823  12.075  1.00 20.00     0.028 C 
HETATM    5  C10 UNL     1     -23.454  17.756  10.954  1.00 20.00     0.075 C 
HETATM    6  O11 UNL     1     -24.439  15.620  11.585  1.00 20.00    -0.293 OA
ENDROOT
BRANCH   5   7
HETATM    7  C9  UNL     1     -22.029  17.774  10.426  1.00 20.00     0.021 C 
HETATM    8  C4  UNL     1     -21.595  19.083   9.807  1.00 20.00    -0.025 C 
HETATM    9  C3  UNL     1     -22.310  19.263   8.680  1.00 20.00    -0.025 C 
HETATM   10  C8  UNL     1     -23.332  18.129   8.605  1.00 20.00     0.017 C 
HETATM   11  C6  UNL     1     -22.364  17.039   9.092  1.00 20.00     0.018 C 
ENDBRANCH   5   7
TORSDOF 2
ENDMDL
MODEL 4
REMARK VINA RESULT:      -3.9      9.692     10.691
REMARK  2 active torsions:
REMARK  status: ('A' for Active; 'I' for Inactive)
REMARK    1  A    between atoms: C7_7  and  C8_8 
REMARK    2  A    between atoms: C9_9  and  C10_10 
ROOT
HETATM    1  C1  UNL     1     -39.669  12.078   4.908  1.00 20.00     0.047 C 
HETATM    2  C2  UNL     1     -39.306  12.039   6.209  1.00 20.00    -0.017 C 
HETATM    3  C5  UNL     1     -40.745  13.125   4.834  1.00 20.00     0.154 C 
HETATM    4  C7  UNL     1     -39.876  13.213   6.929  1.00 20.00     0.028 C 
HETATM    5  C10 UNL     1     -41.253  13.282   6.225  1.00 20.00     0.075 C 
HETATM    6  O11 UNL     1     -41.170  13.640   3.817  1.00 20.00    -0.293 OA
ENDROOT
BRANCH   5   7
HETATM    7  C9  UNL     1     -42.021  14.272   7.084  1.00 20.00     0.021 C 
HETATM    8  C4  UNL     1     -42.316  13.802   8.490  1.00 20.00    -0.025 C 
HETATM    9  C3  UNL     1     -43.184  12.775   8.407  1.00 20.00    -0.025 C 
HETATM   10  C8  UNL     1     -43.376  12.461   6.924  1.00 20.00     0.017 C 
HETATM   11  C6  UNL     1     -43.417  13.931   6.476  1.00 20.00     0.018 C 
ENDBRANCH   5   7
TORSDOF 2
ENDMDL
MODEL 5
REMARK VINA RESULT:      -3.9     12.398     13.735
REMARK  2 active torsions:
REMARK  status: ('A' for Active; 'I' for Inactive)
REMARK    1  A    between atoms: C7_7  and  C8_8 
REMARK    2  A    between atoms: C9_9  and  C10_10 
ROOT
HETATM    1  C1  UNL     1     -35.027  14.942  -5.309  1.00 20.00     0.047 C 
HETATM    2  C2  UNL     1     -34.400  14.435  -4.225  1.00 20.00    -0.017 C 
HETATM    3  C5  UNL     1     -34.523  16.353  -5.428  1.00 20.00     0.154 C 
HETATM    4  C7  UNL     1     -33.292  15.341  -3.811  1.00 20.00     0.028 C 
HETATM    5  C10 UNL     1     -33.978  16.702  -4.086  1.00 20.00     0.075 C 
HETATM    6  O11 UNL     1     -34.648  17.076  -6.398  1.00 20.00    -0.293 OA
ENDROOT
BRANCH   5   7
HETATM    7  C9  UNL     1     -33.033  17.695  -3.431  1.00 20.00     0.021 C 
HETATM    8  C4  UNL     1     -32.975  17.620  -1.922  1.00 20.00    -0.025 C 
HETATM    9  C3  UNL     1     -34.170  18.017  -1.444  1.00 20.00    -0.025 C 
HETATM   10  C8  UNL     1     -35.089  18.236  -2.644  1.00 20.00     0.017 C 
HETATM   11  C6  UNL     1     -34.016  18.903  -3.520  1.00 20.00     0.018 C 
ENDBRANCH   5   7
TORSDOF 2
ENDMDL
MODEL 6
REMARK VINA RESULT:      -3.8      1.552      2.464
REMARK  2 active torsions:
REMARK  status: ('A' for Active; 'I' for Inactive)
REMARK    1  A    between atoms: C7_7  and  C8_8 
REMARK    2  A    between atoms: C9_9  and  C10_10 
ROOT
HETATM    1  C1  UNL     1     -32.396   8.870   2.758  1.00 20.00     0.047 C 
HETATM    2  C2  UNL     1     -32.486   7.712   2.068  1.00 20.00    -0.017 C 
HETATM    3  C5  UNL     1     -32.503   8.473   4.203  1.00 20.00     0.154 C 
HETATM    4  C7  UNL     1     -32.345   6.556   2.998  1.00 20.00     0.028 C 
HETATM    5  C10 UNL     1     -33.130   7.122   4.206  1.00 20.00     0.075 C 
HETATM    6  O11 UNL     1     -32.230   9.175   5.158  1.00 20.00    -0.293 OA
ENDROOT
BRANCH   5   7
HETATM    7  C9  UNL     1     -33.286   5.908   5.107  1.00 20.00     0.021 C 
HETATM    8  C4  UNL     1     -34.201   4.831   4.570  1.00 20.00    -0.025 C 
HETATM    9  C3  UNL     1     -35.454   5.325   4.553  1.00 20.00    -0.025 C 
HETATM   10  C8  UNL     1     -35.367   6.797   4.956  1.00 20.00     0.017 C 
HETATM   11  C6  UNL     1     -34.323   6.575   6.063  1.00 20.00     0.018 C 
ENDBRANCH   5   7
TORSDOF 2
ENDMDL
MODEL 7
REMARK VINA RESULT:      -3.8     12.446     13.920
REMARK  2 active torsions:
REMARK  status: ('A' for Active; 'I' for Inactive)
REMARK    1  A    between atoms: C7_7  and  C8_8 
REMARK    2  A    between atoms: C9_9  and  C10_10 
ROOT
HETATM    1  C1  UNL     1     -33.424  16.500  -2.555  1.00 20.00     0.047 C 
HETATM    2  C2  UNL     1     -34.108  17.638  -2.804  1.00 20.00    -0.017 C 
HETATM    3  C5  UNL     1     -33.278  15.831  -3.893  1.00 20.00     0.154 C 
HETATM    4  C7  UNL     1     -34.154  17.892  -4.271  1.00 20.00     0.028 C 
HETATM    5  C10 UNL     1     -34.328  16.433  -4.762  1.00 20.00     0.075 C 
HETATM    6  O11 UNL     1     -32.526  14.913  -4.154  1.00 20.00    -0.293 OA
ENDROOT
BRANCH   5   7
HETATM    7  C9  UNL     1     -34.668  16.611  -6.232  1.00 20.00     0.021 C 
HETATM    8  C4  UNL     1     -36.040  17.185  -6.504  1.00 20.00    -0.025 C 
HETATM    9  C3  UNL     1     -36.953  16.273  -6.117  1.00 20.00    -0.025 C 
HETATM   10  C8  UNL     1     -36.193  15.125  -5.453  1.00 20.00     0.017 C 
HETATM   11  C6  UNL     1     -35.041  15.114  -6.471  1.00 20.00     0.018 C 
ENDBRANCH   5   7
TORSDOF 2
ENDMDL
MODEL 8
REMARK VINA RESULT:      -3.7     15.587     16.983
REMARK  2 active torsions:
REMARK  status: ('A' for Active; 'I' for Inactive)
REMARK    1  A    between atoms: C7_7  and  C8_8 
REMARK    2  A    between atoms: C9_9  and  C10_10 
ROOT
HETATM    1  C1  UNL     1     -24.255  17.324  12.059  1.00 20.00     0.047 C 
HETATM    2  C2  UNL     1     -25.163  17.408  11.062  1.00 20.00    -0.017 C 
HETATM    3  C5  UNL     1     -23.112  18.196  11.620  1.00 20.00     0.154 C 
HETATM    4  C7  UNL     1     -24.802  18.522  10.140  1.00 20.00     0.028 C 
HETATM    5  C10 UNL     1     -23.264  18.350  10.146  1.00 20.00     0.075 C 
HETATM    6  O11 UNL     1     -22.203  18.589  12.326  1.00 20.00    -0.293 OA
ENDROOT
BRANCH   5   7
HETATM    7  C9  UNL     1     -22.818  19.262   9.015  1.00 20.00     0.021 C 
HETATM    8  C4  UNL     1     -22.970  18.677   7.629  1.00 20.00    -0.025 C 
HETATM    9  C3  UNL     1     -22.103  17.652   7.517  1.00 20.00    -0.025 C 
HETATM   10  C8  UNL     1     -21.452  17.456   8.886  1.00 20.00     0.017 C 
HETATM   11  C6  UNL     1     -21.297  18.957   9.181  1.00 20.00     0.018 C 
ENDBRANCH   5   7
TORSDOF 2
ENDMDL
MODEL 9
REMARK VINA RESULT:      -3.7     10.099     11.324
REMARK  2 active torsions:
REMARK  status: ('A' for Active; 'I' for Inactive)
REMARK    1  A    between atoms: C7_7  and  C8_8 
REMARK    2  A    between atoms: C9_9  and  C10_10 
ROOT
HETATM    1  C1  UNL     1     -40.398  12.935   4.988  1.00 20.00     0.047 C 
HETATM    2  C2  UNL     1     -41.578  13.589   4.917  1.00 20.00    -0.017 C 
HETATM    3  C5  UNL     1     -40.125  12.781   6.458  1.00 20.00     0.154 C 
HETATM    4  C7  UNL     1     -42.232  13.602   6.256  1.00 20.00     0.028 C 
HETATM    5  C10 UNL     1     -40.973  13.801   7.136  1.00 20.00     0.075 C 
HETATM    6  O11 UNL     1     -39.295  12.045   6.957  1.00 20.00    -0.293 OA
ENDROOT
BRANCH   5   7
HETATM    7  C9  UNL     1     -41.563  14.110   8.502  1.00 20.00     0.021 C 
HETATM    8  C4  UNL     1     -42.438  15.342   8.555  1.00 20.00    -0.025 C 
HETATM    9  C3  UNL     1     -41.652  16.415   8.343  1.00 20.00    -0.025 C 
HETATM   10  C8  UNL     1     -40.254  15.895   8.011  1.00 20.00     0.017 C 
HETATM   11  C6  UNL     1     -40.269  14.776   9.065  1.00 20.00     0.018 C 
ENDBRANCH   5   7
TORSDOF 2
ENDMDL
