MODEL 1
REMARK VINA RESULT:      -4.9      0.000      0.000
REMARK  5 active torsions:
REMARK  status: ('A' for Active; 'I' for Inactive)
REMARK    1  A    between atoms: C1_1  and  C2_2 
REMARK    2  A    between atoms: C1_1  and  C3_3 
REMARK    3  A    between atoms: C2_2  and  C7_7 
REMARK    4  A    between atoms: C7_7  and  C8_8 
REMARK    5  A    between atoms: C8_8  and  O9_9 
ROOT
HETATM    1  C2  UNL     1     -34.212   6.992   6.288  1.00 20.00     0.070 C 
ENDROOT
BRANCH   1   2
HETATM    2  C1  UNL     1     -33.401   7.574   5.451  1.00 20.00    -0.166 C 
BRANCH   2   3
HETATM    3  C3  UNL     1     -32.594   8.161   4.609  1.00 20.00     0.022 C 
HETATM    4  C4  UNL     1     -31.974   9.499   4.892  1.00 20.00     0.029 C 
HETATM    5  C5  UNL     1     -32.221   7.542   3.292  1.00 20.00     0.029 C 
ENDBRANCH   2   3
ENDBRANCH   1   2
BRANCH   1   6
HETATM    6  C7  UNL     1     -34.386   5.505   6.417  1.00 20.00     0.048 C 
BRANCH   6   7
HETATM    7  C8  UNL     1     -35.010   4.896   5.158  1.00 20.00     0.115 C 
HETATM    8  C6  UNL     1     -33.936   4.431   4.183  1.00 20.00     0.039 C 
BRANCH   7   9
HETATM    9  O9  UNL     1     -35.808   5.887   4.514  1.00 20.00    -0.396 OA
HETATM   10  H23 UNL     1     -35.195   6.467   4.038  1.00 20.00     0.210 HD
ENDBRANCH   7   9
ENDBRANCH   6   7
ENDBRANCH   1   6
TORSDOF 5
ENDMDL
MODEL 2
REMARK VINA RESULT:      -4.8      1.093      2.498
REMARK  5 active torsions:
REMARK  status: ('A' for Active; 'I' for Inactive)
REMARK    1  A    between atoms: C1_1  and  C2_2 
REMARK    2  A    between atoms: C1_1  and  C3_3 
REMARK    3  A    between atoms: C2_2  and  C7_7 
REMARK    4  A    between atoms: C7_7  and  C8_8 
REMARK    5  A    between atoms: C8_8  and  O9_9 
ROOT
HETATM    1  C2  UNL     1     -33.026   5.121   2.990  1.00 20.00     0.070 C 
ENDROOT
BRANCH   1   2
HETATM    2  C1  UNL     1     -32.692   6.376   2.890  1.00 20.00    -0.166 C 
BRANCH   2   3
HETATM    3  C3  UNL     1     -32.363   7.635   2.793  1.00 20.00     0.022 C 
HETATM    4  C4  UNL     1     -32.059   8.286   1.475  1.00 20.00     0.029 C 
HETATM    5  C5  UNL     1     -32.263   8.533   3.994  1.00 20.00     0.029 C 
ENDBRANCH   2   3
ENDBRANCH   1   2
BRANCH   1   6
HETATM    6  C7  UNL     1     -33.971   4.565   4.018  1.00 20.00     0.048 C 
BRANCH   6   7
HETATM    7  C8  UNL     1     -34.650   5.676   4.823  1.00 20.00     0.115 C 
HETATM    8  C6  UNL     1     -34.566   5.398   6.319  1.00 20.00     0.039 C 
BRANCH   7   9
HETATM    9  O9  UNL     1     -36.025   5.740   4.452  1.00 20.00    -0.396 OA
HETATM   10  H23 UNL     1     -36.114   6.501   3.858  1.00 20.00     0.210 HD
ENDBRANCH   7   9
ENDBRANCH   6   7
ENDBRANCH   1   6
TORSDOF 5
ENDMDL
MODEL 3
REMARK VINA RESULT:      -4.5      2.033      3.986
REMARK  5 active torsions:
REMARK  status: ('A' for Active; 'I' for Inactive)
REMARK    1  A    between atoms: C1_1  and  C2_2 
REMARK    2  A    between atoms: C1_1  and  C3_3 
REMARK    3  A    between atoms: C2_2  and  C7_7 
REMARK    4  A    between atoms: C7_7  and  C8_8 
REMARK    5  A    between atoms: C8_8  and  O9_9 
ROOT
HETATM    1  C2  UNL     1     -33.153   8.351   5.553  1.00 20.00     0.070 C 
ENDROOT
BRANCH   1   2
HETATM    2  C1  UNL     1     -33.854   7.253   5.545  1.00 20.00    -0.166 C 
BRANCH   2   3
HETATM    3  C3  UNL     1     -34.554   6.151   5.531  1.00 20.00     0.022 C 
HETATM    4  C4  UNL     1     -35.489   5.810   4.407  1.00 20.00     0.029 C 
HETATM    5  C5  UNL     1     -34.477   5.138   6.638  1.00 20.00     0.029 C 
ENDBRANCH   2   3
ENDBRANCH   1   2
BRANCH   1   6
HETATM    6  C7  UNL     1     -32.293   8.827   4.416  1.00 20.00     0.048 C 
BRANCH   6   7
HETATM    7  C8  UNL     1     -32.837   8.364   3.062  1.00 20.00     0.115 C 
HETATM    8  C6  UNL     1     -32.058   7.165   2.538  1.00 20.00     0.039 C 
BRANCH   7   9
HETATM    9  O9  UNL     1     -32.709   9.432   2.125  1.00 20.00    -0.396 OA
HETATM   10  H23 UNL     1     -32.001   9.177   1.514  1.00 20.00     0.210 HD
ENDBRANCH   7   9
ENDBRANCH   6   7
ENDBRANCH   1   6
TORSDOF 5
ENDMDL
MODEL 4
REMARK VINA RESULT:      -4.2      1.458      2.402
REMARK  5 active torsions:
REMARK  status: ('A' for Active; 'I' for Inactive)
REMARK    1  A    between atoms: C1_1  and  C2_2 
REMARK    2  A    between atoms: C1_1  and  C3_3 
REMARK    3  A    between atoms: C2_2  and  C7_7 
REMARK    4  A    between atoms: C7_7  and  C8_8 
REMARK    5  A    between atoms: C8_8  and  O9_9 
ROOT
HETATM    1  C2  UNL     1     -33.114   8.085   5.141  1.00 20.00     0.070 C 
ENDROOT
BRANCH   1   2
HETATM    2  C1  UNL     1     -32.795   7.640   3.959  1.00 20.00    -0.166 C 
BRANCH   2   3
HETATM    3  C3  UNL     1     -32.480   7.197   2.773  1.00 20.00     0.022 C 
HETATM    4  C4  UNL     1     -32.566   5.742   2.411  1.00 20.00     0.029 C 
HETATM    5  C5  UNL     1     -32.010   8.108   1.675  1.00 20.00     0.029 C 
ENDBRANCH   2   3
ENDBRANCH   1   2
BRANCH   1   6
HETATM    6  C7  UNL     1     -33.939   7.331   6.147  1.00 20.00     0.048 C 
BRANCH   6   7
HETATM    7  C8  UNL     1     -34.212   5.894   5.692  1.00 20.00     0.115 C 
HETATM    8  C6  UNL     1     -35.406   5.835   4.749  1.00 20.00     0.039 C 
BRANCH   7   9
HETATM    9  O9  UNL     1     -34.500   5.095   6.838  1.00 20.00    -0.396 OA
HETATM   10  H23 UNL     1     -35.082   5.626   7.404  1.00 20.00     0.210 HD
ENDBRANCH   7   9
ENDBRANCH   6   7
ENDBRANCH   1   6
TORSDOF 5
ENDMDL
MODEL 5
REMARK VINA RESULT:      -4.2     12.201     12.759
REMARK  5 active torsions:
REMARK  status: ('A' for Active; 'I' for Inactive)
REMARK    1  A    between atoms: C1_1  and  C2_2 
REMARK    2  A    between atoms: C1_1  and  C3_3 
REMARK    3  A    between atoms: C2_2  and  C7_7 
REMARK    4  A    between atoms: C7_7  and  C8_8 
REMARK    5  A    between atoms: C8_8  and  O9_9 
ROOT
HETATM    1  C2  UNL     1     -33.322  16.976  -3.073  1.00 20.00     0.070 C 
ENDROOT
BRANCH   1   2
HETATM    2  C1  UNL     1     -33.039  17.510  -1.919  1.00 20.00    -0.166 C 
BRANCH   2   3
HETATM    3  C3  UNL     1     -32.763  18.044  -0.760  1.00 20.00     0.022 C 
HETATM    4  C4  UNL     1     -33.793  18.190   0.322  1.00 20.00     0.029 C 
HETATM    5  C5  UNL     1     -31.391  18.553  -0.419  1.00 20.00     0.029 C 
ENDBRANCH   2   3
ENDBRANCH   1   2
BRANCH   1   6
HETATM    6  C7  UNL     1     -33.739  15.547  -3.276  1.00 20.00     0.048 C 
BRANCH   6   7
HETATM    7  C8  UNL     1     -33.397  15.051  -4.684  1.00 20.00     0.115 C 
HETATM    8  C6  UNL     1     -34.586  15.204  -5.624  1.00 20.00     0.039 C 
BRANCH   7   9
HETATM    9  O9  UNL     1     -33.049  13.669  -4.615  1.00 20.00    -0.396 OA
HETATM   10  H23 UNL     1     -32.725  13.512  -3.715  1.00 20.00     0.210 HD
ENDBRANCH   7   9
ENDBRANCH   6   7
ENDBRANCH   1   6
TORSDOF 5
ENDMDL
MODEL 6
REMARK VINA RESULT:      -4.1     12.546     13.433
REMARK  5 active torsions:
REMARK  status: ('A' for Active; 'I' for Inactive)
REMARK    1  A    between atoms: C1_1  and  C2_2 
REMARK    2  A    between atoms: C1_1  and  C3_3 
REMARK    3  A    between atoms: C2_2  and  C7_7 
REMARK    4  A    between atoms: C7_7  and  C8_8 
REMARK    5  A    between atoms: C8_8  and  O9_9 
ROOT
HETATM    1  C2  UNL     1     -33.342  15.162  -3.875  1.00 20.00     0.070 C 
ENDROOT
BRANCH   1   2
HETATM    2  C1  UNL     1     -33.338  16.271  -3.192  1.00 20.00    -0.166 C 
BRANCH   2   3
HETATM    3  C3  UNL     1     -33.331  17.386  -2.513  1.00 20.00     0.022 C 
HETATM    4  C4  UNL     1     -33.674  17.437  -1.052  1.00 20.00     0.029 C 
HETATM    5  C5  UNL     1     -32.979  18.705  -3.140  1.00 20.00     0.029 C 
ENDBRANCH   2   3
ENDBRANCH   1   2
BRANCH   1   6
HETATM    6  C7  UNL     1     -34.473  14.696  -4.747  1.00 20.00     0.048 C 
BRANCH   6   7
HETATM    7  C8  UNL     1     -34.402  15.314  -6.146  1.00 20.00     0.115 C 
HETATM    8  C6  UNL     1     -35.679  15.043  -6.932  1.00 20.00     0.039 C 
BRANCH   7   9
HETATM    9  O9  UNL     1     -33.306  14.735  -6.851  1.00 20.00    -0.396 OA
HETATM   10  H23 UNL     1     -32.508  14.949  -6.343  1.00 20.00     0.210 HD
ENDBRANCH   7   9
ENDBRANCH   6   7
ENDBRANCH   1   6
TORSDOF 5
ENDMDL
MODEL 7
REMARK VINA RESULT:      -4.0      1.734      4.121
REMARK  5 active torsions:
REMARK  status: ('A' for Active; 'I' for Inactive)
REMARK    1  A    between atoms: C1_1  and  C2_2 
REMARK    2  A    between atoms: C1_1  and  C3_3 
REMARK    3  A    between atoms: C2_2  and  C7_7 
REMARK    4  A    between atoms: C7_7  and  C8_8 
REMARK    5  A    between atoms: C8_8  and  O9_9 
ROOT
HETATM    1  C2  UNL     1     -32.812   8.097   4.853  1.00 20.00     0.070 C 
ENDROOT
BRANCH   1   2
HETATM    2  C1  UNL     1     -33.657   7.144   5.124  1.00 20.00    -0.166 C 
BRANCH   2   3
HETATM    3  C3  UNL     1     -34.500   6.184   5.391  1.00 20.00     0.022 C 
HETATM    4  C4  UNL     1     -35.598   5.794   4.443  1.00 20.00     0.029 C 
HETATM    5  C5  UNL     1     -34.438   5.393   6.666  1.00 20.00     0.029 C 
ENDBRANCH   2   3
ENDBRANCH   1   2
BRANCH   1   6
HETATM    6  C7  UNL     1     -32.682   8.774   3.517  1.00 20.00     0.048 C 
BRANCH   6   7
HETATM    7  C8  UNL     1     -31.960   7.885   2.500  1.00 20.00     0.115 C 
HETATM    8  C6  UNL     1     -32.141   8.415   1.083  1.00 20.00     0.039 C 
BRANCH   7   9
HETATM    9  O9  UNL     1     -32.509   6.570   2.565  1.00 20.00    -0.396 OA
HETATM   10  H23 UNL     1     -32.234   6.200   3.418  1.00 20.00     0.210 HD
ENDBRANCH   7   9
ENDBRANCH   6   7
ENDBRANCH   1   6
TORSDOF 5
ENDMDL
MODEL 8
REMARK VINA RESULT:      -3.9     12.289     13.142
REMARK  5 active torsions:
REMARK  status: ('A' for Active; 'I' for Inactive)
REMARK    1  A    between atoms: C1_1  and  C2_2 
REMARK    2  A    between atoms: C1_1  and  C3_3 
REMARK    3  A    between atoms: C2_2  and  C7_7 
REMARK    4  A    between atoms: C7_7  and  C8_8 
REMARK    5  A    between atoms: C8_8  and  O9_9 
ROOT
HETATM    1  C2  UNL     1     -32.904  17.249  -2.025  1.00 20.00     0.070 C 
ENDROOT
BRANCH   1   2
HETATM    2  C1  UNL     1     -33.397  16.602  -3.042  1.00 20.00    -0.166 C 
BRANCH   2   3
HETATM    3  C3  UNL     1     -33.893  15.959  -4.064  1.00 20.00     0.022 C 
HETATM    4  C4  UNL     1     -33.642  14.496  -4.290  1.00 20.00     0.029 C 
HETATM    5  C5  UNL     1     -34.755  16.633  -5.094  1.00 20.00     0.029 C 
ENDBRANCH   2   3
ENDBRANCH   1   2
BRANCH   1   6
HETATM    6  C7  UNL     1     -33.690  17.673  -0.816  1.00 20.00     0.048 C 
BRANCH   6   7
HETATM    7  C8  UNL     1     -32.890  18.629   0.073  1.00 20.00     0.115 C 
HETATM    8  C6  UNL     1     -31.404  18.566  -0.251  1.00 20.00     0.039 C 
BRANCH   7   9
HETATM    9  O9  UNL     1     -33.072  18.252   1.437  1.00 20.00    -0.396 OA
HETATM   10  H23 UNL     1     -32.446  18.780   1.954  1.00 20.00     0.210 HD
ENDBRANCH   7   9
ENDBRANCH   6   7
ENDBRANCH   1   6
TORSDOF 5
ENDMDL
MODEL 9
REMARK VINA RESULT:      -3.9     12.556     13.331
REMARK  5 active torsions:
REMARK  status: ('A' for Active; 'I' for Inactive)
REMARK    1  A    between atoms: C1_1  and  C2_2 
REMARK    2  A    between atoms: C1_1  and  C3_3 
REMARK    3  A    between atoms: C2_2  and  C7_7 
REMARK    4  A    between atoms: C7_7  and  C8_8 
REMARK    5  A    between atoms: C8_8  and  O9_9 
ROOT
HETATM    1  C2  UNL     1     -33.597  17.752  -0.235  1.00 20.00     0.070 C 
ENDROOT
BRANCH   1   2
HETATM    2  C1  UNL     1     -33.511  17.508  -1.511  1.00 20.00    -0.166 C 
BRANCH   2   3
HETATM    3  C3  UNL     1     -33.418  17.262  -2.790  1.00 20.00     0.022 C 
HETATM    4  C4  UNL     1     -33.462  15.867  -3.344  1.00 20.00     0.029 C 
HETATM    5  C5  UNL     1     -33.263  18.356  -3.808  1.00 20.00     0.029 C 
ENDBRANCH   2   3
ENDBRANCH   1   2
BRANCH   1   6
HETATM    6  C7  UNL     1     -32.797  18.795   0.494  1.00 20.00     0.048 C 
BRANCH   6   7
HETATM    7  C8  UNL     1     -31.336  18.370   0.668  1.00 20.00     0.115 C 
HETATM    8  C6  UNL     1     -30.719  19.020   1.900  1.00 20.00     0.039 C 
BRANCH   7   9
HETATM    9  O9  UNL     1     -30.597  18.784  -0.480  1.00 20.00    -0.396 OA
HETATM   10  H23 UNL     1     -30.547  18.014  -1.067  1.00 20.00     0.210 HD
ENDBRANCH   7   9
ENDBRANCH   6   7
ENDBRANCH   1   6
TORSDOF 5
ENDMDL
