MODEL 1
REMARK VINA RESULT:      -3.7      0.000      0.000
REMARK  0 active torsions:
REMARK  status: ('A' for Active; 'I' for Inactive)
ROOT
HETATM    1  C1  UNL     1     -28.807  -2.508  10.299  1.00 20.00     0.009 C 
HETATM    2  C2  UNL     1     -26.321  -2.831  10.246  1.00 20.00     0.012 C 
HETATM    3  C3  UNL     1     -27.610  -3.374  12.329  1.00 20.00     0.012 C 
HETATM    4  C4  UNL     1     -27.286  -0.514  10.250  1.00 20.00     0.051 C 
HETATM    5  C5  UNL     1     -28.575  -1.058  12.331  1.00 20.00     0.051 C 
HETATM    6  C6  UNL     1     -27.483  -1.953   9.743  1.00 20.00    -0.010 C 
HETATM    7  C7  UNL     1     -28.781  -2.501  11.839  1.00 20.00    -0.010 C 
HETATM    8  C8  UNL     1     -26.279  -2.824  11.787  1.00 20.00     0.024 C 
HETATM    9  C9  UNL     1     -26.096  -1.382  12.283  1.00 20.00     0.213 C 
HETATM   10  C10 UNL     1     -27.250  -0.509  11.783  1.00 20.00     0.135 C 
HETATM   11  F11 UNL     1     -24.921  -0.892  11.799  1.00 20.00    -0.246 F 
HETATM   12  F12 UNL     1     -27.077   0.761  12.227  1.00 20.00    -0.240 F 
ENDROOT
TORSDOF 0
ENDMDL
MODEL 2
REMARK VINA RESULT:      -3.7     24.476     25.815
REMARK  0 active torsions:
REMARK  status: ('A' for Active; 'I' for Inactive)
ROOT
HETATM    1  C1  UNL     1     -36.239  15.808  -7.232  1.00 20.00     0.009 C 
HETATM    2  C2  UNL     1     -36.329  17.025  -5.042  1.00 20.00     0.012 C 
HETATM    3  C3  UNL     1     -34.560  17.604  -6.723  1.00 20.00     0.012 C 
HETATM    4  C4  UNL     1     -35.614  14.621  -5.112  1.00 20.00     0.051 C 
HETATM    5  C5  UNL     1     -33.847  15.199  -6.794  1.00 20.00     0.051 C 
HETATM    6  C6  UNL     1     -36.556  15.667  -5.732  1.00 20.00    -0.010 C 
HETATM    7  C7  UNL     1     -34.776  16.250  -7.426  1.00 20.00    -0.010 C 
HETATM    8  C8  UNL     1     -34.865  17.474  -5.221  1.00 20.00     0.024 C 
HETATM    9  C9  UNL     1     -33.932  16.417  -4.612  1.00 20.00     0.213 C 
HETATM   10  C10 UNL     1     -34.158  15.066  -5.297  1.00 20.00     0.135 C 
HETATM   11  F11 UNL     1     -34.205  16.296  -3.283  1.00 20.00    -0.246 F 
HETATM   12  F12 UNL     1     -33.330  14.141  -4.751  1.00 20.00    -0.240 F 
ENDROOT
TORSDOF 0
ENDMDL
MODEL 3
REMARK VINA RESULT:      -3.6     24.531     25.939
REMARK  0 active torsions:
REMARK  status: ('A' for Active; 'I' for Inactive)
ROOT
HETATM    1  C1  UNL     1     -34.460  17.646  -6.731  1.00 20.00     0.009 C 
HETATM    2  C2  UNL     1     -36.191  15.944  -7.357  1.00 20.00     0.012 C 
HETATM    3  C3  UNL     1     -36.426  17.242  -5.223  1.00 20.00     0.012 C 
HETATM    4  C4  UNL     1     -33.898  15.202  -6.659  1.00 20.00     0.051 C 
HETATM    5  C5  UNL     1     -34.131  16.500  -4.526  1.00 20.00     0.051 C 
HETATM    6  C6  UNL     1     -34.690  16.285  -7.412  1.00 20.00    -0.010 C 
HETATM    7  C7  UNL     1     -34.926  17.592  -5.264  1.00 20.00    -0.010 C 
HETATM    8  C8  UNL     1     -36.668  15.878  -5.893  1.00 20.00     0.024 C 
HETATM    9  C9  UNL     1     -35.862  14.805  -5.145  1.00 20.00     0.213 C 
HETATM   10  C10 UNL     1     -34.369  15.142  -5.200  1.00 20.00     0.135 C 
HETATM   11  F11 UNL     1     -36.070  13.598  -5.741  1.00 20.00    -0.246 F 
HETATM   12  F12 UNL     1     -33.669  14.188  -4.538  1.00 20.00    -0.240 F 
ENDROOT
TORSDOF 0
ENDMDL
MODEL 4
REMARK VINA RESULT:      -3.6      2.105      3.266
REMARK  0 active torsions:
REMARK  status: ('A' for Active; 'I' for Inactive)
ROOT
HETATM    1  C1  UNL     1     -26.267  -1.127  12.243  1.00 20.00     0.009 C 
HETATM    2  C2  UNL     1     -26.247  -2.590  10.207  1.00 20.00     0.012 C 
HETATM    3  C3  UNL     1     -27.633  -0.499  10.232  1.00 20.00     0.012 C 
HETATM    4  C4  UNL     1     -27.383  -3.373  12.302  1.00 20.00     0.051 C 
HETATM    5  C5  UNL     1     -28.768  -1.283  12.329  1.00 20.00     0.051 C 
HETATM    6  C6  UNL     1     -26.187  -2.582  11.746  1.00 20.00    -0.010 C 
HETATM    7  C7  UNL     1     -27.582  -0.477  11.772  1.00 20.00    -0.010 C 
HETATM    8  C8  UNL     1     -27.563  -1.949   9.723  1.00 20.00     0.024 C 
HETATM    9  C9  UNL     1     -28.751  -2.737  10.295  1.00 20.00     0.213 C 
HETATM   10  C10 UNL     1     -28.692  -2.731  11.825  1.00 20.00     0.135 C 
HETATM   11  F11 UNL     1     -28.687  -4.022   9.850  1.00 20.00    -0.246 F 
HETATM   12  F12 UNL     1     -29.744  -3.429  12.318  1.00 20.00    -0.240 F 
ENDROOT
TORSDOF 0
ENDMDL
MODEL 5
REMARK VINA RESULT:      -3.5     18.479     19.909
REMARK  0 active torsions:
REMARK  status: ('A' for Active; 'I' for Inactive)
ROOT
HETATM    1  C1  UNL     1     -24.039  19.263  12.332  1.00 20.00     0.009 C 
HETATM    2  C2  UNL     1     -22.402  18.909  10.466  1.00 20.00     0.012 C 
HETATM    3  C3  UNL     1     -24.836  19.236   9.951  1.00 20.00     0.012 C 
HETATM    4  C4  UNL     1     -22.979  17.013  12.005  1.00 20.00     0.051 C 
HETATM    5  C5  UNL     1     -25.412  17.341  11.492  1.00 20.00     0.051 C 
HETATM    6  C6  UNL     1     -22.749  18.531  11.918  1.00 20.00    -0.010 C 
HETATM    7  C7  UNL     1     -25.199  18.862  11.401  1.00 20.00    -0.010 C 
HETATM    8  C8  UNL     1     -23.552  18.504   9.522  1.00 20.00     0.024 C 
HETATM    9  C9  UNL     1     -23.784  16.989   9.626  1.00 20.00     0.213 C 
HETATM   10  C10 UNL     1     -24.128  16.612  11.071  1.00 20.00     0.135 C 
HETATM   11  F11 UNL     1     -22.647  16.339   9.253  1.00 20.00    -0.246 F 
HETATM   12  F12 UNL     1     -24.329  15.274  11.150  1.00 20.00    -0.240 F 
ENDROOT
TORSDOF 0
ENDMDL
MODEL 6
REMARK VINA RESULT:      -3.5      1.422      2.648
REMARK  0 active torsions:
REMARK  status: ('A' for Active; 'I' for Inactive)
ROOT
HETATM    1  C1  UNL     1     -27.678  -0.558  10.109  1.00 20.00     0.009 C 
HETATM    2  C2  UNL     1     -28.626  -2.862  10.391  1.00 20.00     0.012 C 
HETATM    3  C3  UNL     1     -28.608  -1.270  12.330  1.00 20.00     0.012 C 
HETATM    4  C4  UNL     1     -26.152  -2.550  10.106  1.00 20.00     0.051 C 
HETATM    5  C5  UNL     1     -26.134  -0.957  12.044  1.00 20.00     0.051 C 
HETATM    6  C6  UNL     1     -27.538  -2.031   9.684  1.00 20.00    -0.010 C 
HETATM    7  C7  UNL     1     -27.520  -0.428  11.636  1.00 20.00    -0.010 C 
HETATM    8  C8  UNL     1     -28.473  -2.747  11.920  1.00 20.00     0.024 C 
HETATM    9  C9  UNL     1     -27.082  -3.254  12.331  1.00 20.00     0.213 C 
HETATM   10  C10 UNL     1     -25.999  -2.429  11.628  1.00 20.00     0.135 C 
HETATM   11  F11 UNL     1     -26.959  -4.559  11.963  1.00 20.00    -0.246 F 
HETATM   12  F12 UNL     1     -24.777  -2.885  11.997  1.00 20.00    -0.240 F 
ENDROOT
TORSDOF 0
ENDMDL
MODEL 7
REMARK VINA RESULT:      -3.4      1.570      2.720
REMARK  0 active torsions:
REMARK  status: ('A' for Active; 'I' for Inactive)
ROOT
HETATM    1  C1  UNL     1     -28.500  -1.053  12.330  1.00 20.00     0.009 C 
HETATM    2  C2  UNL     1     -27.359  -0.634  10.138  1.00 20.00     0.012 C 
HETATM    3  C3  UNL     1     -28.953  -2.557  10.372  1.00 20.00     0.012 C 
HETATM    4  C4  UNL     1     -26.040  -1.484  12.095  1.00 20.00     0.051 C 
HETATM    5  C5  UNL     1     -27.634  -3.406  12.331  1.00 20.00     0.051 C 
HETATM    6  C6  UNL     1     -27.198  -0.566  11.668  1.00 20.00    -0.010 C 
HETATM    7  C7  UNL     1     -28.804  -2.502  11.905  1.00 20.00    -0.010 C 
HETATM    8  C8  UNL     1     -27.654  -2.082   9.698  1.00 20.00     0.024 C 
HETATM    9  C9  UNL     1     -26.500  -2.993  10.141  1.00 20.00     0.213 C 
HETATM   10  C10 UNL     1     -26.338  -2.925  11.662  1.00 20.00     0.135 C 
HETATM   11  F11 UNL     1     -25.348  -2.569   9.550  1.00 20.00    -0.246 F 
HETATM   12  F12 UNL     1     -25.316  -3.732  12.042  1.00 20.00    -0.240 F 
ENDROOT
TORSDOF 0
ENDMDL
MODEL 8
REMARK VINA RESULT:      -3.4     19.175     20.463
REMARK  0 active torsions:
REMARK  status: ('A' for Active; 'I' for Inactive)
ROOT
HETATM    1  C1  UNL     1     -41.284   7.474   1.467  1.00 20.00     0.009 C 
HETATM    2  C2  UNL     1     -41.306   6.456  -0.824  1.00 20.00     0.012 C 
HETATM    3  C3  UNL     1     -43.315   7.707   0.009  1.00 20.00     0.012 C 
HETATM    4  C4  UNL     1     -41.379   4.981   1.205  1.00 20.00     0.051 C 
HETATM    5  C5  UNL     1     -43.386   6.233   2.039  1.00 20.00     0.051 C 
HETATM    6  C6  UNL     1     -40.802   6.282   0.621  1.00 20.00    -0.010 C 
HETATM    7  C7  UNL     1     -42.823   7.542   1.460  1.00 20.00    -0.010 C 
HETATM    8  C8  UNL     1     -42.847   6.516  -0.845  1.00 20.00     0.024 C 
HETATM    9  C9  UNL     1     -43.414   5.220  -0.247  1.00 20.00     0.213 C 
HETATM   10  C10 UNL     1     -42.912   5.045   1.189  1.00 20.00     0.135 C 
HETATM   11  F11 UNL     1     -42.995   4.164  -0.999  1.00 20.00    -0.246 F 
HETATM   12  F12 UNL     1     -43.417   3.898   1.705  1.00 20.00    -0.240 F 
ENDROOT
TORSDOF 0
ENDMDL
MODEL 9
REMARK VINA RESULT:      -3.4     24.447     25.757
REMARK  0 active torsions:
REMARK  status: ('A' for Active; 'I' for Inactive)
ROOT
HETATM    1  C1  UNL     1     -36.094  16.025  -7.246  1.00 20.00     0.009 C 
HETATM    2  C2  UNL     1     -33.854  15.138  -6.554  1.00 20.00     0.012 C 
HETATM    3  C3  UNL     1     -35.913  14.457  -5.293  1.00 20.00     0.012 C 
HETATM    4  C4  UNL     1     -34.417  17.554  -6.177  1.00 20.00     0.051 C 
HETATM    5  C5  UNL     1     -36.477  16.874  -4.918  1.00 20.00     0.051 C 
HETATM    6  C6  UNL     1     -34.596  16.359  -7.129  1.00 20.00    -0.010 C 
HETATM    7  C7  UNL     1     -36.670  15.674  -5.861  1.00 20.00    -0.010 C 
HETATM    8  C8  UNL     1     -34.414  14.782  -5.163  1.00 20.00     0.024 C 
HETATM    9  C9  UNL     1     -34.245  15.985  -4.224  1.00 20.00     0.213 C 
HETATM   10  C10 UNL     1     -34.981  17.200  -4.795  1.00 20.00     0.135 C 
HETATM   11  F11 UNL     1     -32.919  16.278  -4.113  1.00 20.00    -0.246 F 
HETATM   12  F12 UNL     1     -34.824  18.256  -3.959  1.00 20.00    -0.240 F 
ENDROOT
TORSDOF 0
ENDMDL
