MODEL 1
REMARK VINA RESULT:      -3.6      0.000      0.000
REMARK  0 active torsions:
REMARK  status: ('A' for Active; 'I' for Inactive)
ROOT
HETATM    1  C1  UNL     1     -34.495   5.426   6.293  1.00 20.00     0.028 C 
HETATM    2  C2  UNL     1     -34.249   6.908   6.423  1.00 20.00     0.028 C 
HETATM    3  C3  UNL     1     -34.737   5.280   4.806  1.00 20.00     0.167 C 
HETATM    4  C4  UNL     1     -33.480   7.208   5.156  1.00 20.00     0.167 C 
HETATM    5  O5  UNL     1     -33.950   6.291   4.159  1.00 20.00    -0.391 OA
ENDROOT
TORSDOF 0
ENDMDL
MODEL 2
REMARK VINA RESULT:      -3.6      0.024      1.754
REMARK  0 active torsions:
REMARK  status: ('A' for Active; 'I' for Inactive)
ROOT
HETATM    1  C1  UNL     1     -34.246   6.910   6.399  1.00 20.00     0.028 C 
HETATM    2  C2  UNL     1     -34.506   5.430   6.283  1.00 20.00     0.028 C 
HETATM    3  C3  UNL     1     -33.468   7.190   5.132  1.00 20.00     0.167 C 
HETATM    4  C4  UNL     1     -34.742   5.271   4.798  1.00 20.00     0.167 C 
HETATM    5  O5  UNL     1     -33.944   6.266   4.143  1.00 20.00    -0.391 OA
ENDROOT
TORSDOF 0
ENDMDL
MODEL 3
REMARK VINA RESULT:      -3.4      1.073      1.809
REMARK  0 active torsions:
REMARK  status: ('A' for Active; 'I' for Inactive)
ROOT
HETATM    1  C1  UNL     1     -34.113   6.978   4.764  1.00 20.00     0.028 C 
HETATM    2  C2  UNL     1     -33.930   6.649   6.223  1.00 20.00     0.028 C 
HETATM    3  C3  UNL     1     -34.105   5.604   4.130  1.00 20.00     0.167 C 
HETATM    4  C4  UNL     1     -34.739   5.378   6.359  1.00 20.00     0.167 C 
HETATM    5  O5  UNL     1     -34.662   4.702   5.097  1.00 20.00    -0.391 OA
ENDROOT
TORSDOF 0
ENDMDL
MODEL 4
REMARK VINA RESULT:      -3.3      1.251      2.336
REMARK  0 active torsions:
REMARK  status: ('A' for Active; 'I' for Inactive)
ROOT
HETATM    1  C1  UNL     1     -33.852   6.195   4.210  1.00 20.00     0.028 C 
HETATM    2  C2  UNL     1     -34.911   5.344   4.862  1.00 20.00     0.028 C 
HETATM    3  C3  UNL     1     -33.731   7.345   5.187  1.00 20.00     0.167 C 
HETATM    4  C4  UNL     1     -34.579   5.502   6.329  1.00 20.00     0.167 C 
HETATM    5  O5  UNL     1     -34.020   6.812   6.488  1.00 20.00    -0.391 OA
ENDROOT
TORSDOF 0
ENDMDL
MODEL 5
REMARK VINA RESULT:      -3.3      1.257      1.788
REMARK  0 active torsions:
REMARK  status: ('A' for Active; 'I' for Inactive)
ROOT
HETATM    1  C1  UNL     1     -34.924   5.398   4.841  1.00 20.00     0.028 C 
HETATM    2  C2  UNL     1     -33.863   6.269   4.217  1.00 20.00     0.028 C 
HETATM    3  C3  UNL     1     -34.592   5.509   6.313  1.00 20.00     0.167 C 
HETATM    4  C4  UNL     1     -33.744   7.387   5.230  1.00 20.00     0.167 C 
HETATM    5  O5  UNL     1     -34.033   6.816   6.512  1.00 20.00    -0.391 OA
ENDROOT
TORSDOF 0
ENDMDL
MODEL 6
REMARK VINA RESULT:      -3.3      0.683      1.067
REMARK  0 active torsions:
REMARK  status: ('A' for Active; 'I' for Inactive)
ROOT
HETATM    1  C1  UNL     1     -33.984   6.691   6.352  1.00 20.00     0.028 C 
HETATM    2  C2  UNL     1     -33.595   7.865   5.490  1.00 20.00     0.028 C 
HETATM    3  C3  UNL     1     -34.613   5.757   5.341  1.00 20.00     0.167 C 
HETATM    4  C4  UNL     1     -33.160   7.182   4.212  1.00 20.00     0.167 C 
HETATM    5  O5  UNL     1     -33.943   5.988   4.093  1.00 20.00    -0.391 OA
ENDROOT
TORSDOF 0
ENDMDL
MODEL 7
REMARK VINA RESULT:      -3.1      1.522      2.443
REMARK  0 active torsions:
REMARK  status: ('A' for Active; 'I' for Inactive)
ROOT
HETATM    1  C1  UNL     1     -33.238   8.036   5.226  1.00 20.00     0.028 C 
HETATM    2  C2  UNL     1     -32.663   8.560   3.935  1.00 20.00     0.028 C 
HETATM    3  C3  UNL     1     -33.953   6.785   4.764  1.00 20.00     0.167 C 
HETATM    4  C4  UNL     1     -32.280   7.282   3.223  1.00 20.00     0.167 C 
HETATM    5  O5  UNL     1     -33.214   6.278   3.643  1.00 20.00    -0.391 OA
ENDROOT
TORSDOF 0
ENDMDL
MODEL 8
REMARK VINA RESULT:      -2.7     17.359     17.622
REMARK  0 active torsions:
REMARK  status: ('A' for Active; 'I' for Inactive)
ROOT
HETATM    1  C1  UNL     1     -21.989  10.671  -5.878  1.00 20.00     0.028 C 
HETATM    2  C2  UNL     1     -23.037  10.440  -6.936  1.00 20.00     0.028 C 
HETATM    3  C3  UNL     1     -21.293   9.328  -5.830  1.00 20.00     0.167 C 
HETATM    4  C4  UNL     1     -22.299   9.555  -7.917  1.00 20.00     0.167 C 
HETATM    5  O5  UNL     1     -21.369   8.778  -7.153  1.00 20.00    -0.391 OA
ENDROOT
TORSDOF 0
ENDMDL
MODEL 9
REMARK VINA RESULT:      -2.6      9.149      9.696
REMARK  0 active torsions:
REMARK  status: ('A' for Active; 'I' for Inactive)
ROOT
HETATM    1  C1  UNL     1     -40.810   6.125  -0.333  1.00 20.00     0.028 C 
HETATM    2  C2  UNL     1     -41.004   7.489   0.280  1.00 20.00     0.028 C 
HETATM    3  C3  UNL     1     -42.230   5.736  -0.684  1.00 20.00     0.167 C 
HETATM    4  C4  UNL     1     -42.114   8.059  -0.575  1.00 20.00     0.167 C 
HETATM    5  O5  UNL     1     -42.927   6.952  -0.990  1.00 20.00    -0.391 OA
ENDROOT
TORSDOF 0
ENDMDL
