MODEL 1
REMARK VINA RESULT:      -3.4      0.000      0.000
REMARK  0 active torsions:
REMARK  status: ('A' for Active; 'I' for Inactive)
ROOT
HETATM    1  C1  UNL     1     -33.199   6.025   3.609  1.00 20.00     0.201 C 
HETATM    2  C2  UNL     1     -33.709   6.853   5.925  1.00 20.00     0.099 C 
HETATM    3  C3  UNL     1     -34.080   5.841   4.836  1.00 20.00     0.074 C 
HETATM    4  C4  UNL     1     -35.550   5.918   4.429  1.00 20.00     0.020 C 
HETATM    5  O5  UNL     1     -33.076   5.188   2.724  1.00 20.00    -0.284 OA
HETATM    6  S6  UNL     1     -32.389   7.589   3.529  1.00 20.00    -0.019 SA
HETATM    7  S7  UNL     1     -33.383   8.424   5.105  1.00 20.00    -0.089 SA
ENDROOT
TORSDOF 0
ENDMDL
MODEL 2
REMARK VINA RESULT:      -3.3      9.073      9.583
REMARK  0 active torsions:
REMARK  status: ('A' for Active; 'I' for Inactive)
ROOT
HETATM    1  C1  UNL     1     -41.373   6.052  -0.195  1.00 20.00     0.201 C 
HETATM    2  C2  UNL     1     -43.279   7.672   0.045  1.00 20.00     0.099 C 
HETATM    3  C3  UNL     1     -41.861   7.462  -0.497  1.00 20.00     0.074 C 
HETATM    4  C4  UNL     1     -40.859   8.479   0.047  1.00 20.00     0.020 C 
HETATM    5  O5  UNL     1     -40.419   5.525  -0.752  1.00 20.00    -0.284 OA
HETATM    6  S6  UNL     1     -42.272   5.235   1.083  1.00 20.00    -0.019 SA
HETATM    7  S7  UNL     1     -43.359   6.867   1.655  1.00 20.00    -0.089 SA
ENDROOT
TORSDOF 0
ENDMDL
MODEL 3
REMARK VINA RESULT:      -3.3      2.100      2.693
REMARK  0 active torsions:
REMARK  status: ('A' for Active; 'I' for Inactive)
ROOT
HETATM    1  C1  UNL     1     -33.413   7.712   4.774  1.00 20.00     0.201 C 
HETATM    2  C2  UNL     1     -34.755   5.704   4.083  1.00 20.00     0.099 C 
HETATM    3  C3  UNL     1     -34.448   6.689   5.217  1.00 20.00     0.074 C 
HETATM    4  C4  UNL     1     -33.972   5.997   6.493  1.00 20.00     0.020 C 
HETATM    5  O5  UNL     1     -33.201   8.767   5.358  1.00 20.00    -0.284 OA
HETATM    6  S6  UNL     1     -32.484   7.233   3.354  1.00 20.00    -0.019 SA
HETATM    7  S7  UNL     1     -33.193   5.320   3.273  1.00 20.00    -0.089 SA
ENDROOT
TORSDOF 0
ENDMDL
MODEL 4
REMARK VINA RESULT:      -3.1     15.638     16.224
REMARK  0 active torsions:
REMARK  status: ('A' for Active; 'I' for Inactive)
ROOT
HETATM    1  C1  UNL     1     -23.442  17.654  10.157  1.00 20.00     0.201 C 
HETATM    2  C2  UNL     1     -24.333  18.540  12.332  1.00 20.00     0.099 C 
HETATM    3  C3  UNL     1     -23.627  17.369  11.640  1.00 20.00     0.074 C 
HETATM    4  C4  UNL     1     -24.362  16.042  11.819  1.00 20.00     0.020 C 
HETATM    5  O5  UNL     1     -22.667  17.040   9.434  1.00 20.00    -0.284 OA
HETATM    6  S6  UNL     1     -24.486  18.929   9.530  1.00 20.00    -0.019 SA
HETATM    7  S7  UNL     1     -25.622  19.121  11.216  1.00 20.00    -0.089 SA
ENDROOT
TORSDOF 0
ENDMDL
MODEL 5
REMARK VINA RESULT:      -3.1     12.981     13.289
REMARK  0 active torsions:
REMARK  status: ('A' for Active; 'I' for Inactive)
ROOT
HETATM    1  C1  UNL     1     -31.678  18.577  -0.296  1.00 20.00     0.201 C 
HETATM    2  C2  UNL     1     -33.977  17.766  -0.903  1.00 20.00     0.099 C 
HETATM    3  C3  UNL     1     -32.594  18.155  -1.436  1.00 20.00     0.074 C 
HETATM    4  C4  UNL     1     -32.650  19.262  -2.487  1.00 20.00     0.020 C 
HETATM    5  O5  UNL     1     -30.460  18.654  -0.391  1.00 20.00    -0.284 OA
HETATM    6  S6  UNL     1     -32.525  19.007   1.189  1.00 20.00    -0.019 SA
HETATM    7  S7  UNL     1     -34.402  18.948   0.388  1.00 20.00    -0.089 SA
ENDROOT
TORSDOF 0
ENDMDL
MODEL 6
REMARK VINA RESULT:      -3.0     16.455     16.957
REMARK  0 active torsions:
REMARK  status: ('A' for Active; 'I' for Inactive)
ROOT
HETATM    1  C1  UNL     1     -23.538  18.986   8.276  1.00 20.00     0.201 C 
HETATM    2  C2  UNL     1     -21.677  18.877   9.959  1.00 20.00     0.099 C 
HETATM    3  C3  UNL     1     -22.041  18.802   8.473  1.00 20.00     0.074 C 
HETATM    4  C4  UNL     1     -21.593  17.498   7.816  1.00 20.00     0.020 C 
HETATM    5  O5  UNL     1     -24.058  19.260   7.201  1.00 20.00    -0.284 OA
HETATM    6  S6  UNL     1     -24.496  18.719   9.731  1.00 20.00    -0.019 SA
HETATM    7  S7  UNL     1     -22.960  17.997  10.867  1.00 20.00    -0.089 SA
ENDROOT
TORSDOF 0
ENDMDL
MODEL 7
REMARK VINA RESULT:      -3.0     16.393     16.978
REMARK  0 active torsions:
REMARK  status: ('A' for Active; 'I' for Inactive)
ROOT
HETATM    1  C1  UNL     1     -22.328  18.189  10.425  1.00 20.00     0.201 C 
HETATM    2  C2  UNL     1     -24.665  17.412  10.921  1.00 20.00     0.099 C 
HETATM    3  C3  UNL     1     -23.683  17.842   9.826  1.00 20.00     0.074 C 
HETATM    4  C4  UNL     1     -24.195  19.019   8.998  1.00 20.00     0.020 C 
HETATM    5  O5  UNL     1     -21.295  18.278   9.774  1.00 20.00    -0.284 OA
HETATM    6  S6  UNL     1     -22.366  18.511  12.158  1.00 20.00    -0.019 SA
HETATM    7  S7  UNL     1     -24.400  18.500  12.332  1.00 20.00    -0.089 SA
ENDROOT
TORSDOF 0
ENDMDL
MODEL 8
REMARK VINA RESULT:      -2.9     12.588     12.996
REMARK  0 active torsions:
REMARK  status: ('A' for Active; 'I' for Inactive)
ROOT
HETATM    1  C1  UNL     1     -33.824  15.137  -4.417  1.00 20.00     0.201 C 
HETATM    2  C2  UNL     1     -33.917  17.641  -4.599  1.00 20.00     0.099 C 
HETATM    3  C3  UNL     1     -33.311  16.451  -3.847  1.00 20.00     0.074 C 
HETATM    4  C4  UNL     1     -33.580  16.499  -2.344  1.00 20.00     0.020 C 
HETATM    5  O5  UNL     1     -33.298  14.051  -4.211  1.00 20.00    -0.284 OA
HETATM    6  S6  UNL     1     -35.296  15.291  -5.375  1.00 20.00    -0.019 SA
HETATM    7  S7  UNL     1     -35.647  17.249  -4.912  1.00 20.00    -0.089 SA
ENDROOT
TORSDOF 0
ENDMDL
MODEL 9
REMARK VINA RESULT:      -2.8     12.736     13.187
REMARK  0 active torsions:
REMARK  status: ('A' for Active; 'I' for Inactive)
ROOT
HETATM    1  C1  UNL     1     -33.851  15.011  -4.399  1.00 20.00     0.201 C 
HETATM    2  C2  UNL     1     -35.550  16.677  -5.202  1.00 20.00     0.099 C 
HETATM    3  C3  UNL     1     -34.840  15.353  -5.503  1.00 20.00     0.074 C 
HETATM    4  C4  UNL     1     -34.123  15.357  -6.852  1.00 20.00     0.020 C 
HETATM    5  O5  UNL     1     -33.371  13.897  -4.233  1.00 20.00    -0.284 OA
HETATM    6  S6  UNL     1     -33.397  16.380  -3.385  1.00 20.00    -0.019 SA
HETATM    7  S7  UNL     1     -34.317  17.802  -4.525  1.00 20.00    -0.089 SA
ENDROOT
TORSDOF 0
ENDMDL
