MODEL 1
REMARK VINA RESULT:      -5.1      0.000      0.000
REMARK  3 active torsions:
REMARK  status: ('A' for Active; 'I' for Inactive)
REMARK    1  A    between atoms: C1_1  and  C7_7 
REMARK    2  A    between atoms: C1_1  and  O9_9 
REMARK    3  A    between atoms: C5_5  and  C7_7 
ROOT
HETATM    1  C2  UNL     1     -35.353   5.877   4.495  1.00 20.00     0.011 A 
HETATM    2  C3  UNL     1     -34.510   4.801   5.190  1.00 20.00     0.011 A 
HETATM    3  C4  UNL     1     -34.355   7.012   6.747  1.00 20.00     0.015 A 
HETATM    4  C5  UNL     1     -33.266   7.160   5.675  1.00 20.00     0.005 A 
HETATM    5  C6  UNL     1     -34.372   6.218   5.520  1.00 20.00    -0.036 A 
ENDROOT
BRANCH   4   6
HETATM    6  C7  UNL     1     -33.203   8.393   4.843  1.00 20.00     0.115 C 
BRANCH   6   7
HETATM    7  C1  UNL     1     -32.575   8.160   3.479  1.00 20.00     0.139 C 
HETATM    8  O8  UNL     1     -32.045   7.119   3.118  1.00 20.00    -0.650 OA
BRANCH   7   9
HETATM    9  O9  UNL     1     -32.678   9.265   2.698  1.00 20.00    -0.776 OA
HETATM   10  H19 UNL     1     -32.019   9.262   1.971  1.00 20.00     0.167 HD
ENDBRANCH   7   9
ENDBRANCH   6   7
ENDBRANCH   4   6
TORSDOF 3
ENDMDL
MODEL 2
REMARK VINA RESULT:      -5.0      2.231      3.525
REMARK  3 active torsions:
REMARK  status: ('A' for Active; 'I' for Inactive)
REMARK    1  A    between atoms: C1_1  and  C7_7 
REMARK    2  A    between atoms: C1_1  and  O9_9 
REMARK    3  A    between atoms: C5_5  and  C7_7 
ROOT
HETATM    1  C2  UNL     1     -32.065   7.261   3.205  1.00 20.00     0.011 A 
HETATM    2  C3  UNL     1     -32.853   8.478   2.708  1.00 20.00     0.011 A 
HETATM    3  C4  UNL     1     -32.711   8.712   5.403  1.00 20.00     0.015 A 
HETATM    4  C5  UNL     1     -33.924   7.818   5.109  1.00 20.00     0.005 A 
HETATM    5  C6  UNL     1     -32.888   8.059   4.107  1.00 20.00    -0.036 A 
ENDROOT
BRANCH   4   6
HETATM    6  C7  UNL     1     -34.045   6.488   5.765  1.00 20.00     0.115 C 
BRANCH   6   7
HETATM    7  C1  UNL     1     -34.728   5.451   4.889  1.00 20.00     0.139 C 
HETATM    8  O8  UNL     1     -34.274   4.348   4.620  1.00 20.00    -0.650 OA
BRANCH   7   9
HETATM    9  O9  UNL     1     -35.923   5.907   4.433  1.00 20.00    -0.776 OA
HETATM   10  H19 UNL     1     -35.813   6.641   3.790  1.00 20.00     0.167 HD
ENDBRANCH   7   9
ENDBRANCH   6   7
ENDBRANCH   4   6
TORSDOF 3
ENDMDL
MODEL 3
REMARK VINA RESULT:      -4.3     11.728     12.545
REMARK  3 active torsions:
REMARK  status: ('A' for Active; 'I' for Inactive)
REMARK    1  A    between atoms: C1_1  and  C7_7 
REMARK    2  A    between atoms: C1_1  and  O9_9 
REMARK    3  A    between atoms: C5_5  and  C7_7 
ROOT
HETATM    1  C2  UNL     1     -33.622  17.521  -3.558  1.00 20.00     0.011 A 
HETATM    2  C3  UNL     1     -33.358  16.828  -2.216  1.00 20.00     0.011 A 
HETATM    3  C4  UNL     1     -32.371  15.183  -4.128  1.00 20.00     0.015 A 
HETATM    4  C5  UNL     1     -33.863  14.849  -3.997  1.00 20.00     0.005 A 
HETATM    5  C6  UNL     1     -33.309  16.098  -3.480  1.00 20.00    -0.036 A 
ENDROOT
BRANCH   4   6
HETATM    6  C7  UNL     1     -34.736  14.851  -5.203  1.00 20.00     0.115 C 
BRANCH   6   7
HETATM    7  C1  UNL     1     -36.050  14.120  -4.989  1.00 20.00     0.139 C 
HETATM    8  O8  UNL     1     -37.156  14.565  -5.261  1.00 20.00    -0.650 OA
BRANCH   7   9
HETATM    9  O9  UNL     1     -35.844  12.892  -4.449  1.00 20.00    -0.776 OA
HETATM   10  H19 UNL     1     -36.580  12.275  -4.650  1.00 20.00     0.167 HD
ENDBRANCH   7   9
ENDBRANCH   6   7
ENDBRANCH   4   6
TORSDOF 3
ENDMDL
MODEL 4
REMARK VINA RESULT:      -4.2      2.548      3.855
REMARK  3 active torsions:
REMARK  status: ('A' for Active; 'I' for Inactive)
REMARK    1  A    between atoms: C1_1  and  C7_7 
REMARK    2  A    between atoms: C1_1  and  O9_9 
REMARK    3  A    between atoms: C5_5  and  C7_7 
ROOT
HETATM    1  C2  UNL     1     -33.702   8.535   4.491  1.00 20.00     0.011 A 
HETATM    2  C3  UNL     1     -32.240   8.497   4.953  1.00 20.00     0.011 A 
HETATM    3  C4  UNL     1     -32.277   7.436   2.461  1.00 20.00     0.015 A 
HETATM    4  C5  UNL     1     -32.602   6.287   3.426  1.00 20.00     0.005 A 
HETATM    5  C6  UNL     1     -32.713   7.686   3.834  1.00 20.00    -0.036 A 
ENDROOT
BRANCH   4   6
HETATM    6  C7  UNL     1     -33.824   5.462   3.217  1.00 20.00     0.115 C 
BRANCH   6   7
HETATM    7  C1  UNL     1     -34.526   5.100   4.515  1.00 20.00     0.139 C 
HETATM    8  O8  UNL     1     -34.087   4.337   5.363  1.00 20.00    -0.650 OA
BRANCH   7   9
HETATM    9  O9  UNL     1     -35.720   5.737   4.618  1.00 20.00    -0.776 OA
HETATM   10  H19 UNL     1     -35.707   6.614   4.178  1.00 20.00     0.167 HD
ENDBRANCH   7   9
ENDBRANCH   6   7
ENDBRANCH   4   6
TORSDOF 3
ENDMDL
MODEL 5
REMARK VINA RESULT:      -4.2      1.287      2.219
REMARK  3 active torsions:
REMARK  status: ('A' for Active; 'I' for Inactive)
REMARK    1  A    between atoms: C1_1  and  C7_7 
REMARK    2  A    between atoms: C1_1  and  O9_9 
REMARK    3  A    between atoms: C5_5  and  C7_7 
ROOT
HETATM    1  C2  UNL     1     -33.589   5.731   6.537  1.00 20.00     0.011 A 
HETATM    2  C3  UNL     1     -35.099   5.876   6.316  1.00 20.00     0.011 A 
HETATM    3  C4  UNL     1     -34.137   4.562   4.152  1.00 20.00     0.015 A 
HETATM    4  C5  UNL     1     -33.961   6.060   3.864  1.00 20.00     0.005 A 
HETATM    5  C6  UNL     1     -34.189   5.561   5.218  1.00 20.00    -0.036 A 
ENDROOT
BRANCH   4   6
HETATM    6  C7  UNL     1     -32.627   6.590   3.469  1.00 20.00     0.115 C 
BRANCH   6   7
HETATM    7  C1  UNL     1     -32.483   8.083   3.715  1.00 20.00     0.139 C 
HETATM    8  O8  UNL     1     -32.761   8.959   2.909  1.00 20.00    -0.650 OA
BRANCH   7   9
HETATM    9  O9  UNL     1     -32.001   8.328   4.960  1.00 20.00    -0.776 OA
HETATM   10  H19 UNL     1     -32.580   8.941   5.462  1.00 20.00     0.167 HD
ENDBRANCH   7   9
ENDBRANCH   6   7
ENDBRANCH   4   6
TORSDOF 3
ENDMDL
MODEL 6
REMARK VINA RESULT:      -4.1     11.712     12.640
REMARK  3 active torsions:
REMARK  status: ('A' for Active; 'I' for Inactive)
REMARK    1  A    between atoms: C1_1  and  C7_7 
REMARK    2  A    between atoms: C1_1  and  O9_9 
REMARK    3  A    between atoms: C5_5  and  C7_7 
ROOT
HETATM    1  C2  UNL     1     -33.749  17.581  -0.871  1.00 20.00     0.011 A 
HETATM    2  C3  UNL     1     -32.337  18.123  -1.124  1.00 20.00     0.011 A 
HETATM    3  C4  UNL     1     -33.594  18.128  -3.524  1.00 20.00     0.015 A 
HETATM    4  C5  UNL     1     -33.010  16.719  -3.342  1.00 20.00     0.005 A 
HETATM    5  C6  UNL     1     -33.177  17.631  -2.213  1.00 20.00    -0.036 A 
ENDROOT
BRANCH   4   6
HETATM    6  C7  UNL     1     -33.888  15.525  -3.486  1.00 20.00     0.115 C 
BRANCH   6   7
HETATM    7  C1  UNL     1     -33.643  14.758  -4.774  1.00 20.00     0.139 C 
HETATM    8  O8  UNL     1     -34.034  15.099  -5.881  1.00 20.00    -0.650 OA
BRANCH   7   9
HETATM    9  O9  UNL     1     -32.927  13.629  -4.542  1.00 20.00    -0.776 OA
HETATM   10  H19 UNL     1     -31.963  13.778  -4.653  1.00 20.00     0.167 HD
ENDBRANCH   7   9
ENDBRANCH   6   7
ENDBRANCH   4   6
TORSDOF 3
ENDMDL
MODEL 7
REMARK VINA RESULT:      -3.9      8.643      9.421
REMARK  3 active torsions:
REMARK  status: ('A' for Active; 'I' for Inactive)
REMARK    1  A    between atoms: C1_1  and  C7_7 
REMARK    2  A    between atoms: C1_1  and  O9_9 
REMARK    3  A    between atoms: C5_5  and  C7_7 
ROOT
HETATM    1  C2  UNL     1     -40.434  14.259   8.156  1.00 20.00     0.011 A 
HETATM    2  C3  UNL     1     -41.096  15.274   7.218  1.00 20.00     0.011 A 
HETATM    3  C4  UNL     1     -42.330  12.906   6.767  1.00 20.00     0.015 A 
HETATM    4  C5  UNL     1     -41.078  12.918   5.880  1.00 20.00     0.005 A 
HETATM    5  C6  UNL     1     -41.228  13.835   7.007  1.00 20.00    -0.036 A 
ENDROOT
BRANCH   4   6
HETATM    6  C7  UNL     1     -40.107  11.791   5.947  1.00 20.00     0.115 C 
BRANCH   6   7
HETATM    7  C1  UNL     1     -38.928  11.965   5.005  1.00 20.00     0.139 C 
HETATM    8  O8  UNL     1     -38.955  11.766   3.799  1.00 20.00    -0.650 OA
BRANCH   7   9
HETATM    9  O9  UNL     1     -37.822  12.374   5.677  1.00 20.00    -0.776 OA
HETATM   10  H19 UNL     1     -37.002  11.979   5.309  1.00 20.00     0.167 HD
ENDBRANCH   7   9
ENDBRANCH   6   7
ENDBRANCH   4   6
TORSDOF 3
ENDMDL
MODEL 8
REMARK VINA RESULT:      -3.9      1.672      2.956
REMARK  3 active torsions:
REMARK  status: ('A' for Active; 'I' for Inactive)
REMARK    1  A    between atoms: C1_1  and  C7_7 
REMARK    2  A    between atoms: C1_1  and  O9_9 
REMARK    3  A    between atoms: C5_5  and  C7_7 
ROOT
HETATM    1  C2  UNL     1     -32.902   7.601   5.643  1.00 20.00     0.011 A 
HETATM    2  C3  UNL     1     -34.246   8.307   5.432  1.00 20.00     0.011 A 
HETATM    3  C4  UNL     1     -34.829   5.762   6.153  1.00 20.00     0.015 A 
HETATM    4  C5  UNL     1     -34.611   5.743   4.633  1.00 20.00     0.005 A 
HETATM    5  C6  UNL     1     -34.140   6.850   5.462  1.00 20.00    -0.036 A 
ENDROOT
BRANCH   4   6
HETATM    6  C7  UNL     1     -33.643   4.785   4.032  1.00 20.00     0.115 C 
BRANCH   6   7
HETATM    7  C1  UNL     1     -32.979   5.320   2.775  1.00 20.00     0.139 C 
HETATM    8  O8  UNL     1     -32.561   6.459   2.631  1.00 20.00    -0.650 OA
BRANCH   7   9
HETATM    9  O9  UNL     1     -32.906   4.362   1.816  1.00 20.00    -0.776 OA
HETATM   10  H19 UNL     1     -33.198   4.698   0.941  1.00 20.00     0.167 HD
ENDBRANCH   7   9
ENDBRANCH   6   7
ENDBRANCH   4   6
TORSDOF 3
ENDMDL
MODEL 9
REMARK VINA RESULT:      -3.8     11.815     12.750
REMARK  3 active torsions:
REMARK  status: ('A' for Active; 'I' for Inactive)
REMARK    1  A    between atoms: C1_1  and  C7_7 
REMARK    2  A    between atoms: C1_1  and  O9_9 
REMARK    3  A    between atoms: C5_5  and  C7_7 
ROOT
HETATM    1  C2  UNL     1     -34.218  18.910  -3.557  1.00 20.00     0.011 A 
HETATM    2  C3  UNL     1     -35.288  18.573  -2.512  1.00 20.00     0.011 A 
HETATM    3  C4  UNL     1     -33.011  17.360  -1.686  1.00 20.00     0.015 A 
HETATM    4  C5  UNL     1     -33.683  16.394  -2.672  1.00 20.00     0.005 A 
HETATM    5  C6  UNL     1     -34.047  17.808  -2.615  1.00 20.00    -0.036 A 
ENDROOT
BRANCH   4   6
HETATM    6  C7  UNL     1     -32.915  15.859  -3.830  1.00 20.00     0.115 C 
BRANCH   6   7
HETATM    7  C1  UNL     1     -33.606  14.689  -4.512  1.00 20.00     0.139 C 
HETATM    8  O8  UNL     1     -34.374  13.911  -3.966  1.00 20.00    -0.650 OA
BRANCH   7   9
HETATM    9  O9  UNL     1     -33.259  14.614  -5.822  1.00 20.00    -0.776 OA
HETATM   10  H19 UNL     1     -33.115  15.502  -6.214  1.00 20.00     0.167 HD
ENDBRANCH   7   9
ENDBRANCH   6   7
ENDBRANCH   4   6
TORSDOF 3
ENDMDL
