MODEL 1
REMARK VINA RESULT:      -4.4      0.000      0.000
REMARK  0 active torsions:
REMARK  status: ('A' for Active; 'I' for Inactive)
ROOT
HETATM    1  C1  UNL     1     -33.018   7.116   3.975  1.00 20.00     0.260 C 
HETATM    2  C2  UNL     1     -33.615   7.986   5.050  1.00 20.00     0.137 C 
HETATM    3  C3  UNL     1     -33.522   7.333   6.418  1.00 20.00     0.177 C 
HETATM    4  C4  UNL     1     -34.829   5.522   4.422  1.00 20.00     0.205 C 
HETATM    5  C5  UNL     1     -34.584   5.258   5.897  1.00 20.00     0.194 C 
HETATM    6  O6  UNL     1     -32.040   7.474   3.323  1.00 20.00    -0.265 OA
HETATM    7  O7  UNL     1     -33.611   5.918   3.756  1.00 20.00    -0.319 OA
HETATM    8  O8  UNL     1     -34.625   6.464   6.657  1.00 20.00    -0.389 OA
ENDROOT
TORSDOF 0
ENDMDL
MODEL 2
REMARK VINA RESULT:      -4.0      1.115      3.440
REMARK  0 active torsions:
REMARK  status: ('A' for Active; 'I' for Inactive)
ROOT
HETATM    1  C1  UNL     1     -34.327   6.080   5.619  1.00 20.00     0.260 C 
HETATM    2  C2  UNL     1     -34.574   5.636   4.200  1.00 20.00     0.137 C 
HETATM    3  C3  UNL     1     -33.274   5.437   3.440  1.00 20.00     0.177 C 
HETATM    4  C4  UNL     1     -33.412   8.156   4.686  1.00 20.00     0.205 C 
HETATM    5  C5  UNL     1     -32.304   7.585   3.820  1.00 20.00     0.194 C 
HETATM    6  O6  UNL     1     -34.667   5.392   6.579  1.00 20.00    -0.265 OA
HETATM    7  O7  UNL     1     -33.715   7.276   5.789  1.00 20.00    -0.319 OA
HETATM    8  O8  UNL     1     -32.813   6.656   2.866  1.00 20.00    -0.389 OA
ENDROOT
TORSDOF 0
ENDMDL
MODEL 3
REMARK VINA RESULT:      -3.8      1.382      1.546
REMARK  0 active torsions:
REMARK  status: ('A' for Active; 'I' for Inactive)
ROOT
HETATM    1  C1  UNL     1     -33.162   7.489   4.809  1.00 20.00     0.260 C 
HETATM    2  C2  UNL     1     -34.384   7.231   5.651  1.00 20.00     0.137 C 
HETATM    3  C3  UNL     1     -34.310   5.886   6.352  1.00 20.00     0.177 C 
HETATM    4  C4  UNL     1     -33.881   5.612   3.401  1.00 20.00     0.205 C 
HETATM    5  C5  UNL     1     -33.920   4.507   4.442  1.00 20.00     0.194 C 
HETATM    6  O6  UNL     1     -32.400   8.423   5.045  1.00 20.00    -0.265 OA
HETATM    7  O7  UNL     1     -32.942   6.643   3.774  1.00 20.00    -0.319 OA
HETATM    8  O8  UNL     1     -34.794   4.836   5.520  1.00 20.00    -0.389 OA
ENDROOT
TORSDOF 0
ENDMDL
MODEL 4
REMARK VINA RESULT:      -3.7      1.317      2.862
REMARK  0 active torsions:
REMARK  status: ('A' for Active; 'I' for Inactive)
ROOT
HETATM    1  C1  UNL     1     -34.306   6.138   4.726  1.00 20.00     0.260 C 
HETATM    2  C2  UNL     1     -33.722   6.910   5.881  1.00 20.00     0.137 C 
HETATM    3  C3  UNL     1     -33.719   8.405   5.612  1.00 20.00     0.177 C 
HETATM    4  C4  UNL     1     -32.382   6.890   3.403  1.00 20.00     0.205 C 
HETATM    5  C5  UNL     1     -32.551   8.394   3.530  1.00 20.00     0.194 C 
HETATM    6  O6  UNL     1     -35.330   5.470   4.848  1.00 20.00    -0.265 OA
HETATM    7  O7  UNL     1     -33.648   6.211   3.545  1.00 20.00    -0.319 OA
HETATM    8  O8  UNL     1     -32.556   8.805   4.895  1.00 20.00    -0.389 OA
ENDROOT
TORSDOF 0
ENDMDL
MODEL 5
REMARK VINA RESULT:      -3.6      1.294      2.184
REMARK  0 active torsions:
REMARK  status: ('A' for Active; 'I' for Inactive)
ROOT
HETATM    1  C1  UNL     1     -33.004   7.729   4.155  1.00 20.00     0.260 C 
HETATM    2  C2  UNL     1     -32.791   6.314   3.684  1.00 20.00     0.137 C 
HETATM    3  C3  UNL     1     -34.094   5.534   3.643  1.00 20.00     0.177 C 
HETATM    4  C4  UNL     1     -33.648   6.786   6.326  1.00 20.00     0.205 C 
HETATM    5  C5  UNL     1     -34.804   5.902   5.892  1.00 20.00     0.194 C 
HETATM    6  O6  UNL     1     -32.763   8.693   3.432  1.00 20.00    -0.265 OA
HETATM    7  O7  UNL     1     -33.470   7.892   5.416  1.00 20.00    -0.319 OA
HETATM    8  O8  UNL     1     -34.396   4.954   4.908  1.00 20.00    -0.389 OA
ENDROOT
TORSDOF 0
ENDMDL
MODEL 6
REMARK VINA RESULT:      -3.5     15.607     16.623
REMARK  0 active torsions:
REMARK  status: ('A' for Active; 'I' for Inactive)
ROOT
HETATM    1  C1  UNL     1     -22.591  17.372   9.494  1.00 20.00     0.260 C 
HETATM    2  C2  UNL     1     -22.084  18.682  10.039  1.00 20.00     0.137 C 
HETATM    3  C3  UNL     1     -21.744  18.581  11.516  1.00 20.00     0.177 C 
HETATM    4  C4  UNL     1     -24.535  17.646  10.965  1.00 20.00     0.205 C 
HETATM    5  C5  UNL     1     -23.833  17.738  12.308  1.00 20.00     0.194 C 
HETATM    6  O6  UNL     1     -21.989  16.763   8.613  1.00 20.00    -0.265 OA
HETATM    7  O7  UNL     1     -23.746  16.897  10.017  1.00 20.00    -0.319 OA
HETATM    8  O8  UNL     1     -22.890  18.807  12.332  1.00 20.00    -0.389 OA
ENDROOT
TORSDOF 0
ENDMDL
MODEL 7
REMARK VINA RESULT:      -3.5      1.505      2.754
REMARK  0 active torsions:
REMARK  status: ('A' for Active; 'I' for Inactive)
ROOT
HETATM    1  C1  UNL     1     -34.187   4.835   4.700  1.00 20.00     0.260 C 
HETATM    2  C2  UNL     1     -34.276   6.031   3.788  1.00 20.00     0.137 C 
HETATM    3  C3  UNL     1     -33.171   7.034   4.068  1.00 20.00     0.177 C 
HETATM    4  C4  UNL     1     -34.698   6.358   6.554  1.00 20.00     0.205 C 
HETATM    5  C5  UNL     1     -33.550   7.341   6.405  1.00 20.00     0.194 C 
HETATM    6  O6  UNL     1     -33.986   3.704   4.264  1.00 20.00    -0.265 OA
HETATM    7  O7  UNL     1     -34.343   5.063   6.026  1.00 20.00    -0.319 OA
HETATM    8  O8  UNL     1     -33.536   7.935   5.109  1.00 20.00    -0.389 OA
ENDROOT
TORSDOF 0
ENDMDL
MODEL 8
REMARK VINA RESULT:      -3.3     15.605     16.746
REMARK  0 active torsions:
REMARK  status: ('A' for Active; 'I' for Inactive)
ROOT
HETATM    1  C1  UNL     1     -24.731  17.620  11.888  1.00 20.00     0.260 C 
HETATM    2  C2  UNL     1     -25.046  18.790  10.991  1.00 20.00     0.137 C 
HETATM    3  C3  UNL     1     -24.332  18.680   9.655  1.00 20.00     0.177 C 
HETATM    4  C4  UNL     1     -22.418  18.437  11.944  1.00 20.00     0.205 C 
HETATM    5  C5  UNL     1     -22.100  18.418  10.459  1.00 20.00     0.194 C 
HETATM    6  O6  UNL     1     -25.603  16.839  12.261  1.00 20.00    -0.265 OA
HETATM    7  O7  UNL     1     -23.440  17.471  12.269  1.00 20.00    -0.319 OA
HETATM    8  O8  UNL     1     -23.017  19.221   9.719  1.00 20.00    -0.389 OA
ENDROOT
TORSDOF 0
ENDMDL
MODEL 9
REMARK VINA RESULT:      -3.3     12.586     13.844
REMARK  0 active torsions:
REMARK  status: ('A' for Active; 'I' for Inactive)
ROOT
HETATM    1  C1  UNL     1     -35.493  13.974  -5.046  1.00 20.00     0.260 C 
HETATM    2  C2  UNL     1     -34.185  14.682  -4.802  1.00 20.00     0.137 C 
HETATM    3  C3  UNL     1     -34.390  16.162  -4.531  1.00 20.00     0.177 C 
HETATM    4  C4  UNL     1     -35.707  15.321  -7.085  1.00 20.00     0.205 C 
HETATM    5  C5  UNL     1     -35.649  16.714  -6.484  1.00 20.00     0.194 C 
HETATM    6  O6  UNL     1     -35.894  13.083  -4.301  1.00 20.00    -0.265 OA
HETATM    7  O7  UNL     1     -36.207  14.363  -6.129  1.00 20.00    -0.319 OA
HETATM    8  O8  UNL     1     -34.448  16.911  -5.741  1.00 20.00    -0.389 OA
ENDROOT
TORSDOF 0
ENDMDL
