MODEL 1
REMARK VINA RESULT:      -4.0      0.000      0.000
REMARK  0 active torsions:
REMARK  status: ('A' for Active; 'I' for Inactive)
ROOT
HETATM    1  C1  UNL     1     -33.388   7.754   5.251  1.00 20.00     0.016 C 
HETATM    2  C2  UNL     1     -33.487   6.937   6.538  1.00 20.00     0.016 C 
HETATM    3  C3  UNL     1     -33.539   6.758   4.107  1.00 20.00     0.140 C 
HETATM    4  C4  UNL     1     -34.727   6.062   6.388  1.00 20.00     0.140 C 
HETATM    5  O5  UNL     1     -34.193   4.245   4.552  1.00 20.00    -0.228 OA
HETATM    6  O6  UNL     1     -36.042   5.926   4.109  1.00 20.00    -0.228 OA
HETATM    7  S7  UNL     1     -34.754   5.575   4.669  1.00 20.00     0.144 S 
ENDROOT
TORSDOF 0
ENDMDL
MODEL 2
REMARK VINA RESULT:      -4.0      0.017      2.130
REMARK  0 active torsions:
REMARK  status: ('A' for Active; 'I' for Inactive)
ROOT
HETATM    1  C1  UNL     1     -33.499   6.944   6.540  1.00 20.00     0.016 C 
HETATM    2  C2  UNL     1     -33.408   7.759   5.250  1.00 20.00     0.016 C 
HETATM    3  C3  UNL     1     -34.734   6.063   6.396  1.00 20.00     0.140 C 
HETATM    4  C4  UNL     1     -33.559   6.760   4.108  1.00 20.00     0.140 C 
HETATM    5  O5  UNL     1     -36.057   5.915   4.122  1.00 20.00    -0.228 OA
HETATM    6  O6  UNL     1     -34.198   4.244   4.560  1.00 20.00    -0.228 OA
HETATM    7  S7  UNL     1     -34.765   5.571   4.678  1.00 20.00     0.144 S 
ENDROOT
TORSDOF 0
ENDMDL
MODEL 3
REMARK VINA RESULT:      -3.5      1.493      2.438
REMARK  0 active torsions:
REMARK  status: ('A' for Active; 'I' for Inactive)
ROOT
HETATM    1  C1  UNL     1     -32.533   7.598   4.040  1.00 20.00     0.016 C 
HETATM    2  C2  UNL     1     -32.768   6.581   2.923  1.00 20.00     0.016 C 
HETATM    3  C3  UNL     1     -33.843   7.685   4.814  1.00 20.00     0.140 C 
HETATM    4  C4  UNL     1     -33.395   5.361   3.589  1.00 20.00     0.140 C 
HETATM    5  O5  UNL     1     -35.836   6.031   4.329  1.00 20.00    -0.228 OA
HETATM    6  O6  UNL     1     -34.144   5.409   6.115  1.00 20.00    -0.228 OA
HETATM    7  S7  UNL     1     -34.484   6.017   4.845  1.00 20.00     0.144 S 
ENDROOT
TORSDOF 0
ENDMDL
MODEL 4
REMARK VINA RESULT:      -3.5      1.486      1.953
REMARK  0 active torsions:
REMARK  status: ('A' for Active; 'I' for Inactive)
ROOT
HETATM    1  C1  UNL     1     -32.755   6.582   2.947  1.00 20.00     0.016 C 
HETATM    2  C2  UNL     1     -32.543   7.598   4.068  1.00 20.00     0.016 C 
HETATM    3  C3  UNL     1     -33.384   5.357   3.602  1.00 20.00     0.140 C 
HETATM    4  C4  UNL     1     -33.866   7.676   4.823  1.00 20.00     0.140 C 
HETATM    5  O5  UNL     1     -34.172   5.397   6.116  1.00 20.00    -0.228 OA
HETATM    6  O6  UNL     1     -35.841   6.010   4.305  1.00 20.00    -0.228 OA
HETATM    7  S7  UNL     1     -34.496   6.004   4.842  1.00 20.00     0.144 S 
ENDROOT
TORSDOF 0
ENDMDL
MODEL 5
REMARK VINA RESULT:      -3.3     16.745     17.222
REMARK  0 active torsions:
REMARK  status: ('A' for Active; 'I' for Inactive)
ROOT
HETATM    1  C1  UNL     1     -23.539  17.090  11.913  1.00 20.00     0.016 C 
HETATM    2  C2  UNL     1     -22.770  18.404  12.041  1.00 20.00     0.016 C 
HETATM    3  C3  UNL     1     -24.125  17.080  10.506  1.00 20.00     0.140 C 
HETATM    4  C4  UNL     1     -21.890  18.501  10.800  1.00 20.00     0.140 C 
HETATM    5  O5  UNL     1     -23.479  18.923   8.736  1.00 20.00    -0.228 OA
HETATM    6  O6  UNL     1     -22.121  16.781   8.817  1.00 20.00    -0.228 OA
HETATM    7  S7  UNL     1     -22.877  17.829   9.470  1.00 20.00     0.144 S 
ENDROOT
TORSDOF 0
ENDMDL
MODEL 6
REMARK VINA RESULT:      -3.2      2.131      2.792
REMARK  0 active torsions:
REMARK  status: ('A' for Active; 'I' for Inactive)
ROOT
HETATM    1  C1  UNL     1     -34.478   4.934   5.200  1.00 20.00     0.016 C 
HETATM    2  C2  UNL     1     -34.563   5.768   6.479  1.00 20.00     0.016 C 
HETATM    3  C3  UNL     1     -34.518   5.928   4.046  1.00 20.00     0.140 C 
HETATM    4  C4  UNL     1     -33.524   6.874   6.330  1.00 20.00     0.140 C 
HETATM    5  O5  UNL     1     -34.391   8.526   4.465  1.00 20.00    -0.228 OA
HETATM    6  O6  UNL     1     -32.235   7.251   4.063  1.00 20.00    -0.228 OA
HETATM    7  S7  UNL     1     -33.574   7.339   4.605  1.00 20.00     0.144 S 
ENDROOT
TORSDOF 0
ENDMDL
MODEL 7
REMARK VINA RESULT:      -3.2      2.147      2.738
REMARK  0 active torsions:
REMARK  status: ('A' for Active; 'I' for Inactive)
ROOT
HETATM    1  C1  UNL     1     -34.628   5.721   6.422  1.00 20.00     0.016 C 
HETATM    2  C2  UNL     1     -34.404   4.910   5.146  1.00 20.00     0.016 C 
HETATM    3  C3  UNL     1     -33.643   6.883   6.362  1.00 20.00     0.140 C 
HETATM    4  C4  UNL     1     -34.412   5.916   4.001  1.00 20.00     0.140 C 
HETATM    5  O5  UNL     1     -32.212   7.359   4.201  1.00 20.00    -0.228 OA
HETATM    6  O6  UNL     1     -34.458   8.512   4.453  1.00 20.00    -0.228 OA
HETATM    7  S7  UNL     1     -33.591   7.368   4.643  1.00 20.00     0.144 S 
ENDROOT
TORSDOF 0
ENDMDL
MODEL 8
REMARK VINA RESULT:      -3.2     13.333     14.068
REMARK  0 active torsions:
REMARK  status: ('A' for Active; 'I' for Inactive)
ROOT
HETATM    1  C1  UNL     1     -33.335  15.795  -3.790  1.00 20.00     0.016 C 
HETATM    2  C2  UNL     1     -34.352  16.909  -4.032  1.00 20.00     0.016 C 
HETATM    3  C3  UNL     1     -33.916  14.544  -4.438  1.00 20.00     0.140 C 
HETATM    4  C4  UNL     1     -34.693  16.854  -5.517  1.00 20.00     0.140 C 
HETATM    5  O5  UNL     1     -36.088  14.653  -5.926  1.00 20.00    -0.228 OA
HETATM    6  O6  UNL     1     -33.827  14.894  -7.052  1.00 20.00    -0.228 OA
HETATM    7  S7  UNL     1     -34.716  15.115  -5.931  1.00 20.00     0.144 S 
ENDROOT
TORSDOF 0
ENDMDL
MODEL 9
REMARK VINA RESULT:      -3.1     13.343     13.986
REMARK  0 active torsions:
REMARK  status: ('A' for Active; 'I' for Inactive)
ROOT
HETATM    1  C1  UNL     1     -34.302  16.894  -4.024  1.00 20.00     0.016 C 
HETATM    2  C2  UNL     1     -33.332  15.736  -3.789  1.00 20.00     0.016 C 
HETATM    3  C3  UNL     1     -34.646  16.861  -5.508  1.00 20.00     0.140 C 
HETATM    4  C4  UNL     1     -33.967  14.515  -4.444  1.00 20.00     0.140 C 
HETATM    5  O5  UNL     1     -33.866  14.876  -7.055  1.00 20.00    -0.228 OA
HETATM    6  O6  UNL     1     -36.134  14.724  -5.928  1.00 20.00    -0.228 OA
HETATM    7  S7  UNL     1     -34.744  15.128  -5.932  1.00 20.00     0.144 S 
ENDROOT
TORSDOF 0
ENDMDL
