MODEL 1
REMARK VINA RESULT:      -5.5      0.000      0.000
REMARK  3 active torsions:
REMARK  status: ('A' for Active; 'I' for Inactive)
REMARK    1  A    between atoms: C1_1  and  C3_3 
REMARK    2  A    between atoms: C1_1  and  O4_4 
REMARK    3  A    between atoms: C2_2  and  O4_4 
ROOT
HETATM    1  C1  UNL     1     -33.686   6.707   5.141  1.00 20.00     0.330 C 
HETATM    2 CL10 UNL     1     -34.374   6.940   6.770  1.00 20.00    -0.086 Cl
ENDROOT
BRANCH   1   3
HETATM    3  C3  UNL     1     -34.430   5.598   4.429  1.00 20.00     0.427 C 
HETATM    4  F7  UNL     1     -35.729   5.907   4.233  1.00 20.00    -0.167 F 
HETATM    5  F8  UNL     1     -34.385   4.456   5.153  1.00 20.00    -0.167 F 
HETATM    6  F9  UNL     1     -33.878   5.331   3.225  1.00 20.00    -0.167 F 
ENDBRANCH   1   3
BRANCH   1   7
HETATM    7  O4  UNL     1     -33.838   7.903   4.380  1.00 20.00    -0.302 OA
BRANCH   7   8
HETATM    8  C2  UNL     1     -32.599   8.497   4.031  1.00 20.00     0.501 C 
HETATM    9  F5  UNL     1     -32.068   9.028   5.159  1.00 20.00    -0.184 F 
HETATM   10  F6  UNL     1     -31.751   7.525   3.615  1.00 20.00    -0.184 F 
ENDBRANCH   7   8
ENDBRANCH   1   7
TORSDOF 3
ENDMDL
MODEL 2
REMARK VINA RESULT:      -5.5      0.023      1.200
REMARK  3 active torsions:
REMARK  status: ('A' for Active; 'I' for Inactive)
REMARK    1  A    between atoms: C1_1  and  C3_3 
REMARK    2  A    between atoms: C1_1  and  O4_4 
REMARK    3  A    between atoms: C2_2  and  O4_4 
ROOT
HETATM    1  C1  UNL     1     -33.683   6.702   5.140  1.00 20.00     0.330 C 
HETATM    2 CL10 UNL     1     -34.381   6.929   6.765  1.00 20.00    -0.086 Cl
ENDROOT
BRANCH   1   3
HETATM    3  C3  UNL     1     -34.416   5.588   4.424  1.00 20.00     0.427 C 
HETATM    4  F7  UNL     1     -34.366   4.428   5.112  1.00 20.00    -0.167 F 
HETATM    5  F8  UNL     1     -33.870   5.367   3.207  1.00 20.00    -0.167 F 
HETATM    6  F9  UNL     1     -35.715   5.902   4.229  1.00 20.00    -0.167 F 
ENDBRANCH   1   3
BRANCH   1   7
HETATM    7  O4  UNL     1     -33.839   7.897   4.378  1.00 20.00    -0.302 OA
BRANCH   7   8
HETATM    8  C2  UNL     1     -32.603   8.494   4.027  1.00 20.00     0.501 C 
HETATM    9  F5  UNL     1     -32.075   9.036   5.151  1.00 20.00    -0.184 F 
HETATM   10  F6  UNL     1     -31.750   7.522   3.619  1.00 20.00    -0.184 F 
ENDBRANCH   7   8
ENDBRANCH   1   7
TORSDOF 3
ENDMDL
MODEL 3
REMARK VINA RESULT:      -5.4      0.021      1.191
REMARK  3 active torsions:
REMARK  status: ('A' for Active; 'I' for Inactive)
REMARK    1  A    between atoms: C1_1  and  C3_3 
REMARK    2  A    between atoms: C1_1  and  O4_4 
REMARK    3  A    between atoms: C2_2  and  O4_4 
ROOT
HETATM    1  C1  UNL     1     -33.683   6.707   5.145  1.00 20.00     0.330 C 
HETATM    2 CL10 UNL     1     -34.389   6.923   6.768  1.00 20.00    -0.086 Cl
ENDROOT
BRANCH   1   3
HETATM    3  C3  UNL     1     -34.409   5.595   4.419  1.00 20.00     0.427 C 
HETATM    4  F7  UNL     1     -33.874   5.352   3.205  1.00 20.00    -0.167 F 
HETATM    5  F8  UNL     1     -35.710   5.918   4.237  1.00 20.00    -0.167 F 
HETATM    6  F9  UNL     1     -34.377   4.445   5.127  1.00 20.00    -0.167 F 
ENDBRANCH   1   3
BRANCH   1   7
HETATM    7  O4  UNL     1     -33.839   7.906   4.389  1.00 20.00    -0.302 OA
BRANCH   7   8
HETATM    8  C2  UNL     1     -32.602   8.500   4.034  1.00 20.00     0.501 C 
HETATM    9  F5  UNL     1     -32.076   9.052   5.154  1.00 20.00    -0.184 F 
HETATM   10  F6  UNL     1     -31.749   7.525   3.635  1.00 20.00    -0.184 F 
ENDBRANCH   7   8
ENDBRANCH   1   7
TORSDOF 3
ENDMDL
MODEL 4
REMARK VINA RESULT:      -5.3      1.709      2.286
REMARK  3 active torsions:
REMARK  status: ('A' for Active; 'I' for Inactive)
REMARK    1  A    between atoms: C1_1  and  C3_3 
REMARK    2  A    between atoms: C1_1  and  O4_4 
REMARK    3  A    between atoms: C2_2  and  O4_4 
ROOT
HETATM    1  C1  UNL     1     -33.841   6.649   4.120  1.00 20.00     0.330 C 
HETATM    2 CL10 UNL     1     -32.907   5.619   3.004  1.00 20.00    -0.086 Cl
ENDROOT
BRANCH   1   3
HETATM    3  C3  UNL     1     -34.785   5.791   4.934  1.00 20.00     0.427 C 
HETATM    4  F7  UNL     1     -34.421   4.492   4.923  1.00 20.00    -0.167 F 
HETATM    5  F8  UNL     1     -36.042   5.869   4.441  1.00 20.00    -0.167 F 
HETATM    6  F9  UNL     1     -34.833   6.200   6.220  1.00 20.00    -0.167 F 
ENDBRANCH   1   3
BRANCH   1   7
HETATM    7  O4  UNL     1     -32.955   7.310   5.020  1.00 20.00    -0.302 OA
BRANCH   7   8
HETATM    8  C2  UNL     1     -32.243   8.375   4.412  1.00 20.00     0.501 C 
HETATM    9  F5  UNL     1     -32.944   8.766   3.320  1.00 20.00    -0.184 F 
HETATM   10  F6  UNL     1     -32.221   9.427   5.266  1.00 20.00    -0.184 F 
ENDBRANCH   7   8
ENDBRANCH   1   7
TORSDOF 3
ENDMDL
MODEL 5
REMARK VINA RESULT:      -5.3      1.017      3.715
REMARK  3 active torsions:
REMARK  status: ('A' for Active; 'I' for Inactive)
REMARK    1  A    between atoms: C1_1  and  C3_3 
REMARK    2  A    between atoms: C1_1  and  O4_4 
REMARK    3  A    between atoms: C2_2  and  O4_4 
ROOT
HETATM    1  C1  UNL     1     -33.738   7.518   4.607  1.00 20.00     0.330 C 
HETATM    2 CL10 UNL     1     -33.735   7.354   6.382  1.00 20.00    -0.086 Cl
ENDROOT
BRANCH   1   3
HETATM    3  C3  UNL     1     -32.534   8.323   4.168  1.00 20.00     0.427 C 
HETATM    4  F7  UNL     1     -32.090   9.139   5.147  1.00 20.00    -0.167 F 
HETATM    5  F8  UNL     1     -32.841   9.092   3.099  1.00 20.00    -0.167 F 
HETATM    6  F9  UNL     1     -31.513   7.517   3.802  1.00 20.00    -0.167 F 
ENDBRANCH   1   3
BRANCH   1   7
HETATM    7  O4  UNL     1     -33.653   6.228   4.005  1.00 20.00    -0.302 OA
BRANCH   7   8
HETATM    8  C2  UNL     1     -34.401   5.244   4.699  1.00 20.00     0.501 C 
HETATM    9  F5  UNL     1     -35.711   5.451   4.418  1.00 20.00    -0.184 F 
HETATM   10  F6  UNL     1     -34.079   4.024   4.205  1.00 20.00    -0.184 F 
ENDBRANCH   7   8
ENDBRANCH   1   7
TORSDOF 3
ENDMDL
MODEL 6
REMARK VINA RESULT:      -5.3      1.020      3.712
REMARK  3 active torsions:
REMARK  status: ('A' for Active; 'I' for Inactive)
REMARK    1  A    between atoms: C1_1  and  C3_3 
REMARK    2  A    between atoms: C1_1  and  O4_4 
REMARK    3  A    between atoms: C2_2  and  O4_4 
ROOT
HETATM    1  C1  UNL     1     -33.733   7.516   4.599  1.00 20.00     0.330 C 
HETATM    2 CL10 UNL     1     -33.719   7.359   6.375  1.00 20.00    -0.086 Cl
ENDROOT
BRANCH   1   3
HETATM    3  C3  UNL     1     -32.529   8.317   4.150  1.00 20.00     0.427 C 
HETATM    4  F7  UNL     1     -31.502   7.521   3.787  1.00 20.00    -0.167 F 
HETATM    5  F8  UNL     1     -32.094   9.119   5.149  1.00 20.00    -0.167 F 
HETATM    6  F9  UNL     1     -32.832   9.112   3.101  1.00 20.00    -0.167 F 
ENDBRANCH   1   3
BRANCH   1   7
HETATM    7  O4  UNL     1     -33.654   6.224   4.001  1.00 20.00    -0.302 OA
BRANCH   7   8
HETATM    8  C2  UNL     1     -34.405   5.246   4.700  1.00 20.00     0.501 C 
HETATM    9  F5  UNL     1     -35.714   5.456   4.418  1.00 20.00    -0.184 F 
HETATM   10  F6  UNL     1     -34.087   4.022   4.211  1.00 20.00    -0.184 F 
ENDBRANCH   7   8
ENDBRANCH   1   7
TORSDOF 3
ENDMDL
MODEL 7
REMARK VINA RESULT:      -5.2      2.205      3.682
REMARK  3 active torsions:
REMARK  status: ('A' for Active; 'I' for Inactive)
REMARK    1  A    between atoms: C1_1  and  C3_3 
REMARK    2  A    between atoms: C1_1  and  O4_4 
REMARK    3  A    between atoms: C2_2  and  O4_4 
ROOT
HETATM    1  C1  UNL     1     -33.344   6.264   4.320  1.00 20.00     0.330 C 
HETATM    2 CL10 UNL     1     -33.106   5.398   2.779  1.00 20.00    -0.086 Cl
ENDROOT
BRANCH   1   3
HETATM    3  C3  UNL     1     -32.996   7.726   4.140  1.00 20.00     0.427 C 
HETATM    4  F7  UNL     1     -32.425   7.964   2.941  1.00 20.00    -0.167 F 
HETATM    5  F8  UNL     1     -32.127   8.127   5.095  1.00 20.00    -0.167 F 
HETATM    6  F9  UNL     1     -34.093   8.507   4.242  1.00 20.00    -0.167 F 
ENDBRANCH   1   3
BRANCH   1   7
HETATM    7  O4  UNL     1     -34.713   6.179   4.712  1.00 20.00    -0.302 OA
BRANCH   7   8
HETATM    8  C2  UNL     1     -34.876   5.836   6.077  1.00 20.00     0.501 C 
HETATM    9  F5  UNL     1     -33.989   4.851   6.361  1.00 20.00    -0.184 F 
HETATM   10  F6  UNL     1     -34.536   6.904   6.839  1.00 20.00    -0.184 F 
ENDBRANCH   7   8
ENDBRANCH   1   7
TORSDOF 3
ENDMDL
MODEL 8
REMARK VINA RESULT:      -5.2      1.311      2.049
REMARK  3 active torsions:
REMARK  status: ('A' for Active; 'I' for Inactive)
REMARK    1  A    between atoms: C1_1  and  C3_3 
REMARK    2  A    between atoms: C1_1  and  O4_4 
REMARK    3  A    between atoms: C2_2  and  O4_4 
ROOT
HETATM    1  C1  UNL     1     -33.675   6.482   5.243  1.00 20.00     0.330 C 
HETATM    2 CL10 UNL     1     -34.083   7.485   6.660  1.00 20.00    -0.086 Cl
ENDROOT
BRANCH   1   3
HETATM    3  C3  UNL     1     -34.736   5.420   5.050  1.00 20.00     0.427 C 
HETATM    4  F7  UNL     1     -34.260   4.347   4.385  1.00 20.00    -0.167 F 
HETATM    5  F8  UNL     1     -35.777   5.913   4.342  1.00 20.00    -0.167 F 
HETATM    6  F9  UNL     1     -35.224   4.993   6.235  1.00 20.00    -0.167 F 
ENDBRANCH   1   3
BRANCH   1   7
HETATM    7  O4  UNL     1     -33.644   7.295   4.072  1.00 20.00    -0.302 OA
BRANCH   7   8
HETATM    8  C2  UNL     1     -32.439   7.162   3.338  1.00 20.00     0.501 C 
HETATM    9  F5  UNL     1     -32.520   6.013   2.623  1.00 20.00    -0.184 F 
HETATM   10  F6  UNL     1     -32.357   8.178   2.445  1.00 20.00    -0.184 F 
ENDBRANCH   7   8
ENDBRANCH   1   7
TORSDOF 3
ENDMDL
MODEL 9
REMARK VINA RESULT:      -5.1      1.910      2.196
REMARK  3 active torsions:
REMARK  status: ('A' for Active; 'I' for Inactive)
REMARK    1  A    between atoms: C1_1  and  C3_3 
REMARK    2  A    between atoms: C1_1  and  O4_4 
REMARK    3  A    between atoms: C2_2  and  O4_4 
ROOT
HETATM    1  C1  UNL     1     -34.097   6.708   4.930  1.00 20.00     0.330 C 
HETATM    2 CL10 UNL     1     -33.847   5.362   3.787  1.00 20.00    -0.086 Cl
ENDROOT
BRANCH   1   3
HETATM    3  C3  UNL     1     -34.375   6.156   6.312  1.00 20.00     0.427 C 
HETATM    4  F7  UNL     1     -35.411   5.292   6.310  1.00 20.00    -0.167 F 
HETATM    5  F8  UNL     1     -34.675   7.156   7.170  1.00 20.00    -0.167 F 
HETATM    6  F9  UNL     1     -33.296   5.512   6.808  1.00 20.00    -0.167 F 
ENDBRANCH   1   3
BRANCH   1   7
HETATM    7  O4  UNL     1     -32.917   7.505   5.000  1.00 20.00    -0.302 OA
BRANCH   7   8
HETATM    8  C2  UNL     1     -32.645   8.196   3.793  1.00 20.00     0.501 C 
HETATM    9  F5  UNL     1     -32.181   9.427   4.121  1.00 20.00    -0.184 F 
HETATM   10  F6  UNL     1     -31.643   7.558   3.141  1.00 20.00    -0.184 F 
ENDBRANCH   7   8
ENDBRANCH   1   7
TORSDOF 3
ENDMDL
