MODEL 1
REMARK VINA RESULT:      -5.4      0.000      0.000
REMARK  2 active torsions:
REMARK  status: ('A' for Active; 'I' for Inactive)
REMARK    1  A    between atoms: C1_1  and  C2_2 
REMARK    2  A    between atoms: C1_1  and  C3_3 
ROOT
HETATM    1  C1  UNL     1     -33.663   6.597   5.756  1.00 20.00     0.374 C 
HETATM    2  O4  UNL     1     -34.254   7.397   6.626  1.00 20.00    -0.216 OA
ENDROOT
BRANCH   1   3
HETATM    3  C2  UNL     1     -33.229   7.440   4.550  1.00 20.00     0.424 C 
HETATM    4  F5  UNL     1     -32.082   8.105   4.825  1.00 20.00    -0.168 F 
HETATM    5  F6  UNL     1     -33.008   6.696   3.444  1.00 20.00    -0.168 F 
HETATM    6  F7  UNL     1     -34.158   8.375   4.241  1.00 20.00    -0.168 F 
ENDBRANCH   1   3
BRANCH   1   7
HETATM    7  C3  UNL     1     -34.679   5.532   5.321  1.00 20.00     0.424 C 
HETATM    8  F8  UNL     1     -35.629   6.056   4.512  1.00 20.00    -0.168 F 
HETATM    9  F9  UNL     1     -35.321   5.019   6.398  1.00 20.00    -0.168 F 
HETATM   10  F10 UNL     1     -34.104   4.499   4.667  1.00 20.00    -0.168 F 
ENDBRANCH   1   7
TORSDOF 2
ENDMDL
MODEL 2
REMARK VINA RESULT:      -5.4      0.018      1.193
REMARK  2 active torsions:
REMARK  status: ('A' for Active; 'I' for Inactive)
REMARK    1  A    between atoms: C1_1  and  C2_2 
REMARK    2  A    between atoms: C1_1  and  C3_3 
ROOT
HETATM    1  C1  UNL     1     -33.663   6.594   5.753  1.00 20.00     0.374 C 
HETATM    2  O4  UNL     1     -34.236   7.393   6.637  1.00 20.00    -0.216 OA
ENDROOT
BRANCH   1   3
HETATM    3  C2  UNL     1     -33.234   7.444   4.550  1.00 20.00     0.424 C 
HETATM    4  F5  UNL     1     -32.089   8.113   4.826  1.00 20.00    -0.168 F 
HETATM    5  F6  UNL     1     -33.010   6.705   3.441  1.00 20.00    -0.168 F 
HETATM    6  F7  UNL     1     -34.167   8.377   4.245  1.00 20.00    -0.168 F 
ENDBRANCH   1   3
BRANCH   1   7
HETATM    7  C3  UNL     1     -34.695   5.545   5.320  1.00 20.00     0.424 C 
HETATM    8  F8  UNL     1     -35.333   5.008   6.387  1.00 20.00    -0.168 F 
HETATM    9  F9  UNL     1     -34.090   4.522   4.670  1.00 20.00    -0.168 F 
HETATM   10  F10 UNL     1     -35.634   6.048   4.488  1.00 20.00    -0.168 F 
ENDBRANCH   1   7
TORSDOF 2
ENDMDL
MODEL 3
REMARK VINA RESULT:      -5.4      0.019      1.192
REMARK  2 active torsions:
REMARK  status: ('A' for Active; 'I' for Inactive)
REMARK    1  A    between atoms: C1_1  and  C2_2 
REMARK    2  A    between atoms: C1_1  and  C3_3 
ROOT
HETATM    1  C1  UNL     1     -33.665   6.593   5.761  1.00 20.00     0.374 C 
HETATM    2  O4  UNL     1     -34.255   7.380   6.644  1.00 20.00    -0.216 OA
ENDROOT
BRANCH   1   3
HETATM    3  C2  UNL     1     -33.239   7.455   4.565  1.00 20.00     0.424 C 
HETATM    4  F5  UNL     1     -33.021   6.681   3.475  1.00 20.00    -0.168 F 
HETATM    5  F6  UNL     1     -34.170   8.374   4.225  1.00 20.00    -0.168 F 
HETATM    6  F7  UNL     1     -32.082   8.111   4.815  1.00 20.00    -0.168 F 
ENDBRANCH   1   3
BRANCH   1   7
HETATM    7  C3  UNL     1     -34.680   5.532   5.314  1.00 20.00     0.424 C 
HETATM    8  F8  UNL     1     -35.628   6.063   4.507  1.00 20.00    -0.168 F 
HETATM    9  F9  UNL     1     -35.324   5.011   6.385  1.00 20.00    -0.168 F 
HETATM   10  F10 UNL     1     -34.104   4.504   4.653  1.00 20.00    -0.168 F 
ENDBRANCH   1   7
TORSDOF 2
ENDMDL
MODEL 4
REMARK VINA RESULT:      -5.3      1.559      2.235
REMARK  2 active torsions:
REMARK  status: ('A' for Active; 'I' for Inactive)
REMARK    1  A    between atoms: C1_1  and  C2_2 
REMARK    2  A    between atoms: C1_1  and  C3_3 
ROOT
HETATM    1  C1  UNL     1     -33.943   6.913   4.288  1.00 20.00     0.374 C 
HETATM    2  O4  UNL     1     -33.025   6.274   3.584  1.00 20.00    -0.216 OA
ENDROOT
BRANCH   1   3
HETATM    3  C2  UNL     1     -33.227   7.740   5.363  1.00 20.00     0.424 C 
HETATM    4  F5  UNL     1     -33.998   8.786   5.748  1.00 20.00    -0.168 F 
HETATM    5  F6  UNL     1     -32.943   7.022   6.472  1.00 20.00    -0.168 F 
HETATM    6  F7  UNL     1     -32.068   8.261   4.898  1.00 20.00    -0.168 F 
ENDBRANCH   1   3
BRANCH   1   7
HETATM    7  C3  UNL     1     -34.855   5.868   4.942  1.00 20.00     0.424 C 
HETATM    8  F8  UNL     1     -34.328   4.624   4.852  1.00 20.00    -0.168 F 
HETATM    9  F9  UNL     1     -36.057   5.829   4.320  1.00 20.00    -0.168 F 
HETATM   10  F10 UNL     1     -35.088   6.123   6.249  1.00 20.00    -0.168 F 
ENDBRANCH   1   7
TORSDOF 2
ENDMDL
MODEL 5
REMARK VINA RESULT:      -5.2      1.456      3.327
REMARK  2 active torsions:
REMARK  status: ('A' for Active; 'I' for Inactive)
REMARK    1  A    between atoms: C1_1  and  C2_2 
REMARK    2  A    between atoms: C1_1  and  C3_3 
ROOT
HETATM    1  C1  UNL     1     -33.393   6.271   4.752  1.00 20.00     0.374 C 
HETATM    2  O4  UNL     1     -33.187   6.312   3.447  1.00 20.00    -0.216 OA
ENDROOT
BRANCH   1   3
HETATM    3  C2  UNL     1     -34.638   5.413   5.010  1.00 20.00     0.424 C 
HETATM    4  F5  UNL     1     -34.511   4.202   4.418  1.00 20.00    -0.168 F 
HETATM    5  F6  UNL     1     -34.859   5.195   6.326  1.00 20.00    -0.168 F 
HETATM    6  F7  UNL     1     -35.750   5.986   4.493  1.00 20.00    -0.168 F 
ENDBRANCH   1   3
BRANCH   1   7
HETATM    7  C3  UNL     1     -33.626   7.705   5.243  1.00 20.00     0.424 C 
HETATM    8  F8  UNL     1     -34.348   8.423   4.351  1.00 20.00    -0.168 F 
HETATM    9  F9  UNL     1     -32.446   8.351   5.402  1.00 20.00    -0.168 F 
HETATM   10  F10 UNL     1     -34.271   7.753   6.430  1.00 20.00    -0.168 F 
ENDBRANCH   1   7
TORSDOF 2
ENDMDL
MODEL 6
REMARK VINA RESULT:      -5.2      1.456      3.356
REMARK  2 active torsions:
REMARK  status: ('A' for Active; 'I' for Inactive)
REMARK    1  A    between atoms: C1_1  and  C2_2 
REMARK    2  A    between atoms: C1_1  and  C3_3 
ROOT
HETATM    1  C1  UNL     1     -33.387   6.276   4.748  1.00 20.00     0.374 C 
HETATM    2  O4  UNL     1     -33.194   6.313   3.442  1.00 20.00    -0.216 OA
ENDROOT
BRANCH   1   3
HETATM    3  C2  UNL     1     -34.638   5.431   5.021  1.00 20.00     0.424 C 
HETATM    4  F5  UNL     1     -34.524   4.212   4.440  1.00 20.00    -0.168 F 
HETATM    5  F6  UNL     1     -34.856   5.228   6.339  1.00 20.00    -0.168 F 
HETATM    6  F7  UNL     1     -35.748   6.007   4.502  1.00 20.00    -0.168 F 
ENDBRANCH   1   3
BRANCH   1   7
HETATM    7  C3  UNL     1     -33.601   7.713   5.240  1.00 20.00     0.424 C 
HETATM    8  F8  UNL     1     -34.262   7.739   6.421  1.00 20.00    -0.168 F 
HETATM    9  F9  UNL     1     -34.353   8.411   4.355  1.00 20.00    -0.168 F 
HETATM   10  F10 UNL     1     -32.442   8.388   5.401  1.00 20.00    -0.168 F 
ENDBRANCH   1   7
TORSDOF 2
ENDMDL
MODEL 7
REMARK VINA RESULT:      -5.1      1.524      3.414
REMARK  2 active torsions:
REMARK  status: ('A' for Active; 'I' for Inactive)
REMARK    1  A    between atoms: C1_1  and  C2_2 
REMARK    2  A    between atoms: C1_1  and  C3_3 
ROOT
HETATM    1  C1  UNL     1     -33.335   6.245   4.643  1.00 20.00     0.374 C 
HETATM    2  O4  UNL     1     -33.637   5.668   3.493  1.00 20.00    -0.216 OA
ENDROOT
BRANCH   1   3
HETATM    3  C2  UNL     1     -34.513   6.037   5.603  1.00 20.00     0.424 C 
HETATM    4  F5  UNL     1     -34.562   7.036   6.517  1.00 20.00    -0.168 F 
HETATM    5  F6  UNL     1     -35.706   6.013   4.970  1.00 20.00    -0.168 F 
HETATM    6  F7  UNL     1     -34.388   4.881   6.296  1.00 20.00    -0.168 F 
ENDBRANCH   1   3
BRANCH   1   7
HETATM    7  C3  UNL     1     -33.121   7.742   4.383  1.00 20.00     0.424 C 
HETATM    8  F8  UNL     1     -34.299   8.401   4.282  1.00 20.00    -0.168 F 
HETATM    9  F9  UNL     1     -32.465   7.933   3.214  1.00 20.00    -0.168 F 
HETATM   10  F10 UNL     1     -32.395   8.342   5.353  1.00 20.00    -0.168 F 
ENDBRANCH   1   7
TORSDOF 2
ENDMDL
MODEL 8
REMARK VINA RESULT:      -5.1      1.594      2.242
REMARK  2 active torsions:
REMARK  status: ('A' for Active; 'I' for Inactive)
REMARK    1  A    between atoms: C1_1  and  C2_2 
REMARK    2  A    between atoms: C1_1  and  C3_3 
ROOT
HETATM    1  C1  UNL     1     -34.362   6.320   4.759  1.00 20.00     0.374 C 
HETATM    2  O4  UNL     1     -33.979   5.203   4.167  1.00 20.00    -0.216 OA
ENDROOT
BRANCH   1   3
HETATM    3  C2  UNL     1     -33.325   7.406   4.444  1.00 20.00     0.424 C 
HETATM    4  F5  UNL     1     -32.512   7.007   3.437  1.00 20.00    -0.168 F 
HETATM    5  F6  UNL     1     -33.889   8.574   4.065  1.00 20.00    -0.168 F 
HETATM    6  F7  UNL     1     -32.531   7.656   5.511  1.00 20.00    -0.168 F 
ENDBRANCH   1   3
BRANCH   1   7
HETATM    7  C3  UNL     1     -34.418   6.064   6.271  1.00 20.00     0.424 C 
HETATM    8  F8  UNL     1     -33.277   5.490   6.718  1.00 20.00    -0.168 F 
HETATM    9  F9  UNL     1     -35.428   5.212   6.571  1.00 20.00    -0.168 F 
HETATM   10  F10 UNL     1     -34.620   7.193   6.985  1.00 20.00    -0.168 F 
ENDBRANCH   1   7
TORSDOF 2
ENDMDL
MODEL 9
REMARK VINA RESULT:      -5.0      0.951      3.165
REMARK  2 active torsions:
REMARK  status: ('A' for Active; 'I' for Inactive)
REMARK    1  A    between atoms: C1_1  and  C2_2 
REMARK    2  A    between atoms: C1_1  and  C3_3 
ROOT
HETATM    1  C1  UNL     1     -34.178   6.993   5.729  1.00 20.00     0.374 C 
HETATM    2  O4  UNL     1     -33.330   6.553   6.642  1.00 20.00    -0.216 OA
ENDROOT
BRANCH   1   3
HETATM    3  C2  UNL     1     -34.645   5.793   4.896  1.00 20.00     0.424 C 
HETATM    4  F5  UNL     1     -35.873   6.026   4.374  1.00 20.00    -0.168 F 
HETATM    5  F6  UNL     1     -33.816   5.519   3.864  1.00 20.00    -0.168 F 
HETATM    6  F7  UNL     1     -34.748   4.675   5.652  1.00 20.00    -0.168 F 
ENDBRANCH   1   3
BRANCH   1   7
HETATM    7  C3  UNL     1     -33.440   8.001   4.839  1.00 20.00     0.424 C 
HETATM    8  F8  UNL     1     -33.137   9.133   5.519  1.00 20.00    -0.168 F 
HETATM    9  F9  UNL     1     -34.216   8.369   3.792  1.00 20.00    -0.168 F 
HETATM   10  F10 UNL     1     -32.290   7.506   4.331  1.00 20.00    -0.168 F 
ENDBRANCH   1   7
TORSDOF 2
ENDMDL
