MODEL 1
REMARK VINA RESULT:      -5.8      0.000      0.000
REMARK  0 active torsions:
REMARK  status: ('A' for Active; 'I' for Inactive)
ROOT
HETATM    1  C1  UNL     1     -34.116   5.013   4.044  1.00 20.00     0.127 C 
HETATM    2  C2  UNL     1     -33.396   5.687   2.897  1.00 20.00     0.078 C 
HETATM    3  C3  UNL     1     -35.237   5.781   4.709  1.00 20.00     0.078 C 
HETATM    4  C4  UNL     1     -32.425   6.779   3.341  1.00 20.00     0.007 C 
HETATM    5  C5  UNL     1     -34.859   6.279   6.097  1.00 20.00     0.007 C 
HETATM    6  C6  UNL     1     -33.109   8.019   3.927  1.00 20.00     0.000 C 
HETATM    7  C7  UNL     1     -33.449   6.848   6.258  1.00 20.00     0.000 C 
HETATM    8  C8  UNL     1     -33.127   8.108   5.456  1.00 20.00     0.000 C 
HETATM    9  O9  UNL     1     -33.785   3.895   4.440  1.00 20.00    -0.298 OA
ENDROOT
TORSDOF 0
ENDMDL
MODEL 2
REMARK VINA RESULT:      -5.2      1.801      2.995
REMARK  0 active torsions:
REMARK  status: ('A' for Active; 'I' for Inactive)
ROOT
HETATM    1  C1  UNL     1     -33.287   8.010   5.375  1.00 20.00     0.127 C 
HETATM    2  C2  UNL     1     -32.291   7.992   4.236  1.00 20.00     0.078 C 
HETATM    3  C3  UNL     1     -33.354   6.785   6.260  1.00 20.00     0.078 C 
HETATM    4  C4  UNL     1     -32.727   7.127   3.056  1.00 20.00     0.007 C 
HETATM    5  C5  UNL     1     -34.620   5.970   6.031  1.00 20.00     0.007 C 
HETATM    6  C6  UNL     1     -32.740   5.624   3.357  1.00 20.00     0.000 C 
HETATM    7  C7  UNL     1     -35.064   5.791   4.579  1.00 20.00     0.000 C 
HETATM    8  C8  UNL     1     -34.114   5.019   3.665  1.00 20.00     0.000 C 
HETATM    9  O9  UNL     1     -34.033   8.972   5.558  1.00 20.00    -0.298 OA
ENDROOT
TORSDOF 0
ENDMDL
MODEL 3
REMARK VINA RESULT:      -5.1      1.034      1.561
REMARK  0 active torsions:
REMARK  status: ('A' for Active; 'I' for Inactive)
ROOT
HETATM    1  C1  UNL     1     -33.295   5.945   3.309  1.00 20.00     0.127 C 
HETATM    2  C2  UNL     1     -32.713   7.339   3.206  1.00 20.00     0.078 C 
HETATM    3  C3  UNL     1     -34.741   5.825   3.737  1.00 20.00     0.078 C 
HETATM    4  C4  UNL     1     -32.397   7.970   4.560  1.00 20.00     0.007 C 
HETATM    5  C5  UNL     1     -34.886   5.282   5.152  1.00 20.00     0.007 C 
HETATM    6  C6  UNL     1     -33.637   8.312   5.393  1.00 20.00     0.000 C 
HETATM    7  C7  UNL     1     -33.905   5.821   6.194  1.00 20.00     0.000 C 
HETATM    8  C8  UNL     1     -33.990   7.315   6.501  1.00 20.00     0.000 C 
HETATM    9  O9  UNL     1     -32.611   4.948   3.079  1.00 20.00    -0.298 OA
ENDROOT
TORSDOF 0
ENDMDL
MODEL 4
REMARK VINA RESULT:      -4.6      1.342      2.362
REMARK  0 active torsions:
REMARK  status: ('A' for Active; 'I' for Inactive)
ROOT
HETATM    1  C1  UNL     1     -34.364   6.120   5.450  1.00 20.00     0.127 C 
HETATM    2  C2  UNL     1     -34.379   5.001   4.432  1.00 20.00     0.078 C 
HETATM    3  C3  UNL     1     -34.692   7.513   4.958  1.00 20.00     0.078 C 
HETATM    4  C4  UNL     1     -33.161   4.996   3.511  1.00 20.00     0.007 C 
HETATM    5  C5  UNL     1     -33.470   8.418   4.913  1.00 20.00     0.007 C 
HETATM    6  C6  UNL     1     -33.113   6.177   2.536  1.00 20.00     0.000 C 
HETATM    7  C7  UNL     1     -32.177   7.793   4.388  1.00 20.00     0.000 C 
HETATM    8  C8  UNL     1     -32.185   7.330   2.932  1.00 20.00     0.000 C 
HETATM    9  O9  UNL     1     -34.069   5.912   6.627  1.00 20.00    -0.298 OA
ENDROOT
TORSDOF 0
ENDMDL
MODEL 5
REMARK VINA RESULT:      -4.5      1.218      2.734
REMARK  0 active torsions:
REMARK  status: ('A' for Active; 'I' for Inactive)
ROOT
HETATM    1  C1  UNL     1     -34.684   5.910   4.786  1.00 20.00     0.127 C 
HETATM    2  C2  UNL     1     -34.363   7.038   5.743  1.00 20.00     0.078 C 
HETATM    3  C3  UNL     1     -33.541   5.016   4.357  1.00 20.00     0.078 C 
HETATM    4  C4  UNL     1     -33.649   8.215   5.084  1.00 20.00     0.007 C 
HETATM    5  C5  UNL     1     -33.128   5.252   2.911  1.00 20.00     0.007 C 
HETATM    6  C6  UNL     1     -32.219   7.901   4.631  1.00 20.00     0.000 C 
HETATM    7  C7  UNL     1     -33.070   6.707   2.447  1.00 20.00     0.000 C 
HETATM    8  C8  UNL     1     -32.044   7.604   3.138  1.00 20.00     0.000 C 
HETATM    9  O9  UNL     1     -35.823   5.744   4.351  1.00 20.00    -0.298 OA
ENDROOT
TORSDOF 0
ENDMDL
MODEL 6
REMARK VINA RESULT:      -4.4      1.890      3.033
REMARK  0 active torsions:
REMARK  status: ('A' for Active; 'I' for Inactive)
ROOT
HETATM    1  C1  UNL     1     -32.341   7.164   2.832  1.00 20.00     0.127 C 
HETATM    2  C2  UNL     1     -32.849   5.740   2.911  1.00 20.00     0.078 C 
HETATM    3  C3  UNL     1     -31.587   7.700   4.029  1.00 20.00     0.078 C 
HETATM    4  C4  UNL     1     -34.081   5.579   3.797  1.00 20.00     0.007 C 
HETATM    5  C5  UNL     1     -32.394   8.724   4.814  1.00 20.00     0.007 C 
HETATM    6  C6  UNL     1     -33.807   5.795   5.289  1.00 20.00     0.000 C 
HETATM    7  C7  UNL     1     -33.877   8.411   5.022  1.00 20.00     0.000 C 
HETATM    8  C8  UNL     1     -34.202   7.167   5.846  1.00 20.00     0.000 C 
HETATM    9  O9  UNL     1     -32.555   7.867   1.845  1.00 20.00    -0.298 OA
ENDROOT
TORSDOF 0
ENDMDL
MODEL 7
REMARK VINA RESULT:      -4.3      1.849      3.722
REMARK  0 active torsions:
REMARK  status: ('A' for Active; 'I' for Inactive)
ROOT
HETATM    1  C1  UNL     1     -32.861   8.294   4.791  1.00 20.00     0.127 C 
HETATM    2  C2  UNL     1     -33.930   7.943   5.802  1.00 20.00     0.078 C 
HETATM    3  C3  UNL     1     -33.247   8.258   3.329  1.00 20.00     0.078 C 
HETATM    4  C4  UNL     1     -34.227   6.448   5.885  1.00 20.00     0.007 C 
HETATM    5  C5  UNL     1     -32.635   7.076   2.592  1.00 20.00     0.007 C 
HETATM    6  C6  UNL     1     -34.912   5.879   4.638  1.00 20.00     0.000 C 
HETATM    7  C7  UNL     1     -32.632   5.738   3.333  1.00 20.00     0.000 C 
HETATM    8  C8  UNL     1     -33.998   5.135   3.658  1.00 20.00     0.000 C 
HETATM    9  O9  UNL     1     -31.714   8.570   5.142  1.00 20.00    -0.298 OA
ENDROOT
TORSDOF 0
ENDMDL
MODEL 8
REMARK VINA RESULT:      -3.8      8.297      9.587
REMARK  0 active torsions:
REMARK  status: ('A' for Active; 'I' for Inactive)
ROOT
HETATM    1  C1  UNL     1     -40.852   5.773   0.173  1.00 20.00     0.127 C 
HETATM    2  C2  UNL     1     -41.855   5.000   1.002  1.00 20.00     0.078 C 
HETATM    3  C3  UNL     1     -40.367   7.095   0.724  1.00 20.00     0.078 C 
HETATM    4  C4  UNL     1     -43.268   5.576   0.945  1.00 20.00     0.007 C 
HETATM    5  C5  UNL     1     -40.932   8.286  -0.038  1.00 20.00     0.007 C 
HETATM    6  C6  UNL     1     -43.414   6.934   1.638  1.00 20.00     0.000 C 
HETATM    7  C7  UNL     1     -42.407   8.207  -0.432  1.00 20.00     0.000 C 
HETATM    8  C8  UNL     1     -43.417   8.156   0.714  1.00 20.00     0.000 C 
HETATM    9  O9  UNL     1     -40.466   5.355  -0.919  1.00 20.00    -0.298 OA
ENDROOT
TORSDOF 0
ENDMDL
MODEL 9
REMARK VINA RESULT:      -3.8     12.677     13.897
REMARK  0 active torsions:
REMARK  status: ('A' for Active; 'I' for Inactive)
ROOT
HETATM    1  C1  UNL     1     -34.611  15.499  -6.374  1.00 20.00     0.127 C 
HETATM    2  C2  UNL     1     -35.053  16.942  -6.475  1.00 20.00     0.078 C 
HETATM    3  C3  UNL     1     -35.113  14.698  -5.193  1.00 20.00     0.078 C 
HETATM    4  C4  UNL     1     -34.335  17.872  -5.500  1.00 20.00     0.007 C 
HETATM    5  C5  UNL     1     -34.022  14.422  -4.169  1.00 20.00     0.007 C 
HETATM    6  C6  UNL     1     -34.700  17.635  -4.031  1.00 20.00     0.000 C 
HETATM    7  C7  UNL     1     -33.070  15.578  -3.858  1.00 20.00     0.000 C 
HETATM    8  C8  UNL     1     -33.690  16.819  -3.218  1.00 20.00     0.000 C 
HETATM    9  O9  UNL     1     -33.849  15.002  -7.204  1.00 20.00    -0.298 OA
ENDROOT
TORSDOF 0
ENDMDL
