MODEL 1
REMARK VINA RESULT:      -2.4      0.000      0.000
REMARK  0 active torsions:
REMARK  status: ('A' for Active; 'I' for Inactive)
ROOT
HETATM    1  C1  UNL     1     -33.720   8.145   5.185  1.00 20.00     0.149 C 
HETATM    2  C2  UNL     1     -34.507   5.647   4.306  1.00 20.00     0.149 C 
HETATM    3  C3  UNL     1     -32.686   7.117   2.839  1.00 20.00     0.149 C 
HETATM    4  S4  UNL     1     -34.161   6.520   5.856  1.00 20.00    -0.149 SA
HETATM    5  S5  UNL     1     -32.168   8.129   4.250  1.00 20.00    -0.149 SA
HETATM    6  S6  UNL     1     -33.029   5.395   3.289  1.00 20.00    -0.149 SA
ENDROOT
TORSDOF 0
ENDMDL
MODEL 2
REMARK VINA RESULT:      -2.4      0.068      2.918
REMARK  0 active torsions:
REMARK  status: ('A' for Active; 'I' for Inactive)
ROOT
HETATM    1  C1  UNL     1     -34.510   5.649   4.317  1.00 20.00     0.149 C 
HETATM    2  C2  UNL     1     -32.708   7.180   2.889  1.00 20.00     0.149 C 
HETATM    3  C3  UNL     1     -33.744   8.126   5.269  1.00 20.00     0.149 C 
HETATM    4  S4  UNL     1     -33.033   5.442   3.288  1.00 20.00    -0.149 SA
HETATM    5  S5  UNL     1     -34.167   6.478   5.892  1.00 20.00    -0.149 SA
HETATM    6  S6  UNL     1     -32.194   8.152   4.329  1.00 20.00    -0.149 SA
ENDROOT
TORSDOF 0
ENDMDL
MODEL 3
REMARK VINA RESULT:      -2.4      0.027      2.900
REMARK  0 active torsions:
REMARK  status: ('A' for Active; 'I' for Inactive)
ROOT
HETATM    1  C1  UNL     1     -32.684   7.093   2.852  1.00 20.00     0.149 C 
HETATM    2  C2  UNL     1     -33.710   8.131   5.198  1.00 20.00     0.149 C 
HETATM    3  C3  UNL     1     -34.527   5.644   4.314  1.00 20.00     0.149 C 
HETATM    4  S4  UNL     1     -32.156   8.096   4.265  1.00 20.00    -0.149 SA
HETATM    5  S5  UNL     1     -33.050   5.375   3.298  1.00 20.00    -0.149 SA
HETATM    6  S6  UNL     1     -34.171   6.510   5.866  1.00 20.00    -0.149 SA
ENDROOT
TORSDOF 0
ENDMDL
MODEL 4
REMARK VINA RESULT:      -2.4     15.927     16.735
REMARK  0 active torsions:
REMARK  status: ('A' for Active; 'I' for Inactive)
ROOT
HETATM    1  C1  UNL     1     -24.626  18.568   9.609  1.00 20.00     0.149 C 
HETATM    2  C2  UNL     1     -24.173  17.820  12.230  1.00 20.00     0.149 C 
HETATM    3  C3  UNL     1     -22.043  18.186  10.509  1.00 20.00     0.149 C 
HETATM    4  S4  UNL     1     -25.299  18.862  11.265  1.00 20.00    -0.149 SA
HETATM    5  S5  UNL     1     -22.968  19.263   9.383  1.00 20.00    -0.149 SA
HETATM    6  S6  UNL     1     -22.473  18.446  12.251  1.00 20.00    -0.149 SA
ENDROOT
TORSDOF 0
ENDMDL
MODEL 5
REMARK VINA RESULT:      -2.3     15.496     16.768
REMARK  0 active torsions:
REMARK  status: ('A' for Active; 'I' for Inactive)
ROOT
HETATM    1  C1  UNL     1     -21.694  18.692  10.519  1.00 20.00     0.149 C 
HETATM    2  C2  UNL     1     -23.782  18.697  12.330  1.00 20.00     0.149 C 
HETATM    3  C3  UNL     1     -24.221  17.914   9.717  1.00 20.00     0.149 C 
HETATM    4  S4  UNL     1     -22.004  18.350  12.272  1.00 20.00    -0.149 SA
HETATM    5  S5  UNL     1     -22.485  17.494   9.412  1.00 20.00    -0.149 SA
HETATM    6  S6  UNL     1     -24.767  17.498  11.394  1.00 20.00    -0.149 SA
ENDROOT
TORSDOF 0
ENDMDL
MODEL 6
REMARK VINA RESULT:      -2.3      1.431      2.468
REMARK  0 active torsions:
REMARK  status: ('A' for Active; 'I' for Inactive)
ROOT
HETATM    1  C1  UNL     1     -33.484   5.217   3.709  1.00 20.00     0.149 C 
HETATM    2  C2  UNL     1     -34.026   6.836   5.882  1.00 20.00     0.149 C 
HETATM    3  C3  UNL     1     -32.167   7.629   3.999  1.00 20.00     0.149 C 
HETATM    4  S4  UNL     1     -34.883   5.707   4.752  1.00 20.00    -0.149 SA
HETATM    5  S5  UNL     1     -32.849   6.575   2.691  1.00 20.00    -0.149 SA
HETATM    6  S6  UNL     1     -33.443   8.346   5.068  1.00 20.00    -0.149 SA
ENDROOT
TORSDOF 0
ENDMDL
MODEL 7
REMARK VINA RESULT:      -2.3      1.383      2.467
REMARK  0 active torsions:
REMARK  status: ('A' for Active; 'I' for Inactive)
ROOT
HETATM    1  C1  UNL     1     -33.990   6.903   5.887  1.00 20.00     0.149 C 
HETATM    2  C2  UNL     1     -32.156   7.623   3.950  1.00 20.00     0.149 C 
HETATM    3  C3  UNL     1     -33.497   5.215   3.757  1.00 20.00     0.149 C 
HETATM    4  S4  UNL     1     -33.408   8.383   5.018  1.00 20.00    -0.149 SA
HETATM    5  S5  UNL     1     -34.875   5.748   4.807  1.00 20.00    -0.149 SA
HETATM    6  S6  UNL     1     -32.870   6.536   2.687  1.00 20.00    -0.149 SA
ENDROOT
TORSDOF 0
ENDMDL
MODEL 8
REMARK VINA RESULT:      -2.3      1.413      2.470
REMARK  0 active torsions:
REMARK  status: ('A' for Active; 'I' for Inactive)
ROOT
HETATM    1  C1  UNL     1     -32.177   7.590   3.972  1.00 20.00     0.149 C 
HETATM    2  C2  UNL     1     -33.510   5.182   3.722  1.00 20.00     0.149 C 
HETATM    3  C3  UNL     1     -34.035   6.835   5.873  1.00 20.00     0.149 C 
HETATM    4  S4  UNL     1     -32.870   6.522   2.682  1.00 20.00    -0.149 SA
HETATM    5  S5  UNL     1     -33.444   8.330   5.036  1.00 20.00    -0.149 SA
HETATM    6  S6  UNL     1     -34.903   5.697   4.761  1.00 20.00    -0.149 SA
ENDROOT
TORSDOF 0
ENDMDL
MODEL 9
REMARK VINA RESULT:      -2.3     15.506     16.960
REMARK  0 active torsions:
REMARK  status: ('A' for Active; 'I' for Inactive)
ROOT
HETATM    1  C1  UNL     1     -24.184  17.823   9.761  1.00 20.00     0.149 C 
HETATM    2  C2  UNL     1     -21.693  18.786  10.469  1.00 20.00     0.149 C 
HETATM    3  C3  UNL     1     -23.732  18.726  12.332  1.00 20.00     0.149 C 
HETATM    4  S4  UNL     1     -22.432  17.500   9.426  1.00 20.00    -0.149 SA
HETATM    5  S5  UNL     1     -24.663  17.436  11.465  1.00 20.00    -0.149 SA
HETATM    6  S6  UNL     1     -21.938  18.488  12.240  1.00 20.00    -0.149 SA
ENDROOT
TORSDOF 0
ENDMDL
