MODEL 1
REMARK VINA RESULT:      -4.6      0.000      0.000
REMARK  2 active torsions:
REMARK  status: ('A' for Active; 'I' for Inactive)
REMARK    1  A    between atoms: C1_1  and  C3_3 
REMARK    2  A    between atoms: C3_3  and  O6_6 
ROOT
HETATM    1  C1  UNL     1     -34.192   6.455   4.897  1.00 20.00     0.156 C 
HETATM    2  C2  UNL     1     -34.238   6.338   6.226  1.00 20.00     0.273 C 
HETATM    3  F7  UNL     1     -34.547   7.420   6.972  1.00 20.00    -0.173 F 
HETATM    4  F8  UNL     1     -33.984   5.162   6.840  1.00 20.00    -0.173 F 
ENDROOT
BRANCH   1   5
HETATM    5  C3  UNL     1     -33.859   5.300   4.035  1.00 20.00     0.287 C 
HETATM    6  O5  UNL     1     -34.202   4.145   4.233  1.00 20.00    -0.260 OA
BRANCH   5   7
HETATM    7  O6  UNL     1     -33.110   5.764   2.998  1.00 20.00    -0.323 OA
HETATM    8  C4  UNL     1     -32.468   7.023   3.218  1.00 20.00     0.213 C 
ENDBRANCH   5   7
ENDBRANCH   1   5
TORSDOF 2
ENDMDL
MODEL 2
REMARK VINA RESULT:      -4.4      1.710      2.296
REMARK  2 active torsions:
REMARK  status: ('A' for Active; 'I' for Inactive)
REMARK    1  A    between atoms: C1_1  and  C3_3 
REMARK    2  A    between atoms: C3_3  and  O6_6 
ROOT
HETATM    1  C1  UNL     1     -34.006   6.845   4.701  1.00 20.00     0.156 C 
HETATM    2  C2  UNL     1     -34.088   6.507   5.990  1.00 20.00     0.273 C 
HETATM    3  F7  UNL     1     -35.133   5.762   6.409  1.00 20.00    -0.173 F 
HETATM    4  F8  UNL     1     -33.152   6.895   6.882  1.00 20.00    -0.173 F 
ENDROOT
BRANCH   1   5
HETATM    5  C3  UNL     1     -32.882   7.660   4.191  1.00 20.00     0.287 C 
HETATM    6  O5  UNL     1     -32.509   8.724   4.657  1.00 20.00    -0.260 OA
BRANCH   5   7
HETATM    7  O6  UNL     1     -32.353   7.005   3.121  1.00 20.00    -0.323 OA
HETATM    8  C4  UNL     1     -32.920   5.721   2.844  1.00 20.00     0.213 C 
ENDBRANCH   5   7
ENDBRANCH   1   5
TORSDOF 2
ENDMDL
MODEL 3
REMARK VINA RESULT:      -4.4      2.075      2.578
REMARK  2 active torsions:
REMARK  status: ('A' for Active; 'I' for Inactive)
REMARK    1  A    between atoms: C1_1  and  C3_3 
REMARK    2  A    between atoms: C3_3  and  O6_6 
ROOT
HETATM    1  C1  UNL     1     -34.056   6.656   4.572  1.00 20.00     0.156 C 
HETATM    2  C2  UNL     1     -34.521   5.786   5.472  1.00 20.00     0.273 C 
HETATM    3  F7  UNL     1     -35.104   4.645   5.046  1.00 20.00    -0.173 F 
HETATM    4  F8  UNL     1     -34.422   6.023   6.798  1.00 20.00    -0.173 F 
ENDROOT
BRANCH   1   5
HETATM    5  C3  UNL     1     -33.409   7.919   4.987  1.00 20.00     0.287 C 
HETATM    6  O5  UNL     1     -33.886   8.743   5.751  1.00 20.00    -0.260 OA
BRANCH   5   7
HETATM    7  O6  UNL     1     -32.201   7.985   4.364  1.00 20.00    -0.323 OA
HETATM    8  C4  UNL     1     -32.149   7.399   3.060  1.00 20.00     0.213 C 
ENDBRANCH   5   7
ENDBRANCH   1   5
TORSDOF 2
ENDMDL
MODEL 4
REMARK VINA RESULT:      -4.3      2.208      2.949
REMARK  2 active torsions:
REMARK  status: ('A' for Active; 'I' for Inactive)
REMARK    1  A    between atoms: C1_1  and  C3_3 
REMARK    2  A    between atoms: C3_3  and  O6_6 
ROOT
HETATM    1  C1  UNL     1     -33.680   7.194   4.682  1.00 20.00     0.156 C 
HETATM    2  C2  UNL     1     -32.620   7.956   4.402  1.00 20.00     0.273 C 
HETATM    3  F7  UNL     1     -32.505   9.166   4.991  1.00 20.00    -0.173 F 
HETATM    4  F8  UNL     1     -31.663   7.545   3.543  1.00 20.00    -0.173 F 
ENDROOT
BRANCH   1   5
HETATM    5  C3  UNL     1     -33.852   5.862   4.063  1.00 20.00     0.287 C 
HETATM    6  O5  UNL     1     -33.316   5.482   3.035  1.00 20.00    -0.260 OA
BRANCH   5   7
HETATM    7  O6  UNL     1     -34.709   5.153   4.848  1.00 20.00    -0.323 OA
HETATM    8  C4  UNL     1     -34.626   5.425   6.250  1.00 20.00     0.213 C 
ENDBRANCH   5   7
ENDBRANCH   1   5
TORSDOF 2
ENDMDL
MODEL 5
REMARK VINA RESULT:      -4.3      2.847      3.331
REMARK  2 active torsions:
REMARK  status: ('A' for Active; 'I' for Inactive)
REMARK    1  A    between atoms: C1_1  and  C3_3 
REMARK    2  A    between atoms: C3_3  and  O6_6 
ROOT
HETATM    1  C1  UNL     1     -33.474   8.285   5.121  1.00 20.00     0.156 C 
HETATM    2  C2  UNL     1     -32.562   8.375   4.150  1.00 20.00     0.273 C 
HETATM    3  F7  UNL     1     -32.195   9.595   3.702  1.00 20.00    -0.173 F 
HETATM    4  F8  UNL     1     -31.998   7.275   3.608  1.00 20.00    -0.173 F 
ENDROOT
BRANCH   1   5
HETATM    5  C3  UNL     1     -33.909   6.973   5.647  1.00 20.00     0.287 C 
HETATM    6  O5  UNL     1     -33.623   6.518   6.742  1.00 20.00    -0.260 OA
BRANCH   5   7
HETATM    7  O6  UNL     1     -34.677   6.383   4.691  1.00 20.00    -0.323 OA
HETATM    8  C4  UNL     1     -34.543   4.962   4.587  1.00 20.00     0.213 C 
ENDBRANCH   5   7
ENDBRANCH   1   5
TORSDOF 2
ENDMDL
MODEL 6
REMARK VINA RESULT:      -4.3      1.451      1.810
REMARK  2 active torsions:
REMARK  status: ('A' for Active; 'I' for Inactive)
REMARK    1  A    between atoms: C1_1  and  C3_3 
REMARK    2  A    between atoms: C3_3  and  O6_6 
ROOT
HETATM    1  C1  UNL     1     -33.925   6.540   4.624  1.00 20.00     0.156 C 
HETATM    2  C2  UNL     1     -34.428   5.474   5.251  1.00 20.00     0.273 C 
HETATM    3  F7  UNL     1     -35.255   5.657   6.303  1.00 20.00    -0.173 F 
HETATM    4  F8  UNL     1     -34.128   4.218   4.857  1.00 20.00    -0.173 F 
ENDROOT
BRANCH   1   5
HETATM    5  C3  UNL     1     -33.016   6.392   3.467  1.00 20.00     0.287 C 
HETATM    6  O5  UNL     1     -33.033   5.473   2.664  1.00 20.00    -0.260 OA
BRANCH   5   7
HETATM    7  O6  UNL     1     -32.173   7.460   3.469  1.00 20.00    -0.323 OA
HETATM    8  C4  UNL     1     -32.380   8.405   4.523  1.00 20.00     0.213 C 
ENDBRANCH   5   7
ENDBRANCH   1   5
TORSDOF 2
ENDMDL
MODEL 7
REMARK VINA RESULT:      -4.3      1.303      1.486
REMARK  2 active torsions:
REMARK  status: ('A' for Active; 'I' for Inactive)
REMARK    1  A    between atoms: C1_1  and  C3_3 
REMARK    2  A    between atoms: C3_3  and  O6_6 
ROOT
HETATM    1  C1  UNL     1     -34.000   6.692   4.483  1.00 20.00     0.156 C 
HETATM    2  C2  UNL     1     -33.945   7.426   5.597  1.00 20.00     0.273 C 
HETATM    3  F7  UNL     1     -33.602   8.729   5.511  1.00 20.00    -0.173 F 
HETATM    4  F8  UNL     1     -34.224   6.894   6.806  1.00 20.00    -0.173 F 
ENDROOT
BRANCH   1   5
HETATM    5  C3  UNL     1     -34.371   5.261   4.524  1.00 20.00     0.287 C 
HETATM    6  O5  UNL     1     -35.240   4.773   5.229  1.00 20.00    -0.260 OA
BRANCH   5   7
HETATM    7  O6  UNL     1     -33.571   4.605   3.639  1.00 20.00    -0.323 OA
HETATM    8  C4  UNL     1     -32.905   5.433   2.682  1.00 20.00     0.213 C 
ENDBRANCH   5   7
ENDBRANCH   1   5
TORSDOF 2
ENDMDL
MODEL 8
REMARK VINA RESULT:      -4.2      2.698      3.313
REMARK  2 active torsions:
REMARK  status: ('A' for Active; 'I' for Inactive)
REMARK    1  A    between atoms: C1_1  and  C3_3 
REMARK    2  A    between atoms: C3_3  and  O6_6 
ROOT
HETATM    1  C1  UNL     1     -33.626   6.331   3.942  1.00 20.00     0.156 C 
HETATM    2  C2  UNL     1     -32.831   6.074   2.900  1.00 20.00     0.273 C 
HETATM    3  F7  UNL     1     -32.262   7.103   2.237  1.00 20.00    -0.173 F 
HETATM    4  F8  UNL     1     -32.585   4.810   2.496  1.00 20.00    -0.173 F 
ENDROOT
BRANCH   1   5
HETATM    5  C3  UNL     1     -34.274   5.240   4.702  1.00 20.00     0.287 C 
HETATM    6  O5  UNL     1     -34.238   4.055   4.411  1.00 20.00    -0.260 OA
BRANCH   5   7
HETATM    7  O6  UNL     1     -34.905   5.802   5.768  1.00 20.00    -0.323 OA
HETATM    8  C4  UNL     1     -34.194   6.862   6.415  1.00 20.00     0.213 C 
ENDBRANCH   5   7
ENDBRANCH   1   5
TORSDOF 2
ENDMDL
MODEL 9
REMARK VINA RESULT:      -4.2      2.959      3.867
REMARK  2 active torsions:
REMARK  status: ('A' for Active; 'I' for Inactive)
REMARK    1  A    between atoms: C1_1  and  C3_3 
REMARK    2  A    between atoms: C3_3  and  O6_6 
ROOT
HETATM    1  C1  UNL     1     -33.767   5.906   4.028  1.00 20.00     0.156 C 
HETATM    2  C2  UNL     1     -32.938   5.848   2.983  1.00 20.00     0.273 C 
HETATM    3  F7  UNL     1     -32.910   4.729   2.226  1.00 20.00    -0.173 F 
HETATM    4  F8  UNL     1     -32.127   6.880   2.667  1.00 20.00    -0.173 F 
ENDROOT
BRANCH   1   5
HETATM    5  C3  UNL     1     -33.836   7.108   4.887  1.00 20.00     0.287 C 
HETATM    6  O5  UNL     1     -33.734   8.262   4.503  1.00 20.00    -0.260 OA
BRANCH   5   7
HETATM    7  O6  UNL     1     -34.033   6.686   6.166  1.00 20.00    -0.323 OA
HETATM    8  C4  UNL     1     -34.598   5.379   6.303  1.00 20.00     0.213 C 
ENDBRANCH   5   7
ENDBRANCH   1   5
TORSDOF 2
ENDMDL
