MODEL 1
REMARK VINA RESULT:      -2.9      0.000      0.000
REMARK  0 active torsions:
REMARK  status: ('A' for Active; 'I' for Inactive)
ROOT
HETATM    1  C1  UNL     1     -32.171   7.998   4.205  1.00 20.00     0.020 C 
HETATM    2  C2  UNL     1     -33.330   8.275   5.158  1.00 20.00     0.075 C 
HETATM    3  C3  UNL     1     -32.555   7.210   2.955  1.00 20.00     0.075 C 
HETATM    4  C4  UNL     1     -34.507   5.903   4.396  1.00 20.00     0.147 C 
HETATM    5  S5  UNL     1     -34.010   6.763   5.905  1.00 20.00    -0.159 SA
HETATM    6  S6  UNL     1     -33.101   5.517   3.325  1.00 20.00    -0.159 SA
ENDROOT
TORSDOF 0
ENDMDL
MODEL 2
REMARK VINA RESULT:      -2.9      1.563      2.380
REMARK  0 active torsions:
REMARK  status: ('A' for Active; 'I' for Inactive)
ROOT
HETATM    1  C1  UNL     1     -32.923   6.419   2.832  1.00 20.00     0.020 C 
HETATM    2  C2  UNL     1     -33.486   5.215   3.583  1.00 20.00     0.075 C 
HETATM    3  C3  UNL     1     -32.230   7.451   3.718  1.00 20.00     0.075 C 
HETATM    4  C4  UNL     1     -33.954   6.819   5.774  1.00 20.00     0.147 C 
HETATM    5  S5  UNL     1     -34.840   5.656   4.712  1.00 20.00    -0.159 SA
HETATM    6  S6  UNL     1     -33.370   8.273   4.871  1.00 20.00    -0.159 SA
ENDROOT
TORSDOF 0
ENDMDL
MODEL 3
REMARK VINA RESULT:      -2.9      1.422      2.361
REMARK  0 active torsions:
REMARK  status: ('A' for Active; 'I' for Inactive)
ROOT
HETATM    1  C1  UNL     1     -33.508   8.202   5.338  1.00 20.00     0.020 C 
HETATM    2  C2  UNL     1     -32.279   8.072   4.442  1.00 20.00     0.075 C 
HETATM    3  C3  UNL     1     -34.046   6.875   5.869  1.00 20.00     0.075 C 
HETATM    4  C4  UNL     1     -33.190   5.623   3.568  1.00 20.00     0.147 C 
HETATM    5  S5  UNL     1     -32.625   7.199   2.887  1.00 20.00    -0.159 SA
HETATM    6  S6  UNL     1     -34.694   5.798   4.557  1.00 20.00    -0.159 SA
ENDROOT
TORSDOF 0
ENDMDL
MODEL 4
REMARK VINA RESULT:      -2.8      1.327      3.220
REMARK  0 active torsions:
REMARK  status: ('A' for Active; 'I' for Inactive)
ROOT
HETATM    1  C1  UNL     1     -34.002   4.821   4.389  1.00 20.00     0.020 C 
HETATM    2  C2  UNL     1     -33.617   5.663   3.175  1.00 20.00     0.075 C 
HETATM    3  C3  UNL     1     -34.865   5.550   5.415  1.00 20.00     0.075 C 
HETATM    4  C4  UNL     1     -33.625   7.921   4.753  1.00 20.00     0.147 C 
HETATM    5  S5  UNL     1     -32.535   7.061   3.596  1.00 20.00    -0.159 SA
HETATM    6  S6  UNL     1     -33.997   6.929   6.219  1.00 20.00    -0.159 SA
ENDROOT
TORSDOF 0
ENDMDL
MODEL 5
REMARK VINA RESULT:      -2.8      1.405      2.534
REMARK  0 active torsions:
REMARK  status: ('A' for Active; 'I' for Inactive)
ROOT
HETATM    1  C1  UNL     1     -34.791   5.685   5.888  1.00 20.00     0.020 C 
HETATM    2  C2  UNL     1     -33.935   6.867   6.336  1.00 20.00     0.075 C 
HETATM    3  C3  UNL     1     -34.112   4.757   4.883  1.00 20.00     0.075 C 
HETATM    4  C4  UNL     1     -32.718   6.905   3.865  1.00 20.00     0.147 C 
HETATM    5  S5  UNL     1     -33.575   8.032   4.989  1.00 20.00    -0.159 SA
HETATM    6  S6  UNL     1     -33.782   5.562   3.287  1.00 20.00    -0.159 SA
ENDROOT
TORSDOF 0
ENDMDL
MODEL 6
REMARK VINA RESULT:      -2.8      1.707      2.446
REMARK  0 active torsions:
REMARK  status: ('A' for Active; 'I' for Inactive)
ROOT
HETATM    1  C1  UNL     1     -33.950   6.926   6.328  1.00 20.00     0.020 C 
HETATM    2  C2  UNL     1     -34.826   5.757   5.887  1.00 20.00     0.075 C 
HETATM    3  C3  UNL     1     -33.653   7.944   5.230  1.00 20.00     0.075 C 
HETATM    4  C4  UNL     1     -33.758   5.928   3.354  1.00 20.00     0.147 C 
HETATM    5  S5  UNL     1     -34.023   4.696   4.649  1.00 20.00    -0.159 SA
HETATM    6  S6  UNL     1     -32.650   7.257   3.879  1.00 20.00    -0.159 SA
ENDROOT
TORSDOF 0
ENDMDL
MODEL 7
REMARK VINA RESULT:      -2.6     15.755     16.589
REMARK  0 active torsions:
REMARK  status: ('A' for Active; 'I' for Inactive)
ROOT
HETATM    1  C1  UNL     1     -23.032  19.147   9.664  1.00 20.00     0.020 C 
HETATM    2  C2  UNL     1     -24.476  18.653   9.635  1.00 20.00     0.075 C 
HETATM    3  C3  UNL     1     -22.101  18.326  10.553  1.00 20.00     0.075 C 
HETATM    4  C4  UNL     1     -24.214  17.773  12.233  1.00 20.00     0.147 C 
HETATM    5  S5  UNL     1     -25.312  18.812  11.242  1.00 20.00    -0.159 SA
HETATM    6  S6  UNL     1     -22.531  18.429  12.316  1.00 20.00    -0.159 SA
ENDROOT
TORSDOF 0
ENDMDL
MODEL 8
REMARK VINA RESULT:      -2.5     15.472     15.828
REMARK  0 active torsions:
REMARK  status: ('A' for Active; 'I' for Inactive)
ROOT
HETATM    1  C1  UNL     1     -24.180  16.601  11.890  1.00 20.00     0.020 C 
HETATM    2  C2  UNL     1     -23.833  16.886  10.431  1.00 20.00     0.075 C 
HETATM    3  C3  UNL     1     -25.554  17.106  12.323  1.00 20.00     0.075 C 
HETATM    4  C4  UNL     1     -25.334  19.194  10.537  1.00 20.00     0.147 C 
HETATM    5  S5  UNL     1     -23.670  18.661  10.075  1.00 20.00    -0.159 SA
HETATM    6  S6  UNL     1     -25.685  18.919  12.290  1.00 20.00    -0.159 SA
ENDROOT
TORSDOF 0
ENDMDL
MODEL 9
REMARK VINA RESULT:      -2.5     15.846     16.758
REMARK  0 active torsions:
REMARK  status: ('A' for Active; 'I' for Inactive)
ROOT
HETATM    1  C1  UNL     1     -24.212  18.516   9.432  1.00 20.00     0.020 C 
HETATM    2  C2  UNL     1     -22.892  19.263   9.262  1.00 20.00     0.075 C 
HETATM    3  C3  UNL     1     -24.742  18.486  10.864  1.00 20.00     0.075 C 
HETATM    4  C4  UNL     1     -22.152  18.512  11.807  1.00 20.00     0.147 C 
HETATM    5  S5  UNL     1     -21.506  18.459  10.120  1.00 20.00    -0.159 SA
HETATM    6  S6  UNL     1     -23.672  17.550  11.996  1.00 20.00    -0.159 SA
ENDROOT
TORSDOF 0
ENDMDL
