MODEL 1
REMARK VINA RESULT:      -3.5      0.000      0.000
REMARK  3 active torsions:
REMARK  status: ('A' for Active; 'I' for Inactive)
REMARK    1  A    between atoms: C1_1  and  C3_3 
REMARK    2  A    between atoms: C1_1  and  O6_6 
REMARK    3  A    between atoms: C3_3  and  C4_4 
ROOT
HETATM    1  C1  UNL     1     -34.814   5.368   4.730  1.00 20.00     0.259 C 
HETATM    2  O5  UNL     1     -35.835   5.861   4.271  1.00 20.00    -0.265 OA
ENDROOT
BRANCH   1   3
HETATM    3  C3  UNL     1     -34.286   5.595   6.130  1.00 20.00     0.122 C 
BRANCH   3   4
HETATM    4  C4  UNL     1     -34.187   7.088   6.465  1.00 20.00     0.096 C 
HETATM    5  S7  UNL     1     -33.157   7.923   5.201  1.00 20.00    -0.097 SA
ENDBRANCH   3   4
ENDBRANCH   1   3
BRANCH   1   6
HETATM    6  O6  UNL     1     -33.966   4.524   4.070  1.00 20.00    -0.326 OA
HETATM    7  C2  UNL     1     -33.249   5.104   2.975  1.00 20.00     0.213 C 
ENDBRANCH   1   6
TORSDOF 3
ENDMDL
MODEL 2
REMARK VINA RESULT:      -3.4      3.026      3.217
REMARK  3 active torsions:
REMARK  status: ('A' for Active; 'I' for Inactive)
REMARK    1  A    between atoms: C1_1  and  C3_3 
REMARK    2  A    between atoms: C1_1  and  O6_6 
REMARK    3  A    between atoms: C3_3  and  C4_4 
ROOT
HETATM    1  C1  UNL     1     -32.516   8.277   4.461  1.00 20.00     0.259 C 
HETATM    2  O5  UNL     1     -32.113   9.288   5.021  1.00 20.00    -0.265 OA
ENDROOT
BRANCH   1   3
HETATM    3  C3  UNL     1     -33.835   7.589   4.739  1.00 20.00     0.122 C 
BRANCH   3   4
HETATM    4  C4  UNL     1     -33.909   7.060   6.176  1.00 20.00     0.096 C 
HETATM    5  S7  UNL     1     -34.585   5.358   6.158  1.00 20.00    -0.097 SA
ENDBRANCH   3   4
ENDBRANCH   1   3
BRANCH   1   6
HETATM    6  O6  UNL     1     -31.854   7.584   3.486  1.00 20.00    -0.326 OA
HETATM    7  C2  UNL     1     -32.599   6.534   2.862  1.00 20.00     0.213 C 
ENDBRANCH   1   6
TORSDOF 3
ENDMDL
MODEL 3
REMARK VINA RESULT:      -3.3      2.526      3.152
REMARK  3 active torsions:
REMARK  status: ('A' for Active; 'I' for Inactive)
REMARK    1  A    between atoms: C1_1  and  C3_3 
REMARK    2  A    between atoms: C1_1  and  O6_6 
REMARK    3  A    between atoms: C3_3  and  C4_4 
ROOT
HETATM    1  C1  UNL     1     -34.005   6.990   5.490  1.00 20.00     0.259 C 
HETATM    2  O5  UNL     1     -33.552   6.801   6.611  1.00 20.00    -0.265 OA
ENDROOT
BRANCH   1   3
HETATM    3  C3  UNL     1     -34.908   6.036   4.738  1.00 20.00     0.122 C 
BRANCH   3   4
HETATM    4  C4  UNL     1     -34.157   4.778   4.288  1.00 20.00     0.096 C 
HETATM    5  S7  UNL     1     -33.069   5.198   2.875  1.00 20.00    -0.097 SA
ENDBRANCH   3   4
ENDBRANCH   1   3
BRANCH   1   6
HETATM    6  O6  UNL     1     -33.782   8.092   4.712  1.00 20.00    -0.326 OA
HETATM    7  C2  UNL     1     -32.429   8.559   4.678  1.00 20.00     0.213 C 
ENDBRANCH   1   6
TORSDOF 3
ENDMDL
MODEL 4
REMARK VINA RESULT:      -3.3      2.171      2.684
REMARK  3 active torsions:
REMARK  status: ('A' for Active; 'I' for Inactive)
REMARK    1  A    between atoms: C1_1  and  C3_3 
REMARK    2  A    between atoms: C1_1  and  O6_6 
REMARK    3  A    between atoms: C3_3  and  C4_4 
ROOT
HETATM    1  C1  UNL     1     -33.983   6.977   5.736  1.00 20.00     0.259 C 
HETATM    2  O5  UNL     1     -33.453   6.582   6.766  1.00 20.00    -0.265 OA
ENDROOT
BRANCH   1   3
HETATM    3  C3  UNL     1     -33.727   8.315   5.078  1.00 20.00     0.122 C 
BRANCH   3   4
HETATM    4  C4  UNL     1     -32.302   8.412   4.521  1.00 20.00     0.096 C 
HETATM    5  S7  UNL     1     -32.179   7.401   2.999  1.00 20.00    -0.097 SA
ENDBRANCH   3   4
ENDBRANCH   1   3
BRANCH   1   6
HETATM    6  O6  UNL     1     -34.898   6.287   4.991  1.00 20.00    -0.326 OA
HETATM    7  C2  UNL     1     -34.579   4.914   4.740  1.00 20.00     0.213 C 
ENDBRANCH   1   6
TORSDOF 3
ENDMDL
MODEL 5
REMARK VINA RESULT:      -3.2      1.537      2.408
REMARK  3 active torsions:
REMARK  status: ('A' for Active; 'I' for Inactive)
REMARK    1  A    between atoms: C1_1  and  C3_3 
REMARK    2  A    between atoms: C1_1  and  O6_6 
REMARK    3  A    between atoms: C3_3  and  C4_4 
ROOT
HETATM    1  C1  UNL     1     -33.780   5.313   3.871  1.00 20.00     0.259 C 
HETATM    2  O5  UNL     1     -33.274   4.907   2.833  1.00 20.00    -0.265 OA
ENDROOT
BRANCH   1   3
HETATM    3  C3  UNL     1     -33.788   6.753   4.335  1.00 20.00     0.122 C 
BRANCH   3   4
HETATM    4  C4  UNL     1     -32.617   7.547   3.745  1.00 20.00     0.096 C 
HETATM    5  S7  UNL     1     -32.265   8.990   4.818  1.00 20.00    -0.097 SA
ENDBRANCH   3   4
ENDBRANCH   1   3
BRANCH   1   6
HETATM    6  O6  UNL     1     -34.430   4.547   4.798  1.00 20.00    -0.326 OA
HETATM    7  C2  UNL     1     -34.665   5.177   6.061  1.00 20.00     0.213 C 
ENDBRANCH   1   6
TORSDOF 3
ENDMDL
MODEL 6
REMARK VINA RESULT:      -3.1      2.664      3.275
REMARK  3 active torsions:
REMARK  status: ('A' for Active; 'I' for Inactive)
REMARK    1  A    between atoms: C1_1  and  C3_3 
REMARK    2  A    between atoms: C1_1  and  O6_6 
REMARK    3  A    between atoms: C3_3  and  C4_4 
ROOT
HETATM    1  C1  UNL     1     -32.799   6.943   3.591  1.00 20.00     0.259 C 
HETATM    2  O5  UNL     1     -32.681   6.028   2.787  1.00 20.00    -0.265 OA
ENDROOT
BRANCH   1   3
HETATM    3  C3  UNL     1     -34.018   7.202   4.448  1.00 20.00     0.122 C 
BRANCH   3   4
HETATM    4  C4  UNL     1     -34.826   5.922   4.690  1.00 20.00     0.096 C 
HETATM    5  S7  UNL     1     -34.528   5.333   6.398  1.00 20.00    -0.097 SA
ENDBRANCH   3   4
ENDBRANCH   1   3
BRANCH   1   6
HETATM    6  O6  UNL     1     -31.857   7.895   3.864  1.00 20.00    -0.326 OA
HETATM    7  C2  UNL     1     -32.262   8.918   4.779  1.00 20.00     0.213 C 
ENDBRANCH   1   6
TORSDOF 3
ENDMDL
MODEL 7
REMARK VINA RESULT:      -3.1     12.591     13.314
REMARK  3 active torsions:
REMARK  status: ('A' for Active; 'I' for Inactive)
REMARK    1  A    between atoms: C1_1  and  C3_3 
REMARK    2  A    between atoms: C1_1  and  O6_6 
REMARK    3  A    between atoms: C3_3  and  C4_4 
ROOT
HETATM    1  C1  UNL     1     -35.875  14.039  -4.935  1.00 20.00     0.259 C 
HETATM    2  O5  UNL     1     -35.826  12.978  -4.328  1.00 20.00    -0.265 OA
ENDROOT
BRANCH   1   3
HETATM    3  C3  UNL     1     -34.675  14.856  -5.365  1.00 20.00     0.122 C 
BRANCH   3   4
HETATM    4  C4  UNL     1     -33.507  14.710  -4.384  1.00 20.00     0.096 C 
HETATM    5  S7  UNL     1     -33.375  16.231  -3.372  1.00 20.00    -0.097 SA
ENDBRANCH   3   4
ENDBRANCH   1   3
BRANCH   1   6
HETATM    6  O6  UNL     1     -37.013  14.680  -5.338  1.00 20.00    -0.326 OA
HETATM    7  C2  UNL     1     -36.841  16.041  -5.748  1.00 20.00     0.213 C 
ENDBRANCH   1   6
TORSDOF 3
ENDMDL
MODEL 8
REMARK VINA RESULT:      -3.0      1.337      2.639
REMARK  3 active torsions:
REMARK  status: ('A' for Active; 'I' for Inactive)
REMARK    1  A    between atoms: C1_1  and  C3_3 
REMARK    2  A    between atoms: C1_1  and  O6_6 
REMARK    3  A    between atoms: C3_3  and  C4_4 
ROOT
HETATM    1  C1  UNL     1     -34.383   4.999   4.904  1.00 20.00     0.259 C 
HETATM    2  O5  UNL     1     -34.105   3.884   4.485  1.00 20.00    -0.265 OA
ENDROOT
BRANCH   1   3
HETATM    3  C3  UNL     1     -34.335   6.276   4.093  1.00 20.00     0.122 C 
BRANCH   3   4
HETATM    4  C4  UNL     1     -32.987   6.450   3.385  1.00 20.00     0.096 C 
HETATM    5  S7  UNL     1     -32.277   8.078   3.830  1.00 20.00    -0.097 SA
ENDBRANCH   3   4
ENDBRANCH   1   3
BRANCH   1   6
HETATM    6  O6  UNL     1     -34.787   5.298   6.176  1.00 20.00    -0.326 OA
HETATM    7  C2  UNL     1     -34.412   6.595   6.652  1.00 20.00     0.213 C 
ENDBRANCH   1   6
TORSDOF 3
ENDMDL
MODEL 9
REMARK VINA RESULT:      -2.9     12.713     13.276
REMARK  3 active torsions:
REMARK  status: ('A' for Active; 'I' for Inactive)
REMARK    1  A    between atoms: C1_1  and  C3_3 
REMARK    2  A    between atoms: C1_1  and  O6_6 
REMARK    3  A    between atoms: C3_3  and  C4_4 
ROOT
HETATM    1  C1  UNL     1     -33.978  14.628  -4.524  1.00 20.00     0.259 C 
HETATM    2  O5  UNL     1     -34.552  13.697  -3.976  1.00 20.00    -0.265 OA
ENDROOT
BRANCH   1   3
HETATM    3  C3  UNL     1     -33.050  15.608  -3.840  1.00 20.00     0.122 C 
BRANCH   3   4
HETATM    4  C4  UNL     1     -33.759  16.926  -3.508  1.00 20.00     0.096 C 
HETATM    5  S7  UNL     1     -33.509  17.317  -1.736  1.00 20.00    -0.097 SA
ENDBRANCH   3   4
ENDBRANCH   1   3
BRANCH   1   6
HETATM    6  O6  UNL     1     -34.066  14.955  -5.849  1.00 20.00    -0.326 OA
HETATM    7  C2  UNL     1     -35.387  14.941  -6.400  1.00 20.00     0.213 C 
ENDBRANCH   1   6
TORSDOF 3
ENDMDL
