MODEL 1
REMARK VINA RESULT:      -3.9      0.000      0.000
REMARK  0 active torsions:
REMARK  status: ('A' for Active; 'I' for Inactive)
ROOT
HETATM    1  C1  UNL     1     -24.069  16.917  11.027  1.00 20.00     0.270 A 
HETATM    2  C2  UNL     1     -24.000  18.442  11.336  1.00 20.00     0.072 A 
HETATM    3  C3  UNL     1     -23.654  18.521   9.799  1.00 20.00     0.079 A 
HETATM    4  C4  UNL     1     -22.897  18.802  12.332  1.00 20.00     0.029 C 
HETATM    5  C5  UNL     1     -25.338  19.021  11.793  1.00 20.00     0.029 C 
HETATM    6  C6  UNL     1     -22.238  18.946   9.411  1.00 20.00     0.047 C 
HETATM    7  C7  UNL     1     -24.684  19.166   8.873  1.00 20.00     0.047 C 
HETATM    8  O8  UNL     1     -24.294  15.895  11.635  1.00 20.00    -0.264 OA
HETATM    9  O9  UNL     1     -23.765  17.064   9.711  1.00 20.00    -0.309 OA
ENDROOT
TORSDOF 0
ENDMDL
MODEL 2
REMARK VINA RESULT:      -3.7     23.743     24.555
REMARK  0 active torsions:
REMARK  status: ('A' for Active; 'I' for Inactive)
ROOT
HETATM    1  C1  UNL     1     -42.853   5.461  -0.946  1.00 20.00     0.270 A 
HETATM    2  C2  UNL     1     -41.845   5.801   0.191  1.00 20.00     0.072 A 
HETATM    3  C3  UNL     1     -42.556   7.207   0.111  1.00 20.00     0.079 A 
HETATM    4  C4  UNL     1     -40.385   5.716  -0.256  1.00 20.00     0.029 C 
HETATM    5  C5  UNL     1     -42.062   4.967   1.453  1.00 20.00     0.029 C 
HETATM    6  C6  UNL     1     -41.739   8.387  -0.415  1.00 20.00     0.047 C 
HETATM    7  C7  UNL     1     -43.417   7.635   1.298  1.00 20.00     0.047 C 
HETATM    8  O8  UNL     1     -43.128   4.505  -1.635  1.00 20.00    -0.264 OA
HETATM    9  O9  UNL     1     -43.417   6.697  -0.958  1.00 20.00    -0.309 OA
ENDROOT
TORSDOF 0
ENDMDL
MODEL 3
REMARK VINA RESULT:      -3.7      1.716      2.462
REMARK  0 active torsions:
REMARK  status: ('A' for Active; 'I' for Inactive)
ROOT
HETATM    1  C1  UNL     1     -24.516  18.820  10.268  1.00 20.00     0.270 A 
HETATM    2  C2  UNL     1     -23.493  17.918  11.020  1.00 20.00     0.072 A 
HETATM    3  C3  UNL     1     -22.633  18.178   9.724  1.00 20.00     0.079 A 
HETATM    4  C4  UNL     1     -24.007  16.498  11.258  1.00 20.00     0.029 C 
HETATM    5  C5  UNL     1     -23.004  18.532  12.331  1.00 20.00     0.029 C 
HETATM    6  C6  UNL     1     -22.378  16.995   8.791  1.00 20.00     0.047 C 
HETATM    7  C7  UNL     1     -21.373  19.032   9.868  1.00 20.00     0.047 C 
HETATM    8  O8  UNL     1     -25.625  19.263  10.465  1.00 20.00    -0.264 OA
HETATM    9  O9  UNL     1     -23.718  18.999   9.183  1.00 20.00    -0.309 OA
ENDROOT
TORSDOF 0
ENDMDL
MODEL 4
REMARK VINA RESULT:      -3.6     18.833     20.204
REMARK  0 active torsions:
REMARK  status: ('A' for Active; 'I' for Inactive)
ROOT
HETATM    1  C1  UNL     1     -34.282  15.120  -6.818  1.00 20.00     0.270 A 
HETATM    2  C2  UNL     1     -34.427  15.640  -5.358  1.00 20.00     0.072 A 
HETATM    3  C3  UNL     1     -35.836  14.942  -5.474  1.00 20.00     0.079 A 
HETATM    4  C4  UNL     1     -34.397  17.166  -5.259  1.00 20.00     0.029 C 
HETATM    5  C5  UNL     1     -33.408  15.026  -4.398  1.00 20.00     0.029 C 
HETATM    6  C6  UNL     1     -37.075  15.837  -5.488  1.00 20.00     0.047 C 
HETATM    7  C7  UNL     1     -36.082  13.695  -4.625  1.00 20.00     0.047 C 
HETATM    8  O8  UNL     1     -33.449  15.152  -7.696  1.00 20.00    -0.264 OA
HETATM    9  O9  UNL     1     -35.511  14.541  -6.845  1.00 20.00    -0.309 OA
ENDROOT
TORSDOF 0
ENDMDL
MODEL 5
REMARK VINA RESULT:      -3.5     18.621     19.759
REMARK  0 active torsions:
REMARK  status: ('A' for Active; 'I' for Inactive)
ROOT
HETATM    1  C1  UNL     1     -34.200  15.529  -6.616  1.00 20.00     0.270 A 
HETATM    2  C2  UNL     1     -34.767  15.159  -5.214  1.00 20.00     0.072 A 
HETATM    3  C3  UNL     1     -35.026  16.713  -5.144  1.00 20.00     0.079 A 
HETATM    4  C4  UNL     1     -33.712  14.571  -4.277  1.00 20.00     0.029 C 
HETATM    5  C5  UNL     1     -35.985  14.239  -5.284  1.00 20.00     0.029 C 
HETATM    6  C6  UNL     1     -34.199  17.527  -4.148  1.00 20.00     0.047 C 
HETATM    7  C7  UNL     1     -36.477  17.191  -5.157  1.00 20.00     0.047 C 
HETATM    8  O8  UNL     1     -33.699  14.951  -7.555  1.00 20.00    -0.264 OA
HETATM    9  O9  UNL     1     -34.454  16.857  -6.484  1.00 20.00    -0.309 OA
ENDROOT
TORSDOF 0
ENDMDL
MODEL 6
REMARK VINA RESULT:      -3.5     23.556     24.405
REMARK  0 active torsions:
REMARK  status: ('A' for Active; 'I' for Inactive)
ROOT
HETATM    1  C1  UNL     1     -43.026   7.840  -0.261  1.00 20.00     0.270 A 
HETATM    2  C2  UNL     1     -42.437   6.987   0.901  1.00 20.00     0.072 A 
HETATM    3  C3  UNL     1     -42.415   5.871  -0.213  1.00 20.00     0.079 A 
HETATM    4  C4  UNL     1     -43.411   6.808   2.066  1.00 20.00     0.029 C 
HETATM    5  C5  UNL     1     -41.094   7.510   1.408  1.00 20.00     0.029 C 
HETATM    6  C6  UNL     1     -43.374   4.690  -0.056  1.00 20.00     0.047 C 
HETATM    7  C7  UNL     1     -41.052   5.395  -0.714  1.00 20.00     0.047 C 
HETATM    8  O8  UNL     1     -43.417   8.974  -0.423  1.00 20.00    -0.264 OA
HETATM    9  O9  UNL     1     -42.977   6.829  -1.167  1.00 20.00    -0.309 OA
ENDROOT
TORSDOF 0
ENDMDL
MODEL 7
REMARK VINA RESULT:      -3.4     18.771     20.306
REMARK  0 active torsions:
REMARK  status: ('A' for Active; 'I' for Inactive)
ROOT
HETATM    1  C1  UNL     1     -35.901  14.204  -4.960  1.00 20.00     0.270 A 
HETATM    2  C2  UNL     1     -34.995  15.392  -5.395  1.00 20.00     0.072 A 
HETATM    3  C3  UNL     1     -36.379  16.015  -5.824  1.00 20.00     0.079 A 
HETATM    4  C4  UNL     1     -34.010  15.020  -6.504  1.00 20.00     0.029 C 
HETATM    5  C5  UNL     1     -34.256  16.042  -4.226  1.00 20.00     0.029 C 
HETATM    6  C6  UNL     1     -36.645  16.196  -7.318  1.00 20.00     0.047 C 
HETATM    7  C7  UNL     1     -36.889  17.220  -5.035  1.00 20.00     0.047 C 
HETATM    8  O8  UNL     1     -35.757  13.113  -4.456  1.00 20.00    -0.264 OA
HETATM    9  O9  UNL     1     -37.055  14.804  -5.353  1.00 20.00    -0.309 OA
ENDROOT
TORSDOF 0
ENDMDL
MODEL 8
REMARK VINA RESULT:      -3.4     19.140     20.603
REMARK  0 active torsions:
REMARK  status: ('A' for Active; 'I' for Inactive)
ROOT
HETATM    1  C1  UNL     1     -35.999  14.400  -5.430  1.00 20.00     0.270 A 
HETATM    2  C2  UNL     1     -35.521  15.882  -5.461  1.00 20.00     0.072 A 
HETATM    3  C3  UNL     1     -35.438  15.600  -7.011  1.00 20.00     0.079 A 
HETATM    4  C4  UNL     1     -34.209  16.105  -4.708  1.00 20.00     0.029 C 
HETATM    5  C5  UNL     1     -36.586  16.865  -4.975  1.00 20.00     0.029 C 
HETATM    6  C6  UNL     1     -34.051  15.562  -7.653  1.00 20.00     0.047 C 
HETATM    7  C7  UNL     1     -36.432  16.325  -7.918  1.00 20.00     0.047 C 
HETATM    8  O8  UNL     1     -36.349  13.595  -4.597  1.00 20.00    -0.264 OA
HETATM    9  O9  UNL     1     -35.902  14.232  -6.775  1.00 20.00    -0.309 OA
ENDROOT
TORSDOF 0
ENDMDL
MODEL 9
REMARK VINA RESULT:      -3.3     15.411     16.421
REMARK  0 active torsions:
REMARK  status: ('A' for Active; 'I' for Inactive)
ROOT
HETATM    1  C1  UNL     1     -33.887   5.890   5.981  1.00 20.00     0.270 A 
HETATM    2  C2  UNL     1     -34.233   6.148   4.485  1.00 20.00     0.072 A 
HETATM    3  C3  UNL     1     -33.495   7.513   4.770  1.00 20.00     0.079 A 
HETATM    4  C4  UNL     1     -35.738   6.197   4.218  1.00 20.00     0.029 C 
HETATM    5  C5  UNL     1     -33.557   5.161   3.535  1.00 20.00     0.029 C 
HETATM    6  C6  UNL     1     -34.336   8.790   4.766  1.00 20.00     0.047 C 
HETATM    7  C7  UNL     1     -32.152   7.750   4.080  1.00 20.00     0.047 C 
HETATM    8  O8  UNL     1     -34.051   5.008   6.794  1.00 20.00    -0.264 OA
HETATM    9  O9  UNL     1     -33.264   7.086   6.151  1.00 20.00    -0.309 OA
ENDROOT
TORSDOF 0
ENDMDL
