MODEL 1
REMARK VINA RESULT:      -3.9      0.000      0.000
REMARK  1 active torsions:
REMARK  status: ('A' for Active; 'I' for Inactive)
REMARK    1  A    between atoms: C1_1  and  C2_2 
ROOT
HETATM    1  C2  UNL     1     -34.513   6.108   4.738  1.00 20.00     0.281 C 
HETATM    2 CL5  UNL     1     -33.695   7.678   4.652  1.00 20.00    -0.073 Cl
HETATM    3 CL6  UNL     1     -36.163   6.226   4.104  1.00 20.00    -0.073 Cl
HETATM    4 CL7  UNL     1     -34.520   5.513   6.408  1.00 20.00    -0.073 Cl
ENDROOT
BRANCH   1   5
HETATM    5  C1  UNL     1     -33.777   5.125   3.871  1.00 20.00     0.352 C 
HETATM    6  O3  UNL     1     -33.082   5.409   2.906  1.00 20.00    -0.255 OA
HETATM    7  F4  UNL     1     -33.813   3.827   4.212  1.00 20.00    -0.160 F 
ENDBRANCH   1   5
TORSDOF 1
ENDMDL
MODEL 2
REMARK VINA RESULT:      -3.9      2.340      2.690
REMARK  1 active torsions:
REMARK  status: ('A' for Active; 'I' for Inactive)
REMARK    1  A    between atoms: C1_1  and  C2_2 
ROOT
HETATM    1  C2  UNL     1     -34.342   5.937   4.662  1.00 20.00     0.281 C 
HETATM    2 CL5  UNL     1     -36.014   6.183   4.129  1.00 20.00    -0.073 Cl
HETATM    3 CL6  UNL     1     -33.415   5.057   3.436  1.00 20.00    -0.073 Cl
HETATM    4 CL7  UNL     1     -34.314   5.078   6.212  1.00 20.00    -0.073 Cl
ENDROOT
BRANCH   1   5
HETATM    5  C1  UNL     1     -33.683   7.278   4.834  1.00 20.00     0.352 C 
HETATM    6  O3  UNL     1     -32.902   7.793   4.046  1.00 20.00    -0.255 OA
HETATM    7  F4  UNL     1     -34.021   8.020   5.901  1.00 20.00    -0.160 F 
ENDBRANCH   1   5
TORSDOF 1
ENDMDL
MODEL 3
REMARK VINA RESULT:      -3.9      0.038      1.901
REMARK  1 active torsions:
REMARK  status: ('A' for Active; 'I' for Inactive)
REMARK    1  A    between atoms: C1_1  and  C2_2 
ROOT
HETATM    1  C2  UNL     1     -34.530   6.091   4.720  1.00 20.00     0.281 C 
HETATM    2 CL5  UNL     1     -36.184   6.240   4.104  1.00 20.00    -0.073 Cl
HETATM    3 CL6  UNL     1     -34.530   5.440   6.368  1.00 20.00    -0.073 Cl
HETATM    4 CL7  UNL     1     -33.712   7.662   4.663  1.00 20.00    -0.073 Cl
ENDROOT
BRANCH   1   5
HETATM    5  C1  UNL     1     -33.775   5.115   3.861  1.00 20.00     0.352 C 
HETATM    6  O3  UNL     1     -33.077   5.405   2.900  1.00 20.00    -0.255 OA
HETATM    7  F4  UNL     1     -33.796   3.817   4.207  1.00 20.00    -0.160 F 
ENDBRANCH   1   5
TORSDOF 1
ENDMDL
MODEL 4
REMARK VINA RESULT:      -3.9      2.349      2.906
REMARK  1 active torsions:
REMARK  status: ('A' for Active; 'I' for Inactive)
REMARK    1  A    between atoms: C1_1  and  C2_2 
ROOT
HETATM    1  C2  UNL     1     -34.351   5.934   4.669  1.00 20.00     0.281 C 
HETATM    2 CL5  UNL     1     -33.427   5.063   3.433  1.00 20.00    -0.073 Cl
HETATM    3 CL6  UNL     1     -34.313   5.063   6.211  1.00 20.00    -0.073 Cl
HETATM    4 CL7  UNL     1     -36.020   6.180   4.125  1.00 20.00    -0.073 Cl
ENDROOT
BRANCH   1   5
HETATM    5  C1  UNL     1     -33.711   7.274   4.904  1.00 20.00     0.352 C 
HETATM    6  O3  UNL     1     -32.919   7.826   4.153  1.00 20.00    -0.255 OA
HETATM    7  F4  UNL     1     -34.082   7.973   5.989  1.00 20.00    -0.160 F 
ENDBRANCH   1   5
TORSDOF 1
ENDMDL
MODEL 5
REMARK VINA RESULT:      -3.9      0.034      1.915
REMARK  1 active torsions:
REMARK  status: ('A' for Active; 'I' for Inactive)
REMARK    1  A    between atoms: C1_1  and  C2_2 
ROOT
HETATM    1  C2  UNL     1     -34.526   6.087   4.727  1.00 20.00     0.281 C 
HETATM    2 CL5  UNL     1     -34.552   5.476   6.390  1.00 20.00    -0.073 Cl
HETATM    3 CL6  UNL     1     -33.669   7.635   4.641  1.00 20.00    -0.073 Cl
HETATM    4 CL7  UNL     1     -36.179   6.247   4.109  1.00 20.00    -0.073 Cl
ENDROOT
BRANCH   1   5
HETATM    5  C1  UNL     1     -33.771   5.117   3.861  1.00 20.00     0.352 C 
HETATM    6  O3  UNL     1     -33.074   5.414   2.901  1.00 20.00    -0.255 OA
HETATM    7  F4  UNL     1     -33.792   3.817   4.197  1.00 20.00    -0.160 F 
ENDBRANCH   1   5
TORSDOF 1
ENDMDL
MODEL 6
REMARK VINA RESULT:      -3.9      2.347      2.759
REMARK  1 active torsions:
REMARK  status: ('A' for Active; 'I' for Inactive)
REMARK    1  A    between atoms: C1_1  and  C2_2 
ROOT
HETATM    1  C2  UNL     1     -34.339   5.923   4.662  1.00 20.00     0.281 C 
HETATM    2 CL5  UNL     1     -34.302   5.046   6.202  1.00 20.00    -0.073 Cl
HETATM    3 CL6  UNL     1     -36.008   6.189   4.132  1.00 20.00    -0.073 Cl
HETATM    4 CL7  UNL     1     -33.420   5.038   3.432  1.00 20.00    -0.073 Cl
ENDROOT
BRANCH   1   5
HETATM    5  C1  UNL     1     -33.718   7.278   4.857  1.00 20.00     0.352 C 
HETATM    6  O3  UNL     1     -32.968   7.837   4.068  1.00 20.00    -0.255 OA
HETATM    7  F4  UNL     1     -34.059   7.982   5.948  1.00 20.00    -0.160 F 
ENDBRANCH   1   5
TORSDOF 1
ENDMDL
MODEL 7
REMARK VINA RESULT:      -3.8      2.333      2.885
REMARK  1 active torsions:
REMARK  status: ('A' for Active; 'I' for Inactive)
REMARK    1  A    between atoms: C1_1  and  C2_2 
ROOT
HETATM    1  C2  UNL     1     -34.328   5.884   4.653  1.00 20.00     0.281 C 
HETATM    2 CL5  UNL     1     -35.991   6.201   4.131  1.00 20.00    -0.073 Cl
HETATM    3 CL6  UNL     1     -33.207   7.037   3.910  1.00 20.00    -0.073 Cl
HETATM    4 CL7  UNL     1     -33.870   4.218   4.262  1.00 20.00    -0.073 Cl
ENDROOT
BRANCH   1   5
HETATM    5  C1  UNL     1     -34.238   6.079   6.142  1.00 20.00     0.352 C 
HETATM    6  O3  UNL     1     -34.371   7.144   6.729  1.00 20.00    -0.255 OA
HETATM    7  F4  UNL     1     -34.070   4.995   6.915  1.00 20.00    -0.160 F 
ENDBRANCH   1   5
TORSDOF 1
ENDMDL
MODEL 8
REMARK VINA RESULT:      -3.8      2.335      2.854
REMARK  1 active torsions:
REMARK  status: ('A' for Active; 'I' for Inactive)
REMARK    1  A    between atoms: C1_1  and  C2_2 
ROOT
HETATM    1  C2  UNL     1     -34.297   5.875   4.642  1.00 20.00     0.281 C 
HETATM    2 CL5  UNL     1     -33.855   4.201   4.265  1.00 20.00    -0.073 Cl
HETATM    3 CL6  UNL     1     -35.965   6.210   4.147  1.00 20.00    -0.073 Cl
HETATM    4 CL7  UNL     1     -33.170   6.996   3.858  1.00 20.00    -0.073 Cl
ENDROOT
BRANCH   1   5
HETATM    5  C1  UNL     1     -34.230   6.074   6.130  1.00 20.00     0.352 C 
HETATM    6  O3  UNL     1     -34.373   7.141   6.712  1.00 20.00    -0.255 OA
HETATM    7  F4  UNL     1     -34.075   4.992   6.909  1.00 20.00    -0.160 F 
ENDBRANCH   1   5
TORSDOF 1
ENDMDL
MODEL 9
REMARK VINA RESULT:      -3.8      2.329      2.750
REMARK  1 active torsions:
REMARK  status: ('A' for Active; 'I' for Inactive)
REMARK    1  A    between atoms: C1_1  and  C2_2 
ROOT
HETATM    1  C2  UNL     1     -34.324   5.893   4.652  1.00 20.00     0.281 C 
HETATM    2 CL5  UNL     1     -33.201   7.017   3.867  1.00 20.00    -0.073 Cl
HETATM    3 CL6  UNL     1     -33.868   4.214   4.317  1.00 20.00    -0.073 Cl
HETATM    4 CL7  UNL     1     -35.983   6.213   4.118  1.00 20.00    -0.073 Cl
ENDROOT
BRANCH   1   5
HETATM    5  C1  UNL     1     -34.244   6.082   6.141  1.00 20.00     0.352 C 
HETATM    6  O3  UNL     1     -34.368   7.146   6.731  1.00 20.00    -0.255 OA
HETATM    7  F4  UNL     1     -34.099   4.992   6.912  1.00 20.00    -0.160 F 
ENDBRANCH   1   5
TORSDOF 1
ENDMDL
