MODEL 1
REMARK VINA RESULT:      -2.9      0.000      0.000
REMARK  0 active torsions:
REMARK  status: ('A' for Active; 'I' for Inactive)
ROOT
HETATM    1  C1  UNL     1     -33.216   7.513   4.262  1.00 20.00     0.177 C 
HETATM    2  C2  UNL     1     -34.081   7.230   6.452  1.00 20.00     0.177 C 
HETATM    3  C3  UNL     1     -33.443   6.085   3.792  1.00 20.00     0.100 C 
HETATM    4  C4  UNL     1     -34.440   5.758   6.314  1.00 20.00     0.100 C 
HETATM    5  O5  UNL     1     -32.942   7.569   5.662  1.00 20.00    -0.390 OA
HETATM    6  S6  UNL     1     -34.906   5.376   4.601  1.00 20.00    -0.165 SA
ENDROOT
TORSDOF 0
ENDMDL
MODEL 2
REMARK VINA RESULT:      -2.9      1.324      2.190
REMARK  0 active torsions:
REMARK  status: ('A' for Active; 'I' for Inactive)
ROOT
HETATM    1  C1  UNL     1     -34.553   5.429   6.230  1.00 20.00     0.177 C 
HETATM    2  C2  UNL     1     -33.325   7.437   5.936  1.00 20.00     0.177 C 
HETATM    3  C3  UNL     1     -34.873   5.198   4.761  1.00 20.00     0.100 C 
HETATM    4  C4  UNL     1     -33.459   7.510   4.423  1.00 20.00     0.100 C 
HETATM    5  O5  UNL     1     -34.463   6.821   6.535  1.00 20.00    -0.390 OA
HETATM    6  S6  UNL     1     -33.539   5.841   3.711  1.00 20.00    -0.165 SA
ENDROOT
TORSDOF 0
ENDMDL
MODEL 3
REMARK VINA RESULT:      -2.9      1.829      2.990
REMARK  0 active torsions:
REMARK  status: ('A' for Active; 'I' for Inactive)
ROOT
HETATM    1  C1  UNL     1     -34.816   5.634   6.175  1.00 20.00     0.177 C 
HETATM    2  C2  UNL     1     -34.265   5.187   3.912  1.00 20.00     0.177 C 
HETATM    3  C3  UNL     1     -33.817   6.761   6.384  1.00 20.00     0.100 C 
HETATM    4  C4  UNL     1     -33.182   6.247   3.778  1.00 20.00     0.100 C 
HETATM    5  O5  UNL     1     -34.332   4.670   5.240  1.00 20.00    -0.390 OA
HETATM    6  S6  UNL     1     -33.557   7.674   4.837  1.00 20.00    -0.165 SA
ENDROOT
TORSDOF 0
ENDMDL
MODEL 4
REMARK VINA RESULT:      -2.9      1.306      2.179
REMARK  0 active torsions:
REMARK  status: ('A' for Active; 'I' for Inactive)
ROOT
HETATM    1  C1  UNL     1     -33.063   7.597   5.367  1.00 20.00     0.177 C 
HETATM    2  C2  UNL     1     -33.559   5.912   3.772  1.00 20.00     0.177 C 
HETATM    3  C3  UNL     1     -34.163   7.240   6.354  1.00 20.00     0.100 C 
HETATM    4  C4  UNL     1     -34.734   5.299   4.518  1.00 20.00     0.100 C 
HETATM    5  O5  UNL     1     -33.451   7.313   4.022  1.00 20.00    -0.390 OA
HETATM    6  S6  UNL     1     -34.499   5.456   6.312  1.00 20.00    -0.165 SA
ENDROOT
TORSDOF 0
ENDMDL
MODEL 5
REMARK VINA RESULT:      -2.8      1.876      2.261
REMARK  0 active torsions:
REMARK  status: ('A' for Active; 'I' for Inactive)
ROOT
HETATM    1  C1  UNL     1     -32.875   6.664   3.731  1.00 20.00     0.177 C 
HETATM    2  C2  UNL     1     -34.103   4.785   4.497  1.00 20.00     0.177 C 
HETATM    3  C3  UNL     1     -33.510   7.685   4.662  1.00 20.00     0.100 C 
HETATM    4  C4  UNL     1     -34.924   5.522   5.545  1.00 20.00     0.100 C 
HETATM    5  O5  UNL     1     -33.792   5.625   3.387  1.00 20.00    -0.390 OA
HETATM    6  S6  UNL     1     -33.975   6.908   6.235  1.00 20.00    -0.165 SA
ENDROOT
TORSDOF 0
ENDMDL
MODEL 6
REMARK VINA RESULT:      -2.7      1.899      2.289
REMARK  0 active torsions:
REMARK  status: ('A' for Active; 'I' for Inactive)
ROOT
HETATM    1  C1  UNL     1     -33.960   4.908   4.166  1.00 20.00     0.177 C 
HETATM    2  C2  UNL     1     -34.389   5.362   6.454  1.00 20.00     0.177 C 
HETATM    3  C3  UNL     1     -33.842   6.356   3.715  1.00 20.00     0.100 C 
HETATM    4  C4  UNL     1     -34.336   6.878   6.350  1.00 20.00     0.100 C 
HETATM    5  O5  UNL     1     -34.876   4.769   5.251  1.00 20.00    -0.390 OA
HETATM    6  S6  UNL     1     -33.172   7.385   5.052  1.00 20.00    -0.165 SA
ENDROOT
TORSDOF 0
ENDMDL
MODEL 7
REMARK VINA RESULT:      -2.6     16.228     16.678
REMARK  0 active torsions:
REMARK  status: ('A' for Active; 'I' for Inactive)
ROOT
HETATM    1  C1  UNL     1     -22.824  17.416   9.859  1.00 20.00     0.177 C 
HETATM    2  C2  UNL     1     -24.615  17.284  11.407  1.00 20.00     0.177 C 
HETATM    3  C3  UNL     1     -22.086  18.561  10.535  1.00 20.00     0.100 C 
HETATM    4  C4  UNL     1     -24.149  18.409  12.318  1.00 20.00     0.100 C 
HETATM    5  O5  UNL     1     -24.235  17.514  10.052  1.00 20.00    -0.390 OA
HETATM    6  S6  UNL     1     -22.335  18.504  12.332  1.00 20.00    -0.165 SA
ENDROOT
TORSDOF 0
ENDMDL
MODEL 8
REMARK VINA RESULT:      -2.6     16.451     16.931
REMARK  0 active torsions:
REMARK  status: ('A' for Active; 'I' for Inactive)
ROOT
HETATM    1  C1  UNL     1     -24.630  18.023  11.601  1.00 20.00     0.177 C 
HETATM    2  C2  UNL     1     -22.372  18.362  12.245  1.00 20.00     0.177 C 
HETATM    3  C3  UNL     1     -24.408  18.138  10.101  1.00 20.00     0.100 C 
HETATM    4  C4  UNL     1     -21.808  18.527  10.842  1.00 20.00     0.100 C 
HETATM    5  O5  UNL     1     -23.714  18.839  12.331  1.00 20.00    -0.390 OA
HETATM    6  S6  UNL     1     -22.756  17.531   9.655  1.00 20.00    -0.165 SA
ENDROOT
TORSDOF 0
ENDMDL
MODEL 9
REMARK VINA RESULT:      -2.5      9.537      9.863
REMARK  0 active torsions:
REMARK  status: ('A' for Active; 'I' for Inactive)
ROOT
HETATM    1  C1  UNL     1     -41.039   8.104  -0.047  1.00 20.00     0.177 C 
HETATM    2  C2  UNL     1     -40.890   5.756  -0.349  1.00 20.00     0.177 C 
HETATM    3  C3  UNL     1     -42.516   8.235  -0.385  1.00 20.00     0.100 C 
HETATM    4  C4  UNL     1     -42.344   5.532  -0.732  1.00 20.00     0.100 C 
HETATM    5  O5  UNL     1     -40.427   7.038  -0.772  1.00 20.00    -0.390 OA
HETATM    6  S6  UNL     1     -43.415   6.736   0.106  1.00 20.00    -0.165 SA
ENDROOT
TORSDOF 0
ENDMDL
