MODEL 1
REMARK VINA RESULT:      -5.0      0.000      0.000
REMARK  1 active torsions:
REMARK  status: ('A' for Active; 'I' for Inactive)
REMARK    1  A    between atoms: C3_3  and  C8_8 
ROOT
HETATM    1  C1  UNL     1     -33.684   4.567   5.315  1.00 20.00    -0.026 C 
HETATM    2  C2  UNL     1     -33.572   4.980   4.043  1.00 20.00    -0.025 C 
HETATM    3  C4  UNL     1     -35.667   5.622   4.769  1.00 20.00     0.017 C 
HETATM    4  C5  UNL     1     -34.152   6.849   6.136  1.00 20.00     0.021 C 
HETATM    5  C6  UNL     1     -34.736   5.428   5.970  1.00 20.00     0.009 C 
HETATM    6  C7  UNL     1     -34.543   6.125   3.855  1.00 20.00     0.019 C 
HETATM    7  C8  UNL     1     -34.055   7.350   4.665  1.00 20.00     0.063 C 
ENDROOT
BRANCH   7   8
HETATM    8  C3  UNL     1     -32.678   7.804   4.289  1.00 20.00     0.128 C 
HETATM    9  C9  UNL     1     -32.216   7.478   2.894  1.00 20.00     0.091 C 
HETATM   10  O10 UNL     1     -31.961   8.415   5.080  1.00 20.00    -0.298 OA
ENDBRANCH   7   8
TORSDOF 1
ENDMDL
MODEL 2
REMARK VINA RESULT:      -4.3      9.592     10.401
REMARK  1 active torsions:
REMARK  status: ('A' for Active; 'I' for Inactive)
REMARK    1  A    between atoms: C3_3  and  C8_8 
ROOT
HETATM    1  C1  UNL     1     -42.593  13.045   7.962  1.00 20.00    -0.026 C 
HETATM    2  C2  UNL     1     -42.537  12.489   6.742  1.00 20.00    -0.025 C 
HETATM    3  C4  UNL     1     -42.499  14.777   6.434  1.00 20.00     0.017 C 
HETATM    4  C5  UNL     1     -40.490  14.293   7.617  1.00 20.00     0.021 C 
HETATM    5  C6  UNL     1     -42.012  14.433   7.846  1.00 20.00     0.009 C 
HETATM    6  C7  UNL     1     -41.906  13.505   5.815  1.00 20.00     0.019 C 
HETATM    7  C8  UNL     1     -40.415  13.684   6.187  1.00 20.00     0.063 C 
ENDROOT
BRANCH   7   8
HETATM    8  C3  UNL     1     -39.630  12.410   6.131  1.00 20.00     0.128 C 
HETATM    9  C9  UNL     1     -39.506  11.750   4.785  1.00 20.00     0.091 C 
HETATM   10  O10 UNL     1     -39.109  11.929   7.137  1.00 20.00    -0.298 OA
ENDBRANCH   7   8
TORSDOF 1
ENDMDL
MODEL 3
REMARK VINA RESULT:      -4.2      1.396      3.469
REMARK  1 active torsions:
REMARK  status: ('A' for Active; 'I' for Inactive)
REMARK    1  A    between atoms: C3_3  and  C8_8 
ROOT
HETATM    1  C1  UNL     1     -31.455   7.858   4.156  1.00 20.00    -0.026 C 
HETATM    2  C2  UNL     1     -32.292   8.534   4.956  1.00 20.00    -0.025 C 
HETATM    3  C4  UNL     1     -33.234   8.544   2.849  1.00 20.00     0.017 C 
HETATM    4  C5  UNL     1     -33.207   6.251   3.487  1.00 20.00     0.021 C 
HETATM    5  C6  UNL     1     -32.264   7.365   2.980  1.00 20.00     0.009 C 
HETATM    6  C7  UNL     1     -33.664   8.481   4.319  1.00 20.00     0.019 C 
HETATM    7  C8  UNL     1     -34.207   7.034   4.387  1.00 20.00     0.063 C 
ENDROOT
BRANCH   7   8
HETATM    8  C3  UNL     1     -34.289   6.493   5.781  1.00 20.00     0.128 C 
HETATM    9  C9  UNL     1     -34.336   4.997   5.926  1.00 20.00     0.091 C 
HETATM   10  O10 UNL     1     -34.313   7.237   6.761  1.00 20.00    -0.298 OA
ENDBRANCH   7   8
TORSDOF 1
ENDMDL
MODEL 4
REMARK VINA RESULT:      -4.1     15.436     16.756
REMARK  1 active torsions:
REMARK  status: ('A' for Active; 'I' for Inactive)
REMARK    1  A    between atoms: C3_3  and  C8_8 
ROOT
HETATM    1  C1  UNL     1     -23.772  16.684  11.756  1.00 20.00    -0.026 C 
HETATM    2  C2  UNL     1     -24.519  17.017  10.693  1.00 20.00    -0.025 C 
HETATM    3  C4  UNL     1     -24.410  18.887  12.042  1.00 20.00     0.017 C 
HETATM    4  C5  UNL     1     -22.164  18.513  11.346  1.00 20.00     0.021 C 
HETATM    5  C6  UNL     1     -23.221  17.966  12.332  1.00 20.00     0.009 C 
HETATM    6  C7  UNL     1     -24.455  18.523  10.553  1.00 20.00     0.019 C 
HETATM    7  C8  UNL     1     -23.028  18.939  10.123  1.00 20.00     0.063 C 
ENDROOT
BRANCH   7   8
HETATM    8  C3  UNL     1     -22.584  18.305   8.841  1.00 20.00     0.128 C 
HETATM    9  C9  UNL     1     -21.385  17.400   8.914  1.00 20.00     0.091 C 
HETATM   10  O10 UNL     1     -23.173  18.512   7.781  1.00 20.00    -0.298 OA
ENDBRANCH   7   8
TORSDOF 1
ENDMDL
MODEL 5
REMARK VINA RESULT:      -4.0     15.642     16.919
REMARK  1 active torsions:
REMARK  status: ('A' for Active; 'I' for Inactive)
REMARK    1  A    between atoms: C3_3  and  C8_8 
ROOT
HETATM    1  C1  UNL     1     -23.258  19.254   8.903  1.00 20.00    -0.026 C 
HETATM    2  C2  UNL     1     -24.129  18.243   9.049  1.00 20.00    -0.025 C 
HETATM    3  C4  UNL     1     -22.017  17.344   9.299  1.00 20.00     0.017 C 
HETATM    4  C5  UNL     1     -22.249  18.857  11.122  1.00 20.00     0.021 C 
HETATM    5  C6  UNL     1     -21.983  18.846   9.600  1.00 20.00     0.009 C 
HETATM    6  C7  UNL     1     -23.436  17.166   9.854  1.00 20.00     0.019 C 
HETATM    7  C8  UNL     1     -23.229  17.661  11.305  1.00 20.00     0.063 C 
ENDROOT
BRANCH   7   8
HETATM    8  C3  UNL     1     -24.504  18.047  11.990  1.00 20.00     0.128 C 
HETATM    9  C9  UNL     1     -25.453  16.930  12.332  1.00 20.00     0.091 C 
HETATM   10  O10 UNL     1     -24.760  19.219  12.264  1.00 20.00    -0.298 OA
ENDBRANCH   7   8
TORSDOF 1
ENDMDL
MODEL 6
REMARK VINA RESULT:      -3.9      1.247      2.190
REMARK  1 active torsions:
REMARK  status: ('A' for Active; 'I' for Inactive)
REMARK    1  A    between atoms: C3_3  and  C8_8 
ROOT
HETATM    1  C1  UNL     1     -35.669   6.049   4.284  1.00 20.00    -0.026 C 
HETATM    2  C2  UNL     1     -35.207   7.152   4.892  1.00 20.00    -0.025 C 
HETATM    3  C4  UNL     1     -34.377   5.348   6.068  1.00 20.00     0.017 C 
HETATM    4  C5  UNL     1     -33.393   5.166   3.907  1.00 20.00     0.021 C 
HETATM    5  C6  UNL     1     -34.731   4.920   4.640  1.00 20.00     0.009 C 
HETATM    6  C7  UNL     1     -33.955   6.760   5.645  1.00 20.00     0.019 C 
HETATM    7  C8  UNL     1     -32.832   6.423   4.634  1.00 20.00     0.063 C 
ENDROOT
BRANCH   7   8
HETATM    8  C3  UNL     1     -32.514   7.548   3.700  1.00 20.00     0.128 C 
HETATM    9  C9  UNL     1     -32.362   8.914   4.312  1.00 20.00     0.091 C 
HETATM   10  O10 UNL     1     -32.381   7.365   2.490  1.00 20.00    -0.298 OA
ENDBRANCH   7   8
TORSDOF 1
ENDMDL
MODEL 7
REMARK VINA RESULT:      -3.9      9.554     10.486
REMARK  1 active torsions:
REMARK  status: ('A' for Active; 'I' for Inactive)
REMARK    1  A    between atoms: C3_3  and  C8_8 
ROOT
HETATM    1  C1  UNL     1     -40.880  15.364   6.875  1.00 20.00    -0.026 C 
HETATM    2  C2  UNL     1     -40.583  14.381   7.738  1.00 20.00    -0.025 C 
HETATM    3  C4  UNL     1     -42.778  14.062   7.096  1.00 20.00     0.017 C 
HETATM    4  C5  UNL     1     -41.515  13.770   5.099  1.00 20.00     0.021 C 
HETATM    5  C6  UNL     1     -42.038  14.883   6.035  1.00 20.00     0.009 C 
HETATM    6  C7  UNL     1     -41.538  13.239   7.464  1.00 20.00     0.019 C 
HETATM    7  C8  UNL     1     -41.205  12.610   6.089  1.00 20.00     0.063 C 
ENDROOT
BRANCH   7   8
HETATM    8  C3  UNL     1     -39.797  12.112   5.987  1.00 20.00     0.128 C 
HETATM    9  C9  UNL     1     -39.243  11.925   4.601  1.00 20.00     0.091 C 
HETATM   10  O10 UNL     1     -39.123  11.871   6.989  1.00 20.00    -0.298 OA
ENDBRANCH   7   8
TORSDOF 1
ENDMDL
MODEL 8
REMARK VINA RESULT:      -3.9      1.833      2.944
REMARK  1 active torsions:
REMARK  status: ('A' for Active; 'I' for Inactive)
REMARK    1  A    between atoms: C3_3  and  C8_8 
ROOT
HETATM    1  C1  UNL     1     -33.118   7.134   6.418  1.00 20.00    -0.026 C 
HETATM    2  C2  UNL     1     -34.227   6.405   6.219  1.00 20.00    -0.025 C 
HETATM    3  C4  UNL     1     -34.520   8.388   5.074  1.00 20.00     0.017 C 
HETATM    4  C5  UNL     1     -32.677   7.335   3.996  1.00 20.00     0.021 C 
HETATM    5  C6  UNL     1     -33.026   8.121   5.280  1.00 20.00     0.009 C 
HETATM    6  C7  UNL     1     -34.867   6.900   4.941  1.00 20.00     0.019 C 
HETATM    7  C8  UNL     1     -33.975   6.515   3.737  1.00 20.00     0.063 C 
ENDROOT
BRANCH   7   8
HETATM    8  C3  UNL     1     -33.726   5.042   3.626  1.00 20.00     0.128 C 
HETATM    9  C9  UNL     1     -32.762   4.596   2.561  1.00 20.00     0.091 C 
HETATM   10  O10 UNL     1     -34.282   4.237   4.373  1.00 20.00    -0.298 OA
ENDBRANCH   7   8
TORSDOF 1
ENDMDL
MODEL 9
REMARK VINA RESULT:      -3.9     12.484     14.053
REMARK  1 active torsions:
REMARK  status: ('A' for Active; 'I' for Inactive)
REMARK    1  A    between atoms: C3_3  and  C8_8 
ROOT
HETATM    1  C1  UNL     1     -36.905  16.545  -5.568  1.00 20.00    -0.026 C 
HETATM    2  C2  UNL     1     -36.776  15.226  -5.357  1.00 20.00    -0.025 C 
HETATM    3  C4  UNL     1     -35.950  15.645  -7.471  1.00 20.00     0.017 C 
HETATM    4  C5  UNL     1     -34.491  16.827  -6.007  1.00 20.00     0.021 C 
HETATM    5  C6  UNL     1     -35.902  16.925  -6.630  1.00 20.00     0.009 C 
HETATM    6  C7  UNL     1     -35.677  14.730  -6.271  1.00 20.00     0.019 C 
HETATM    7  C8  UNL     1     -34.318  15.295  -5.795  1.00 20.00     0.063 C 
ENDROOT
BRANCH   7   8
HETATM    8  C3  UNL     1     -33.984  14.932  -4.381  1.00 20.00     0.128 C 
HETATM    9  C9  UNL     1     -33.471  16.039  -3.501  1.00 20.00     0.091 C 
HETATM   10  O10 UNL     1     -34.127  13.785  -3.958  1.00 20.00    -0.298 OA
ENDBRANCH   7   8
TORSDOF 1
ENDMDL
