MODEL 1
REMARK VINA RESULT:      -4.8      0.000      0.000
REMARK  0 active torsions:
REMARK  status: ('A' for Active; 'I' for Inactive)
ROOT
HETATM    1  C1  UNL     1     -32.599   8.555   3.620  1.00 20.00     0.008 C 
HETATM    2  C2  UNL     1     -33.024   8.275   4.969  1.00 20.00     0.028 C 
HETATM    3  C3  UNL     1     -32.610   6.247   2.713  1.00 20.00     0.034 C 
HETATM    4  C4  UNL     1     -32.413   7.681   2.618  1.00 20.00    -0.060 C 
HETATM    5  C5  UNL     1     -33.813   7.278   5.386  1.00 20.00     0.085 C 
HETATM    6  C6  UNL     1     -33.459   5.583   3.509  1.00 20.00     0.086 C 
HETATM    7  C7  UNL     1     -34.349   6.177   4.542  1.00 20.00     0.215 C 
HETATM    8  C8  UNL     1     -31.926   8.155   1.273  1.00 20.00     0.048 C 
HETATM    9  O9  UNL     1     -35.463   5.706   4.759  1.00 20.00    -0.285 OA
HETATM   10 CL10 UNL     1     -34.308   7.229   7.049  1.00 20.00    -0.080 Cl
HETATM   11 CL11 UNL     1     -33.598   3.859   3.344  1.00 20.00    -0.080 Cl
ENDROOT
TORSDOF 0
ENDMDL
MODEL 2
REMARK VINA RESULT:      -4.2      2.339      3.553
REMARK  0 active torsions:
REMARK  status: ('A' for Active; 'I' for Inactive)
ROOT
HETATM    1  C1  UNL     1     -34.161   7.301   6.041  1.00 20.00     0.008 C 
HETATM    2  C2  UNL     1     -33.793   8.371   5.148  1.00 20.00     0.028 C 
HETATM    3  C3  UNL     1     -34.181   5.423   4.422  1.00 20.00     0.034 C 
HETATM    4  C4  UNL     1     -34.335   6.004   5.743  1.00 20.00    -0.060 C 
HETATM    5  C5  UNL     1     -33.046   8.291   4.040  1.00 20.00     0.085 C 
HETATM    6  C6  UNL     1     -33.380   5.833   3.430  1.00 20.00     0.086 C 
HETATM    7  C7  UNL     1     -32.511   7.041   3.438  1.00 20.00     0.215 C 
HETATM    8  C8  UNL     1     -34.761   5.027   6.807  1.00 20.00     0.048 C 
HETATM    9  O9  UNL     1     -31.419   7.033   2.874  1.00 20.00    -0.285 OA
HETATM   10 CL10 UNL     1     -32.613   9.747   3.202  1.00 20.00    -0.080 Cl
HETATM   11 CL11 UNL     1     -33.283   4.885   1.977  1.00 20.00    -0.080 Cl
ENDROOT
TORSDOF 0
ENDMDL
MODEL 3
REMARK VINA RESULT:      -4.1     12.126     13.302
REMARK  0 active torsions:
REMARK  status: ('A' for Active; 'I' for Inactive)
ROOT
HETATM    1  C1  UNL     1     -34.385  18.708  -2.303  1.00 20.00     0.008 C 
HETATM    2  C2  UNL     1     -35.518  18.561  -3.182  1.00 20.00     0.028 C 
HETATM    3  C3  UNL     1     -33.327  16.492  -2.646  1.00 20.00     0.034 C 
HETATM    4  C4  UNL     1     -33.415  17.815  -2.056  1.00 20.00    -0.060 C 
HETATM    5  C5  UNL     1     -35.598  17.825  -4.297  1.00 20.00     0.085 C 
HETATM    6  C6  UNL     1     -33.776  16.093  -3.844  1.00 20.00     0.086 C 
HETATM    7  C7  UNL     1     -34.543  16.914  -4.818  1.00 20.00     0.215 C 
HETATM    8  C8  UNL     1     -32.320  18.131  -1.070  1.00 20.00     0.048 C 
HETATM    9  O9  UNL     1     -34.379  16.772  -6.027  1.00 20.00    -0.285 OA
HETATM   10 CL10 UNL     1     -37.028  17.919  -5.275  1.00 20.00    -0.080 Cl
HETATM   11 CL11 UNL     1     -33.434  14.475  -4.377  1.00 20.00    -0.080 Cl
ENDROOT
TORSDOF 0
ENDMDL
MODEL 4
REMARK VINA RESULT:      -3.9     12.414     13.573
REMARK  0 active torsions:
REMARK  status: ('A' for Active; 'I' for Inactive)
ROOT
HETATM    1  C1  UNL     1     -33.295  16.294  -2.762  1.00 20.00     0.008 C 
HETATM    2  C2  UNL     1     -33.278  15.801  -4.117  1.00 20.00     0.028 C 
HETATM    3  C3  UNL     1     -34.727  18.292  -3.084  1.00 20.00     0.034 C 
HETATM    4  C4  UNL     1     -33.924  17.382  -2.290  1.00 20.00    -0.060 C 
HETATM    5  C5  UNL     1     -34.232  15.933  -5.046  1.00 20.00     0.085 C 
HETATM    6  C6  UNL     1     -35.434  18.018  -4.189  1.00 20.00     0.086 C 
HETATM    7  C7  UNL     1     -35.490  16.712  -4.900  1.00 20.00     0.215 C 
HETATM    8  C8  UNL     1     -33.797  17.766  -0.839  1.00 20.00     0.048 C 
HETATM    9  O9  UNL     1     -36.528  16.334  -5.437  1.00 20.00    -0.285 OA
HETATM   10 CL10 UNL     1     -34.048  15.126  -6.570  1.00 20.00    -0.080 Cl
HETATM   11 CL11 UNL     1     -36.423  19.263  -4.889  1.00 20.00    -0.080 Cl
ENDROOT
TORSDOF 0
ENDMDL
MODEL 5
REMARK VINA RESULT:      -3.9     12.245     13.201
REMARK  0 active torsions:
REMARK  status: ('A' for Active; 'I' for Inactive)
ROOT
HETATM    1  C1  UNL     1     -33.852  19.194  -1.021  1.00 20.00     0.008 C 
HETATM    2  C2  UNL     1     -35.165  19.136  -1.613  1.00 20.00     0.028 C 
HETATM    3  C3  UNL     1     -32.918  17.080  -1.919  1.00 20.00     0.034 C 
HETATM    4  C4  UNL     1     -32.854  18.305  -1.144  1.00 20.00    -0.060 C 
HETATM    5  C5  UNL     1     -35.516  18.559  -2.768  1.00 20.00     0.085 C 
HETATM    6  C6  UNL     1     -33.647  16.837  -3.017  1.00 20.00     0.086 C 
HETATM    7  C7  UNL     1     -34.624  17.761  -3.651  1.00 20.00     0.215 C 
HETATM    8  C8  UNL     1     -31.552  18.514  -0.416  1.00 20.00     0.048 C 
HETATM    9  O9  UNL     1     -34.759  17.792  -4.872  1.00 20.00    -0.285 OA
HETATM   10 CL10 UNL     1     -37.140  18.745  -3.350  1.00 20.00    -0.080 Cl
HETATM   11 CL11 UNL     1     -33.451  15.319  -3.840  1.00 20.00    -0.080 Cl
ENDROOT
TORSDOF 0
ENDMDL
MODEL 6
REMARK VINA RESULT:      -3.8      1.759      2.696
REMARK  0 active torsions:
REMARK  status: ('A' for Active; 'I' for Inactive)
ROOT
HETATM    1  C1  UNL     1     -32.286   6.576   2.466  1.00 20.00     0.008 C 
HETATM    2  C2  UNL     1     -31.868   7.644   3.340  1.00 20.00     0.028 C 
HETATM    3  C3  UNL     1     -33.619   5.244   4.077  1.00 20.00     0.034 C 
HETATM    4  C4  UNL     1     -33.053   5.517   2.770  1.00 20.00    -0.060 C 
HETATM    5  C5  UNL     1     -32.518   8.132   4.403  1.00 20.00     0.085 C 
HETATM    6  C6  UNL     1     -33.971   6.125   5.023  1.00 20.00     0.086 C 
HETATM    7  C7  UNL     1     -33.787   7.600   4.970  1.00 20.00     0.215 C 
HETATM    8  C8  UNL     1     -33.358   4.473   1.728  1.00 20.00     0.048 C 
HETATM    9  O9  UNL     1     -34.616   8.356   5.470  1.00 20.00    -0.285 OA
HETATM   10 CL10 UNL     1     -31.883   9.525   5.220  1.00 20.00    -0.080 Cl
HETATM   11 CL11 UNL     1     -34.750   5.548   6.465  1.00 20.00    -0.080 Cl
ENDROOT
TORSDOF 0
ENDMDL
MODEL 7
REMARK VINA RESULT:      -3.7      2.453      4.451
REMARK  0 active torsions:
REMARK  status: ('A' for Active; 'I' for Inactive)
ROOT
HETATM    1  C1  UNL     1     -33.816   5.578   3.825  1.00 20.00     0.008 C 
HETATM    2  C2  UNL     1     -32.976   5.990   2.728  1.00 20.00     0.028 C 
HETATM    3  C3  UNL     1     -33.197   7.322   5.476  1.00 20.00     0.034 C 
HETATM    4  C4  UNL     1     -33.928   6.148   5.035  1.00 20.00    -0.060 C 
HETATM    5  C5  UNL     1     -32.565   7.229   2.435  1.00 20.00     0.085 C 
HETATM    6  C6  UNL     1     -32.740   8.336   4.730  1.00 20.00     0.086 C 
HETATM    7  C7  UNL     1     -32.818   8.448   3.249  1.00 20.00     0.215 C 
HETATM    8  C8  UNL     1     -34.837   5.552   6.078  1.00 20.00     0.048 C 
HETATM    9  O9  UNL     1     -32.989   9.539   2.709  1.00 20.00    -0.285 OA
HETATM   10 CL10 UNL     1     -31.672   7.502   0.972  1.00 20.00    -0.080 Cl
HETATM   11 CL11 UNL     1     -32.000   9.696   5.518  1.00 20.00    -0.080 Cl
ENDROOT
TORSDOF 0
ENDMDL
MODEL 8
REMARK VINA RESULT:      -3.6     12.275     13.605
REMARK  0 active torsions:
REMARK  status: ('A' for Active; 'I' for Inactive)
ROOT
HETATM    1  C1  UNL     1     -34.131  15.099  -4.787  1.00 20.00     0.008 C 
HETATM    2  C2  UNL     1     -33.597  15.657  -3.569  1.00 20.00     0.028 C 
HETATM    3  C3  UNL     1     -35.926  16.753  -5.225  1.00 20.00     0.034 C 
HETATM    4  C4  UNL     1     -35.150  15.564  -5.527  1.00 20.00    -0.060 C 
HETATM    5  C5  UNL     1     -33.578  16.942  -3.198  1.00 20.00     0.085 C 
HETATM    6  C6  UNL     1     -35.529  17.853  -4.573  1.00 20.00     0.086 C 
HETATM    7  C7  UNL     1     -34.202  18.073  -3.937  1.00 20.00     0.215 C 
HETATM    8  C8  UNL     1     -35.598  14.823  -6.759  1.00 20.00     0.048 C 
HETATM    9  O9  UNL     1     -33.681  19.185  -3.938  1.00 20.00    -0.285 OA
HETATM   10 CL10 UNL     1     -32.746  17.394  -1.745  1.00 20.00    -0.080 Cl
HETATM   11 CL11 UNL     1     -36.618  19.201  -4.450  1.00 20.00    -0.080 Cl
ENDROOT
TORSDOF 0
ENDMDL
MODEL 9
REMARK VINA RESULT:      -3.5     12.317     12.888
REMARK  0 active torsions:
REMARK  status: ('A' for Active; 'I' for Inactive)
ROOT
HETATM    1  C1  UNL     1     -30.642  18.810   1.082  1.00 20.00     0.008 C 
HETATM    2  C2  UNL     1     -31.079  18.880  -0.290  1.00 20.00     0.028 C 
HETATM    3  C3  UNL     1     -32.804  19.255   2.211  1.00 20.00     0.034 C 
HETATM    4  C4  UNL     1     -31.382  18.971   2.190  1.00 20.00    -0.060 C 
HETATM    5  C5  UNL     1     -32.288  18.580  -0.778  1.00 20.00     0.085 C 
HETATM    6  C6  UNL     1     -33.728  18.904   1.306  1.00 20.00     0.086 C 
HETATM    7  C7  UNL     1     -33.482  18.196   0.021  1.00 20.00     0.215 C 
HETATM    8  C8  UNL     1     -30.741  18.899   3.552  1.00 20.00     0.048 C 
HETATM    9  O9  UNL     1     -34.295  17.384  -0.415  1.00 20.00    -0.285 OA
HETATM   10 CL10 UNL     1     -32.538  18.603  -2.495  1.00 20.00    -0.080 Cl
HETATM   11 CL11 UNL     1     -35.399  19.259   1.624  1.00 20.00    -0.080 Cl
ENDROOT
TORSDOF 0
ENDMDL
