MODEL 1
REMARK VINA RESULT:      -4.4      0.000      0.000
REMARK  2 active torsions:
REMARK  status: ('A' for Active; 'I' for Inactive)
REMARK    1  A    between atoms: C1_1  and  O10_10 
REMARK    2  A    between atoms: C8_8  and  O10_10 
ROOT
HETATM    1  C2  UNL     1     -34.326   4.612   6.018  1.00 20.00     0.005 C 
HETATM    2  C3  UNL     1     -33.826   4.532   4.568  1.00 20.00     0.007 C 
HETATM    3  C4  UNL     1     -35.495   6.219   4.710  1.00 20.00     0.012 C 
HETATM    4  C5  UNL     1     -33.748   7.050   6.097  1.00 20.00     0.037 C 
HETATM    5  C6  UNL     1     -34.905   6.035   6.107  1.00 20.00    -0.012 C 
HETATM    6  C7  UNL     1     -34.167   5.923   4.008  1.00 20.00     0.015 C 
HETATM    7  C8  UNL     1     -33.226   6.958   4.654  1.00 20.00     0.135 C 
ENDROOT
BRANCH   7   8
HETATM    8  O10 UNL     1     -33.359   8.220   4.014  1.00 20.00    -0.323 OA
BRANCH   8   9
HETATM    9  C1  UNL     1     -32.454   8.483   3.031  1.00 20.00     0.398 C 
HETATM   10  O9  UNL     1     -32.077   7.725   2.151  1.00 20.00    -0.276 OA
ENDBRANCH   8   9
ENDBRANCH   7   8
TORSDOF 2
ENDMDL
MODEL 2
REMARK VINA RESULT:      -3.9      9.155     10.313
REMARK  2 active torsions:
REMARK  status: ('A' for Active; 'I' for Inactive)
REMARK    1  A    between atoms: C1_1  and  O10_10 
REMARK    2  A    between atoms: C8_8  and  O10_10 
ROOT
HETATM    1  C2  UNL     1     -40.969   7.490   1.258  1.00 20.00     0.005 C 
HETATM    2  C3  UNL     1     -42.469   7.271   1.507  1.00 20.00     0.007 C 
HETATM    3  C4  UNL     1     -42.145   7.817  -0.785  1.00 20.00     0.012 C 
HETATM    4  C5  UNL     1     -40.998   5.745  -0.542  1.00 20.00     0.037 C 
HETATM    5  C6  UNL     1     -40.829   7.249  -0.255  1.00 20.00    -0.012 C 
HETATM    6  C7  UNL     1     -43.002   6.917   0.109  1.00 20.00     0.015 C 
HETATM    7  C8  UNL     1     -42.493   5.513  -0.271  1.00 20.00     0.135 C 
ENDROOT
BRANCH   7   8
HETATM    8  O10 UNL     1     -43.130   5.056  -1.456  1.00 20.00    -0.323 OA
BRANCH   8   9
HETATM    9  C1  UNL     1     -42.396   4.213  -2.235  1.00 20.00     0.398 C 
HETATM   10  O9  UNL     1     -42.674   3.811  -3.354  1.00 20.00    -0.276 OA
ENDBRANCH   8   9
ENDBRANCH   7   8
TORSDOF 2
ENDMDL
MODEL 3
REMARK VINA RESULT:      -3.6     15.759     17.066
REMARK  2 active torsions:
REMARK  status: ('A' for Active; 'I' for Inactive)
REMARK    1  A    between atoms: C1_1  and  O10_10 
REMARK    2  A    between atoms: C8_8  and  O10_10 
ROOT
HETATM    1  C2  UNL     1     -21.910  19.263   8.641  1.00 20.00     0.005 C 
HETATM    2  C3  UNL     1     -23.444  19.212   8.705  1.00 20.00     0.007 C 
HETATM    3  C4  UNL     1     -22.582  17.072   9.282  1.00 20.00     0.012 C 
HETATM    4  C5  UNL     1     -21.771  18.483  11.020  1.00 20.00     0.037 C 
HETATM    5  C6  UNL     1     -21.486  18.101   9.556  1.00 20.00    -0.012 C 
HETATM    6  C7  UNL     1     -23.710  18.037   9.659  1.00 20.00     0.015 C 
HETATM    7  C8  UNL     1     -23.307  18.459  11.085  1.00 20.00     0.135 C 
ENDROOT
BRANCH   7   8
HETATM    8  O10 UNL     1     -23.731  17.487  12.031  1.00 20.00    -0.323 OA
BRANCH   8   9
HETATM    9  C1  UNL     1     -25.050  17.150  11.982  1.00 20.00     0.398 C 
HETATM   10  O9  UNL     1     -26.004  17.854  12.277  1.00 20.00    -0.276 OA
ENDBRANCH   8   9
ENDBRANCH   7   8
TORSDOF 2
ENDMDL
MODEL 4
REMARK VINA RESULT:      -3.5     12.803     13.737
REMARK  2 active torsions:
REMARK  status: ('A' for Active; 'I' for Inactive)
REMARK    1  A    between atoms: C1_1  and  O10_10 
REMARK    2  A    between atoms: C8_8  and  O10_10 
ROOT
HETATM    1  C2  UNL     1     -34.043  17.912  -1.362  1.00 20.00     0.005 C 
HETATM    2  C3  UNL     1     -35.094  18.525  -2.300  1.00 20.00     0.007 C 
HETATM    3  C4  UNL     1     -32.986  18.533  -3.401  1.00 20.00     0.012 C 
HETATM    4  C5  UNL     1     -33.451  16.216  -3.111  1.00 20.00     0.037 C 
HETATM    5  C6  UNL     1     -32.944  17.443  -2.331  1.00 20.00    -0.012 C 
HETATM    6  C7  UNL     1     -34.474  18.320  -3.692  1.00 20.00     0.015 C 
HETATM    7  C8  UNL     1     -34.521  16.818  -4.035  1.00 20.00     0.135 C 
ENDROOT
BRANCH   7   8
HETATM    8  O10 UNL     1     -34.157  16.606  -5.392  1.00 20.00    -0.323 OA
BRANCH   8   9
HETATM    9  C1  UNL     1     -34.146  15.308  -5.806  1.00 20.00     0.398 C 
HETATM   10  O9  UNL     1     -34.143  14.899  -6.957  1.00 20.00    -0.276 OA
ENDBRANCH   8   9
ENDBRANCH   7   8
TORSDOF 2
ENDMDL
MODEL 5
REMARK VINA RESULT:      -3.5      9.759     10.771
REMARK  2 active torsions:
REMARK  status: ('A' for Active; 'I' for Inactive)
REMARK    1  A    between atoms: C1_1  and  O10_10 
REMARK    2  A    between atoms: C8_8  and  O10_10 
ROOT
HETATM    1  C2  UNL     1     -41.873  16.102   7.260  1.00 20.00     0.005 C 
HETATM    2  C3  UNL     1     -40.535  15.829   7.963  1.00 20.00     0.007 C 
HETATM    3  C4  UNL     1     -41.977  13.970   8.312  1.00 20.00     0.012 C 
HETATM    4  C5  UNL     1     -41.638  13.974   5.955  1.00 20.00     0.037 C 
HETATM    5  C6  UNL     1     -42.449  14.691   7.050  1.00 20.00    -0.012 C 
HETATM    6  C7  UNL     1     -40.502  14.294   8.057  1.00 20.00     0.015 C 
HETATM    7  C8  UNL     1     -40.288  13.719   6.644  1.00 20.00     0.135 C 
ENDROOT
BRANCH   7   8
HETATM    8  O10 UNL     1     -40.039  12.321   6.708  1.00 20.00    -0.323 OA
BRANCH   8   9
HETATM    9  C1  UNL     1     -39.325  11.799   5.672  1.00 20.00     0.398 C 
HETATM   10  O9  UNL     1     -38.237  12.173   5.261  1.00 20.00    -0.276 OA
ENDBRANCH   8   9
ENDBRANCH   7   8
TORSDOF 2
ENDMDL
MODEL 6
REMARK VINA RESULT:      -3.5      8.869     10.122
REMARK  2 active torsions:
REMARK  status: ('A' for Active; 'I' for Inactive)
REMARK    1  A    between atoms: C1_1  and  O10_10 
REMARK    2  A    between atoms: C8_8  and  O10_10 
ROOT
HETATM    1  C2  UNL     1     -40.852   8.157   0.417  1.00 20.00     0.005 C 
HETATM    2  C3  UNL     1     -41.829   8.092  -0.766  1.00 20.00     0.007 C 
HETATM    3  C4  UNL     1     -40.733   5.991  -0.562  1.00 20.00     0.012 C 
HETATM    4  C5  UNL     1     -41.967   6.172   1.466  1.00 20.00     0.037 C 
HETATM    5  C6  UNL     1     -40.674   6.678   0.802  1.00 20.00    -0.012 C 
HETATM    6  C7  UNL     1     -42.102   6.585  -0.905  1.00 20.00     0.015 C 
HETATM    7  C8  UNL     1     -42.958   6.127   0.291  1.00 20.00     0.135 C 
ENDROOT
BRANCH   7   8
HETATM    8  O10 UNL     1     -43.413   4.795   0.098  1.00 20.00    -0.323 OA
BRANCH   8   9
HETATM    9  C1  UNL     1     -43.304   3.970   1.177  1.00 20.00     0.398 C 
HETATM   10  O9  UNL     1     -43.417   2.754   1.191  1.00 20.00    -0.276 OA
ENDBRANCH   8   9
ENDBRANCH   7   8
TORSDOF 2
ENDMDL
MODEL 7
REMARK VINA RESULT:      -3.5     11.556     12.679
REMARK  2 active torsions:
REMARK  status: ('A' for Active; 'I' for Inactive)
REMARK    1  A    between atoms: C1_1  and  O10_10 
REMARK    2  A    between atoms: C8_8  and  O10_10 
ROOT
HETATM    1  C2  UNL     1     -25.792  -2.171  10.773  1.00 20.00     0.005 C 
HETATM    2  C3  UNL     1     -26.006  -1.064  11.816  1.00 20.00     0.007 C 
HETATM    3  C4  UNL     1     -27.665  -0.855  10.125  1.00 20.00     0.012 C 
HETATM    4  C5  UNL     1     -28.145  -2.967  11.113  1.00 20.00     0.037 C 
HETATM    5  C6  UNL     1     -27.177  -2.303  10.117  1.00 20.00    -0.012 C 
HETATM    6  C7  UNL     1     -27.491  -0.708  11.640  1.00 20.00     0.015 C 
HETATM    7  C8  UNL     1     -28.345  -1.873  12.174  1.00 20.00     0.135 C 
ENDROOT
BRANCH   7   8
HETATM    8  O10 UNL     1     -29.716  -1.503  12.228  1.00 20.00    -0.323 OA
BRANCH   8   9
HETATM    9  C1  UNL     1     -30.609  -2.506  12.001  1.00 20.00     0.398 C 
HETATM   10  O9  UNL     1     -31.779  -2.393  11.670  1.00 20.00    -0.276 OA
ENDBRANCH   8   9
ENDBRANCH   7   8
TORSDOF 2
ENDMDL
MODEL 8
REMARK VINA RESULT:      -3.4     12.408     13.855
REMARK  2 active torsions:
REMARK  status: ('A' for Active; 'I' for Inactive)
REMARK    1  A    between atoms: C1_1  and  O10_10 
REMARK    2  A    between atoms: C8_8  and  O10_10 
ROOT
HETATM    1  C2  UNL     1     -35.934  15.221  -7.098  1.00 20.00     0.005 C 
HETATM    2  C3  UNL     1     -35.951  14.590  -5.698  1.00 20.00     0.007 C 
HETATM    3  C4  UNL     1     -33.697  15.034  -6.310  1.00 20.00     0.012 C 
HETATM    4  C5  UNL     1     -34.680  17.200  -6.206  1.00 20.00     0.037 C 
HETATM    5  C6  UNL     1     -34.590  15.968  -7.125  1.00 20.00    -0.012 C 
HETATM    6  C7  UNL     1     -34.621  15.064  -5.090  1.00 20.00     0.015 C 
HETATM    7  C8  UNL     1     -34.722  16.575  -4.802  1.00 20.00     0.135 C 
ENDROOT
BRANCH   7   8
HETATM    8  O10 UNL     1     -33.601  17.014  -4.048  1.00 20.00    -0.323 OA
BRANCH   8   9
HETATM    9  C1  UNL     1     -33.378  16.350  -2.879  1.00 20.00     0.398 C 
HETATM   10  O9  UNL     1     -33.557  16.770  -1.746  1.00 20.00    -0.276 OA
ENDBRANCH   8   9
ENDBRANCH   7   8
TORSDOF 2
ENDMDL
MODEL 9
REMARK VINA RESULT:      -3.3     12.337     13.722
REMARK  2 active torsions:
REMARK  status: ('A' for Active; 'I' for Inactive)
REMARK    1  A    between atoms: C1_1  and  O10_10 
REMARK    2  A    between atoms: C8_8  and  O10_10 
ROOT
HETATM    1  C2  UNL     1     -33.784  15.805  -3.455  1.00 20.00     0.005 C 
HETATM    2  C3  UNL     1     -34.272  16.812  -4.507  1.00 20.00     0.007 C 
HETATM    3  C4  UNL     1     -33.306  14.947  -5.622  1.00 20.00     0.012 C 
HETATM    4  C5  UNL     1     -35.187  14.011  -4.503  1.00 20.00     0.037 C 
HETATM    5  C6  UNL     1     -33.745  14.479  -4.235  1.00 20.00    -0.012 C 
HETATM    6  C7  UNL     1     -34.466  15.938  -5.757  1.00 20.00     0.015 C 
HETATM    7  C8  UNL     1     -35.690  15.030  -5.537  1.00 20.00     0.135 C 
ENDROOT
BRANCH   7   8
HETATM    8  O10 UNL     1     -36.035  14.360  -6.742  1.00 20.00    -0.323 OA
BRANCH   8   9
HETATM    9  C1  UNL     1     -36.324  15.163  -7.804  1.00 20.00     0.398 C 
HETATM   10  O9  UNL     1     -37.270  15.926  -7.918  1.00 20.00    -0.276 OA
ENDBRANCH   8   9
ENDBRANCH   7   8
TORSDOF 2
ENDMDL
