MODEL 1
REMARK VINA RESULT:      -3.5      0.000      0.000
REMARK  0 active torsions:
REMARK  status: ('A' for Active; 'I' for Inactive)
ROOT
HETATM    1  C1  UNL     1     -33.787   6.307   4.151  1.00 20.00     0.090 A 
HETATM    2  C2  UNL     1     -34.569   5.898   6.393  1.00 20.00     0.167 A 
HETATM    3  C3  UNL     1     -33.445   7.258   5.090  1.00 20.00     0.109 A 
HETATM    4  N4  UNL     1     -33.893   7.026   6.376  1.00 20.00    -0.246 NA
HETATM    5  S5  UNL     1     -34.704   5.065   4.899  1.00 20.00    -0.092 SA
HETATM    6 BR6  UNL     1     -32.428   8.804   4.680  1.00 20.00    -0.029 Br
ENDROOT
TORSDOF 0
ENDMDL
MODEL 2
REMARK VINA RESULT:      -3.5      1.399      1.676
REMARK  0 active torsions:
REMARK  status: ('A' for Active; 'I' for Inactive)
ROOT
HETATM    1  C1  UNL     1     -33.869   6.945   6.212  1.00 20.00     0.090 A 
HETATM    2  C2  UNL     1     -34.448   5.264   4.585  1.00 20.00     0.167 A 
HETATM    3  C3  UNL     1     -33.430   7.177   4.925  1.00 20.00     0.109 A 
HETATM    4  N4  UNL     1     -33.759   6.215   3.991  1.00 20.00    -0.246 NA
HETATM    5  S5  UNL     1     -34.734   5.465   6.265  1.00 20.00    -0.092 SA
HETATM    6 BR6  UNL     1     -32.431   8.709   4.429  1.00 20.00    -0.029 Br
ENDROOT
TORSDOF 0
ENDMDL
MODEL 3
REMARK VINA RESULT:      -3.4      2.983      3.420
REMARK  0 active torsions:
REMARK  status: ('A' for Active; 'I' for Inactive)
ROOT
HETATM    1  C1  UNL     1     -33.517   7.771   5.350  1.00 20.00     0.090 A 
HETATM    2  C2  UNL     1     -32.204   7.596   3.338  1.00 20.00     0.167 A 
HETATM    3  C3  UNL     1     -33.706   6.624   4.607  1.00 20.00     0.109 A 
HETATM    4  N4  UNL     1     -32.955   6.522   3.453  1.00 20.00    -0.246 NA
HETATM    5  S5  UNL     1     -32.351   8.768   4.582  1.00 20.00    -0.092 SA
HETATM    6 BR6  UNL     1     -34.914   5.251   5.104  1.00 20.00    -0.029 Br
ENDROOT
TORSDOF 0
ENDMDL
MODEL 4
REMARK VINA RESULT:      -3.2      2.594      2.926
REMARK  0 active torsions:
REMARK  status: ('A' for Active; 'I' for Inactive)
ROOT
HETATM    1  C1  UNL     1     -33.205   6.432   3.707  1.00 20.00     0.090 A 
HETATM    2  C2  UNL     1     -32.469   8.538   4.619  1.00 20.00     0.167 A 
HETATM    3  C3  UNL     1     -33.632   6.715   4.988  1.00 20.00     0.109 A 
HETATM    4  N4  UNL     1     -33.211   7.921   5.513  1.00 20.00    -0.246 NA
HETATM    5  S5  UNL     1     -32.237   7.724   3.126  1.00 20.00    -0.092 SA
HETATM    6 BR6  UNL     1     -34.729   5.547   6.000  1.00 20.00    -0.029 Br
ENDROOT
TORSDOF 0
ENDMDL
MODEL 5
REMARK VINA RESULT:      -3.1      2.339      2.463
REMARK  0 active torsions:
REMARK  status: ('A' for Active; 'I' for Inactive)
ROOT
HETATM    1  C1  UNL     1     -33.514   6.889   4.754  1.00 20.00     0.090 A 
HETATM    2  C2  UNL     1     -34.777   5.307   6.062  1.00 20.00     0.167 A 
HETATM    3  C3  UNL     1     -33.723   5.657   4.170  1.00 20.00     0.109 A 
HETATM    4  N4  UNL     1     -34.445   4.748   4.919  1.00 20.00    -0.246 NA
HETATM    5  S5  UNL     1     -34.251   6.923   6.303  1.00 20.00    -0.092 SA
HETATM    6 BR6  UNL     1     -33.072   5.198   2.450  1.00 20.00    -0.029 Br
ENDROOT
TORSDOF 0
ENDMDL
MODEL 6
REMARK VINA RESULT:      -2.9     13.085     13.282
REMARK  0 active torsions:
REMARK  status: ('A' for Active; 'I' for Inactive)
ROOT
HETATM    1  C1  UNL     1     -32.346  18.816   1.453  1.00 20.00     0.090 A 
HETATM    2  C2  UNL     1     -31.762  18.464  -0.859  1.00 20.00     0.167 A 
HETATM    3  C3  UNL     1     -31.002  18.899   1.153  1.00 20.00     0.109 A 
HETATM    4  N4  UNL     1     -30.665  18.697  -0.171  1.00 20.00    -0.246 NA
HETATM    5  S5  UNL     1     -33.234  18.474   0.025  1.00 20.00    -0.092 SA
HETATM    6 BR6  UNL     1     -29.668  19.263   2.449  1.00 20.00    -0.029 Br
ENDROOT
TORSDOF 0
ENDMDL
MODEL 7
REMARK VINA RESULT:      -2.9      2.811      2.985
REMARK  0 active torsions:
REMARK  status: ('A' for Active; 'I' for Inactive)
ROOT
HETATM    1  C1  UNL     1     -32.180   7.687   3.526  1.00 20.00     0.090 A 
HETATM    2  C2  UNL     1     -33.665   7.827   5.419  1.00 20.00     0.167 A 
HETATM    3  C3  UNL     1     -33.022   6.610   3.712  1.00 20.00     0.109 A 
HETATM    4  N4  UNL     1     -33.872   6.688   4.797  1.00 20.00    -0.246 NA
HETATM    5  S5  UNL     1     -32.460   8.853   4.753  1.00 20.00    -0.092 SA
HETATM    6 BR6  UNL     1     -33.038   5.096   2.572  1.00 20.00    -0.029 Br
ENDROOT
TORSDOF 0
ENDMDL
MODEL 8
REMARK VINA RESULT:      -2.8     16.057     16.450
REMARK  0 active torsions:
REMARK  status: ('A' for Active; 'I' for Inactive)
ROOT
HETATM    1  C1  UNL     1     -23.986  17.050  10.497  1.00 20.00     0.090 A 
HETATM    2  C2  UNL     1     -23.053  18.357  12.295  1.00 20.00     0.167 A 
HETATM    3  C3  UNL     1     -22.802  17.700  10.217  1.00 20.00     0.109 A 
HETATM    4  N4  UNL     1     -22.266  18.450  11.245  1.00 20.00    -0.246 NA
HETATM    5  S5  UNL     1     -24.455  17.383  12.113  1.00 20.00    -0.092 SA
HETATM    6 BR6  UNL     1     -21.933  17.597   8.536  1.00 20.00    -0.029 Br
ENDROOT
TORSDOF 0
ENDMDL
MODEL 9
REMARK VINA RESULT:      -2.7     15.787     15.999
REMARK  0 active torsions:
REMARK  status: ('A' for Active; 'I' for Inactive)
ROOT
HETATM    1  C1  UNL     1     -22.750  17.324   9.613  1.00 20.00     0.090 A 
HETATM    2  C2  UNL     1     -24.102  19.225   9.009  1.00 20.00     0.167 A 
HETATM    3  C3  UNL     1     -23.894  17.512  10.362  1.00 20.00     0.109 A 
HETATM    4  N4  UNL     1     -24.669  18.601  10.018  1.00 20.00    -0.246 NA
HETATM    5  S5  UNL     1     -22.634  18.555   8.425  1.00 20.00    -0.092 SA
HETATM    6 BR6  UNL     1     -24.403  16.368  11.786  1.00 20.00    -0.029 Br
ENDROOT
TORSDOF 0
ENDMDL
