MODEL 1
REMARK VINA RESULT:      -4.3      0.000      0.000
REMARK  1 active torsions:
REMARK  status: ('A' for Active; 'I' for Inactive)
REMARK    1  A    between atoms: C1_1  and  C3_3 
ROOT
HETATM    1  C2  UNL     1     -35.288   6.175   4.202  1.00 20.00     0.065 A 
HETATM    2  C3  UNL     1     -33.898   6.703   4.496  1.00 20.00     0.070 A 
HETATM    3  C4  UNL     1     -34.385   5.393   5.115  1.00 20.00     0.130 A 
HETATM    4  C5  UNL     1     -33.809   7.946   5.351  1.00 20.00     0.028 C 
HETATM    5 CL8  UNL     1     -33.769   3.849   4.511  1.00 20.00    -0.100 Cl
HETATM    6 CL9  UNL     1     -34.807   5.318   6.827  1.00 20.00    -0.100 Cl
ENDROOT
BRANCH   2   7
HETATM    7  C1  UNL     1     -32.905   6.620   3.395  1.00 20.00     0.230 C 
HETATM    8  O6  UNL     1     -32.976   5.758   2.525  1.00 20.00    -0.279 OA
HETATM    9 CL7  UNL     1     -31.692   7.859   3.515  1.00 20.00    -0.043 Cl
ENDBRANCH   2   7
TORSDOF 1
ENDMDL
MODEL 2
REMARK VINA RESULT:      -4.3      1.726      1.988
REMARK  1 active torsions:
REMARK  status: ('A' for Active; 'I' for Inactive)
REMARK    1  A    between atoms: C1_1  and  C3_3 
ROOT
HETATM    1  C2  UNL     1     -35.279   6.094   4.296  1.00 20.00     0.065 A 
HETATM    2  C3  UNL     1     -34.093   6.733   4.990  1.00 20.00     0.070 A 
HETATM    3  C4  UNL     1     -33.926   5.448   4.178  1.00 20.00     0.130 A 
HETATM    4  C5  UNL     1     -34.072   6.669   6.500  1.00 20.00     0.028 C 
HETATM    5 CL8  UNL     1     -33.143   5.501   2.594  1.00 20.00    -0.100 Cl
HETATM    6 CL9  UNL     1     -33.676   3.903   4.993  1.00 20.00    -0.100 Cl
ENDROOT
BRANCH   2   7
HETATM    7  C1  UNL     1     -33.573   7.993   4.403  1.00 20.00     0.230 C 
HETATM    8  O6  UNL     1     -34.324   8.857   3.961  1.00 20.00    -0.279 OA
HETATM    9 CL7  UNL     1     -31.837   8.061   4.433  1.00 20.00    -0.043 Cl
ENDBRANCH   2   7
TORSDOF 1
ENDMDL
MODEL 3
REMARK VINA RESULT:      -4.1      1.900      2.102
REMARK  1 active torsions:
REMARK  status: ('A' for Active; 'I' for Inactive)
REMARK    1  A    between atoms: C1_1  and  C3_3 
ROOT
HETATM    1  C2  UNL     1     -34.911   6.872   3.995  1.00 20.00     0.065 A 
HETATM    2  C3  UNL     1     -33.736   7.146   4.912  1.00 20.00     0.070 A 
HETATM    3  C4  UNL     1     -33.816   5.846   4.110  1.00 20.00     0.130 A 
HETATM    4  C5  UNL     1     -34.013   7.124   6.398  1.00 20.00     0.028 C 
HETATM    5 CL8  UNL     1     -32.776   5.615   2.699  1.00 20.00    -0.100 Cl
HETATM    6 CL9  UNL     1     -34.195   4.323   4.915  1.00 20.00    -0.100 Cl
ENDROOT
BRANCH   2   7
HETATM    7  C1  UNL     1     -32.764   8.175   4.465  1.00 20.00     0.230 C 
HETATM    8  O6  UNL     1     -31.848   8.555   5.189  1.00 20.00    -0.279 OA
HETATM    9 CL7  UNL     1     -33.096   8.731   2.853  1.00 20.00    -0.043 Cl
ENDBRANCH   2   7
TORSDOF 1
ENDMDL
MODEL 4
REMARK VINA RESULT:      -4.1      1.574      1.724
REMARK  1 active torsions:
REMARK  status: ('A' for Active; 'I' for Inactive)
REMARK    1  A    between atoms: C1_1  and  C3_3 
ROOT
HETATM    1  C2  UNL     1     -34.940   6.588   3.989  1.00 20.00     0.065 A 
HETATM    2  C3  UNL     1     -33.683   6.988   4.736  1.00 20.00     0.070 A 
HETATM    3  C4  UNL     1     -33.805   5.606   4.092  1.00 20.00     0.130 A 
HETATM    4  C5  UNL     1     -33.798   7.126   6.237  1.00 20.00     0.028 C 
HETATM    5 CL8  UNL     1     -32.916   5.243   2.608  1.00 20.00    -0.100 Cl
HETATM    6 CL9  UNL     1     -34.044   4.173   5.094  1.00 20.00    -0.100 Cl
ENDROOT
BRANCH   2   7
HETATM    7  C1  UNL     1     -32.800   7.982   4.075  1.00 20.00     0.230 C 
HETATM    8  O6  UNL     1     -32.553   7.929   2.874  1.00 20.00    -0.279 OA
HETATM    9 CL7  UNL     1     -32.200   9.168   5.195  1.00 20.00    -0.043 Cl
ENDBRANCH   2   7
TORSDOF 1
ENDMDL
MODEL 5
REMARK VINA RESULT:      -4.1     12.480     13.408
REMARK  1 active torsions:
REMARK  status: ('A' for Active; 'I' for Inactive)
REMARK    1  A    between atoms: C1_1  and  C3_3 
ROOT
HETATM    1  C2  UNL     1     -34.339  15.363  -6.307  1.00 20.00     0.065 A 
HETATM    2  C3  UNL     1     -34.286  16.119  -4.994  1.00 20.00     0.070 A 
HETATM    3  C4  UNL     1     -35.483  15.232  -5.340  1.00 20.00     0.130 A 
HETATM    4  C5  UNL     1     -34.424  17.622  -5.068  1.00 20.00     0.028 C 
HETATM    5 CL8  UNL     1     -35.685  13.670  -4.536  1.00 20.00    -0.100 Cl
HETATM    6 CL9  UNL     1     -37.029  15.955  -5.788  1.00 20.00    -0.100 Cl
ENDROOT
BRANCH   2   7
HETATM    7  C1  UNL     1     -33.330  15.621  -3.974  1.00 20.00     0.230 C 
HETATM    8  O6  UNL     1     -32.489  14.768  -4.239  1.00 20.00    -0.279 OA
HETATM    9 CL7  UNL     1     -33.564  16.385  -2.431  1.00 20.00    -0.043 Cl
ENDBRANCH   2   7
TORSDOF 1
ENDMDL
MODEL 6
REMARK VINA RESULT:      -4.0      9.379      9.651
REMARK  1 active torsions:
REMARK  status: ('A' for Active; 'I' for Inactive)
REMARK    1  A    between atoms: C1_1  and  C3_3 
ROOT
HETATM    1  C2  UNL     1     -43.417   5.770  -0.347  1.00 20.00     0.065 A 
HETATM    2  C3  UNL     1     -42.763   6.842   0.501  1.00 20.00     0.070 A 
HETATM    3  C4  UNL     1     -42.081   5.491   0.285  1.00 20.00     0.130 A 
HETATM    4  C5  UNL     1     -43.411   7.148   1.831  1.00 20.00     0.028 C 
HETATM    5 CL8  UNL     1     -40.687   5.369  -0.796  1.00 20.00    -0.100 Cl
HETATM    6 CL9  UNL     1     -42.018   4.305   1.591  1.00 20.00    -0.100 Cl
ENDROOT
BRANCH   2   7
HETATM    7  C1  UNL     1     -42.209   8.018  -0.218  1.00 20.00     0.230 C 
HETATM    8  O6  UNL     1     -42.795   8.528  -1.168  1.00 20.00    -0.279 OA
HETATM    9 CL7  UNL     1     -40.691   8.536   0.449  1.00 20.00    -0.043 Cl
ENDBRANCH   2   7
TORSDOF 1
ENDMDL
MODEL 7
REMARK VINA RESULT:      -3.9      1.699      3.227
REMARK  1 active torsions:
REMARK  status: ('A' for Active; 'I' for Inactive)
REMARK    1  A    between atoms: C1_1  and  C3_3 
ROOT
HETATM    1  C2  UNL     1     -34.290   7.997   3.940  1.00 20.00     0.065 A 
HETATM    2  C3  UNL     1     -33.512   6.697   3.892  1.00 20.00     0.070 A 
HETATM    3  C4  UNL     1     -33.313   7.686   5.041  1.00 20.00     0.130 A 
HETATM    4  C5  UNL     1     -32.454   6.577   2.819  1.00 20.00     0.028 C 
HETATM    5 CL8  UNL     1     -33.984   7.329   6.638  1.00 20.00    -0.100 Cl
HETATM    6 CL9  UNL     1     -31.844   8.658   5.139  1.00 20.00    -0.100 Cl
ENDROOT
BRANCH   2   7
HETATM    7  C1  UNL     1     -34.270   5.452   4.175  1.00 20.00     0.230 C 
HETATM    8  O6  UNL     1     -33.711   4.363   4.266  1.00 20.00    -0.279 OA
HETATM    9 CL7  UNL     1     -35.973   5.749   4.349  1.00 20.00    -0.043 Cl
ENDBRANCH   2   7
TORSDOF 1
ENDMDL
MODEL 8
REMARK VINA RESULT:      -3.8     12.779     14.048
REMARK  1 active torsions:
REMARK  status: ('A' for Active; 'I' for Inactive)
REMARK    1  A    between atoms: C1_1  and  C3_3 
ROOT
HETATM    1  C2  UNL     1     -34.549  16.762  -6.260  1.00 20.00     0.065 A 
HETATM    2  C3  UNL     1     -34.703  15.563  -5.346  1.00 20.00     0.070 A 
HETATM    3  C4  UNL     1     -35.314  16.914  -4.974  1.00 20.00     0.130 A 
HETATM    4  C5  UNL     1     -33.457  15.085  -4.635  1.00 20.00     0.028 C 
HETATM    5 CL8  UNL     1     -37.061  17.157  -5.098  1.00 20.00    -0.100 Cl
HETATM    6 CL9  UNL     1     -34.593  17.898  -3.698  1.00 20.00    -0.100 Cl
ENDROOT
BRANCH   2   7
HETATM    7  C1  UNL     1     -35.623  14.490  -5.799  1.00 20.00     0.230 C 
HETATM    8  O6  UNL     1     -35.976  14.393  -6.970  1.00 20.00    -0.279 OA
HETATM    9 CL7  UNL     1     -36.102  13.447  -4.494  1.00 20.00    -0.043 Cl
ENDBRANCH   2   7
TORSDOF 1
ENDMDL
MODEL 9
REMARK VINA RESULT:      -3.8      2.085      3.858
REMARK  1 active torsions:
REMARK  status: ('A' for Active; 'I' for Inactive)
REMARK    1  A    between atoms: C1_1  and  C3_3 
ROOT
HETATM    1  C2  UNL     1     -34.438   7.963   4.000  1.00 20.00     0.065 A 
HETATM    2  C3  UNL     1     -33.975   6.688   4.676  1.00 20.00     0.070 A 
HETATM    3  C4  UNL     1     -32.964   7.685   4.108  1.00 20.00     0.130 A 
HETATM    4  C5  UNL     1     -34.240   5.394   3.943  1.00 20.00     0.028 C 
HETATM    5 CL8  UNL     1     -32.028   8.711   5.201  1.00 20.00    -0.100 Cl
HETATM    6 CL9  UNL     1     -32.084   7.315   2.623  1.00 20.00    -0.100 Cl
ENDROOT
BRANCH   2   7
HETATM    7  C1  UNL     1     -34.124   6.621   6.152  1.00 20.00     0.230 C 
HETATM    8  O6  UNL     1     -34.322   7.626   6.827  1.00 20.00    -0.279 OA
HETATM    9 CL7  UNL     1     -33.984   4.995   6.749  1.00 20.00    -0.043 Cl
ENDBRANCH   2   7
TORSDOF 1
ENDMDL
