MODEL 1
REMARK VINA RESULT:      -3.4      0.000      0.000
REMARK  0 active torsions:
REMARK  status: ('A' for Active; 'I' for Inactive)
ROOT
HETATM    1  C1  UNL     1     -34.213  17.701  -6.195  1.00 20.00    -0.024 C 
HETATM    2  C2  UNL     1     -34.980  16.847  -6.885  1.00 20.00    -0.024 C 
HETATM    3  C3  UNL     1     -33.763  15.067  -4.738  1.00 20.00     0.164 C 
HETATM    4  C4  UNL     1     -35.917  17.026  -4.768  1.00 20.00     0.021 C 
HETATM    5  C5  UNL     1     -34.475  17.537  -4.718  1.00 20.00     0.034 C 
HETATM    6  C6  UNL     1     -35.823  16.038  -5.932  1.00 20.00     0.034 C 
HETATM    7  C7  UNL     1     -33.541  16.463  -4.143  1.00 20.00     0.161 C 
HETATM    8  C8  UNL     1     -35.056  14.776  -5.509  1.00 20.00     0.161 C 
HETATM    9  O9  UNL     1     -32.938  14.169  -4.545  1.00 20.00    -0.295 OA
HETATM   10 CL10 UNL     1     -33.762  16.303  -2.379  1.00 20.00    -0.116 Cl
HETATM   11 CL11 UNL     1     -36.057  13.747  -4.448  1.00 20.00    -0.116 Cl
ENDROOT
TORSDOF 0
ENDMDL
MODEL 2
REMARK VINA RESULT:      -3.3      2.004      2.989
REMARK  0 active torsions:
REMARK  status: ('A' for Active; 'I' for Inactive)
ROOT
HETATM    1  C1  UNL     1     -35.005  15.624  -7.264  1.00 20.00    -0.024 C 
HETATM    2  C2  UNL     1     -33.895  15.095  -6.733  1.00 20.00    -0.024 C 
HETATM    3  C3  UNL     1     -34.417  17.494  -4.935  1.00 20.00     0.164 C 
HETATM    4  C4  UNL     1     -35.581  14.833  -5.156  1.00 20.00     0.021 C 
HETATM    5  C5  UNL     1     -36.009  15.897  -6.170  1.00 20.00     0.034 C 
HETATM    6  C6  UNL     1     -34.058  14.966  -5.239  1.00 20.00     0.034 C 
HETATM    7  C7  UNL     1     -35.786  17.305  -5.603  1.00 20.00     0.161 C 
HETATM    8  C8  UNL     1     -33.590  16.259  -4.556  1.00 20.00     0.161 C 
HETATM    9  O9  UNL     1     -34.014  18.625  -4.649  1.00 20.00    -0.295 OA
HETATM   10 CL10 UNL     1     -37.011  17.698  -4.366  1.00 20.00    -0.116 Cl
HETATM   11 CL11 UNL     1     -33.687  16.112  -2.779  1.00 20.00    -0.116 Cl
ENDROOT
TORSDOF 0
ENDMDL
MODEL 3
REMARK VINA RESULT:      -3.3      2.570      3.278
REMARK  0 active torsions:
REMARK  status: ('A' for Active; 'I' for Inactive)
ROOT
HETATM    1  C1  UNL     1     -34.421  14.561  -4.197  1.00 20.00    -0.024 C 
HETATM    2  C2  UNL     1     -35.444  13.971  -4.830  1.00 20.00    -0.024 C 
HETATM    3  C3  UNL     1     -36.175  16.922  -4.983  1.00 20.00     0.164 C 
HETATM    4  C4  UNL     1     -34.301  15.219  -6.422  1.00 20.00     0.021 C 
HETATM    5  C5  UNL     1     -33.907  15.712  -5.027  1.00 20.00     0.034 C 
HETATM    6  C6  UNL     1     -35.703  14.674  -6.139  1.00 20.00     0.034 C 
HETATM    7  C7  UNL     1     -34.675  16.992  -4.670  1.00 20.00     0.161 C 
HETATM    8  C8  UNL     1     -36.696  15.824  -5.920  1.00 20.00     0.161 C 
HETATM    9  O9  UNL     1     -36.946  17.776  -4.537  1.00 20.00    -0.295 OA
HETATM   10 CL10 UNL     1     -34.035  18.393  -5.570  1.00 20.00    -0.116 Cl
HETATM   11 CL11 UNL     1     -37.095  16.625  -7.465  1.00 20.00    -0.116 Cl
ENDROOT
TORSDOF 0
ENDMDL
MODEL 4
REMARK VINA RESULT:      -3.2      1.802      2.235
REMARK  0 active torsions:
REMARK  status: ('A' for Active; 'I' for Inactive)
ROOT
HETATM    1  C1  UNL     1     -34.466  18.007  -6.480  1.00 20.00    -0.024 C 
HETATM    2  C2  UNL     1     -35.750  18.331  -6.685  1.00 20.00    -0.024 C 
HETATM    3  C3  UNL     1     -35.874  15.314  -6.302  1.00 20.00     0.164 C 
HETATM    4  C4  UNL     1     -35.592  17.579  -4.493  1.00 20.00     0.021 C 
HETATM    5  C5  UNL     1     -34.356  17.114  -5.268  1.00 20.00     0.034 C 
HETATM    6  C6  UNL     1     -36.611  17.684  -5.629  1.00 20.00     0.034 C 
HETATM    7  C7  UNL     1     -34.506  15.646  -5.692  1.00 20.00     0.161 C 
HETATM    8  C8  UNL     1     -37.042  16.287  -6.100  1.00 20.00     0.161 C 
HETATM    9  O9  UNL     1     -36.048  14.245  -6.895  1.00 20.00    -0.295 OA
HETATM   10 CL10 UNL     1     -34.294  14.554  -4.297  1.00 20.00    -0.116 Cl
HETATM   11 CL11 UNL     1     -38.136  15.524  -4.913  1.00 20.00    -0.116 Cl
ENDROOT
TORSDOF 0
ENDMDL
MODEL 5
REMARK VINA RESULT:      -3.1      2.241      3.005
REMARK  0 active torsions:
REMARK  status: ('A' for Active; 'I' for Inactive)
ROOT
HETATM    1  C1  UNL     1     -36.039  18.229  -6.862  1.00 20.00    -0.024 C 
HETATM    2  C2  UNL     1     -36.751  17.801  -5.810  1.00 20.00    -0.024 C 
HETATM    3  C3  UNL     1     -35.897  15.200  -7.140  1.00 20.00     0.164 C 
HETATM    4  C4  UNL     1     -34.553  17.146  -5.440  1.00 20.00     0.021 C 
HETATM    5  C5  UNL     1     -34.729  17.481  -6.924  1.00 20.00     0.034 C 
HETATM    6  C6  UNL     1     -35.981  16.732  -5.077  1.00 20.00     0.034 C 
HETATM    7  C7  UNL     1     -34.903  16.199  -7.749  1.00 20.00     0.161 C 
HETATM    8  C8  UNL     1     -36.313  15.356  -5.672  1.00 20.00     0.161 C 
HETATM    9  O9  UNL     1     -36.308  14.246  -7.806  1.00 20.00    -0.295 OA
HETATM   10 CL10 UNL     1     -33.353  15.331  -7.918  1.00 20.00    -0.116 Cl
HETATM   11 CL11 UNL     1     -35.487  14.055  -4.771  1.00 20.00    -0.116 Cl
ENDROOT
TORSDOF 0
ENDMDL
MODEL 6
REMARK VINA RESULT:      -3.1      2.012      2.990
REMARK  0 active torsions:
REMARK  status: ('A' for Active; 'I' for Inactive)
ROOT
HETATM    1  C1  UNL     1     -35.937  14.805  -5.344  1.00 20.00    -0.024 C 
HETATM    2  C2  UNL     1     -36.347  16.079  -5.390  1.00 20.00    -0.024 C 
HETATM    3  C3  UNL     1     -33.984  16.206  -3.475  1.00 20.00     0.164 C 
HETATM    4  C4  UNL     1     -34.242  16.018  -6.370  1.00 20.00     0.021 C 
HETATM    5  C5  UNL     1     -34.441  14.746  -5.541  1.00 20.00     0.034 C 
HETATM    6  C6  UNL     1     -35.164  16.985  -5.624  1.00 20.00     0.034 C 
HETATM    7  C7  UNL     1     -33.735  14.869  -4.185  1.00 20.00     0.161 C 
HETATM    8  C8  UNL     1     -34.548  17.387  -4.276  1.00 20.00     0.161 C 
HETATM    9  O9  UNL     1     -33.677  16.349  -2.288  1.00 20.00    -0.295 OA
HETATM   10 CL10 UNL     1     -31.966  14.716  -4.369  1.00 20.00    -0.116 Cl
HETATM   11 CL11 UNL     1     -33.197  18.531  -4.508  1.00 20.00    -0.116 Cl
ENDROOT
TORSDOF 0
ENDMDL
MODEL 7
REMARK VINA RESULT:      -3.1     13.207     14.025
REMARK  0 active torsions:
REMARK  status: ('A' for Active; 'I' for Inactive)
ROOT
HETATM    1  C1  UNL     1     -41.513  13.802   4.828  1.00 20.00    -0.024 C 
HETATM    2  C2  UNL     1     -40.646  13.066   5.536  1.00 20.00    -0.024 C 
HETATM    3  C3  UNL     1     -40.881  15.605   7.199  1.00 20.00     0.164 C 
HETATM    4  C4  UNL     1     -42.567  13.260   6.826  1.00 20.00     0.021 C 
HETATM    5  C5  UNL     1     -42.584  14.343   5.744  1.00 20.00     0.034 C 
HETATM    6  C6  UNL     1     -41.060  13.048   6.985  1.00 20.00     0.034 C 
HETATM    7  C7  UNL     1     -42.138  15.692   6.323  1.00 20.00     0.161 C 
HETATM    8  C8  UNL     1     -40.422  14.237   7.720  1.00 20.00     0.161 C 
HETATM    9  O9  UNL     1     -40.280  16.631   7.531  1.00 20.00    -0.295 OA
HETATM   10 CL10 UNL     1     -43.417  16.404   7.344  1.00 20.00    -0.116 Cl
HETATM   11 CL11 UNL     1     -40.819  14.199   9.459  1.00 20.00    -0.116 Cl
ENDROOT
TORSDOF 0
ENDMDL
MODEL 8
REMARK VINA RESULT:      -3.1      2.314      3.378
REMARK  0 active torsions:
REMARK  status: ('A' for Active; 'I' for Inactive)
ROOT
HETATM    1  C1  UNL     1     -34.184  15.825  -7.688  1.00 20.00    -0.024 C 
HETATM    2  C2  UNL     1     -34.321  17.148  -7.529  1.00 20.00    -0.024 C 
HETATM    3  C3  UNL     1     -36.849  16.054  -6.235  1.00 20.00     0.164 C 
HETATM    4  C4  UNL     1     -34.064  16.243  -5.405  1.00 20.00     0.021 C 
HETATM    5  C5  UNL     1     -34.455  15.127  -6.378  1.00 20.00     0.034 C 
HETATM    6  C6  UNL     1     -34.695  17.452  -6.100  1.00 20.00     0.034 C 
HETATM    7  C7  UNL     1     -35.952  14.809  -6.261  1.00 20.00     0.161 C 
HETATM    8  C8  UNL     1     -36.223  17.425  -5.949  1.00 20.00     0.161 C 
HETATM    9  O9  UNL     1     -38.070  15.945  -6.381  1.00 20.00    -0.295 OA
HETATM   10 CL10 UNL     1     -36.299  13.904  -4.763  1.00 20.00    -0.116 Cl
HETATM   11 CL11 UNL     1     -36.708  17.866  -4.289  1.00 20.00    -0.116 Cl
ENDROOT
TORSDOF 0
ENDMDL
MODEL 9
REMARK VINA RESULT:      -3.0     14.373     15.129
REMARK  0 active torsions:
REMARK  status: ('A' for Active; 'I' for Inactive)
ROOT
HETATM    1  C1  UNL     1     -41.725  12.618   6.326  1.00 20.00    -0.024 C 
HETATM    2  C2  UNL     1     -42.759  12.249   7.093  1.00 20.00    -0.024 C 
HETATM    3  C3  UNL     1     -41.175  14.077   8.940  1.00 20.00     0.164 C 
HETATM    4  C4  UNL     1     -42.992  14.528   6.709  1.00 20.00     0.021 C 
HETATM    5  C5  UNL     1     -41.551  14.116   6.397  1.00 20.00     0.034 C 
HETATM    6  C6  UNL     1     -43.368  13.465   7.744  1.00 20.00     0.034 C 
HETATM    7  C7  UNL     1     -40.622  14.474   7.565  1.00 20.00     0.161 C 
HETATM    8  C8  UNL     1     -42.665  13.741   9.082  1.00 20.00     0.161 C 
HETATM    9  O9  UNL     1     -40.443  14.089   9.934  1.00 20.00    -0.295 OA
HETATM   10 CL10 UNL     1     -40.322  16.232   7.627  1.00 20.00    -0.116 Cl
HETATM   11 CL11 UNL     1     -43.417  15.123   9.924  1.00 20.00    -0.116 Cl
ENDROOT
TORSDOF 0
ENDMDL
