MODEL 1
REMARK VINA RESULT:      -5.4      0.000      0.000
REMARK  0 active torsions:
REMARK  status: ('A' for Active; 'I' for Inactive)
ROOT
HETATM    1  C1  UNL     1     -32.840   8.631   4.747  1.00 20.00     0.009 A 
HETATM    2  C2  UNL     1     -32.391   8.828   3.441  1.00 20.00     0.019 A 
HETATM    3  C3  UNL     1     -33.016   6.564   2.880  1.00 20.00     0.034 A 
HETATM    4  C4  UNL     1     -33.466   6.363   4.191  1.00 20.00     0.017 A 
HETATM    5  C5  UNL     1     -33.393   7.401   5.133  1.00 20.00    -0.044 A 
HETATM    6  C6  UNL     1     -32.482   7.797   2.509  1.00 20.00     0.011 A 
HETATM    7  C7  UNL     1     -34.012   5.037   4.581  1.00 20.00     0.160 C 
HETATM    8  C8  UNL     1     -33.850   7.207   6.553  1.00 20.00     0.040 C 
HETATM    9  C9  UNL     1     -34.463   4.842   6.012  1.00 20.00     0.084 C 
HETATM   10  C10 UNL     1     -34.937   6.143   6.640  1.00 20.00     0.012 C 
HETATM   11  O11 UNL     1     -34.043   4.114   3.773  1.00 20.00    -0.292 OA
HETATM   12 BR12 UNL     1     -31.871   8.067   0.740  1.00 20.00    -0.051 Br
ENDROOT
TORSDOF 0
ENDMDL
MODEL 2
REMARK VINA RESULT:      -4.5      1.722      2.616
REMARK  0 active torsions:
REMARK  status: ('A' for Active; 'I' for Inactive)
ROOT
HETATM    1  C1  UNL     1     -33.362   5.147   2.855  1.00 20.00     0.009 A 
HETATM    2  C2  UNL     1     -32.764   5.957   1.889  1.00 20.00     0.019 A 
HETATM    3  C3  UNL     1     -32.877   7.842   3.394  1.00 20.00     0.034 A 
HETATM    4  C4  UNL     1     -33.479   7.031   4.364  1.00 20.00     0.017 A 
HETATM    5  C5  UNL     1     -33.714   5.672   4.107  1.00 20.00    -0.044 A 
HETATM    6  C6  UNL     1     -32.520   7.301   2.159  1.00 20.00     0.011 A 
HETATM    7  C7  UNL     1     -33.876   7.625   5.667  1.00 20.00     0.160 C 
HETATM    8  C8  UNL     1     -34.377   4.783   5.123  1.00 20.00     0.040 C 
HETATM    9  C9  UNL     1     -34.550   6.731   6.685  1.00 20.00     0.084 C 
HETATM   10  C10 UNL     1     -34.118   5.280   6.540  1.00 20.00     0.012 C 
HETATM   11  O11 UNL     1     -33.707   8.821   5.885  1.00 20.00    -0.292 OA
HETATM   12 BR12 UNL     1     -31.711   8.396   0.847  1.00 20.00    -0.051 Br
ENDROOT
TORSDOF 0
ENDMDL
MODEL 3
REMARK VINA RESULT:      -4.5     12.293     13.622
REMARK  0 active torsions:
REMARK  status: ('A' for Active; 'I' for Inactive)
ROOT
HETATM    1  C1  UNL     1     -33.909  18.788  -4.616  1.00 20.00     0.009 A 
HETATM    2  C2  UNL     1     -33.338  18.999  -3.361  1.00 20.00     0.019 A 
HETATM    3  C3  UNL     1     -33.361  16.620  -2.947  1.00 20.00     0.034 A 
HETATM    4  C4  UNL     1     -33.936  16.407  -4.206  1.00 20.00     0.017 A 
HETATM    5  C5  UNL     1     -34.202  17.490  -5.057  1.00 20.00    -0.044 A 
HETATM    6  C6  UNL     1     -33.062  17.916  -2.529  1.00 20.00     0.011 A 
HETATM    7  C7  UNL     1     -34.271  15.022  -4.631  1.00 20.00     0.160 C 
HETATM    8  C8  UNL     1     -34.838  17.291  -6.407  1.00 20.00     0.040 C 
HETATM    9  C9  UNL     1     -34.917  14.826  -5.984  1.00 20.00     0.084 C 
HETATM   10  C10 UNL     1     -34.515  15.913  -6.968  1.00 20.00     0.012 C 
HETATM   11  O11 UNL     1     -34.075  14.074  -3.876  1.00 20.00    -0.292 OA
HETATM   12 BR12 UNL     1     -32.290  18.205  -0.828  1.00 20.00    -0.051 Br
ENDROOT
TORSDOF 0
ENDMDL
MODEL 4
REMARK VINA RESULT:      -4.3     12.284     13.446
REMARK  0 active torsions:
REMARK  status: ('A' for Active; 'I' for Inactive)
ROOT
HETATM    1  C1  UNL     1     -35.446  18.442  -3.503  1.00 20.00     0.009 A 
HETATM    2  C2  UNL     1     -34.914  18.661  -2.233  1.00 20.00     0.019 A 
HETATM    3  C3  UNL     1     -33.455  16.757  -2.511  1.00 20.00     0.034 A 
HETATM    4  C4  UNL     1     -33.989  16.534  -3.786  1.00 20.00     0.017 A 
HETATM    5  C5  UNL     1     -34.981  17.384  -4.298  1.00 20.00    -0.044 A 
HETATM    6  C6  UNL     1     -33.918  17.822  -1.738  1.00 20.00     0.011 A 
HETATM    7  C7  UNL     1     -33.504  15.382  -4.590  1.00 20.00     0.160 C 
HETATM    8  C8  UNL     1     -35.587  17.156  -5.656  1.00 20.00     0.040 C 
HETATM    9  C9  UNL     1     -34.120  15.151  -5.952  1.00 20.00     0.084 C 
HETATM   10  C10 UNL     1     -34.608  16.445  -6.582  1.00 20.00     0.012 C 
HETATM   11  O11 UNL     1     -32.663  14.614  -4.133  1.00 20.00    -0.292 OA
HETATM   12 BR12 UNL     1     -33.200  18.121  -0.015  1.00 20.00    -0.051 Br
ENDROOT
TORSDOF 0
ENDMDL
MODEL 5
REMARK VINA RESULT:      -4.2     12.712     14.022
REMARK  0 active torsions:
REMARK  status: ('A' for Active; 'I' for Inactive)
ROOT
HETATM    1  C1  UNL     1     -33.317  15.890  -3.420  1.00 20.00     0.009 A 
HETATM    2  C2  UNL     1     -33.359  16.817  -2.379  1.00 20.00     0.019 A 
HETATM    3  C3  UNL     1     -35.007  18.104  -3.586  1.00 20.00     0.034 A 
HETATM    4  C4  UNL     1     -34.964  17.176  -4.634  1.00 20.00     0.017 A 
HETATM    5  C5  UNL     1     -34.127  16.052  -4.552  1.00 20.00    -0.044 A 
HETATM    6  C6  UNL     1     -34.205  17.921  -2.461  1.00 20.00     0.011 A 
HETATM    7  C7  UNL     1     -35.806  17.395  -5.839  1.00 20.00     0.160 C 
HETATM    8  C8  UNL     1     -34.047  15.050  -5.672  1.00 20.00     0.040 C 
HETATM    9  C9  UNL     1     -35.718  16.390  -6.966  1.00 20.00     0.084 C 
HETATM   10  C10 UNL     1     -35.348  15.004  -6.462  1.00 20.00     0.012 C 
HETATM   11  O11 UNL     1     -36.512  18.395  -5.932  1.00 20.00    -0.292 OA
HETATM   12 BR12 UNL     1     -34.259  19.176  -1.048  1.00 20.00    -0.051 Br
ENDROOT
TORSDOF 0
ENDMDL
MODEL 6
REMARK VINA RESULT:      -4.2     12.581     13.580
REMARK  0 active torsions:
REMARK  status: ('A' for Active; 'I' for Inactive)
ROOT
HETATM    1  C1  UNL     1     -33.235  15.438  -3.863  1.00 20.00     0.009 A 
HETATM    2  C2  UNL     1     -33.788  15.036  -5.080  1.00 20.00     0.019 A 
HETATM    3  C3  UNL     1     -35.228  16.974  -5.070  1.00 20.00     0.034 A 
HETATM    4  C4  UNL     1     -34.676  17.378  -3.849  1.00 20.00     0.017 A 
HETATM    5  C5  UNL     1     -33.664  16.619  -3.242  1.00 20.00    -0.044 A 
HETATM    6  C6  UNL     1     -34.781  15.804  -5.683  1.00 20.00     0.011 A 
HETATM    7  C7  UNL     1     -35.177  18.615  -3.194  1.00 20.00     0.160 C 
HETATM    8  C8  UNL     1     -33.067  17.019  -1.920  1.00 20.00     0.040 C 
HETATM    9  C9  UNL     1     -34.581  19.011  -1.861  1.00 20.00     0.084 C 
HETATM   10  C10 UNL     1     -33.148  18.526  -1.715  1.00 20.00     0.012 C 
HETATM   11  O11 UNL     1     -36.088  19.263  -3.701  1.00 20.00    -0.292 OA
HETATM   12 BR12 UNL     1     -35.529  15.255  -7.330  1.00 20.00    -0.051 Br
ENDROOT
TORSDOF 0
ENDMDL
MODEL 7
REMARK VINA RESULT:      -4.1     12.738     13.018
REMARK  0 active torsions:
REMARK  status: ('A' for Active; 'I' for Inactive)
ROOT
HETATM    1  C1  UNL     1     -32.857  19.245   2.973  1.00 20.00     0.009 A 
HETATM    2  C2  UNL     1     -31.637  19.263   3.650  1.00 20.00     0.019 A 
HETATM    3  C3  UNL     1     -30.486  18.718   1.598  1.00 20.00     0.034 A 
HETATM    4  C4  UNL     1     -31.710  18.698   0.917  1.00 20.00     0.017 A 
HETATM    5  C5  UNL     1     -32.905  18.975   1.598  1.00 20.00    -0.044 A 
HETATM    6  C6  UNL     1     -30.454  19.002   2.963  1.00 20.00     0.011 A 
HETATM    7  C7  UNL     1     -31.734  18.370  -0.532  1.00 20.00     0.160 C 
HETATM    8  C8  UNL     1     -34.236  18.941   0.896  1.00 20.00     0.040 C 
HETATM    9  C9  UNL     1     -33.073  18.329  -1.234  1.00 20.00     0.084 C 
HETATM   10  C10 UNL     1     -34.083  19.262  -0.585  1.00 20.00     0.012 C 
HETATM   11  O11 UNL     1     -30.696  18.090  -1.125  1.00 20.00    -0.292 OA
HETATM   12 BR12 UNL     1     -28.803  19.024   3.883  1.00 20.00    -0.051 Br
ENDROOT
TORSDOF 0
ENDMDL
MODEL 8
REMARK VINA RESULT:      -3.8     10.979     11.659
REMARK  0 active torsions:
REMARK  status: ('A' for Active; 'I' for Inactive)
ROOT
HETATM    1  C1  UNL     1     -42.300  14.582   5.273  1.00 20.00     0.009 A 
HETATM    2  C2  UNL     1     -41.427  13.675   4.672  1.00 20.00     0.019 A 
HETATM    3  C3  UNL     1     -40.397  13.243   6.814  1.00 20.00     0.034 A 
HETATM    4  C4  UNL     1     -41.271  14.155   7.418  1.00 20.00     0.017 A 
HETATM    5  C5  UNL     1     -42.240  14.822   6.653  1.00 20.00    -0.044 A 
HETATM    6  C6  UNL     1     -40.479  13.004   5.442  1.00 20.00     0.011 A 
HETATM    7  C7  UNL     1     -41.159  14.418   8.876  1.00 20.00     0.160 C 
HETATM    8  C8  UNL     1     -43.179  15.822   7.272  1.00 20.00     0.040 C 
HETATM    9  C9  UNL     1     -42.098  15.429   9.495  1.00 20.00     0.084 C 
HETATM   10  C10 UNL     1     -43.417  15.512   8.744  1.00 20.00     0.012 C 
HETATM   11  O11 UNL     1     -40.290  13.865   9.543  1.00 20.00    -0.292 OA
HETATM   12 BR12 UNL     1     -39.296  11.777   4.625  1.00 20.00    -0.051 Br
ENDROOT
TORSDOF 0
ENDMDL
MODEL 9
REMARK VINA RESULT:      -3.8     12.702     14.237
REMARK  0 active torsions:
REMARK  status: ('A' for Active; 'I' for Inactive)
ROOT
HETATM    1  C1  UNL     1     -35.900  15.222  -6.369  1.00 20.00     0.009 A 
HETATM    2  C2  UNL     1     -36.608  16.196  -7.073  1.00 20.00     0.019 A 
HETATM    3  C3  UNL     1     -35.615  17.916  -5.699  1.00 20.00     0.034 A 
HETATM    4  C4  UNL     1     -34.906  16.939  -4.989  1.00 20.00     0.017 A 
HETATM    5  C5  UNL     1     -35.033  15.583  -5.329  1.00 20.00    -0.044 A 
HETATM    6  C6  UNL     1     -36.463  17.541  -6.740  1.00 20.00     0.011 A 
HETATM    7  C7  UNL     1     -34.023  17.349  -3.866  1.00 20.00     0.160 C 
HETATM    8  C8  UNL     1     -34.298  14.511  -4.570  1.00 20.00     0.040 C 
HETATM    9  C9  UNL     1     -33.291  16.269  -3.101  1.00 20.00     0.084 C 
HETATM   10  C10 UNL     1     -33.008  15.052  -3.967  1.00 20.00     0.012 C 
HETATM   11  O11 UNL     1     -33.936  18.529  -3.541  1.00 20.00    -0.292 OA
HETATM   12 BR12 UNL     1     -37.425  18.859  -7.695  1.00 20.00    -0.051 Br
ENDROOT
TORSDOF 0
ENDMDL
