MODEL 1
REMARK VINA RESULT:      -3.7      0.000      0.000
REMARK  1 active torsions:
REMARK  status: ('A' for Active; 'I' for Inactive)
REMARK    1  A    between atoms: C2_2  and  C4_4 
ROOT
HETATM    1  C1  UNL     1     -34.499   4.898   4.714  1.00 20.00     0.207 A 
HETATM    2  C2  UNL     1     -34.167   6.328   5.064  1.00 20.00     0.091 A 
HETATM    3  C3  UNL     1     -34.211   6.767   6.492  1.00 20.00     0.049 C 
HETATM    4  O5  UNL     1     -35.447   5.960   4.532  1.00 20.00    -0.374 OA
ENDROOT
BRANCH   2   5
HETATM    5  C4  UNL     1     -33.337   7.142   4.125  1.00 20.00     0.154 C 
HETATM    6 CL6  UNL     1     -32.614   8.545   4.956  1.00 20.00    -0.127 Cl
ENDBRANCH   2   5
TORSDOF 1
ENDMDL
MODEL 2
REMARK VINA RESULT:      -3.3      2.277      3.050
REMARK  1 active torsions:
REMARK  status: ('A' for Active; 'I' for Inactive)
REMARK    1  A    between atoms: C2_2  and  C4_4 
ROOT
HETATM    1  C1  UNL     1     -32.398   8.264   4.657  1.00 20.00     0.207 A 
HETATM    2  C2  UNL     1     -33.442   7.191   4.853  1.00 20.00     0.091 A 
HETATM    3  C3  UNL     1     -33.577   6.100   3.841  1.00 20.00     0.049 C 
HETATM    4  O5  UNL     1     -33.781   8.491   4.351  1.00 20.00    -0.374 OA
ENDROOT
BRANCH   2   5
HETATM    5  C4  UNL     1     -33.969   6.919   6.225  1.00 20.00     0.154 C 
HETATM    6 CL6  UNL     1     -34.771   5.328   6.302  1.00 20.00    -0.127 Cl
ENDBRANCH   2   5
TORSDOF 1
ENDMDL
MODEL 3
REMARK VINA RESULT:      -3.3      1.189      1.189
REMARK  1 active torsions:
REMARK  status: ('A' for Active; 'I' for Inactive)
REMARK    1  A    between atoms: C2_2  and  C4_4 
ROOT
HETATM    1  C1  UNL     1     -34.648   5.056   5.398  1.00 20.00     0.207 A 
HETATM    2  C2  UNL     1     -34.040   6.260   4.720  1.00 20.00     0.091 A 
HETATM    3  C3  UNL     1     -33.786   7.502   5.510  1.00 20.00     0.049 C 
HETATM    4  O5  UNL     1     -35.429   5.937   4.578  1.00 20.00    -0.374 OA
ENDROOT
BRANCH   2   5
HETATM    5  C4  UNL     1     -33.248   6.076   3.465  1.00 20.00     0.154 C 
HETATM    6 CL6  UNL     1     -32.231   7.503   3.131  1.00 20.00    -0.127 Cl
ENDBRANCH   2   5
TORSDOF 1
ENDMDL
MODEL 4
REMARK VINA RESULT:      -3.2      1.270      1.803
REMARK  1 active torsions:
REMARK  status: ('A' for Active; 'I' for Inactive)
REMARK    1  A    between atoms: C2_2  and  C4_4 
ROOT
HETATM    1  C1  UNL     1     -35.430   5.730   4.602  1.00 20.00     0.207 A 
HETATM    2  C2  UNL     1     -33.989   6.137   4.417  1.00 20.00     0.091 A 
HETATM    3  C3  UNL     1     -33.233   5.654   3.222  1.00 20.00     0.049 C 
HETATM    4  O5  UNL     1     -34.366   5.093   5.324  1.00 20.00    -0.374 OA
ENDROOT
BRANCH   2   5
HETATM    5  C4  UNL     1     -33.479   7.369   5.094  1.00 20.00     0.154 C 
HETATM    6 CL6  UNL     1     -32.192   8.145   4.134  1.00 20.00    -0.127 Cl
ENDBRANCH   2   5
TORSDOF 1
ENDMDL
MODEL 5
REMARK VINA RESULT:      -3.2      2.311      2.723
REMARK  1 active torsions:
REMARK  status: ('A' for Active; 'I' for Inactive)
REMARK    1  A    between atoms: C2_2  and  C4_4 
ROOT
HETATM    1  C1  UNL     1     -33.771   8.349   5.241  1.00 20.00     0.207 A 
HETATM    2  C2  UNL     1     -33.667   6.997   4.579  1.00 20.00     0.091 A 
HETATM    3  C3  UNL     1     -34.811   6.041   4.670  1.00 20.00     0.049 C 
HETATM    4  O5  UNL     1     -33.038   7.269   5.838  1.00 20.00    -0.374 OA
ENDROOT
BRANCH   2   5
HETATM    5  C4  UNL     1     -32.701   6.800   3.454  1.00 20.00     0.154 C 
HETATM    6 CL6  UNL     1     -32.947   5.220   2.665  1.00 20.00    -0.127 Cl
ENDBRANCH   2   5
TORSDOF 1
ENDMDL
MODEL 6
REMARK VINA RESULT:      -3.1      2.472      2.868
REMARK  1 active torsions:
REMARK  status: ('A' for Active; 'I' for Inactive)
REMARK    1  A    between atoms: C2_2  and  C4_4 
ROOT
HETATM    1  C1  UNL     1     -33.612   8.636   4.441  1.00 20.00     0.207 A 
HETATM    2  C2  UNL     1     -33.608   7.210   4.935  1.00 20.00     0.091 A 
HETATM    3  C3  UNL     1     -34.043   6.913   6.333  1.00 20.00     0.049 C 
HETATM    4  O5  UNL     1     -32.403   7.984   4.856  1.00 20.00    -0.374 OA
ENDROOT
BRANCH   2   5
HETATM    5  C4  UNL     1     -33.668   6.089   3.948  1.00 20.00     0.154 C 
HETATM    6 CL6  UNL     1     -34.419   4.639   4.667  1.00 20.00    -0.127 Cl
ENDBRANCH   2   5
TORSDOF 1
ENDMDL
MODEL 7
REMARK VINA RESULT:      -2.9      2.373      3.093
REMARK  1 active torsions:
REMARK  status: ('A' for Active; 'I' for Inactive)
REMARK    1  A    between atoms: C2_2  and  C4_4 
ROOT
HETATM    1  C1  UNL     1     -32.631   8.158   2.671  1.00 20.00     0.207 A 
HETATM    2  C2  UNL     1     -32.824   7.906   4.146  1.00 20.00     0.091 A 
HETATM    3  C3  UNL     1     -32.434   8.958   5.132  1.00 20.00     0.049 C 
HETATM    4  O5  UNL     1     -31.718   7.349   3.425  1.00 20.00    -0.374 OA
ENDROOT
BRANCH   2   5
HETATM    5  C4  UNL     1     -33.824   6.888   4.594  1.00 20.00     0.154 C 
HETATM    6 CL6  UNL     1     -34.093   6.982   6.355  1.00 20.00    -0.127 Cl
ENDBRANCH   2   5
TORSDOF 1
ENDMDL
MODEL 8
REMARK VINA RESULT:      -2.8     16.379     16.895
REMARK  1 active torsions:
REMARK  status: ('A' for Active; 'I' for Inactive)
REMARK    1  A    between atoms: C2_2  and  C4_4 
ROOT
HETATM    1  C1  UNL     1     -22.714  19.041   9.773  1.00 20.00     0.207 A 
HETATM    2  C2  UNL     1     -22.994  17.995  10.825  1.00 20.00     0.091 A 
HETATM    3  C3  UNL     1     -22.626  18.263  12.248  1.00 20.00     0.049 C 
HETATM    4  O5  UNL     1     -21.867  17.896   9.944  1.00 20.00    -0.374 OA
ENDROOT
BRANCH   2   5
HETATM    5  C4  UNL     1     -24.046  16.963  10.575  1.00 20.00     0.154 C 
HETATM    6 CL6  UNL     1     -24.403  16.036  12.056  1.00 20.00    -0.127 Cl
ENDBRANCH   2   5
TORSDOF 1
ENDMDL
MODEL 9
REMARK VINA RESULT:      -2.8      8.784      9.240
REMARK  1 active torsions:
REMARK  status: ('A' for Active; 'I' for Inactive)
REMARK    1  A    between atoms: C2_2  and  C4_4 
ROOT
HETATM    1  C1  UNL     1     -40.420  13.782   7.374  1.00 20.00     0.207 A 
HETATM    2  C2  UNL     1     -40.597  12.929   6.141  1.00 20.00     0.091 A 
HETATM    3  C3  UNL     1     -41.283  13.499   4.942  1.00 20.00     0.049 C 
HETATM    4  O5  UNL     1     -41.451  12.788   7.284  1.00 20.00    -0.374 OA
ENDROOT
BRANCH   2   5
HETATM    5  C4  UNL     1     -39.692  11.761   5.917  1.00 20.00     0.154 C 
HETATM    6 CL6  UNL     1     -39.053  11.751   4.252  1.00 20.00    -0.127 Cl
ENDBRANCH   2   5
TORSDOF 1
ENDMDL
