MODEL 1
REMARK VINA RESULT:      -4.9      0.000      0.000
REMARK  0 active torsions:
REMARK  status: ('A' for Active; 'I' for Inactive)
ROOT
HETATM    1  C1  UNL     1     -33.270   6.121   3.654  1.00 20.00     0.056 C 
HETATM    2  C2  UNL     1     -32.885   8.010   4.733  1.00 20.00     0.264 C 
HETATM    3  C3  UNL     1     -33.001   5.144   2.779  1.00 20.00     0.047 C 
HETATM    4  C4  UNL     1     -33.717   7.181   5.664  1.00 20.00     0.127 C 
HETATM    5  C5  UNL     1     -34.265   6.076   4.776  1.00 20.00     0.010 C 
HETATM    6  C6  UNL     1     -34.309   4.744   5.536  1.00 20.00     0.022 C 
HETATM    7  C7  UNL     1     -35.667   6.430   4.259  1.00 20.00     0.022 C 
HETATM    8  O8  UNL     1     -32.481   9.137   4.984  1.00 20.00    -0.265 OA
HETATM    9  O9  UNL     1     -32.578   7.329   3.590  1.00 20.00    -0.283 OA
ENDROOT
TORSDOF 0
ENDMDL
MODEL 2
REMARK VINA RESULT:      -4.0      1.131      2.272
REMARK  0 active torsions:
REMARK  status: ('A' for Active; 'I' for Inactive)
ROOT
HETATM    1  C1  UNL     1     -34.032   6.244   5.818  1.00 20.00     0.056 C 
HETATM    2  C2  UNL     1     -33.021   8.098   5.168  1.00 20.00     0.264 C 
HETATM    3  C3  UNL     1     -34.504   5.366   6.712  1.00 20.00     0.047 C 
HETATM    4  C4  UNL     1     -33.992   7.768   4.075  1.00 20.00     0.127 C 
HETATM    5  C5  UNL     1     -34.391   6.330   4.364  1.00 20.00     0.010 C 
HETATM    6  C6  UNL     1     -35.877   6.110   4.060  1.00 20.00     0.022 C 
HETATM    7  C7  UNL     1     -33.538   5.347   3.547  1.00 20.00     0.022 C 
HETATM    8  O8  UNL     1     -32.269   9.063   5.157  1.00 20.00    -0.265 OA
HETATM    9  O9  UNL     1     -33.123   7.225   6.212  1.00 20.00    -0.283 OA
ENDROOT
TORSDOF 0
ENDMDL
MODEL 3
REMARK VINA RESULT:      -3.8      8.724      9.959
REMARK  0 active torsions:
REMARK  status: ('A' for Active; 'I' for Inactive)
ROOT
HETATM    1  C1  UNL     1     -41.434  13.585   4.932  1.00 20.00     0.056 C 
HETATM    2  C2  UNL     1     -39.728  12.214   4.628  1.00 20.00     0.264 C 
HETATM    3  C3  UNL     1     -42.446  14.371   4.544  1.00 20.00     0.047 C 
HETATM    4  C4  UNL     1     -40.293  11.858   5.970  1.00 20.00     0.127 C 
HETATM    5  C5  UNL     1     -41.201  13.030   6.306  1.00 20.00     0.010 C 
HETATM    6  C6  UNL     1     -42.468  12.545   7.021  1.00 20.00     0.022 C 
HETATM    7  C7  UNL     1     -40.469  14.060   7.179  1.00 20.00     0.022 C 
HETATM    8  O8  UNL     1     -38.759  11.668   4.118  1.00 20.00    -0.265 OA
HETATM    9  O9  UNL     1     -40.467  13.183   4.012  1.00 20.00    -0.283 OA
ENDROOT
TORSDOF 0
ENDMDL
MODEL 4
REMARK VINA RESULT:      -3.7      9.425     10.502
REMARK  0 active torsions:
REMARK  status: ('A' for Active; 'I' for Inactive)
ROOT
HETATM    1  C1  UNL     1     -40.446  12.791   5.654  1.00 20.00     0.056 C 
HETATM    2  C2  UNL     1     -41.672  14.052   4.316  1.00 20.00     0.264 C 
HETATM    3  C3  UNL     1     -39.393  12.032   5.981  1.00 20.00     0.047 C 
HETATM    4  C4  UNL     1     -41.977  14.527   5.704  1.00 20.00     0.127 C 
HETATM    5  C5  UNL     1     -41.425  13.428   6.596  1.00 20.00     0.010 C 
HETATM    6  C6  UNL     1     -40.797  14.022   7.862  1.00 20.00     0.022 C 
HETATM    7  C7  UNL     1     -42.524  12.425   6.979  1.00 20.00     0.022 C 
HETATM    8  O8  UNL     1     -42.174  14.513   3.301  1.00 20.00    -0.265 OA
HETATM    9  O9  UNL     1     -40.712  13.081   4.316  1.00 20.00    -0.283 OA
ENDROOT
TORSDOF 0
ENDMDL
MODEL 5
REMARK VINA RESULT:      -3.5     12.913     13.729
REMARK  0 active torsions:
REMARK  status: ('A' for Active; 'I' for Inactive)
ROOT
HETATM    1  C1  UNL     1     -36.422  15.794  -5.848  1.00 20.00     0.056 C 
HETATM    2  C2  UNL     1     -35.767  13.973  -4.782  1.00 20.00     0.264 C 
HETATM    3  C3  UNL     1     -37.310  16.701  -6.273  1.00 20.00     0.047 C 
HETATM    4  C4  UNL     1     -34.580  14.886  -4.779  1.00 20.00     0.127 C 
HETATM    5  C5  UNL     1     -34.929  15.942  -5.814  1.00 20.00     0.010 C 
HETATM    6  C6  UNL     1     -34.436  17.323  -5.365  1.00 20.00     0.022 C 
HETATM    7  C7  UNL     1     -34.328  15.592  -7.183  1.00 20.00     0.022 C 
HETATM    8  O8  UNL     1     -35.783  12.855  -4.284  1.00 20.00    -0.265 OA
HETATM    9  O9  UNL     1     -36.857  14.565  -5.352  1.00 20.00    -0.283 OA
ENDROOT
TORSDOF 0
ENDMDL
MODEL 6
REMARK VINA RESULT:      -3.5      1.873      3.328
REMARK  0 active torsions:
REMARK  status: ('A' for Active; 'I' for Inactive)
ROOT
HETATM    1  C1  UNL     1     -33.740   6.829   5.044  1.00 20.00     0.056 C 
HETATM    2  C2  UNL     1     -33.087   5.800   3.201  1.00 20.00     0.264 C 
HETATM    3  C3  UNL     1     -34.203   6.900   6.298  1.00 20.00     0.047 C 
HETATM    4  C4  UNL     1     -32.330   7.093   3.227  1.00 20.00     0.127 C 
HETATM    5  C5  UNL     1     -33.056   7.920   4.274  1.00 20.00     0.010 C 
HETATM    6  C6  UNL     1     -32.061   8.751   5.093  1.00 20.00     0.022 C 
HETATM    7  C7  UNL     1     -34.097   8.844   3.622  1.00 20.00     0.022 C 
HETATM    8  O8  UNL     1     -32.992   4.959   2.317  1.00 20.00    -0.265 OA
HETATM    9  O9  UNL     1     -33.851   5.642   4.322  1.00 20.00    -0.283 OA
ENDROOT
TORSDOF 0
ENDMDL
MODEL 7
REMARK VINA RESULT:      -3.5      9.071     10.468
REMARK  0 active torsions:
REMARK  status: ('A' for Active; 'I' for Inactive)
ROOT
HETATM    1  C1  UNL     1     -42.965   6.254   0.906  1.00 20.00     0.056 C 
HETATM    2  C2  UNL     1     -42.599   5.191  -0.997  1.00 20.00     0.264 C 
HETATM    3  C3  UNL     1     -43.417   6.383   2.159  1.00 20.00     0.047 C 
HETATM    4  C4  UNL     1     -41.494   6.198  -0.882  1.00 20.00     0.127 C 
HETATM    5  C5  UNL     1     -41.969   7.138   0.213  1.00 20.00     0.010 C 
HETATM    6  C6  UNL     1     -40.794   7.584   1.090  1.00 20.00     0.022 C 
HETATM    7  C7  UNL     1     -42.674   8.366  -0.383  1.00 20.00     0.022 C 
HETATM    8  O8  UNL     1     -42.735   4.416  -1.933  1.00 20.00    -0.265 OA
HETATM    9  O9  UNL     1     -43.403   5.199   0.107  1.00 20.00    -0.283 OA
ENDROOT
TORSDOF 0
ENDMDL
MODEL 8
REMARK VINA RESULT:      -3.5      9.720     10.961
REMARK  0 active torsions:
REMARK  status: ('A' for Active; 'I' for Inactive)
ROOT
HETATM    1  C1  UNL     1     -42.122  12.971   7.261  1.00 20.00     0.056 C 
HETATM    2  C2  UNL     1     -40.695  14.238   8.374  1.00 20.00     0.264 C 
HETATM    3  C3  UNL     1     -43.261  12.290   7.083  1.00 20.00     0.047 C 
HETATM    4  C4  UNL     1     -40.445  14.532   6.927  1.00 20.00     0.127 C 
HETATM    5  C5  UNL     1     -41.158  13.406   6.197  1.00 20.00     0.010 C 
HETATM    6  C6  UNL     1     -41.816  13.924   4.913  1.00 20.00     0.022 C 
HETATM    7  C7  UNL     1     -40.185  12.265   5.863  1.00 20.00     0.022 C 
HETATM    8  O8  UNL     1     -40.082  14.751   9.301  1.00 20.00    -0.265 OA
HETATM    9  O9  UNL     1     -41.737  13.372   8.540  1.00 20.00    -0.283 OA
ENDROOT
TORSDOF 0
ENDMDL
MODEL 9
REMARK VINA RESULT:      -3.5      9.217     10.512
REMARK  0 active torsions:
REMARK  status: ('A' for Active; 'I' for Inactive)
ROOT
HETATM    1  C1  UNL     1     -40.587  13.673   7.428  1.00 20.00     0.056 C 
HETATM    2  C2  UNL     1     -39.963  12.312   5.802  1.00 20.00     0.264 C 
HETATM    3  C3  UNL     1     -40.418  14.388   8.546  1.00 20.00     0.047 C 
HETATM    4  C4  UNL     1     -41.042  13.170   5.213  1.00 20.00     0.127 C 
HETATM    5  C5  UNL     1     -41.692  13.820   6.424  1.00 20.00     0.010 C 
HETATM    6  C6  UNL     1     -42.084  15.269   6.114  1.00 20.00     0.022 C 
HETATM    7  C7  UNL     1     -42.929  13.028   6.875  1.00 20.00     0.022 C 
HETATM    8  O8  UNL     1     -39.376  11.426   5.196  1.00 20.00    -0.265 OA
HETATM    9  O9  UNL     1     -39.667  12.683   7.082  1.00 20.00    -0.283 OA
ENDROOT
TORSDOF 0
ENDMDL
