MODEL 1
REMARK VINA RESULT:      -2.4      0.000      0.000
REMARK  2 active torsions:
REMARK  status: ('A' for Active; 'I' for Inactive)
REMARK    1  A    between atoms: P5_5  and  P6_6 
REMARK    2  A    between atoms: P5_5  and  S8_8 
ROOT
HETATM    1  C1  UNL     1     -35.697  18.372  -3.728  1.00 20.00     0.061 C 
HETATM    2  P5  UNL     1     -34.202  17.568  -4.413  1.00 20.00    -0.021 P 
ENDROOT
BRANCH   2   3
HETATM    3  P6  UNL     1     -35.015  15.859  -5.438  1.00 20.00    -0.027 P 
HETATM    4  C2  UNL     1     -34.161  15.636  -7.000  1.00 20.00     0.060 C 
HETATM    5  C3  UNL     1     -34.491  14.420  -4.493  1.00 20.00     0.060 C 
HETATM    6  S7  UNL     1     -36.948  16.039  -5.584  1.00 20.00    -0.092 SA
ENDBRANCH   2   3
BRANCH   2   7
HETATM    7  S8  UNL     1     -33.352  16.679  -2.701  1.00 20.00    -0.137 SA
HETATM    8  C4  UNL     1     -33.823  17.719  -1.302  1.00 20.00     0.095 C 
ENDBRANCH   2   7
TORSDOF 2
ENDMDL
MODEL 2
REMARK VINA RESULT:      -2.3      1.714      2.071
REMARK  2 active torsions:
REMARK  status: ('A' for Active; 'I' for Inactive)
REMARK    1  A    between atoms: P5_5  and  P6_6 
REMARK    2  A    between atoms: P5_5  and  S8_8 
ROOT
HETATM    1  C1  UNL     1     -35.855  18.543  -3.201  1.00 20.00     0.061 C 
HETATM    2  P5  UNL     1     -34.309  18.020  -4.027  1.00 20.00    -0.021 P 
ENDROOT
BRANCH   2   3
HETATM    3  P6  UNL     1     -34.990  16.487  -5.374  1.00 20.00    -0.027 P 
HETATM    4  C2  UNL     1     -36.783  16.495  -5.435  1.00 20.00     0.060 C 
HETATM    5  C3  UNL     1     -34.536  17.042  -7.025  1.00 20.00     0.060 C 
HETATM    6  S7  UNL     1     -34.199  14.778  -4.877  1.00 20.00    -0.092 SA
ENDBRANCH   2   3
BRANCH   2   7
HETATM    7  S8  UNL     1     -33.365  16.884  -2.523  1.00 20.00    -0.137 SA
HETATM    8  C4  UNL     1     -33.735  17.704  -0.958  1.00 20.00     0.095 C 
ENDBRANCH   2   7
TORSDOF 2
ENDMDL
MODEL 3
REMARK VINA RESULT:      -2.3      1.820      2.169
REMARK  2 active torsions:
REMARK  status: ('A' for Active; 'I' for Inactive)
REMARK    1  A    between atoms: P5_5  and  P6_6 
REMARK    2  A    between atoms: P5_5  and  S8_8 
ROOT
HETATM    1  C1  UNL     1     -36.294  18.089  -4.443  1.00 20.00     0.061 C 
HETATM    2  P5  UNL     1     -34.660  17.860  -5.233  1.00 20.00    -0.021 P 
ENDROOT
BRANCH   2   3
HETATM    3  P6  UNL     1     -34.598  15.737  -5.579  1.00 20.00    -0.027 P 
HETATM    4  C2  UNL     1     -36.267  15.080  -5.574  1.00 20.00     0.060 C 
HETATM    5  C3  UNL     1     -34.098  15.531  -7.296  1.00 20.00     0.060 C 
HETATM    6  S7  UNL     1     -33.388  14.899  -4.304  1.00 20.00    -0.092 SA
ENDBRANCH   2   3
BRANCH   2   7
HETATM    7  S8  UNL     1     -33.344  18.068  -3.598  1.00 20.00    -0.137 SA
HETATM    8  C4  UNL     1     -34.378  18.137  -2.120  1.00 20.00     0.095 C 
ENDBRANCH   2   7
TORSDOF 2
ENDMDL
MODEL 4
REMARK VINA RESULT:      -2.3     13.116     13.915
REMARK  2 active torsions:
REMARK  status: ('A' for Active; 'I' for Inactive)
REMARK    1  A    between atoms: P5_5  and  P6_6 
REMARK    2  A    between atoms: P5_5  and  S8_8 
ROOT
HETATM    1  C1  UNL     1     -41.468  16.245   7.079  1.00 20.00     0.061 C 
HETATM    2  P5  UNL     1     -40.672  14.736   7.741  1.00 20.00    -0.021 P 
ENDROOT
BRANCH   2   3
HETATM    3  P6  UNL     1     -41.282  13.226   6.335  1.00 20.00    -0.027 P 
HETATM    4  C2  UNL     1     -42.711  12.351   6.976  1.00 20.00     0.060 C 
HETATM    5  C3  UNL     1     -41.961  14.110   4.923  1.00 20.00     0.060 C 
HETATM    6  S7  UNL     1     -39.762  12.090   5.892  1.00 20.00    -0.092 SA
ENDBRANCH   2   3
BRANCH   2   7
HETATM    7  S8  UNL     1     -41.885  14.289   9.407  1.00 20.00    -0.137 SA
HETATM    8  C4  UNL     1     -40.787  14.255  10.840  1.00 20.00     0.095 C 
ENDBRANCH   2   7
TORSDOF 2
ENDMDL
MODEL 5
REMARK VINA RESULT:      -2.2      1.593      4.324
REMARK  2 active torsions:
REMARK  status: ('A' for Active; 'I' for Inactive)
REMARK    1  A    between atoms: P5_5  and  P6_6 
REMARK    2  A    between atoms: P5_5  and  S8_8 
ROOT
HETATM    1  C1  UNL     1     -34.080  14.554  -4.252  1.00 20.00     0.061 C 
HETATM    2  P5  UNL     1     -34.416  16.018  -5.298  1.00 20.00    -0.021 P 
ENDROOT
BRANCH   2   3
HETATM    3  P6  UNL     1     -34.240  17.645  -3.901  1.00 20.00    -0.027 P 
HETATM    4  C2  UNL     1     -33.368  19.008  -4.675  1.00 20.00     0.060 C 
HETATM    5  C3  UNL     1     -35.903  18.304  -3.698  1.00 20.00     0.060 C 
HETATM    6  S7  UNL     1     -33.444  17.004  -2.243  1.00 20.00    -0.092 SA
ENDBRANCH   2   3
BRANCH   2   7
HETATM    7  S8  UNL     1     -36.504  15.902  -5.565  1.00 20.00    -0.137 SA
HETATM    8  C4  UNL     1     -36.857  16.682  -7.154  1.00 20.00     0.095 C 
ENDBRANCH   2   7
TORSDOF 2
ENDMDL
MODEL 6
REMARK VINA RESULT:      -2.2      2.172      2.229
REMARK  2 active torsions:
REMARK  status: ('A' for Active; 'I' for Inactive)
REMARK    1  A    between atoms: P5_5  and  P6_6 
REMARK    2  A    between atoms: P5_5  and  S8_8 
ROOT
HETATM    1  C1  UNL     1     -36.907  17.432  -4.957  1.00 20.00     0.061 C 
HETATM    2  P5  UNL     1     -35.115  17.579  -5.299  1.00 20.00    -0.021 P 
ENDROOT
BRANCH   2   3
HETATM    3  P6  UNL     1     -34.560  15.557  -5.783  1.00 20.00    -0.027 P 
HETATM    4  C2  UNL     1     -33.408  14.942  -4.552  1.00 20.00     0.060 C 
HETATM    5  C3  UNL     1     -36.027  14.558  -5.486  1.00 20.00     0.060 C 
HETATM    6  S7  UNL     1     -33.914  15.475  -7.618  1.00 20.00    -0.092 SA
ENDBRANCH   2   3
BRANCH   2   7
HETATM    7  S8  UNL     1     -34.310  17.796  -3.363  1.00 20.00    -0.137 SA
HETATM    8  C4  UNL     1     -32.996  19.027  -3.494  1.00 20.00     0.095 C 
ENDBRANCH   2   7
TORSDOF 2
ENDMDL
MODEL 7
REMARK VINA RESULT:      -2.2      2.303      4.002
REMARK  2 active torsions:
REMARK  status: ('A' for Active; 'I' for Inactive)
REMARK    1  A    between atoms: P5_5  and  P6_6 
REMARK    2  A    between atoms: P5_5  and  S8_8 
ROOT
HETATM    1  C1  UNL     1     -34.416  18.481  -6.722  1.00 20.00     0.061 C 
HETATM    2  P5  UNL     1     -35.301  17.499  -5.457  1.00 20.00    -0.021 P 
ENDROOT
BRANCH   2   3
HETATM    3  P6  UNL     1     -34.294  18.056  -3.639  1.00 20.00    -0.027 P 
HETATM    4  C2  UNL     1     -33.429  16.632  -2.973  1.00 20.00     0.060 C 
HETATM    5  C3  UNL     1     -32.947  19.142  -4.132  1.00 20.00     0.060 C 
HETATM    6  S7  UNL     1     -35.562  18.885  -2.415  1.00 20.00    -0.092 SA
ENDBRANCH   2   3
BRANCH   2   7
HETATM    7  S8  UNL     1     -34.545  15.560  -5.792  1.00 20.00    -0.137 SA
HETATM    8  C4  UNL     1     -35.880  14.416  -5.381  1.00 20.00     0.095 C 
ENDBRANCH   2   7
TORSDOF 2
ENDMDL
MODEL 8
REMARK VINA RESULT:      -2.2      2.546      3.375
REMARK  2 active torsions:
REMARK  status: ('A' for Active; 'I' for Inactive)
REMARK    1  A    between atoms: P5_5  and  P6_6 
REMARK    2  A    between atoms: P5_5  and  S8_8 
ROOT
HETATM    1  C1  UNL     1     -33.622  17.662  -3.647  1.00 20.00     0.061 C 
HETATM    2  P5  UNL     1     -35.009  17.373  -4.805  1.00 20.00    -0.021 P 
ENDROOT
BRANCH   2   3
HETATM    3  P6  UNL     1     -34.575  15.413  -5.580  1.00 20.00    -0.027 P 
HETATM    4  C2  UNL     1     -33.404  14.587  -4.501  1.00 20.00     0.060 C 
HETATM    5  C3  UNL     1     -36.075  14.447  -5.348  1.00 20.00     0.060 C 
HETATM    6  S7  UNL     1     -34.012  15.552  -7.440  1.00 20.00    -0.092 SA
ENDBRANCH   2   3
BRANCH   2   7
HETATM    7  S8  UNL     1     -34.489  18.605  -6.435  1.00 20.00    -0.137 SA
HETATM    8  C4  UNL     1     -36.020  18.935  -7.332  1.00 20.00     0.095 C 
ENDBRANCH   2   7
TORSDOF 2
ENDMDL
MODEL 9
REMARK VINA RESULT:      -2.2     12.841     13.889
REMARK  2 active torsions:
REMARK  status: ('A' for Active; 'I' for Inactive)
REMARK    1  A    between atoms: P5_5  and  P6_6 
REMARK    2  A    between atoms: P5_5  and  S8_8 
ROOT
HETATM    1  C1  UNL     1     -41.969  14.144   4.856  1.00 20.00     0.061 C 
HETATM    2  P5  UNL     1     -41.814  13.034   6.302  1.00 20.00    -0.021 P 
ENDROOT
BRANCH   2   3
HETATM    3  P6  UNL     1     -41.907  14.403   7.960  1.00 20.00    -0.027 P 
HETATM    4  C2  UNL     1     -42.927  13.703   9.259  1.00 20.00     0.060 C 
HETATM    5  C3  UNL     1     -40.267  14.398   8.698  1.00 20.00     0.060 C 
HETATM    6  S7  UNL     1     -42.479  16.156   7.331  1.00 20.00    -0.092 SA
ENDBRANCH   2   3
BRANCH   2   7
HETATM    7  S8  UNL     1     -39.764  12.541   6.265  1.00 20.00    -0.137 SA
HETATM    8  C4  UNL     1     -39.443  11.827   4.639  1.00 20.00     0.095 C 
ENDBRANCH   2   7
TORSDOF 2
ENDMDL
