MODEL 1
REMARK VINA RESULT:      -3.9      0.000      0.000
REMARK  1 active torsions:
REMARK  status: ('A' for Active; 'I' for Inactive)
REMARK    1  A    between atoms: C7_7  and  C11_11 
ROOT
HETATM    1  C1  UNL     1     -33.662  17.969  -3.939  1.00 20.00    -0.018 C 
HETATM    2  C2  UNL     1     -34.806  17.374  -4.693  1.00 20.00     0.159 C 
HETATM    3  C3  UNL     1     -33.343  19.244  -4.195  1.00 20.00     0.023 C 
HETATM    4  C4  UNL     1     -32.687  15.691  -3.572  1.00 20.00     0.010 C 
HETATM    5  C5  UNL     1     -33.967  15.065  -4.125  1.00 20.00     0.013 C 
HETATM    6  C6  UNL     1     -32.921  17.086  -2.972  1.00 20.00     0.017 C 
HETATM    7  C7  UNL     1     -34.609  15.948  -5.198  1.00 20.00     0.063 C 
HETATM    8  C8  UNL     1     -33.667  17.013  -1.636  1.00 20.00     0.015 C 
HETATM    9  O12 UNL     1     -35.812  18.036  -4.939  1.00 20.00    -0.292 OA
ENDROOT
BRANCH   7  10
HETATM   10  C11 UNL     1     -35.928  15.339  -5.668  1.00 20.00    -0.011 C 
HETATM   11  C9  UNL     1     -35.917  15.137  -7.183  1.00 20.00     0.010 C 
HETATM   12  C10 UNL     1     -36.195  14.015  -4.954  1.00 20.00     0.010 C 
ENDBRANCH   7  10
TORSDOF 1
ENDMDL
MODEL 2
REMARK VINA RESULT:      -3.7     24.442     25.909
REMARK  1 active torsions:
REMARK  status: ('A' for Active; 'I' for Inactive)
REMARK    1  A    between atoms: C7_7  and  C11_11 
ROOT
HETATM    1  C1  UNL     1     -28.544  -3.343  10.432  1.00 20.00    -0.018 C 
HETATM    2  C2  UNL     1     -27.100  -3.617  10.700  1.00 20.00     0.159 C 
HETATM    3  C3  UNL     1     -29.254  -4.295   9.813  1.00 20.00     0.023 C 
HETATM    4  C4  UNL     1     -28.111  -0.876  10.485  1.00 20.00     0.010 C 
HETATM    5  C5  UNL     1     -26.696  -1.145  10.997  1.00 20.00     0.013 C 
HETATM    6  C6  UNL     1     -29.094  -2.003  10.840  1.00 20.00     0.017 C 
HETATM    7  C7  UNL     1     -26.138  -2.461  10.446  1.00 20.00     0.063 C 
HETATM    8  C8  UNL     1     -29.447  -2.003  12.331  1.00 20.00     0.015 C 
HETATM    9  O12 UNL     1     -26.723  -4.736  11.040  1.00 20.00    -0.292 OA
ENDROOT
BRANCH   7  10
HETATM   10  C11 UNL     1     -24.760  -2.743  11.041  1.00 20.00    -0.011 C 
HETATM   11  C9  UNL     1     -23.752  -3.056   9.937  1.00 20.00     0.010 C 
HETATM   12  C10 UNL     1     -24.285  -1.561  11.883  1.00 20.00     0.010 C 
ENDBRANCH   7  10
TORSDOF 1
ENDMDL
MODEL 3
REMARK VINA RESULT:      -3.6      1.149      4.039
REMARK  1 active torsions:
REMARK  status: ('A' for Active; 'I' for Inactive)
REMARK    1  A    between atoms: C7_7  and  C11_11 
ROOT
HETATM    1  C1  UNL     1     -35.688  16.047  -5.270  1.00 20.00    -0.018 C 
HETATM    2  C2  UNL     1     -35.218  17.235  -4.497  1.00 20.00     0.159 C 
HETATM    3  C3  UNL     1     -36.977  16.007  -5.631  1.00 20.00     0.023 C 
HETATM    4  C4  UNL     1     -33.824  14.664  -4.326  1.00 20.00     0.010 C 
HETATM    5  C5  UNL     1     -33.202  15.927  -3.731  1.00 20.00     0.013 C 
HETATM    6  C6  UNL     1     -34.692  14.957  -5.560  1.00 20.00     0.017 C 
HETATM    7  C7  UNL     1     -34.272  16.950  -3.335  1.00 20.00     0.063 C 
HETATM    8  C8  UNL     1     -33.841  15.322  -6.782  1.00 20.00     0.015 C 
HETATM    9  O12 UNL     1     -35.635  18.361  -4.757  1.00 20.00    -0.292 OA
ENDROOT
BRANCH   7  10
HETATM   10  C11 UNL     1     -33.618  18.231  -2.824  1.00 20.00    -0.011 C 
HETATM   11  C9  UNL     1     -32.766  17.944  -1.588  1.00 20.00     0.010 C 
HETATM   12  C10 UNL     1     -32.772  18.877  -3.919  1.00 20.00     0.010 C 
ENDBRANCH   7  10
TORSDOF 1
ENDMDL
MODEL 4
REMARK VINA RESULT:      -3.6     12.735     13.861
REMARK  1 active torsions:
REMARK  status: ('A' for Active; 'I' for Inactive)
REMARK    1  A    between atoms: C7_7  and  C11_11 
ROOT
HETATM    1  C1  UNL     1     -41.042  16.813   7.677  1.00 20.00    -0.018 C 
HETATM    2  C2  UNL     1     -41.383  15.690   6.753  1.00 20.00     0.159 C 
HETATM    3  C3  UNL     1     -40.861  18.027   7.141  1.00 20.00     0.023 C 
HETATM    4  C4  UNL     1     -40.105  15.193   9.341  1.00 20.00     0.010 C 
HETATM    5  C5  UNL     1     -40.667  14.035   8.517  1.00 20.00     0.013 C 
HETATM    6  C6  UNL     1     -40.888  16.499   9.140  1.00 20.00     0.017 C 
HETATM    7  C7  UNL     1     -40.680  14.362   7.021  1.00 20.00     0.063 C 
HETATM    8  C8  UNL     1     -42.259  16.452   9.823  1.00 20.00     0.015 C 
HETATM    9  O12 UNL     1     -42.137  15.865   5.799  1.00 20.00    -0.292 OA
ENDROOT
BRANCH   7  10
HETATM   10  C11 UNL     1     -41.325  13.224   6.234  1.00 20.00    -0.011 C 
HETATM   11  C9  UNL     1     -40.287  12.160   5.880  1.00 20.00     0.010 C 
HETATM   12  C10 UNL     1     -42.476  12.607   7.026  1.00 20.00     0.010 C 
ENDBRANCH   7  10
TORSDOF 1
ENDMDL
MODEL 5
REMARK VINA RESULT:      -3.5      1.929      4.645
REMARK  1 active torsions:
REMARK  status: ('A' for Active; 'I' for Inactive)
REMARK    1  A    between atoms: C7_7  and  C11_11 
ROOT
HETATM    1  C1  UNL     1     -34.289  16.767  -4.670  1.00 20.00    -0.018 C 
HETATM    2  C2  UNL     1     -33.712  16.658  -3.297  1.00 20.00     0.159 C 
HETATM    3  C3  UNL     1     -34.051  15.767  -5.528  1.00 20.00     0.023 C 
HETATM    4  C4  UNL     1     -34.364  19.263  -4.468  1.00 20.00     0.010 C 
HETATM    5  C5  UNL     1     -34.006  19.143  -2.986  1.00 20.00     0.013 C 
HETATM    6  C6  UNL     1     -35.068  18.009  -5.010  1.00 20.00     0.017 C 
HETATM    7  C7  UNL     1     -33.106  17.933  -2.719  1.00 20.00     0.063 C 
HETATM    8  C8  UNL     1     -36.506  17.896  -4.494  1.00 20.00     0.015 C 
HETATM    9  O12 UNL     1     -33.676  15.578  -2.711  1.00 20.00    -0.292 OA
ENDROOT
BRANCH   7  10
HETATM   10  C11 UNL     1     -32.837  17.792  -1.223  1.00 20.00    -0.011 C 
HETATM   11  C9  UNL     1     -31.582  18.568  -0.827  1.00 20.00     0.010 C 
HETATM   12  C10 UNL     1     -34.041  18.269  -0.412  1.00 20.00     0.010 C 
ENDBRANCH   7  10
TORSDOF 1
ENDMDL
MODEL 6
REMARK VINA RESULT:      -3.5     13.094     14.430
REMARK  1 active torsions:
REMARK  status: ('A' for Active; 'I' for Inactive)
REMARK    1  A    between atoms: C7_7  and  C11_11 
ROOT
HETATM    1  C1  UNL     1     -41.006  13.127   6.546  1.00 20.00    -0.018 C 
HETATM    2  C2  UNL     1     -40.636  14.133   7.585  1.00 20.00     0.159 C 
HETATM    3  C3  UNL     1     -40.082  12.221   6.198  1.00 20.00     0.023 C 
HETATM    4  C4  UNL     1     -42.741  14.680   5.623  1.00 20.00     0.010 C 
HETATM    5  C5  UNL     1     -42.537  15.605   6.823  1.00 20.00     0.013 C 
HETATM    6  C6  UNL     1     -42.377  13.219   5.932  1.00 20.00     0.017 C 
HETATM    7  C7  UNL     1     -41.091  15.566   7.325  1.00 20.00     0.063 C 
HETATM    8  C8  UNL     1     -43.415  12.553   6.841  1.00 20.00     0.015 C 
HETATM    9  O12 UNL     1     -39.946  13.818   8.552  1.00 20.00    -0.292 OA
ENDROOT
BRANCH   7  10
HETATM   10  C11 UNL     1     -40.939  16.432   8.574  1.00 20.00    -0.011 C 
HETATM   11  C9  UNL     1     -40.831  17.908   8.194  1.00 20.00     0.010 C 
HETATM   12  C10 UNL     1     -42.110  16.209   9.529  1.00 20.00     0.010 C 
ENDBRANCH   7  10
TORSDOF 1
ENDMDL
MODEL 7
REMARK VINA RESULT:      -3.5      1.798      3.071
REMARK  1 active torsions:
REMARK  status: ('A' for Active; 'I' for Inactive)
REMARK    1  A    between atoms: C7_7  and  C11_11 
ROOT
HETATM    1  C1  UNL     1     -33.973  16.116  -4.111  1.00 20.00    -0.018 C 
HETATM    2  C2  UNL     1     -34.791  17.248  -4.640  1.00 20.00     0.159 C 
HETATM    3  C3  UNL     1     -33.258  16.330  -2.999  1.00 20.00     0.023 C 
HETATM    4  C4  UNL     1     -33.874  15.087  -6.393  1.00 20.00     0.010 C 
HETATM    5  C5  UNL     1     -34.905  16.104  -6.885  1.00 20.00     0.013 C 
HETATM    6  C6  UNL     1     -33.976  14.824  -4.883  1.00 20.00     0.017 C 
HETATM    7  C7  UNL     1     -34.771  17.442  -6.153  1.00 20.00     0.063 C 
HETATM    8  C8  UNL     1     -35.215  13.995  -4.531  1.00 20.00     0.015 C 
HETATM    9  O12 UNL     1     -35.384  18.008  -3.878  1.00 20.00    -0.292 OA
ENDROOT
BRANCH   7  10
HETATM   10  C11 UNL     1     -35.866  18.406  -6.604  1.00 20.00    -0.011 C 
HETATM   11  C9  UNL     1     -35.381  19.263  -7.772  1.00 20.00     0.010 C 
HETATM   12  C10 UNL     1     -37.131  17.641  -6.989  1.00 20.00     0.010 C 
ENDBRANCH   7  10
TORSDOF 1
ENDMDL
MODEL 8
REMARK VINA RESULT:      -3.4     13.166     15.119
REMARK  1 active torsions:
REMARK  status: ('A' for Active; 'I' for Inactive)
REMARK    1  A    between atoms: C7_7  and  C11_11 
ROOT
HETATM    1  C1  UNL     1     -42.602  12.851   7.267  1.00 20.00    -0.018 C 
HETATM    2  C2  UNL     1     -42.451  13.784   8.424  1.00 20.00     0.159 C 
HETATM    3  C3  UNL     1     -43.416  11.798   7.417  1.00 20.00     0.023 C 
HETATM    4  C4  UNL     1     -40.366  13.549   6.379  1.00 20.00     0.010 C 
HETATM    5  C5  UNL     1     -40.315  14.671   7.417  1.00 20.00     0.013 C 
HETATM    6  C6  UNL     1     -41.802  13.135   6.024  1.00 20.00     0.017 C 
HETATM    7  C7  UNL     1     -41.035  14.276   8.710  1.00 20.00     0.063 C 
HETATM    8  C8  UNL     1     -42.505  14.194   5.167  1.00 20.00     0.015 C 
HETATM    9  O12 UNL     1     -43.413  14.071   9.132  1.00 20.00    -0.292 OA
ENDROOT
BRANCH   7  10
HETATM   10  C11 UNL     1     -41.042  15.445   9.692  1.00 20.00    -0.011 C 
HETATM   11  C9  UNL     1     -39.971  15.252  10.764  1.00 20.00     0.010 C 
HETATM   12  C10 UNL     1     -40.832  16.767   8.956  1.00 20.00     0.010 C 
ENDBRANCH   7  10
TORSDOF 1
ENDMDL
MODEL 9
REMARK VINA RESULT:      -3.3     13.223     14.812
REMARK  1 active torsions:
REMARK  status: ('A' for Active; 'I' for Inactive)
REMARK    1  A    between atoms: C7_7  and  C11_11 
ROOT
HETATM    1  C1  UNL     1     -42.349  14.544   9.668  1.00 20.00    -0.018 C 
HETATM    2  C2  UNL     1     -42.295  13.684   8.449  1.00 20.00     0.159 C 
HETATM    3  C3  UNL     1     -43.417  14.426  10.467  1.00 20.00     0.023 C 
HETATM    4  C4  UNL     1     -40.825  16.214   8.588  1.00 20.00     0.010 C 
HETATM    5  C5  UNL     1     -40.573  15.230   7.446  1.00 20.00     0.013 C 
HETATM    6  C6  UNL     1     -41.221  15.512   9.897  1.00 20.00     0.017 C 
HETATM    7  C7  UNL     1     -41.802  14.357   7.172  1.00 20.00     0.063 C 
HETATM    8  C8  UNL     1     -40.028  14.799  10.544  1.00 20.00     0.015 C 
HETATM    9  O12 UNL     1     -42.693  12.521   8.478  1.00 20.00    -0.292 OA
ENDROOT
BRANCH   7  10
HETATM   10  C11 UNL     1     -41.491  13.330   6.086  1.00 20.00    -0.011 C 
HETATM   11  C9  UNL     1     -41.733  13.924   4.699  1.00 20.00     0.010 C 
HETATM   12  C10 UNL     1     -40.053  12.831   6.213  1.00 20.00     0.010 C 
ENDBRANCH   7  10
TORSDOF 1
ENDMDL
