MODEL 1
REMARK VINA RESULT:      -4.6      0.000      0.000
REMARK  2 active torsions:
REMARK  status: ('A' for Active; 'I' for Inactive)
REMARK    1  A    between atoms: C1_1  and  C3_3 
REMARK    2  A    between atoms: C2_2  and  C8_8 
ROOT
HETATM    1  C1  UNL     1     -33.894   6.857   4.570  1.00 20.00     0.052 C 
HETATM    2  C2  UNL     1     -33.022   6.634   3.567  1.00 20.00    -0.077 C 
HETATM    3  C4  UNL     1     -32.944   5.354   2.775  1.00 20.00     0.044 C 
ENDROOT
BRANCH   2   4
HETATM    4  C8  UNL     1     -32.044   7.742   3.180  1.00 20.00     0.006 C 
HETATM    5  C6  UNL     1     -32.159   8.126   1.703  1.00 20.00     0.014 C 
HETATM    6  C7  UNL     1     -32.194   8.975   4.075  1.00 20.00     0.014 C 
ENDBRANCH   2   4
BRANCH   1   7
HETATM    7  C3  UNL     1     -34.916   5.887   5.058  1.00 20.00     0.145 C 
HETATM    8  C5  UNL     1     -34.591   5.161   6.336  1.00 20.00     0.096 C 
HETATM    9  O9  UNL     1     -35.947   5.650   4.435  1.00 20.00    -0.294 OA
ENDBRANCH   1   7
TORSDOF 2
ENDMDL
MODEL 2
REMARK VINA RESULT:      -4.0      2.062      4.316
REMARK  2 active torsions:
REMARK  status: ('A' for Active; 'I' for Inactive)
REMARK    1  A    between atoms: C1_1  and  C3_3 
REMARK    2  A    between atoms: C2_2  and  C8_8 
ROOT
HETATM    1  C1  UNL     1     -33.293   7.224   3.948  1.00 20.00     0.052 C 
HETATM    2  C2  UNL     1     -33.943   6.882   5.078  1.00 20.00    -0.077 C 
HETATM    3  C4  UNL     1     -34.029   7.751   6.307  1.00 20.00     0.044 C 
ENDROOT
BRANCH   2   4
HETATM    4  C8  UNL     1     -34.655   5.531   5.139  1.00 20.00     0.006 C 
HETATM    5  C6  UNL     1     -34.022   4.501   4.201  1.00 20.00     0.014 C 
HETATM    6  C7  UNL     1     -34.732   4.991   6.569  1.00 20.00     0.014 C 
ENDBRANCH   2   4
BRANCH   1   7
HETATM    7  C3  UNL     1     -32.562   8.504   3.726  1.00 20.00     0.145 C 
HETATM    8  C5  UNL     1     -32.609   9.068   2.331  1.00 20.00     0.096 C 
HETATM    9  O9  UNL     1     -31.913   9.053   4.612  1.00 20.00    -0.294 OA
ENDBRANCH   1   7
TORSDOF 2
ENDMDL
MODEL 3
REMARK VINA RESULT:      -3.9      2.129      4.006
REMARK  2 active torsions:
REMARK  status: ('A' for Active; 'I' for Inactive)
REMARK    1  A    between atoms: C1_1  and  C3_3 
REMARK    2  A    between atoms: C2_2  and  C8_8 
ROOT
HETATM    1  C1  UNL     1     -33.518   7.757   4.700  1.00 20.00     0.052 C 
HETATM    2  C2  UNL     1     -33.581   6.530   4.147  1.00 20.00    -0.077 C 
HETATM    3  C4  UNL     1     -32.766   6.089   2.958  1.00 20.00     0.044 C 
ENDROOT
BRANCH   2   4
HETATM    4  C8  UNL     1     -34.529   5.495   4.753  1.00 20.00     0.006 C 
HETATM    5  C6  UNL     1     -34.072   4.061   4.475  1.00 20.00     0.014 C 
HETATM    6  C7  UNL     1     -34.734   5.720   6.253  1.00 20.00     0.014 C 
ENDBRANCH   2   4
BRANCH   1   7
HETATM    7  C3  UNL     1     -32.641   8.870   4.236  1.00 20.00     0.145 C 
HETATM    8  C5  UNL     1     -32.724   9.223   2.775  1.00 20.00     0.096 C 
HETATM    9  O9  UNL     1     -31.855   9.442   4.985  1.00 20.00    -0.294 OA
ENDBRANCH   1   7
TORSDOF 2
ENDMDL
MODEL 4
REMARK VINA RESULT:      -3.7      1.308      2.224
REMARK  2 active torsions:
REMARK  status: ('A' for Active; 'I' for Inactive)
REMARK    1  A    between atoms: C1_1  and  C3_3 
REMARK    2  A    between atoms: C2_2  and  C8_8 
ROOT
HETATM    1  C1  UNL     1     -33.780   6.133   4.143  1.00 20.00     0.052 C 
HETATM    2  C2  UNL     1     -33.465   7.279   4.777  1.00 20.00    -0.077 C 
HETATM    3  C4  UNL     1     -33.610   7.498   6.262  1.00 20.00     0.044 C 
ENDROOT
BRANCH   2   4
HETATM    4  C8  UNL     1     -32.911   8.446   3.961  1.00 20.00     0.006 C 
HETATM    5  C6  UNL     1     -32.016   9.363   4.798  1.00 20.00     0.014 C 
HETATM    6  C7  UNL     1     -32.178   7.968   2.705  1.00 20.00     0.014 C 
ENDBRANCH   2   4
BRANCH   1   7
HETATM    7  C3  UNL     1     -34.317   4.904   4.794  1.00 20.00     0.145 C 
HETATM    8  C5  UNL     1     -35.095   5.107   6.066  1.00 20.00     0.096 C 
HETATM    9  O9  UNL     1     -34.102   3.779   4.351  1.00 20.00    -0.294 OA
ENDBRANCH   1   7
TORSDOF 2
ENDMDL
MODEL 5
REMARK VINA RESULT:      -3.7     12.222     13.290
REMARK  2 active torsions:
REMARK  status: ('A' for Active; 'I' for Inactive)
REMARK    1  A    between atoms: C1_1  and  C3_3 
REMARK    2  A    between atoms: C2_2  and  C8_8 
ROOT
HETATM    1  C1  UNL     1     -32.791  17.598  -1.559  1.00 20.00     0.052 C 
HETATM    2  C2  UNL     1     -33.181  17.933  -2.805  1.00 20.00    -0.077 C 
HETATM    3  C4  UNL     1     -32.898  19.263  -3.456  1.00 20.00     0.044 C 
ENDROOT
BRANCH   2   4
HETATM    4  C8  UNL     1     -33.954  16.911  -3.636  1.00 20.00     0.006 C 
HETATM    5  C6  UNL     1     -34.363  17.467  -5.002  1.00 20.00     0.014 C 
HETATM    6  C7  UNL     1     -33.179  15.600  -3.793  1.00 20.00     0.014 C 
ENDBRANCH   2   4
BRANCH   1   7
HETATM    7  C3  UNL     1     -32.023  18.474  -0.628  1.00 20.00     0.145 C 
HETATM    8  C5  UNL     1     -32.831  19.263   0.367  1.00 20.00     0.096 C 
HETATM    9  O9  UNL     1     -30.803  18.591  -0.693  1.00 20.00    -0.294 OA
ENDBRANCH   1   7
TORSDOF 2
ENDMDL
MODEL 6
REMARK VINA RESULT:      -3.7      1.432      2.158
REMARK  2 active torsions:
REMARK  status: ('A' for Active; 'I' for Inactive)
REMARK    1  A    between atoms: C1_1  and  C3_3 
REMARK    2  A    between atoms: C2_2  and  C8_8 
ROOT
HETATM    1  C1  UNL     1     -33.561   6.679   4.644  1.00 20.00     0.052 C 
HETATM    2  C2  UNL     1     -32.769   7.674   4.200  1.00 20.00    -0.077 C 
HETATM    3  C4  UNL     1     -32.396   8.890   5.009  1.00 20.00     0.044 C 
ENDROOT
BRANCH   2   4
HETATM    4  C8  UNL     1     -32.189   7.582   2.789  1.00 20.00     0.006 C 
HETATM    5  C6  UNL     1     -32.534   6.256   2.108  1.00 20.00     0.014 C 
HETATM    6  C7  UNL     1     -32.614   8.768   1.919  1.00 20.00     0.014 C 
ENDBRANCH   2   4
BRANCH   1   7
HETATM    7  C3  UNL     1     -34.193   6.613   5.993  1.00 20.00     0.145 C 
HETATM    8  C5  UNL     1     -34.717   5.269   6.422  1.00 20.00     0.096 C 
HETATM    9  O9  UNL     1     -34.327   7.605   6.704  1.00 20.00    -0.294 OA
ENDBRANCH   1   7
TORSDOF 2
ENDMDL
MODEL 7
REMARK VINA RESULT:      -3.7     11.942     12.847
REMARK  2 active torsions:
REMARK  status: ('A' for Active; 'I' for Inactive)
REMARK    1  A    between atoms: C1_1  and  C3_3 
REMARK    2  A    between atoms: C2_2  and  C8_8 
ROOT
HETATM    1  C1  UNL     1     -33.419  16.875  -2.367  1.00 20.00     0.052 C 
HETATM    2  C2  UNL     1     -33.005  18.145  -2.183  1.00 20.00    -0.077 C 
HETATM    3  C4  UNL     1     -32.781  19.136  -3.297  1.00 20.00     0.044 C 
ENDROOT
BRANCH   2   4
HETATM    4  C8  UNL     1     -32.748  18.639  -0.761  1.00 20.00     0.006 C 
HETATM    5  C6  UNL     1     -33.709  18.011   0.251  1.00 20.00     0.014 C 
HETATM    6  C7  UNL     1     -31.293  18.422  -0.336  1.00 20.00     0.014 C 
ENDBRANCH   2   4
BRANCH   1   7
HETATM    7  C3  UNL     1     -33.723  16.247  -3.684  1.00 20.00     0.145 C 
HETATM    8  C5  UNL     1     -32.809  15.133  -4.121  1.00 20.00     0.096 C 
HETATM    9  O9  UNL     1     -34.636  16.641  -4.405  1.00 20.00    -0.294 OA
ENDBRANCH   1   7
TORSDOF 2
ENDMDL
MODEL 8
REMARK VINA RESULT:      -3.6     11.939     13.430
REMARK  2 active torsions:
REMARK  status: ('A' for Active; 'I' for Inactive)
REMARK    1  A    between atoms: C1_1  and  C3_3 
REMARK    2  A    between atoms: C2_2  and  C8_8 
ROOT
HETATM    1  C1  UNL     1     -34.801  16.314  -5.665  1.00 20.00     0.052 C 
HETATM    2  C2  UNL     1     -34.092  16.121  -4.535  1.00 20.00    -0.077 C 
HETATM    3  C4  UNL     1     -33.304  14.873  -4.227  1.00 20.00     0.044 C 
ENDROOT
BRANCH   2   4
HETATM    4  C8  UNL     1     -34.063  17.230  -3.484  1.00 20.00     0.006 C 
HETATM    5  C6  UNL     1     -33.437  16.762  -2.168  1.00 20.00     0.014 C 
HETATM    6  C7  UNL     1     -33.362  18.488  -4.002  1.00 20.00     0.014 C 
ENDBRANCH   2   4
BRANCH   1   7
HETATM    7  C3  UNL     1     -34.921  15.339  -6.787  1.00 20.00     0.145 C 
HETATM    8  C5  UNL     1     -33.940  15.497  -7.918  1.00 20.00     0.096 C 
HETATM    9  O9  UNL     1     -35.799  14.481  -6.820  1.00 20.00    -0.294 OA
ENDBRANCH   1   7
TORSDOF 2
ENDMDL
MODEL 9
REMARK VINA RESULT:      -3.6      2.019      4.028
REMARK  2 active torsions:
REMARK  status: ('A' for Active; 'I' for Inactive)
REMARK    1  A    between atoms: C1_1  and  C3_3 
REMARK    2  A    between atoms: C2_2  and  C8_8 
ROOT
HETATM    1  C1  UNL     1     -33.300   7.794   4.012  1.00 20.00     0.052 C 
HETATM    2  C2  UNL     1     -33.808   6.583   4.314  1.00 20.00    -0.077 C 
HETATM    3  C4  UNL     1     -33.701   5.370   3.425  1.00 20.00     0.044 C 
ENDROOT
BRANCH   2   4
HETATM    4  C8  UNL     1     -34.537   6.399   5.644  1.00 20.00     0.006 C 
HETATM    5  C6  UNL     1     -34.482   4.952   6.137  1.00 20.00     0.014 C 
HETATM    6  C7  UNL     1     -34.018   7.360   6.717  1.00 20.00     0.014 C 
ENDBRANCH   2   4
BRANCH   1   7
HETATM    7  C3  UNL     1     -32.555   8.133   2.766  1.00 20.00     0.145 C 
HETATM    8  C5  UNL     1     -32.863   9.469   2.145  1.00 20.00     0.096 C 
HETATM    9  O9  UNL     1     -31.767   7.353   2.239  1.00 20.00    -0.294 OA
ENDBRANCH   1   7
TORSDOF 2
ENDMDL
