MODEL 1
REMARK VINA RESULT:      -4.2      0.000      0.000
REMARK  1 active torsions:
REMARK  status: ('A' for Active; 'I' for Inactive)
REMARK    1  A    between atoms: C5_5  and  C6_6 
ROOT
HETATM    1  C1  UNL     1     -32.589   6.697   2.799  1.00 20.00     0.061 C 
HETATM    2  C6  UNL     1     -33.231   5.539   3.414  1.00 20.00     0.155 C 
HETATM    3  N7  UNL     1     -32.062   7.601   2.300  1.00 20.00    -0.197 NA
ENDROOT
BRANCH   2   4
HETATM    4  C5  UNL     1     -34.409   6.118   4.186  1.00 20.00     0.134 C 
HETATM    5  C3  UNL     1     -35.033   5.123   5.152  1.00 20.00     0.035 C 
HETATM    6  C2  UNL     1     -34.291   5.395   6.437  1.00 20.00     0.029 C 
HETATM    7  C4  UNL     1     -34.086   6.892   6.366  1.00 20.00     0.168 C 
HETATM    8  O8  UNL     1     -33.932   7.220   4.978  1.00 20.00    -0.385 OA
ENDBRANCH   2   4
TORSDOF 1
ENDMDL
MODEL 2
REMARK VINA RESULT:      -4.1      1.187      1.519
REMARK  1 active torsions:
REMARK  status: ('A' for Active; 'I' for Inactive)
REMARK    1  A    between atoms: C5_5  and  C6_6 
ROOT
HETATM    1  C1  UNL     1     -32.433   7.641   3.417  1.00 20.00     0.061 C 
HETATM    2  C6  UNL     1     -32.695   7.671   4.853  1.00 20.00     0.155 C 
HETATM    3  N7  UNL     1     -32.202   7.623   2.281  1.00 20.00    -0.197 NA
ENDROOT
BRANCH   2   4
HETATM    4  C5  UNL     1     -34.146   7.228   4.989  1.00 20.00     0.134 C 
HETATM    5  C3  UNL     1     -34.458   5.970   4.193  1.00 20.00     0.035 C 
HETATM    6  C2  UNL     1     -34.219   4.871   5.198  1.00 20.00     0.029 C 
HETATM    7  C4  UNL     1     -34.689   5.516   6.482  1.00 20.00     0.168 C 
HETATM    8  O8  UNL     1     -34.395   6.916   6.371  1.00 20.00    -0.385 OA
ENDBRANCH   2   4
TORSDOF 1
ENDMDL
MODEL 3
REMARK VINA RESULT:      -3.9      2.426      3.738
REMARK  1 active torsions:
REMARK  status: ('A' for Active; 'I' for Inactive)
REMARK    1  A    between atoms: C5_5  and  C6_6 
ROOT
HETATM    1  C1  UNL     1     -34.371   5.761   6.101  1.00 20.00     0.061 C 
HETATM    2  C6  UNL     1     -33.757   7.072   6.296  1.00 20.00     0.155 C 
HETATM    3  N7  UNL     1     -34.855   4.716   5.971  1.00 20.00    -0.197 NA
ENDROOT
BRANCH   2   4
HETATM    4  C5  UNL     1     -33.866   7.752   4.938  1.00 20.00     0.134 C 
HETATM    5  C3  UNL     1     -32.828   8.846   4.738  1.00 20.00     0.035 C 
HETATM    6  C2  UNL     1     -31.691   8.110   4.074  1.00 20.00     0.029 C 
HETATM    7  C4  UNL     1     -32.428   7.110   3.212  1.00 20.00     0.168 C 
HETATM    8  O8  UNL     1     -33.628   6.765   3.918  1.00 20.00    -0.385 OA
ENDBRANCH   2   4
TORSDOF 1
ENDMDL
MODEL 4
REMARK VINA RESULT:      -3.7     15.949     16.774
REMARK  1 active torsions:
REMARK  status: ('A' for Active; 'I' for Inactive)
REMARK    1  A    between atoms: C5_5  and  C6_6 
ROOT
HETATM    1  C1  UNL     1     -22.209  17.802   8.711  1.00 20.00     0.061 C 
HETATM    2  C6  UNL     1     -22.621  18.685   9.798  1.00 20.00     0.155 C 
HETATM    3  N7  UNL     1     -21.880  17.120   7.833  1.00 20.00    -0.197 NA
ENDROOT
BRANCH   2   4
HETATM    4  C5  UNL     1     -22.793  17.762  10.998  1.00 20.00     0.134 C 
HETATM    5  C3  UNL     1     -23.114  18.512  12.281  1.00 20.00     0.035 C 
HETATM    6  C2  UNL     1     -24.623  18.516  12.298  1.00 20.00     0.029 C 
HETATM    7  C4  UNL     1     -24.943  17.169  11.691  1.00 20.00     0.168 C 
HETATM    8  O8  UNL     1     -23.907  16.889  10.739  1.00 20.00    -0.385 OA
ENDBRANCH   2   4
TORSDOF 1
ENDMDL
MODEL 5
REMARK VINA RESULT:      -3.7      1.447      2.158
REMARK  1 active torsions:
REMARK  status: ('A' for Active; 'I' for Inactive)
REMARK    1  A    between atoms: C5_5  and  C6_6 
ROOT
HETATM    1  C1  UNL     1     -32.972   8.677   3.949  1.00 20.00     0.061 C 
HETATM    2  C6  UNL     1     -33.685   8.343   5.179  1.00 20.00     0.155 C 
HETATM    3  N7  UNL     1     -32.414   8.965   2.975  1.00 20.00    -0.197 NA
ENDROOT
BRANCH   2   4
HETATM    4  C5  UNL     1     -33.300   6.898   5.466  1.00 20.00     0.134 C 
HETATM    5  C3  UNL     1     -34.301   6.184   6.361  1.00 20.00     0.035 C 
HETATM    6  C2  UNL     1     -35.240   5.545   5.369  1.00 20.00     0.029 C 
HETATM    7  C4  UNL     1     -34.300   5.177   4.244  1.00 20.00     0.168 C 
HETATM    8  O8  UNL     1     -33.275   6.180   4.219  1.00 20.00    -0.385 OA
ENDBRANCH   2   4
TORSDOF 1
ENDMDL
MODEL 6
REMARK VINA RESULT:      -3.6      9.099      9.718
REMARK  1 active torsions:
REMARK  status: ('A' for Active; 'I' for Inactive)
REMARK    1  A    between atoms: C5_5  and  C6_6 
ROOT
HETATM    1  C1  UNL     1     -39.371  11.792   4.511  1.00 20.00     0.061 C 
HETATM    2  C6  UNL     1     -39.716  11.789   5.929  1.00 20.00     0.155 C 
HETATM    3  N7  UNL     1     -39.092  11.771   3.386  1.00 20.00    -0.197 NA
ENDROOT
BRANCH   2   4
HETATM    4  C5  UNL     1     -40.151  13.219   6.222  1.00 20.00     0.134 C 
HETATM    5  C3  UNL     1     -41.393  13.631   5.448  1.00 20.00     0.035 C 
HETATM    6  C2  UNL     1     -42.511  13.289   6.402  1.00 20.00     0.029 C 
HETATM    7  C4  UNL     1     -41.884  13.604   7.741  1.00 20.00     0.168 C 
HETATM    8  O8  UNL     1     -40.485  13.312   7.619  1.00 20.00    -0.385 OA
ENDBRANCH   2   4
TORSDOF 1
ENDMDL
MODEL 7
REMARK VINA RESULT:      -3.4     12.373     13.103
REMARK  1 active torsions:
REMARK  status: ('A' for Active; 'I' for Inactive)
REMARK    1  A    between atoms: C5_5  and  C6_6 
ROOT
HETATM    1  C1  UNL     1     -33.856  14.784  -3.995  1.00 20.00     0.061 C 
HETATM    2  C6  UNL     1     -32.901  15.864  -3.761  1.00 20.00     0.155 C 
HETATM    3  N7  UNL     1     -34.595  13.912  -4.187  1.00 20.00    -0.197 NA
ENDROOT
BRANCH   2   4
HETATM    4  C5  UNL     1     -33.734  16.991  -3.165  1.00 20.00     0.134 C 
HETATM    5  C3  UNL     1     -33.634  17.064  -1.649  1.00 20.00     0.035 C 
HETATM    6  C2  UNL     1     -32.500  18.035  -1.436  1.00 20.00     0.029 C 
HETATM    7  C4  UNL     1     -32.698  19.001  -2.582  1.00 20.00     0.168 C 
HETATM    8  O8  UNL     1     -33.234  18.240  -3.674  1.00 20.00    -0.385 OA
ENDBRANCH   2   4
TORSDOF 1
ENDMDL
MODEL 8
REMARK VINA RESULT:      -3.4     12.638     13.211
REMARK  1 active torsions:
REMARK  status: ('A' for Active; 'I' for Inactive)
REMARK    1  A    between atoms: C5_5  and  C6_6 
ROOT
HETATM    1  C1  UNL     1     -32.615  17.882  -1.677  1.00 20.00     0.061 C 
HETATM    2  C6  UNL     1     -33.514  16.816  -2.109  1.00 20.00     0.155 C 
HETATM    3  N7  UNL     1     -31.909  18.726  -1.312  1.00 20.00    -0.197 NA
ENDROOT
BRANCH   2   4
HETATM    4  C5  UNL     1     -33.258  16.679  -3.604  1.00 20.00     0.134 C 
HETATM    5  C3  UNL     1     -32.841  15.274  -4.009  1.00 20.00     0.035 C 
HETATM    6  C2  UNL     1     -34.156  14.623  -4.359  1.00 20.00     0.029 C 
HETATM    7  C4  UNL     1     -34.918  15.774  -4.976  1.00 20.00     0.168 C 
HETATM    8  O8  UNL     1     -34.485  16.963  -4.300  1.00 20.00    -0.385 OA
ENDBRANCH   2   4
TORSDOF 1
ENDMDL
MODEL 9
REMARK VINA RESULT:      -3.4      2.378      3.542
REMARK  1 active torsions:
REMARK  status: ('A' for Active; 'I' for Inactive)
REMARK    1  A    between atoms: C5_5  and  C6_6 
ROOT
HETATM    1  C1  UNL     1     -34.523   5.608   4.929  1.00 20.00     0.061 C 
HETATM    2  C6  UNL     1     -34.424   7.053   5.112  1.00 20.00     0.155 C 
HETATM    3  N7  UNL     1     -34.625   4.462   4.786  1.00 20.00    -0.197 NA
ENDROOT
BRANCH   2   4
HETATM    4  C5  UNL     1     -32.947   7.366   4.912  1.00 20.00     0.134 C 
HETATM    5  C3  UNL     1     -32.482   7.141   3.482  1.00 20.00     0.035 C 
HETATM    6  C2  UNL     1     -32.668   8.500   2.853  1.00 20.00     0.029 C 
HETATM    7  C4  UNL     1     -32.321   9.423   3.999  1.00 20.00     0.168 C 
HETATM    8  O8  UNL     1     -32.737   8.760   5.201  1.00 20.00    -0.385 OA
ENDBRANCH   2   4
TORSDOF 1
ENDMDL
