MODEL 1
REMARK VINA RESULT:      -3.3      0.000      0.000
REMARK  1 active torsions:
REMARK  status: ('A' for Active; 'I' for Inactive)
REMARK    1  A    between atoms: C2_2  and  O3_3 
ROOT
HETATM    1  C2  UNL     1     -34.324   6.536   4.823  1.00 20.00     0.314 C 
HETATM    2 CL4  UNL     1     -34.418   4.768   4.657  1.00 20.00    -0.078 Cl
HETATM    3 CL5  UNL     1     -34.177   6.971   6.537  1.00 20.00    -0.078 Cl
ENDROOT
BRANCH   1   4
HETATM    4  O3  UNL     1     -33.184   6.993   4.104  1.00 20.00    -0.362 OA
HETATM    5  C1  UNL     1     -32.611   8.162   4.674  1.00 20.00     0.204 C 
ENDBRANCH   1   4
TORSDOF 1
ENDMDL
MODEL 2
REMARK VINA RESULT:      -3.2      1.615      2.568
REMARK  1 active torsions:
REMARK  status: ('A' for Active; 'I' for Inactive)
REMARK    1  A    between atoms: C2_2  and  O3_3 
ROOT
HETATM    1  C2  UNL     1     -33.858   7.335   4.796  1.00 20.00     0.314 C 
HETATM    2 CL4  UNL     1     -34.145   7.037   6.526  1.00 20.00    -0.078 Cl
HETATM    3 CL5  UNL     1     -32.331   8.214   4.584  1.00 20.00    -0.078 Cl
ENDROOT
BRANCH   1   4
HETATM    4  O3  UNL     1     -33.794   6.080   4.130  1.00 20.00    -0.362 OA
HETATM    5  C1  UNL     1     -34.617   5.094   4.739  1.00 20.00     0.204 C 
ENDBRANCH   1   4
TORSDOF 1
ENDMDL
MODEL 3
REMARK VINA RESULT:      -3.1      0.840      1.918
REMARK  1 active torsions:
REMARK  status: ('A' for Active; 'I' for Inactive)
REMARK    1  A    between atoms: C2_2  and  O3_3 
ROOT
HETATM    1  C2  UNL     1     -33.975   6.629   5.038  1.00 20.00     0.314 C 
HETATM    2 CL4  UNL     1     -34.243   7.063   6.741  1.00 20.00    -0.078 Cl
HETATM    3 CL5  UNL     1     -35.417   5.824   4.389  1.00 20.00    -0.078 Cl
ENDROOT
BRANCH   1   4
HETATM    4  O3  UNL     1     -33.713   7.822   4.308  1.00 20.00    -0.362 OA
HETATM    5  C1  UNL     1     -32.509   8.460   4.715  1.00 20.00     0.204 C 
ENDBRANCH   1   4
TORSDOF 1
ENDMDL
MODEL 4
REMARK VINA RESULT:      -3.0      2.042      2.994
REMARK  1 active torsions:
REMARK  status: ('A' for Active; 'I' for Inactive)
REMARK    1  A    between atoms: C2_2  and  O3_3 
ROOT
HETATM    1  C2  UNL     1     -33.717   7.354   4.804  1.00 20.00     0.314 C 
HETATM    2 CL4  UNL     1     -32.289   8.393   4.594  1.00 20.00    -0.078 Cl
HETATM    3 CL5  UNL     1     -33.592   5.941   3.738  1.00 20.00    -0.078 Cl
ENDROOT
BRANCH   1   4
HETATM    4  O3  UNL     1     -33.771   6.935   6.162  1.00 20.00    -0.362 OA
HETATM    5  C1  UNL     1     -34.511   5.734   6.336  1.00 20.00     0.204 C 
ENDBRANCH   1   4
TORSDOF 1
ENDMDL
MODEL 5
REMARK VINA RESULT:      -3.0      1.566      1.795
REMARK  1 active torsions:
REMARK  status: ('A' for Active; 'I' for Inactive)
REMARK    1  A    between atoms: C2_2  and  O3_3 
ROOT
HETATM    1  C2  UNL     1     -34.289   5.959   4.190  1.00 20.00     0.314 C 
HETATM    2 CL4  UNL     1     -33.167   5.276   2.992  1.00 20.00    -0.078 Cl
HETATM    3 CL5  UNL     1     -34.526   4.804   5.517  1.00 20.00    -0.078 Cl
ENDROOT
BRANCH   1   4
HETATM    4  O3  UNL     1     -33.729   7.167   4.690  1.00 20.00    -0.362 OA
HETATM    5  C1  UNL     1     -33.774   7.245   6.109  1.00 20.00     0.204 C 
ENDBRANCH   1   4
TORSDOF 1
ENDMDL
MODEL 6
REMARK VINA RESULT:      -2.9      1.429      1.963
REMARK  1 active torsions:
REMARK  status: ('A' for Active; 'I' for Inactive)
REMARK    1  A    between atoms: C2_2  and  O3_3 
ROOT
HETATM    1  C2  UNL     1     -33.689   6.435   4.486  1.00 20.00     0.314 C 
HETATM    2 CL4  UNL     1     -35.358   5.835   4.622  1.00 20.00    -0.078 Cl
HETATM    3 CL5  UNL     1     -32.965   5.858   2.972  1.00 20.00    -0.078 Cl
ENDROOT
BRANCH   1   4
HETATM    4  O3  UNL     1     -33.723   7.857   4.499  1.00 20.00    -0.362 OA
HETATM    5  C1  UNL     1     -32.427   8.434   4.590  1.00 20.00     0.204 C 
ENDBRANCH   1   4
TORSDOF 1
ENDMDL
MODEL 7
REMARK VINA RESULT:      -2.8      1.676      2.564
REMARK  1 active torsions:
REMARK  status: ('A' for Active; 'I' for Inactive)
REMARK    1  A    between atoms: C2_2  and  O3_3 
ROOT
HETATM    1  C2  UNL     1     -33.309   6.939   5.084  1.00 20.00     0.314 C 
HETATM    2 CL4  UNL     1     -33.103   8.527   4.309  1.00 20.00    -0.078 Cl
HETATM    3 CL5  UNL     1     -34.279   7.112   6.560  1.00 20.00    -0.078 Cl
ENDROOT
BRANCH   1   4
HETATM    4  O3  UNL     1     -33.969   6.076   4.166  1.00 20.00    -0.362 OA
HETATM    5  C1  UNL     1     -34.634   4.997   4.811  1.00 20.00     0.204 C 
ENDBRANCH   1   4
TORSDOF 1
ENDMDL
MODEL 8
REMARK VINA RESULT:      -2.7      2.681      2.965
REMARK  1 active torsions:
REMARK  status: ('A' for Active; 'I' for Inactive)
REMARK    1  A    between atoms: C2_2  and  O3_3 
ROOT
HETATM    1  C2  UNL     1     -32.259   6.999   3.075  1.00 20.00     0.314 C 
HETATM    2 CL4  UNL     1     -32.942   5.407   2.672  1.00 20.00    -0.078 Cl
HETATM    3 CL5  UNL     1     -32.187   8.008   1.617  1.00 20.00    -0.078 Cl
ENDROOT
BRANCH   1   4
HETATM    4  O3  UNL     1     -33.095   7.611   4.050  1.00 20.00    -0.362 OA
HETATM    5  C1  UNL     1     -32.428   8.632   4.780  1.00 20.00     0.204 C 
ENDBRANCH   1   4
TORSDOF 1
ENDMDL
MODEL 9
REMARK VINA RESULT:      -2.6      2.042      2.253
REMARK  1 active torsions:
REMARK  status: ('A' for Active; 'I' for Inactive)
REMARK    1  A    between atoms: C2_2  and  O3_3 
ROOT
HETATM    1  C2  UNL     1     -34.330   5.785   4.700  1.00 20.00     0.314 C 
HETATM    2 CL4  UNL     1     -35.984   6.110   4.131  1.00 20.00    -0.078 Cl
HETATM    3 CL5  UNL     1     -34.371   5.250   6.391  1.00 20.00    -0.078 Cl
ENDROOT
BRANCH   1   4
HETATM    4  O3  UNL     1     -33.767   4.767   3.880  1.00 20.00    -0.362 OA
HETATM    5  C1  UNL     1     -33.006   5.292   2.801  1.00 20.00     0.204 C 
ENDBRANCH   1   4
TORSDOF 1
ENDMDL
