MODEL 1
REMARK VINA RESULT:      -3.3      0.000      0.000
REMARK  0 active torsions:
REMARK  status: ('A' for Active; 'I' for Inactive)
ROOT
HETATM    1  C1  UNL     1     -33.505   5.785   3.547  1.00 20.00     0.086 C 
HETATM    2  C2  UNL     1     -34.156   6.586   4.581  1.00 20.00     0.235 C 
HETATM    3  N3  UNL     1     -32.992   5.150   2.724  1.00 20.00    -0.195 NA
HETATM    4 BR4  UNL     1     -33.055   8.125   5.042  1.00 20.00    -0.063 Br
HETATM    5 BR5  UNL     1     -34.554   5.490   6.142  1.00 20.00    -0.063 Br
ENDROOT
TORSDOF 0
ENDMDL
MODEL 2
REMARK VINA RESULT:      -3.3      2.465      2.915
REMARK  0 active torsions:
REMARK  status: ('A' for Active; 'I' for Inactive)
ROOT
HETATM    1  C1  UNL     1     -33.146   7.728   4.731  1.00 20.00     0.086 C 
HETATM    2  C2  UNL     1     -34.036   6.604   4.452  1.00 20.00     0.235 C 
HETATM    3  N3  UNL     1     -32.442   8.623   4.950  1.00 20.00    -0.195 NA
HETATM    4 BR4  UNL     1     -34.519   5.692   6.104  1.00 20.00    -0.063 Br
HETATM    5 BR5  UNL     1     -33.217   5.388   3.169  1.00 20.00    -0.063 Br
ENDROOT
TORSDOF 0
ENDMDL
MODEL 3
REMARK VINA RESULT:      -3.0      2.484      2.998
REMARK  0 active torsions:
REMARK  status: ('A' for Active; 'I' for Inactive)
ROOT
HETATM    1  C1  UNL     1     -34.337   6.102   5.434  1.00 20.00     0.086 C 
HETATM    2  C2  UNL     1     -33.864   6.811   4.249  1.00 20.00     0.235 C 
HETATM    3  N3  UNL     1     -34.718   5.540   6.375  1.00 20.00    -0.195 NA
HETATM    4 BR4  UNL     1     -33.036   5.568   2.998  1.00 20.00    -0.063 Br
HETATM    5 BR5  UNL     1     -32.646   8.245   4.755  1.00 20.00    -0.063 Br
ENDROOT
TORSDOF 0
ENDMDL
MODEL 4
REMARK VINA RESULT:      -2.7     16.212     16.698
REMARK  0 active torsions:
REMARK  status: ('A' for Active; 'I' for Inactive)
ROOT
HETATM    1  C1  UNL     1     -22.702  17.360   9.760  1.00 20.00     0.086 C 
HETATM    2  C2  UNL     1     -23.423  17.786  10.957  1.00 20.00     0.235 C 
HETATM    3  N3  UNL     1     -22.133  17.024   8.807  1.00 20.00    -0.195 NA
HETATM    4 BR4  UNL     1     -22.183  18.501  12.278  1.00 20.00    -0.063 Br
HETATM    5 BR5  UNL     1     -24.478  16.315  11.677  1.00 20.00    -0.063 Br
ENDROOT
TORSDOF 0
ENDMDL
MODEL 5
REMARK VINA RESULT:      -2.7     13.326     13.340
REMARK  0 active torsions:
REMARK  status: ('A' for Active; 'I' for Inactive)
ROOT
HETATM    1  C1  UNL     1     -31.671  18.628  -0.563  1.00 20.00     0.086 C 
HETATM    2  C2  UNL     1     -33.088  18.590  -0.915  1.00 20.00     0.235 C 
HETATM    3  N3  UNL     1     -30.545  18.662  -0.286  1.00 20.00    -0.195 NA
HETATM    4 BR4  UNL     1     -34.189  18.616   0.692  1.00 20.00    -0.063 Br
HETATM    5 BR5  UNL     1     -33.472  17.037  -2.028  1.00 20.00    -0.063 Br
ENDROOT
TORSDOF 0
ENDMDL
MODEL 6
REMARK VINA RESULT:      -2.7     13.121     13.487
REMARK  0 active torsions:
REMARK  status: ('A' for Active; 'I' for Inactive)
ROOT
HETATM    1  C1  UNL     1     -31.998  18.312  -0.785  1.00 20.00     0.086 C 
HETATM    2  C2  UNL     1     -33.335  17.779  -1.033  1.00 20.00     0.235 C 
HETATM    3  N3  UNL     1     -30.936  18.734  -0.583  1.00 20.00    -0.195 NA
HETATM    4 BR4  UNL     1     -33.352  16.723  -2.670  1.00 20.00    -0.063 Br
HETATM    5 BR5  UNL     1     -34.644  19.221  -1.089  1.00 20.00    -0.063 Br
ENDROOT
TORSDOF 0
ENDMDL
MODEL 7
REMARK VINA RESULT:      -2.6     16.524     16.783
REMARK  0 active torsions:
REMARK  status: ('A' for Active; 'I' for Inactive)
ROOT
HETATM    1  C1  UNL     1     -22.461  17.295   9.303  1.00 20.00     0.086 C 
HETATM    2  C2  UNL     1     -23.509  17.732  10.221  1.00 20.00     0.235 C 
HETATM    3  N3  UNL     1     -21.630  16.943   8.574  1.00 20.00    -0.195 NA
HETATM    4 BR4  UNL     1     -24.606  19.113   9.393  1.00 20.00    -0.063 Br
HETATM    5 BR5  UNL     1     -22.732  18.337  11.902  1.00 20.00    -0.063 Br
ENDROOT
TORSDOF 0
ENDMDL
MODEL 8
REMARK VINA RESULT:      -2.5      9.828     10.038
REMARK  0 active torsions:
REMARK  status: ('A' for Active; 'I' for Inactive)
ROOT
HETATM    1  C1  UNL     1     -42.488   5.583  -0.657  1.00 20.00     0.086 C 
HETATM    2  C2  UNL     1     -41.986   6.401   0.444  1.00 20.00     0.235 C 
HETATM    3  N3  UNL     1     -42.883   4.930  -1.530  1.00 20.00    -0.195 NA
HETATM    4 BR4  UNL     1     -43.417   6.800   1.703  1.00 20.00    -0.063 Br
HETATM    5 BR5  UNL     1     -41.151   8.023  -0.239  1.00 20.00    -0.063 Br
ENDROOT
TORSDOF 0
ENDMDL
MODEL 9
REMARK VINA RESULT:      -2.5     16.186     16.795
REMARK  0 active torsions:
REMARK  status: ('A' for Active; 'I' for Inactive)
ROOT
HETATM    1  C1  UNL     1     -24.102  18.310  10.126  1.00 20.00     0.086 C 
HETATM    2  C2  UNL     1     -23.357  17.441  11.034  1.00 20.00     0.235 C 
HETATM    3  N3  UNL     1     -24.690  18.998   9.401  1.00 20.00    -0.195 NA
HETATM    4 BR4  UNL     1     -24.558  16.177  11.902  1.00 20.00    -0.063 Br
HETATM    5 BR5  UNL     1     -22.365  18.503  12.332  1.00 20.00    -0.063 Br
ENDROOT
TORSDOF 0
ENDMDL
