MODEL 1
REMARK VINA RESULT:      -3.8      0.000      0.000
REMARK  3 active torsions:
REMARK  status: ('A' for Active; 'I' for Inactive)
REMARK    1  A    between atoms: C4_4  and  C5_5 
REMARK    2  A    between atoms: C5_5  and  C6_6 
REMARK    3  A    between atoms: C6_6  and  N7_7 
ROOT
HETATM    1  C1  UNL     1     -32.448   7.754   3.779  1.00 20.00     0.158 C 
HETATM    2  N7  UNL     1     -32.493   6.924   2.950  1.00 20.00    -0.271 NA
HETATM    3  S8  UNL     1     -32.374   8.901   4.881  1.00 20.00    -0.055 SA
ENDROOT
BRANCH   2   4
HETATM    4  C6  UNL     1     -32.994   5.624   3.409  1.00 20.00     0.105 C 
HETATM    5  C3  UNL     1     -32.973   4.668   2.223  1.00 20.00     0.034 C 
BRANCH   4   6
HETATM    6  C5  UNL     1     -34.414   5.793   3.960  1.00 20.00     0.026 C 
BRANCH   6   7
HETATM    7  C4  UNL     1     -34.609   5.080   5.300  1.00 20.00    -0.002 C 
HETATM    8  C2  UNL     1     -34.447   6.040   6.469  1.00 20.00     0.005 C 
ENDBRANCH   6   7
ENDBRANCH   4   6
ENDBRANCH   2   4
TORSDOF 3
ENDMDL
MODEL 2
REMARK VINA RESULT:      -3.8      1.691      2.895
REMARK  3 active torsions:
REMARK  status: ('A' for Active; 'I' for Inactive)
REMARK    1  A    between atoms: C4_4  and  C5_5 
REMARK    2  A    between atoms: C5_5  and  C6_6 
REMARK    3  A    between atoms: C6_6  and  N7_7 
ROOT
HETATM    1  C1  UNL     1     -33.479   7.799   5.501  1.00 20.00     0.158 C 
HETATM    2  N7  UNL     1     -34.287   7.380   6.242  1.00 20.00    -0.271 NA
HETATM    3  S8  UNL     1     -32.383   8.397   4.512  1.00 20.00    -0.055 SA
ENDROOT
BRANCH   2   4
HETATM    4  C6  UNL     1     -34.757   6.024   5.935  1.00 20.00     0.105 C 
HETATM    5  C3  UNL     1     -33.770   5.037   6.543  1.00 20.00     0.034 C 
BRANCH   4   6
HETATM    6  C5  UNL     1     -34.850   5.852   4.415  1.00 20.00     0.026 C 
BRANCH   6   7
HETATM    7  C4  UNL     1     -33.975   4.706   3.903  1.00 20.00    -0.002 C 
HETATM    8  C2  UNL     1     -33.072   5.162   2.767  1.00 20.00     0.005 C 
ENDBRANCH   6   7
ENDBRANCH   4   6
ENDBRANCH   2   4
TORSDOF 3
ENDMDL
MODEL 3
REMARK VINA RESULT:      -3.6      2.010      2.894
REMARK  3 active torsions:
REMARK  status: ('A' for Active; 'I' for Inactive)
REMARK    1  A    between atoms: C4_4  and  C5_5 
REMARK    2  A    between atoms: C5_5  and  C6_6 
REMARK    3  A    between atoms: C6_6  and  N7_7 
ROOT
HETATM    1  C1  UNL     1     -32.544   6.446   2.943  1.00 20.00     0.158 C 
HETATM    2  N7  UNL     1     -32.189   7.532   3.211  1.00 20.00    -0.271 NA
HETATM    3  S8  UNL     1     -32.998   4.968   2.561  1.00 20.00    -0.055 SA
ENDROOT
BRANCH   2   4
HETATM    4  C6  UNL     1     -33.106   8.281   4.077  1.00 20.00     0.105 C 
HETATM    5  C3  UNL     1     -32.283   8.923   5.187  1.00 20.00     0.034 C 
BRANCH   4   6
HETATM    6  C5  UNL     1     -34.158   7.326   4.649  1.00 20.00     0.026 C 
BRANCH   6   7
HETATM    7  C4  UNL     1     -33.915   7.004   6.126  1.00 20.00    -0.002 C 
HETATM    8  C2  UNL     1     -34.450   5.629   6.491  1.00 20.00     0.005 C 
ENDBRANCH   6   7
ENDBRANCH   4   6
ENDBRANCH   2   4
TORSDOF 3
ENDMDL
MODEL 4
REMARK VINA RESULT:      -3.5      2.128      2.778
REMARK  3 active torsions:
REMARK  status: ('A' for Active; 'I' for Inactive)
REMARK    1  A    between atoms: C4_4  and  C5_5 
REMARK    2  A    between atoms: C5_5  and  C6_6 
REMARK    3  A    between atoms: C6_6  and  N7_7 
ROOT
HETATM    1  C1  UNL     1     -32.316   7.698   2.446  1.00 20.00     0.158 C 
HETATM    2  N7  UNL     1     -32.481   7.239   3.513  1.00 20.00    -0.271 NA
HETATM    3  S8  UNL     1     -32.076   8.294   0.989  1.00 20.00    -0.055 SA
ENDROOT
BRANCH   2   4
HETATM    4  C6  UNL     1     -33.147   8.130   4.469  1.00 20.00     0.105 C 
HETATM    5  C3  UNL     1     -32.134   9.175   4.919  1.00 20.00     0.034 C 
BRANCH   4   6
HETATM    6  C5  UNL     1     -33.660   7.308   5.656  1.00 20.00     0.026 C 
BRANCH   6   7
HETATM    7  C4  UNL     1     -34.658   6.228   5.231  1.00 20.00    -0.002 C 
HETATM    8  C2  UNL     1     -34.602   5.023   6.157  1.00 20.00     0.005 C 
ENDBRANCH   6   7
ENDBRANCH   4   6
ENDBRANCH   2   4
TORSDOF 3
ENDMDL
MODEL 5
REMARK VINA RESULT:      -3.5     12.458     13.064
REMARK  3 active torsions:
REMARK  status: ('A' for Active; 'I' for Inactive)
REMARK    1  A    between atoms: C4_4  and  C5_5 
REMARK    2  A    between atoms: C5_5  and  C6_6 
REMARK    3  A    between atoms: C6_6  and  N7_7 
ROOT
HETATM    1  C1  UNL     1     -30.714  18.724   0.723  1.00 20.00     0.158 C 
HETATM    2  N7  UNL     1     -30.994  18.538  -0.402  1.00 20.00    -0.271 NA
HETATM    3  S8  UNL     1     -30.304  18.965   2.243  1.00 20.00    -0.055 SA
ENDROOT
BRANCH   2   4
HETATM    4  C6  UNL     1     -32.378  18.872  -0.754  1.00 20.00     0.105 C 
HETATM    5  C3  UNL     1     -33.287  18.316   0.335  1.00 20.00     0.034 C 
BRANCH   4   6
HETATM    6  C5  UNL     1     -32.714  18.266  -2.121  1.00 20.00     0.026 C 
BRANCH   6   7
HETATM    7  C4  UNL     1     -33.460  16.935  -2.002  1.00 20.00    -0.002 C 
HETATM    8  C2  UNL     1     -33.355  16.123  -3.283  1.00 20.00     0.005 C 
ENDBRANCH   6   7
ENDBRANCH   4   6
ENDBRANCH   2   4
TORSDOF 3
ENDMDL
MODEL 6
REMARK VINA RESULT:      -3.4      9.860     10.726
REMARK  3 active torsions:
REMARK  status: ('A' for Active; 'I' for Inactive)
REMARK    1  A    between atoms: C4_4  and  C5_5 
REMARK    2  A    between atoms: C5_5  and  C6_6 
REMARK    3  A    between atoms: C6_6  and  N7_7 
ROOT
HETATM    1  C1  UNL     1     -40.387  14.246   8.432  1.00 20.00     0.158 C 
HETATM    2  N7  UNL     1     -40.364  13.355   7.668  1.00 20.00    -0.271 NA
HETATM    3  S8  UNL     1     -40.393  15.439   9.486  1.00 20.00    -0.055 SA
ENDROOT
BRANCH   2   4
HETATM    4  C6  UNL     1     -41.367  13.436   6.601  1.00 20.00     0.105 C 
HETATM    5  C3  UNL     1     -42.513  12.500   6.963  1.00 20.00     0.034 C 
BRANCH   4   6
HETATM    6  C5  UNL     1     -40.724  13.036   5.269  1.00 20.00     0.026 C 
BRANCH   6   7
HETATM    7  C4  UNL     1     -39.738  11.875   5.422  1.00 20.00    -0.002 C 
HETATM    8  C2  UNL     1     -38.957  11.636   4.139  1.00 20.00     0.005 C 
ENDBRANCH   6   7
ENDBRANCH   4   6
ENDBRANCH   2   4
TORSDOF 3
ENDMDL
MODEL 7
REMARK VINA RESULT:      -3.4      2.220      3.787
REMARK  3 active torsions:
REMARK  status: ('A' for Active; 'I' for Inactive)
REMARK    1  A    between atoms: C4_4  and  C5_5 
REMARK    2  A    between atoms: C5_5  and  C6_6 
REMARK    3  A    between atoms: C6_6  and  N7_7 
ROOT
HETATM    1  C1  UNL     1     -34.140   6.812   5.862  1.00 20.00     0.158 C 
HETATM    2  N7  UNL     1     -33.825   7.909   5.585  1.00 20.00    -0.271 NA
HETATM    3  S8  UNL     1     -34.593   5.337   6.254  1.00 20.00    -0.055 SA
ENDROOT
BRANCH   2   4
HETATM    4  C6  UNL     1     -32.610   8.011   4.770  1.00 20.00     0.105 C 
HETATM    5  C3  UNL     1     -32.002   9.388   5.005  1.00 20.00     0.034 C 
BRANCH   4   6
HETATM    6  C5  UNL     1     -32.971   7.809   3.294  1.00 20.00     0.026 C 
BRANCH   6   7
HETATM    7  C4  UNL     1     -32.186   6.662   2.652  1.00 20.00    -0.002 C 
HETATM    8  C2  UNL     1     -32.966   5.358   2.705  1.00 20.00     0.005 C 
ENDBRANCH   6   7
ENDBRANCH   4   6
ENDBRANCH   2   4
TORSDOF 3
ENDMDL
MODEL 8
REMARK VINA RESULT:      -3.3      2.409      4.314
REMARK  3 active torsions:
REMARK  status: ('A' for Active; 'I' for Inactive)
REMARK    1  A    between atoms: C4_4  and  C5_5 
REMARK    2  A    between atoms: C5_5  and  C6_6 
REMARK    3  A    between atoms: C6_6  and  N7_7 
ROOT
HETATM    1  C1  UNL     1     -34.224   6.566   5.201  1.00 20.00     0.158 C 
HETATM    2  N7  UNL     1     -34.012   7.392   4.395  1.00 20.00    -0.271 NA
HETATM    3  S8  UNL     1     -34.544   5.449   6.290  1.00 20.00    -0.055 SA
ENDROOT
BRANCH   2   4
HETATM    4  C6  UNL     1     -32.591   7.675   4.164  1.00 20.00     0.105 C 
HETATM    5  C3  UNL     1     -32.263   9.004   4.833  1.00 20.00     0.034 C 
BRANCH   4   6
HETATM    6  C5  UNL     1     -32.323   7.731   2.657  1.00 20.00     0.026 C 
BRANCH   6   7
HETATM    7  C4  UNL     1     -32.677   9.092   2.051  1.00 20.00    -0.002 C 
HETATM    8  C2  UNL     1     -32.594   9.062   0.533  1.00 20.00     0.005 C 
ENDBRANCH   6   7
ENDBRANCH   4   6
ENDBRANCH   2   4
TORSDOF 3
ENDMDL
MODEL 9
REMARK VINA RESULT:      -3.1      2.208      3.782
REMARK  3 active torsions:
REMARK  status: ('A' for Active; 'I' for Inactive)
REMARK    1  A    between atoms: C4_4  and  C5_5 
REMARK    2  A    between atoms: C5_5  and  C6_6 
REMARK    3  A    between atoms: C6_6  and  N7_7 
ROOT
HETATM    1  C1  UNL     1     -33.843   5.446   3.576  1.00 20.00     0.158 C 
HETATM    2  N7  UNL     1     -34.568   5.804   4.426  1.00 20.00    -0.271 NA
HETATM    3  S8  UNL     1     -32.884   4.946   2.407  1.00 20.00    -0.055 SA
ENDROOT
BRANCH   2   4
HETATM    4  C6  UNL     1     -33.919   6.530   5.523  1.00 20.00     0.105 C 
HETATM    5  C3  UNL     1     -34.703   6.251   6.799  1.00 20.00     0.034 C 
BRANCH   4   6
HETATM    6  C5  UNL     1     -33.900   8.027   5.200  1.00 20.00     0.026 C 
BRANCH   6   7
HETATM    7  C4  UNL     1     -32.505   8.524   4.812  1.00 20.00    -0.002 C 
HETATM    8  C2  UNL     1     -32.383   8.724   3.310  1.00 20.00     0.005 C 
ENDBRANCH   6   7
ENDBRANCH   4   6
ENDBRANCH   2   4
TORSDOF 3
ENDMDL
