MODEL 1
REMARK VINA RESULT:      -4.1      0.000      0.000
REMARK  1 active torsions:
REMARK  status: ('A' for Active; 'I' for Inactive)
REMARK    1  A    between atoms: C8_8  and  O9_9 
ROOT
HETATM    1  C1  UNL     1     -41.947   8.125  -0.805  1.00 20.00     0.010 C 
HETATM    2  C2  UNL     1     -40.846   6.037  -0.593  1.00 20.00     0.012 C 
HETATM    3  C3  UNL     1     -41.047   7.615   1.329  1.00 20.00     0.012 C 
HETATM    4  C4  UNL     1     -40.704   7.509  -0.167  1.00 20.00    -0.013 C 
HETATM    5  C5  UNL     1     -42.940   7.188  -0.138  1.00 20.00    -0.001 C 
HETATM    6  C6  UNL     1     -42.327   5.755  -0.277  1.00 20.00     0.019 C 
HETATM    7  C7  UNL     1     -42.500   7.101   1.360  1.00 20.00     0.019 C 
HETATM    8  C8  UNL     1     -42.683   5.563   1.224  1.00 20.00     0.127 C 
ENDROOT
BRANCH   8   9
HETATM    9  O9  UNL     1     -41.804   4.729   1.996  1.00 20.00    -0.395 OA
HETATM   10  H21 UNL     1     -41.125   5.318   2.352  1.00 20.00     0.210 HD
ENDBRANCH   8   9
TORSDOF 1
ENDMDL
MODEL 2
REMARK VINA RESULT:      -4.1     22.941     23.967
REMARK  1 active torsions:
REMARK  status: ('A' for Active; 'I' for Inactive)
REMARK    1  A    between atoms: C8_8  and  O9_9 
ROOT
HETATM    1  C1  UNL     1     -23.228  19.263   9.465  1.00 20.00     0.010 C 
HETATM    2  C2  UNL     1     -22.561  16.994   9.622  1.00 20.00     0.012 C 
HETATM    3  C3  UNL     1     -22.233  18.593  11.510  1.00 20.00     0.012 C 
HETATM    4  C4  UNL     1     -22.078  18.408   9.991  1.00 20.00    -0.013 C 
HETATM    5  C5  UNL     1     -24.317  18.555  10.255  1.00 20.00    -0.001 C 
HETATM    6  C6  UNL     1     -24.027  17.025  10.094  1.00 20.00     0.019 C 
HETATM    7  C7  UNL     1     -23.748  18.389  11.702  1.00 20.00     0.019 C 
HETATM    8  C8  UNL     1     -24.255  16.920  11.629  1.00 20.00     0.127 C 
ENDROOT
BRANCH   8   9
HETATM    9  O9  UNL     1     -23.489  15.928  12.331  1.00 20.00    -0.395 OA
HETATM   10  H21 UNL     1     -22.561  16.143  12.164  1.00 20.00     0.210 HD
ENDBRANCH   8   9
TORSDOF 1
ENDMDL
MODEL 3
REMARK VINA RESULT:      -4.0      1.329      2.110
REMARK  1 active torsions:
REMARK  status: ('A' for Active; 'I' for Inactive)
REMARK    1  A    between atoms: C8_8  and  O9_9 
ROOT
HETATM    1  C1  UNL     1     -40.884   7.922   1.198  1.00 20.00     0.010 C 
HETATM    2  C2  UNL     1     -42.216   7.990  -0.761  1.00 20.00     0.012 C 
HETATM    3  C3  UNL     1     -40.626   6.119  -0.320  1.00 20.00     0.012 C 
HETATM    4  C4  UNL     1     -40.788   7.649  -0.301  1.00 20.00    -0.013 C 
HETATM    5  C5  UNL     1     -42.054   6.985   1.449  1.00 20.00    -0.001 C 
HETATM    6  C6  UNL     1     -43.073   7.264   0.294  1.00 20.00     0.019 C 
HETATM    7  C7  UNL     1     -41.717   5.670   0.671  1.00 20.00     0.019 C 
HETATM    8  C8  UNL     1     -43.180   5.720   0.146  1.00 20.00     0.127 C 
ENDROOT
BRANCH   8   9
HETATM    9  O9  UNL     1     -43.417   5.212  -1.177  1.00 20.00    -0.395 OA
HETATM   10  H21 UNL     1     -44.313   5.492  -1.410  1.00 20.00     0.210 HD
ENDBRANCH   8   9
TORSDOF 1
ENDMDL
MODEL 4
REMARK VINA RESULT:      -4.0     22.940     23.695
REMARK  1 active torsions:
REMARK  status: ('A' for Active; 'I' for Inactive)
REMARK    1  A    between atoms: C8_8  and  O9_9 
ROOT
HETATM    1  C1  UNL     1     -22.387  18.633  10.483  1.00 20.00     0.010 C 
HETATM    2  C2  UNL     1     -24.707  18.886  10.066  1.00 20.00     0.012 C 
HETATM    3  C3  UNL     1     -23.648  16.636  10.275  1.00 20.00     0.012 C 
HETATM    4  C4  UNL     1     -23.504  18.028   9.636  1.00 20.00    -0.013 C 
HETATM    5  C5  UNL     1     -23.083  18.428  11.819  1.00 20.00    -0.001 C 
HETATM    6  C6  UNL     1     -24.562  18.891  11.599  1.00 20.00     0.019 C 
HETATM    7  C7  UNL     1     -23.658  16.974  11.778  1.00 20.00     0.019 C 
HETATM    8  C8  UNL     1     -24.978  17.584  12.332  1.00 20.00     0.127 C 
ENDROOT
BRANCH   8   9
HETATM    9  O9  UNL     1     -26.208  16.971  11.914  1.00 20.00    -0.395 OA
HETATM   10  H21 UNL     1     -26.254  17.098  10.957  1.00 20.00     0.210 HD
ENDBRANCH   8   9
TORSDOF 1
ENDMDL
MODEL 5
REMARK VINA RESULT:      -3.8      1.885      2.956
REMARK  1 active torsions:
REMARK  status: ('A' for Active; 'I' for Inactive)
REMARK    1  A    between atoms: C8_8  and  O9_9 
ROOT
HETATM    1  C1  UNL     1     -41.993   4.932   1.346  1.00 20.00     0.010 C 
HETATM    2  C2  UNL     1     -43.416   5.600  -0.428  1.00 20.00     0.012 C 
HETATM    3  C3  UNL     1     -43.266   6.901   1.695  1.00 20.00     0.012 C 
HETATM    4  C4  UNL     1     -43.395   5.486   1.106  1.00 20.00    -0.013 C 
HETATM    5  C5  UNL     1     -41.262   6.045   0.614  1.00 20.00    -0.001 C 
HETATM    6  C6  UNL     1     -42.058   6.268  -0.716  1.00 20.00     0.019 C 
HETATM    7  C7  UNL     1     -41.929   7.376   1.094  1.00 20.00     0.019 C 
HETATM    8  C8  UNL     1     -41.962   7.788  -0.405  1.00 20.00     0.127 C 
ENDROOT
BRANCH   8   9
HETATM    9  O9  UNL     1     -43.062   8.607  -0.835  1.00 20.00    -0.395 OA
HETATM   10  H21 UNL     1     -43.538   8.853  -0.031  1.00 20.00     0.210 HD
ENDBRANCH   8   9
TORSDOF 1
ENDMDL
MODEL 6
REMARK VINA RESULT:      -3.8      1.898      2.882
REMARK  1 active torsions:
REMARK  status: ('A' for Active; 'I' for Inactive)
REMARK    1  A    between atoms: C8_8  and  O9_9 
ROOT
HETATM    1  C1  UNL     1     -41.869   5.036   1.386  1.00 20.00     0.010 C 
HETATM    2  C2  UNL     1     -40.916   7.118   0.775  1.00 20.00     0.012 C 
HETATM    3  C3  UNL     1     -42.206   5.736  -0.854  1.00 20.00     0.012 C 
HETATM    4  C4  UNL     1     -41.116   5.692   0.231  1.00 20.00    -0.013 C 
HETATM    5  C5  UNL     1     -43.002   6.048   1.423  1.00 20.00    -0.001 C 
HETATM    6  C6  UNL     1     -42.318   7.452   1.319  1.00 20.00     0.019 C 
HETATM    7  C7  UNL     1     -43.417   6.273  -0.068  1.00 20.00     0.019 C 
HETATM    8  C8  UNL     1     -43.401   7.794   0.257  1.00 20.00     0.127 C 
ENDROOT
BRANCH   8   9
HETATM    9  O9  UNL     1     -43.013   8.685  -0.800  1.00 20.00    -0.395 OA
HETATM   10  H21 UNL     1     -42.235   8.284  -1.211  1.00 20.00     0.210 HD
ENDBRANCH   8   9
TORSDOF 1
ENDMDL
MODEL 7
REMARK VINA RESULT:      -3.8      1.484      2.791
REMARK  1 active torsions:
REMARK  status: ('A' for Active; 'I' for Inactive)
REMARK    1  A    between atoms: C8_8  and  O9_9 
ROOT
HETATM    1  C1  UNL     1     -43.417   6.809   1.636  1.00 20.00     0.010 C 
HETATM    2  C2  UNL     1     -41.940   4.956   1.603  1.00 20.00     0.012 C 
HETATM    3  C3  UNL     1     -43.388   5.516  -0.350  1.00 20.00     0.012 C 
HETATM    4  C4  UNL     1     -43.365   5.354   1.179  1.00 20.00    -0.013 C 
HETATM    5  C5  UNL     1     -42.193   7.258   0.856  1.00 20.00    -0.001 C 
HETATM    6  C6  UNL     1     -41.112   6.151   1.095  1.00 20.00     0.019 C 
HETATM    7  C7  UNL     1     -42.346   6.630  -0.569  1.00 20.00     0.019 C 
HETATM    8  C8  UNL     1     -40.856   6.206  -0.437  1.00 20.00     0.127 C 
ENDROOT
BRANCH   8   9
HETATM    9  O9  UNL     1     -40.466   4.978  -1.073  1.00 20.00    -0.395 OA
HETATM   10  H21 UNL     1     -41.145   4.797  -1.737  1.00 20.00     0.210 HD
ENDBRANCH   8   9
TORSDOF 1
ENDMDL
MODEL 8
REMARK VINA RESULT:      -3.7      1.407      2.753
REMARK  1 active torsions:
REMARK  status: ('A' for Active; 'I' for Inactive)
REMARK    1  A    between atoms: C8_8  and  O9_9 
ROOT
HETATM    1  C1  UNL     1     -43.417   5.458  -0.417  1.00 20.00     0.010 C 
HETATM    2  C2  UNL     1     -43.310   6.944   1.426  1.00 20.00     0.012 C 
HETATM    3  C3  UNL     1     -41.611   5.149   1.087  1.00 20.00     0.012 C 
HETATM    4  C4  UNL     1     -43.118   5.457   1.080  1.00 20.00    -0.013 C 
HETATM    5  C5  UNL     1     -42.380   6.508  -0.779  1.00 20.00    -0.001 C 
HETATM    6  C6  UNL     1     -42.532   7.639   0.292  1.00 20.00     0.019 C 
HETATM    7  C7  UNL     1     -41.084   6.109   0.002  1.00 20.00     0.019 C 
HETATM    8  C8  UNL     1     -40.982   7.607   0.406  1.00 20.00     0.127 C 
ENDROOT
BRANCH   8   9
HETATM    9  O9  UNL     1     -40.421   7.900   1.695  1.00 20.00    -0.395 OA
HETATM   10  H21 UNL     1     -39.775   7.202   1.868  1.00 20.00     0.210 HD
ENDBRANCH   8   9
TORSDOF 1
ENDMDL
MODEL 9
REMARK VINA RESULT:      -3.6      8.482      9.557
REMARK  1 active torsions:
REMARK  status: ('A' for Active; 'I' for Inactive)
REMARK    1  A    between atoms: C8_8  and  O9_9 
ROOT
HETATM    1  C1  UNL     1     -35.428   5.189   4.842  1.00 20.00     0.010 C 
HETATM    2  C2  UNL     1     -33.620   5.593   6.320  1.00 20.00     0.012 C 
HETATM    3  C3  UNL     1     -33.337   5.686   3.843  1.00 20.00     0.012 C 
HETATM    4  C4  UNL     1     -33.943   4.872   4.999  1.00 20.00    -0.013 C 
HETATM    5  C5  UNL     1     -35.271   6.699   4.916  1.00 20.00    -0.001 C 
HETATM    6  C6  UNL     1     -34.292   6.962   6.109  1.00 20.00     0.019 C 
HETATM    7  C7  UNL     1     -34.052   7.042   3.997  1.00 20.00     0.019 C 
HETATM    8  C8  UNL     1     -33.555   7.948   5.159  1.00 20.00     0.127 C 
ENDROOT
BRANCH   8   9
HETATM    9  O9  UNL     1     -32.134   8.072   5.331  1.00 20.00    -0.395 OA
HETATM   10  H21 UNL     1     -31.905   8.954   5.011  1.00 20.00     0.210 HD
ENDBRANCH   8   9
TORSDOF 1
ENDMDL
