MODEL 1
REMARK VINA RESULT:      -4.1      0.000      0.000
REMARK  3 active torsions:
REMARK  status: ('A' for Active; 'I' for Inactive)
REMARK    1  A    between atoms: C7_7  and  C8_8 
REMARK    2  A    between atoms: C7_7  and  N9_9 
REMARK    3  A    between atoms: C8_8  and  N10_10 
ROOT
HETATM    1  C1  UNL     1     -31.395  18.834  -0.322  1.00 20.00     0.157 C 
HETATM    2  N9  UNL     1     -31.706  19.063  -1.430  1.00 20.00    -0.274 NA
HETATM    3  S11 UNL     1     -30.951  18.546   1.180  1.00 20.00    -0.055 SA
ENDROOT
BRANCH   2   4
HETATM    4  C7  UNL     1     -32.821  18.258  -1.936  1.00 20.00     0.178 C 
BRANCH   4   5
HETATM    5  C8  UNL     1     -33.089  18.608  -3.387  1.00 20.00     0.256 C 
BRANCH   5   6
HETATM    6  N10 UNL     1     -33.273  17.347  -4.186  1.00 20.00    -0.070 N 
HETATM    7  C5  UNL     1     -33.266  16.122  -3.301  1.00 20.00     0.235 C 
HETATM    8  C3  UNL     1     -33.332  14.873  -4.167  1.00 20.00     0.028 C 
HETATM    9  C2  UNL     1     -34.540  14.893  -5.098  1.00 20.00     0.003 C 
HETATM   10  C4  UNL     1     -34.574  16.170  -5.932  1.00 20.00     0.028 C 
HETATM   11  C6  UNL     1     -34.504  17.415  -5.059  1.00 20.00     0.235 C 
HETATM   12  H26 UNL     1     -32.458  17.278  -4.810  1.00 20.00     0.279 HD
ENDBRANCH   5   6
ENDBRANCH   4   5
ENDBRANCH   2   4
TORSDOF 3
ENDMDL
MODEL 2
REMARK VINA RESULT:      -3.9      1.154      2.096
REMARK  3 active torsions:
REMARK  status: ('A' for Active; 'I' for Inactive)
REMARK    1  A    between atoms: C7_7  and  C8_8 
REMARK    2  A    between atoms: C7_7  and  N9_9 
REMARK    3  A    between atoms: C8_8  and  N10_10 
ROOT
HETATM    1  C1  UNL     1     -31.053  18.558   0.389  1.00 20.00     0.157 C 
HETATM    2  N9  UNL     1     -31.047  18.536  -0.785  1.00 20.00    -0.274 NA
HETATM    3  S11 UNL     1     -31.032  18.581   1.981  1.00 20.00    -0.055 SA
ENDROOT
BRANCH   2   4
HETATM    4  C7  UNL     1     -32.336  18.837  -1.414  1.00 20.00     0.178 C 
BRANCH   4   5
HETATM    5  C8  UNL     1     -33.354  17.782  -1.028  1.00 20.00     0.256 C 
BRANCH   5   6
HETATM    6  N10 UNL     1     -34.051  17.276  -2.260  1.00 20.00    -0.070 N 
HETATM    7  C5  UNL     1     -34.583  18.410  -3.104  1.00 20.00     0.235 C 
HETATM    8  C3  UNL     1     -35.382  17.843  -4.268  1.00 20.00     0.028 C 
HETATM    9  C2  UNL     1     -34.558  16.861  -5.094  1.00 20.00     0.003 C 
HETATM   10  C4  UNL     1     -33.965  15.762  -4.216  1.00 20.00     0.028 C 
HETATM   11  C6  UNL     1     -33.171  16.337  -3.052  1.00 20.00     0.235 C 
HETATM   12  H26 UNL     1     -34.861  16.732  -1.933  1.00 20.00     0.279 HD
ENDBRANCH   5   6
ENDBRANCH   4   5
ENDBRANCH   2   4
TORSDOF 3
ENDMDL
MODEL 3
REMARK VINA RESULT:      -3.9      0.777      1.730
REMARK  3 active torsions:
REMARK  status: ('A' for Active; 'I' for Inactive)
REMARK    1  A    between atoms: C7_7  and  C8_8 
REMARK    2  A    between atoms: C7_7  and  N9_9 
REMARK    3  A    between atoms: C8_8  and  N10_10 
ROOT
HETATM    1  C1  UNL     1     -31.579  18.783  -0.425  1.00 20.00     0.157 C 
HETATM    2  N9  UNL     1     -31.807  18.964  -1.562  1.00 20.00    -0.274 NA
HETATM    3  S11 UNL     1     -31.241  18.549   1.113  1.00 20.00    -0.055 SA
ENDROOT
BRANCH   2   4
HETATM    4  C7  UNL     1     -33.149  18.562  -1.993  1.00 20.00     0.178 C 
BRANCH   4   5
HETATM    5  C8  UNL     1     -33.272  17.051  -1.944  1.00 20.00     0.256 C 
BRANCH   5   6
HETATM    6  N10 UNL     1     -34.013  16.564  -3.159  1.00 20.00    -0.070 N 
HETATM    7  C5  UNL     1     -34.395  17.705  -4.072  1.00 20.00     0.235 C 
HETATM    8  C3  UNL     1     -35.245  17.174  -5.217  1.00 20.00     0.028 C 
HETATM    9  C2  UNL     1     -34.539  16.053  -5.973  1.00 20.00     0.003 C 
HETATM   10  C4  UNL     1     -34.094  14.943  -5.027  1.00 20.00     0.028 C 
HETATM   11  C6  UNL     1     -33.247  15.482  -3.883  1.00 20.00     0.235 C 
HETATM   12  H26 UNL     1     -34.887  16.142  -2.815  1.00 20.00     0.279 HD
ENDBRANCH   5   6
ENDBRANCH   4   5
ENDBRANCH   2   4
TORSDOF 3
ENDMDL
MODEL 4
REMARK VINA RESULT:      -3.7      1.239      2.124
REMARK  3 active torsions:
REMARK  status: ('A' for Active; 'I' for Inactive)
REMARK    1  A    between atoms: C7_7  and  C8_8 
REMARK    2  A    between atoms: C7_7  and  N9_9 
REMARK    3  A    between atoms: C8_8  and  N10_10 
ROOT
HETATM    1  C1  UNL     1     -32.019  18.502  -0.897  1.00 20.00     0.157 C 
HETATM    2  N9  UNL     1     -32.668  18.387  -1.868  1.00 20.00    -0.274 NA
HETATM    3  S11 UNL     1     -31.126  18.685   0.410  1.00 20.00    -0.055 SA
ENDROOT
BRANCH   2   4
HETATM    4  C7  UNL     1     -33.529  17.201  -1.896  1.00 20.00     0.178 C 
BRANCH   4   5
HETATM    5  C8  UNL     1     -33.130  16.306  -3.054  1.00 20.00     0.256 C 
BRANCH   5   6
HETATM    6  N10 UNL     1     -34.360  15.855  -3.792  1.00 20.00    -0.070 N 
HETATM    7  C5  UNL     1     -34.704  16.792  -4.926  1.00 20.00     0.235 C 
HETATM    8  C3  UNL     1     -36.019  16.361  -5.558  1.00 20.00     0.028 C 
HETATM    9  C2  UNL     1     -35.975  14.907  -6.018  1.00 20.00     0.003 C 
HETATM   10  C4  UNL     1     -35.554  13.981  -4.881  1.00 20.00     0.028 C 
HETATM   11  C6  UNL     1     -34.240  14.421  -4.252  1.00 20.00     0.235 C 
HETATM   12  H26 UNL     1     -35.135  15.896  -3.116  1.00 20.00     0.279 HD
ENDBRANCH   5   6
ENDBRANCH   4   5
ENDBRANCH   2   4
TORSDOF 3
ENDMDL
MODEL 5
REMARK VINA RESULT:      -3.7      3.781      5.704
REMARK  3 active torsions:
REMARK  status: ('A' for Active; 'I' for Inactive)
REMARK    1  A    between atoms: C7_7  and  C8_8 
REMARK    2  A    between atoms: C7_7  and  N9_9 
REMARK    3  A    between atoms: C8_8  and  N10_10 
ROOT
HETATM    1  C1  UNL     1     -36.227  15.533  -7.056  1.00 20.00     0.157 C 
HETATM    2  N9  UNL     1     -35.919  14.500  -6.592  1.00 20.00    -0.274 NA
HETATM    3  S11 UNL     1     -36.654  16.921  -7.711  1.00 20.00    -0.055 SA
ENDROOT
BRANCH   2   4
HETATM    4  C7  UNL     1     -35.379  14.571  -5.232  1.00 20.00     0.178 C 
BRANCH   4   5
HETATM    5  C8  UNL     1     -34.339  15.673  -5.151  1.00 20.00     0.256 C 
BRANCH   5   6
HETATM    6  N10 UNL     1     -34.510  16.436  -3.867  1.00 20.00    -0.070 N 
HETATM    7  C5  UNL     1     -33.254  16.403  -3.028  1.00 20.00     0.235 C 
HETATM    8  C3  UNL     1     -33.519  17.080  -1.692  1.00 20.00     0.028 C 
HETATM    9  C2  UNL     1     -34.042  18.502  -1.873  1.00 20.00     0.003 C 
HETATM   10  C4  UNL     1     -35.266  18.529  -2.783  1.00 20.00     0.028 C 
HETATM   11  C6  UNL     1     -34.994  17.845  -4.115  1.00 20.00     0.235 C 
HETATM   12  H26 UNL     1     -35.245  15.949  -3.335  1.00 20.00     0.279 HD
ENDBRANCH   5   6
ENDBRANCH   4   5
ENDBRANCH   2   4
TORSDOF 3
ENDMDL
MODEL 6
REMARK VINA RESULT:      -3.6      4.314      5.914
REMARK  3 active torsions:
REMARK  status: ('A' for Active; 'I' for Inactive)
REMARK    1  A    between atoms: C7_7  and  C8_8 
REMARK    2  A    between atoms: C7_7  and  N9_9 
REMARK    3  A    between atoms: C8_8  and  N10_10 
ROOT
HETATM    1  C1  UNL     1     -28.112  19.059   3.971  1.00 20.00     0.157 C 
HETATM    2  N9  UNL     1     -29.275  18.904   4.005  1.00 20.00    -0.274 NA
HETATM    3  S11 UNL     1     -26.532  19.259   3.953  1.00 20.00    -0.055 SA
ENDROOT
BRANCH   2   4
HETATM    4  C7  UNL     1     -29.982  19.263   2.773  1.00 20.00     0.178 C 
BRANCH   4   5
HETATM    5  C8  UNL     1     -31.473  19.058   2.959  1.00 20.00     0.256 C 
BRANCH   5   6
HETATM    6  N10 UNL     1     -32.081  18.571   1.673  1.00 20.00    -0.070 N 
HETATM    7  C5  UNL     1     -33.461  19.146   1.456  1.00 20.00     0.235 C 
HETATM    8  C3  UNL     1     -34.077  18.528   0.210  1.00 20.00     0.028 C 
HETATM    9  C2  UNL     1     -33.187  18.715  -1.014  1.00 20.00     0.003 C 
HETATM   10  C4  UNL     1     -31.776  18.197  -0.754  1.00 20.00     0.028 C 
HETATM   11  C6  UNL     1     -31.168  18.817   0.495  1.00 20.00     0.235 C 
HETATM   12  H26 UNL     1     -32.187  17.552   1.770  1.00 20.00     0.279 HD
ENDBRANCH   5   6
ENDBRANCH   4   5
ENDBRANCH   2   4
TORSDOF 3
ENDMDL
MODEL 7
REMARK VINA RESULT:      -3.6      1.241      1.385
REMARK  3 active torsions:
REMARK  status: ('A' for Active; 'I' for Inactive)
REMARK    1  A    between atoms: C7_7  and  C8_8 
REMARK    2  A    between atoms: C7_7  and  N9_9 
REMARK    3  A    between atoms: C8_8  and  N10_10 
ROOT
HETATM    1  C1  UNL     1     -32.686  18.209  -0.513  1.00 20.00     0.157 C 
HETATM    2  N9  UNL     1     -33.683  17.712  -0.884  1.00 20.00    -0.274 NA
HETATM    3  S11 UNL     1     -31.349  18.896   0.013  1.00 20.00    -0.055 SA
ENDROOT
BRANCH   2   4
HETATM    4  C7  UNL     1     -33.553  16.899  -2.096  1.00 20.00     0.178 C 
BRANCH   4   5
HETATM    5  C8  UNL     1     -33.239  17.792  -3.281  1.00 20.00     0.256 C 
BRANCH   5   6
HETATM    6  N10 UNL     1     -33.477  17.039  -4.560  1.00 20.00    -0.070 N 
HETATM    7  C5  UNL     1     -33.754  15.576  -4.301  1.00 20.00     0.235 C 
HETATM    8  C3  UNL     1     -33.864  14.840  -5.628  1.00 20.00     0.028 C 
HETATM    9  C2  UNL     1     -34.920  15.464  -6.535  1.00 20.00     0.003 C 
HETATM   10  C4  UNL     1     -34.670  16.957  -6.727  1.00 20.00     0.028 C 
HETATM   11  C6  UNL     1     -34.557  17.685  -5.396  1.00 20.00     0.235 C 
HETATM   12  H26 UNL     1     -32.601  17.094  -5.097  1.00 20.00     0.279 HD
ENDBRANCH   5   6
ENDBRANCH   4   5
ENDBRANCH   2   4
TORSDOF 3
ENDMDL
MODEL 8
REMARK VINA RESULT:      -3.6     11.756     12.761
REMARK  3 active torsions:
REMARK  status: ('A' for Active; 'I' for Inactive)
REMARK    1  A    between atoms: C7_7  and  C8_8 
REMARK    2  A    between atoms: C7_7  and  N9_9 
REMARK    3  A    between atoms: C8_8  and  N10_10 
ROOT
HETATM    1  C1  UNL     1     -32.826   9.446   1.482  1.00 20.00     0.157 C 
HETATM    2  N9  UNL     1     -32.892   9.722   2.621  1.00 20.00    -0.274 NA
HETATM    3  S11 UNL     1     -32.755   9.094  -0.070  1.00 20.00    -0.055 SA
ENDROOT
BRANCH   2   4
HETATM    4  C7  UNL     1     -32.129   8.845   3.513  1.00 20.00     0.178 C 
BRANCH   4   5
HETATM    5  C8  UNL     1     -32.456   7.396   3.210  1.00 20.00     0.256 C 
BRANCH   5   6
HETATM    6  N10 UNL     1     -33.507   6.903   4.166  1.00 20.00    -0.070 N 
HETATM    7  C5  UNL     1     -33.752   5.421   4.007  1.00 20.00     0.235 C 
HETATM    8  C3  UNL     1     -34.906   5.000   4.906  1.00 20.00     0.028 C 
HETATM    9  C2  UNL     1     -34.655   5.381   6.362  1.00 20.00     0.003 C 
HETATM   10  C4  UNL     1     -34.336   6.867   6.497  1.00 20.00     0.028 C 
HETATM   11  C6  UNL     1     -33.185   7.280   5.592  1.00 20.00     0.235 C 
HETATM   12  H26 UNL     1     -34.380   7.386   3.911  1.00 20.00     0.279 HD
ENDBRANCH   5   6
ENDBRANCH   4   5
ENDBRANCH   2   4
TORSDOF 3
ENDMDL
MODEL 9
REMARK VINA RESULT:      -3.5      3.789      5.835
REMARK  3 active torsions:
REMARK  status: ('A' for Active; 'I' for Inactive)
REMARK    1  A    between atoms: C7_7  and  C8_8 
REMARK    2  A    between atoms: C7_7  and  N9_9 
REMARK    3  A    between atoms: C8_8  and  N10_10 
ROOT
HETATM    1  C1  UNL     1     -36.204  15.365  -7.110  1.00 20.00     0.157 C 
HETATM    2  N9  UNL     1     -35.944  14.379  -6.530  1.00 20.00    -0.274 NA
HETATM    3  S11 UNL     1     -36.571  16.688  -7.918  1.00 20.00    -0.055 SA
ENDROOT
BRANCH   2   4
HETATM    4  C7  UNL     1     -35.113  14.564  -5.338  1.00 20.00     0.178 C 
BRANCH   4   5
HETATM    5  C8  UNL     1     -33.855  15.330  -5.705  1.00 20.00     0.256 C 
BRANCH   5   6
HETATM    6  N10 UNL     1     -33.569  16.366  -4.654  1.00 20.00    -0.070 N 
HETATM    7  C5  UNL     1     -34.457  17.578  -4.811  1.00 20.00     0.235 C 
HETATM    8  C3  UNL     1     -34.044  18.642  -3.805  1.00 20.00     0.028 C 
HETATM    9  C2  UNL     1     -34.064  18.107  -2.377  1.00 20.00     0.003 C 
HETATM   10  C4  UNL     1     -33.223  16.841  -2.250  1.00 20.00     0.028 C 
HETATM   11  C6  UNL     1     -33.639  15.783  -3.262  1.00 20.00     0.235 C 
HETATM   12  H26 UNL     1     -32.600  16.675  -4.808  1.00 20.00     0.279 HD
ENDBRANCH   5   6
ENDBRANCH   4   5
ENDBRANCH   2   4
TORSDOF 3
ENDMDL
