MODEL 1
REMARK VINA RESULT:      -4.7      0.000      0.000
REMARK  0 active torsions:
REMARK  status: ('A' for Active; 'I' for Inactive)
ROOT
HETATM    1  C1  UNL     1     -33.774   7.139   5.247  1.00 20.00     0.142 C 
HETATM    2  C2  UNL     1     -32.988   5.931   2.683  1.00 20.00     0.002 C 
HETATM    3  C3  UNL     1     -32.190   7.096   3.249  1.00 20.00     0.016 C 
HETATM    4  C4  UNL     1     -33.483   5.046   3.818  1.00 20.00     0.016 C 
HETATM    5  C5  UNL     1     -32.995   7.981   4.216  1.00 20.00     0.014 C 
HETATM    6  C6  UNL     1     -34.380   5.785   4.825  1.00 20.00     0.014 C 
HETATM    7  C7  UNL     1     -31.999   8.887   4.969  1.00 20.00     0.023 C 
HETATM    8  C8  UNL     1     -33.976   8.887   3.458  1.00 20.00     0.023 C 
HETATM    9  C9  UNL     1     -35.788   6.015   4.254  1.00 20.00     0.023 C 
HETATM   10  C10 UNL     1     -34.517   4.894   6.078  1.00 20.00     0.023 C 
HETATM   11  O11 UNL     1     -33.995   7.592   6.376  1.00 20.00    -0.296 OA
ENDROOT
TORSDOF 0
ENDMDL
MODEL 2
REMARK VINA RESULT:      -4.3     15.304     16.659
REMARK  0 active torsions:
REMARK  status: ('A' for Active; 'I' for Inactive)
ROOT
HETATM    1  C1  UNL     1     -24.126  18.484   9.941  1.00 20.00     0.142 C 
HETATM    2  C2  UNL     1     -21.887  18.274  11.836  1.00 20.00     0.002 C 
HETATM    3  C3  UNL     1     -21.651  18.836  10.441  1.00 20.00     0.016 C 
HETATM    4  C4  UNL     1     -23.264  18.690  12.332  1.00 20.00     0.016 C 
HETATM    5  C5  UNL     1     -22.685  18.363   9.405  1.00 20.00     0.014 C 
HETATM    6  C6  UNL     1     -24.413  18.207  11.430  1.00 20.00     0.014 C 
HETATM    7  C7  UNL     1     -22.547  19.258   8.156  1.00 20.00     0.023 C 
HETATM    8  C8  UNL     1     -22.423  16.912   8.976  1.00 20.00     0.023 C 
HETATM    9  C9  UNL     1     -24.682  16.707  11.626  1.00 20.00     0.023 C 
HETATM   10  C10 UNL     1     -25.688  18.974  11.839  1.00 20.00     0.023 C 
HETATM   11  O11 UNL     1     -25.061  18.702   9.161  1.00 20.00    -0.296 OA
ENDROOT
TORSDOF 0
ENDMDL
MODEL 3
REMARK VINA RESULT:      -4.1      1.511      3.744
REMARK  0 active torsions:
REMARK  status: ('A' for Active; 'I' for Inactive)
ROOT
HETATM    1  C1  UNL     1     -33.436   6.479   3.991  1.00 20.00     0.142 C 
HETATM    2  C2  UNL     1     -34.418   6.888   6.733  1.00 20.00     0.002 C 
HETATM    3  C3  UNL     1     -34.382   5.487   6.141  1.00 20.00     0.016 C 
HETATM    4  C4  UNL     1     -33.230   7.692   6.225  1.00 20.00     0.016 C 
HETATM    5  C5  UNL     1     -34.426   5.468   4.604  1.00 20.00     0.014 C 
HETATM    6  C6  UNL     1     -33.193   7.830   4.693  1.00 20.00     0.014 C 
HETATM    7  C7  UNL     1     -34.035   4.050   4.136  1.00 20.00     0.023 C 
HETATM    8  C8  UNL     1     -35.840   5.763   4.082  1.00 20.00     0.023 C 
HETATM    9  C9  UNL     1     -34.228   8.853   4.200  1.00 20.00     0.023 C 
HETATM   10  C10 UNL     1     -31.792   8.346   4.300  1.00 20.00     0.023 C 
HETATM   11  O11 UNL     1     -32.918   6.250   2.892  1.00 20.00    -0.296 OA
ENDROOT
TORSDOF 0
ENDMDL
MODEL 4
REMARK VINA RESULT:      -3.9     12.172     13.473
REMARK  0 active torsions:
REMARK  status: ('A' for Active; 'I' for Inactive)
ROOT
HETATM    1  C1  UNL     1     -35.506  16.683  -4.855  1.00 20.00     0.142 C 
HETATM    2  C2  UNL     1     -32.970  15.806  -3.650  1.00 20.00     0.002 C 
HETATM    3  C3  UNL     1     -33.729  16.981  -3.050  1.00 20.00     0.016 C 
HETATM    4  C4  UNL     1     -33.954  14.774  -4.181  1.00 20.00     0.016 C 
HETATM    5  C5  UNL     1     -34.657  17.689  -4.052  1.00 20.00     0.014 C 
HETATM    6  C6  UNL     1     -34.898  15.326  -5.264  1.00 20.00     0.014 C 
HETATM    7  C7  UNL     1     -35.605  18.607  -3.253  1.00 20.00     0.023 C 
HETATM    8  C8  UNL     1     -33.859  18.570  -5.025  1.00 20.00     0.023 C 
HETATM    9  C9  UNL     1     -34.173  15.478  -6.610  1.00 20.00     0.023 C 
HETATM   10  C10 UNL     1     -36.043  14.309  -5.455  1.00 20.00     0.023 C 
HETATM   11  O11 UNL     1     -36.631  17.003  -5.255  1.00 20.00    -0.296 OA
ENDROOT
TORSDOF 0
ENDMDL
MODEL 5
REMARK VINA RESULT:      -3.9     10.097     11.345
REMARK  0 active torsions:
REMARK  status: ('A' for Active; 'I' for Inactive)
ROOT
HETATM    1  C1  UNL     1     -40.940  13.984   7.558  1.00 20.00     0.142 C 
HETATM    2  C2  UNL     1     -42.705  15.147   5.513  1.00 20.00     0.002 C 
HETATM    3  C3  UNL     1     -41.957  16.057   6.476  1.00 20.00     0.016 C 
HETATM    4  C4  UNL     1     -41.846  13.938   5.175  1.00 20.00     0.016 C 
HETATM    5  C5  UNL     1     -41.572  15.370   7.798  1.00 20.00     0.014 C 
HETATM    6  C6  UNL     1     -41.454  13.100   6.404  1.00 20.00     0.014 C 
HETATM    7  C7  UNL     1     -40.540  16.266   8.513  1.00 20.00     0.023 C 
HETATM    8  C8  UNL     1     -42.788  15.220   8.724  1.00 20.00     0.023 C 
HETATM    9  C9  UNL     1     -42.634  12.251   6.900  1.00 20.00     0.023 C 
HETATM   10  C10 UNL     1     -40.325  12.138   5.978  1.00 20.00     0.023 C 
HETATM   11  O11 UNL     1     -40.097  13.543   8.348  1.00 20.00    -0.296 OA
ENDROOT
TORSDOF 0
ENDMDL
MODEL 6
REMARK VINA RESULT:      -3.7     12.194     13.626
REMARK  0 active torsions:
REMARK  status: ('A' for Active; 'I' for Inactive)
ROOT
HETATM    1  C1  UNL     1     -34.915  18.472  -2.531  1.00 20.00     0.142 C 
HETATM    2  C2  UNL     1     -33.359  16.405  -3.931  1.00 20.00     0.002 C 
HETATM    3  C3  UNL     1     -33.311  16.493  -2.412  1.00 20.00     0.016 C 
HETATM    4  C4  UNL     1     -34.752  16.770  -4.424  1.00 20.00     0.016 C 
HETATM    5  C5  UNL     1     -33.651  17.890  -1.866  1.00 20.00     0.014 C 
HETATM    6  C6  UNL     1     -35.194  18.188  -4.020  1.00 20.00     0.014 C 
HETATM    7  C7  UNL     1     -33.907  17.756  -0.351  1.00 20.00     0.023 C 
HETATM    8  C8  UNL     1     -32.480  18.865  -2.062  1.00 20.00     0.023 C 
HETATM    9  C9  UNL     1     -34.498  19.254  -4.880  1.00 20.00     0.023 C 
HETATM   10  C10 UNL     1     -36.713  18.297  -4.268  1.00 20.00     0.023 C 
HETATM   11  O11 UNL     1     -35.647  19.243  -1.900  1.00 20.00    -0.296 OA
ENDROOT
TORSDOF 0
ENDMDL
MODEL 7
REMARK VINA RESULT:      -3.6     12.379     14.177
REMARK  0 active torsions:
REMARK  status: ('A' for Active; 'I' for Inactive)
ROOT
HETATM    1  C1  UNL     1     -34.374  17.367  -5.642  1.00 20.00     0.142 C 
HETATM    2  C2  UNL     1     -33.699  15.533  -3.444  1.00 20.00     0.002 C 
HETATM    3  C3  UNL     1     -33.688  15.032  -4.881  1.00 20.00     0.016 C 
HETATM    4  C4  UNL     1     -33.225  16.978  -3.398  1.00 20.00     0.016 C 
HETATM    5  C5  UNL     1     -34.585  15.851  -5.824  1.00 20.00     0.014 C 
HETATM    6  C6  UNL     1     -34.090  17.935  -4.236  1.00 20.00     0.014 C 
HETATM    7  C7  UNL     1     -34.218  15.472  -7.274  1.00 20.00     0.023 C 
HETATM    8  C8  UNL     1     -36.070  15.517  -5.611  1.00 20.00     0.023 C 
HETATM    9  C9  UNL     1     -35.421  18.242  -3.534  1.00 20.00     0.023 C 
HETATM   10  C10 UNL     1     -33.316  19.262  -4.386  1.00 20.00     0.023 C 
HETATM   11  O11 UNL     1     -34.530  18.134  -6.599  1.00 20.00    -0.296 OA
ENDROOT
TORSDOF 0
ENDMDL
MODEL 8
REMARK VINA RESULT:      -3.4     12.098     14.096
REMARK  0 active torsions:
REMARK  status: ('A' for Active; 'I' for Inactive)
ROOT
HETATM    1  C1  UNL     1     -36.157  15.358  -5.360  1.00 20.00     0.142 C 
HETATM    2  C2  UNL     1     -34.967  18.048  -5.399  1.00 20.00     0.002 C 
HETATM    3  C3  UNL     1     -36.467  17.884  -5.203  1.00 20.00     0.016 C 
HETATM    4  C4  UNL     1     -34.231  16.902  -4.720  1.00 20.00     0.016 C 
HETATM    5  C5  UNL     1     -37.022  16.567  -5.771  1.00 20.00     0.014 C 
HETATM    6  C6  UNL     1     -34.627  15.515  -5.254  1.00 20.00     0.014 C 
HETATM    7  C7  UNL     1     -38.445  16.371  -5.208  1.00 20.00     0.023 C 
HETATM    8  C8  UNL     1     -37.125  16.620  -7.303  1.00 20.00     0.023 C 
HETATM    9  C9  UNL     1     -33.992  15.244  -6.627  1.00 20.00     0.023 C 
HETATM   10  C10 UNL     1     -34.089  14.458  -4.266  1.00 20.00     0.023 C 
HETATM   11  O11 UNL     1     -36.677  14.246  -5.215  1.00 20.00    -0.296 OA
ENDROOT
TORSDOF 0
ENDMDL
MODEL 9
REMARK VINA RESULT:      -3.4     12.387     13.996
REMARK  0 active torsions:
REMARK  status: ('A' for Active; 'I' for Inactive)
ROOT
HETATM    1  C1  UNL     1     -34.085  16.593  -4.158  1.00 20.00     0.142 C 
HETATM    2  C2  UNL     1     -36.164  18.672  -4.109  1.00 20.00     0.002 C 
HETATM    3  C3  UNL     1     -36.413  17.368  -4.852  1.00 20.00     0.016 C 
HETATM    4  C4  UNL     1     -35.329  18.406  -2.866  1.00 20.00     0.016 C 
HETATM    5  C5  UNL     1     -35.123  16.658  -5.296  1.00 20.00     0.014 C 
HETATM    6  C6  UNL     1     -33.962  17.770  -3.169  1.00 20.00     0.014 C 
HETATM    7  C7  UNL     1     -35.493  15.218  -5.709  1.00 20.00     0.023 C 
HETATM    8  C8  UNL     1     -34.496  17.351  -6.515  1.00 20.00     0.023 C 
HETATM    9  C9  UNL     1     -32.978  18.807  -3.733  1.00 20.00     0.023 C 
HETATM   10  C10 UNL     1     -33.382  17.241  -1.840  1.00 20.00     0.023 C 
HETATM   11  O11 UNL     1     -33.288  15.649  -4.099  1.00 20.00    -0.296 OA
ENDROOT
TORSDOF 0
ENDMDL
