MODEL 1
REMARK VINA RESULT:      -6.1      0.000      0.000
REMARK  1 active torsions:
REMARK  status: ('A' for Active; 'I' for Inactive)
REMARK    1  A    between atoms: C4_4  and  C7_7 
ROOT
HETATM    1  C1  UNL     1     -32.333   8.849   3.530  1.00 20.00     0.015 A 
HETATM    2  C2  UNL     1     -32.861   8.548   4.785  1.00 20.00     0.008 A 
HETATM    3  C3  UNL     1     -33.002   6.674   2.731  1.00 20.00     0.022 A 
HETATM    4  C4  UNL     1     -32.402   7.911   2.503  1.00 20.00     0.002 A 
HETATM    5  C5  UNL     1     -33.459   7.303   5.029  1.00 20.00    -0.052 A 
HETATM    6  C6  UNL     1     -33.547   6.362   3.986  1.00 20.00    -0.051 A 
HETATM    7  C8  UNL     1     -34.048   7.027   6.390  1.00 20.00     0.039 C 
HETATM    8  C9  UNL     1     -34.159   5.000   4.201  1.00 20.00     0.039 C 
HETATM    9  C10 UNL     1     -34.317   5.545   6.642  1.00 20.00     0.005 C 
HETATM   10  C11 UNL     1     -35.034   4.924   5.450  1.00 20.00     0.005 C 
ENDROOT
BRANCH   4  11
HETATM   11  C7  UNL     1     -31.846   8.221   1.196  1.00 20.00     0.269 C 
HETATM   12  O12 UNL     1     -32.430   8.921   0.364  1.00 20.00    -0.301 OA
ENDBRANCH   4  11
TORSDOF 1
ENDMDL
MODEL 2
REMARK VINA RESULT:      -5.5      0.819      2.119
REMARK  1 active torsions:
REMARK  status: ('A' for Active; 'I' for Inactive)
REMARK    1  A    between atoms: C4_4  and  C7_7 
ROOT
HETATM    1  C1  UNL     1     -32.621   6.150   1.870  1.00 20.00     0.015 A 
HETATM    2  C2  UNL     1     -33.205   5.297   2.806  1.00 20.00     0.008 A 
HETATM    3  C3  UNL     1     -32.840   7.989   3.415  1.00 20.00     0.022 A 
HETATM    4  C4  UNL     1     -32.441   7.497   2.173  1.00 20.00     0.002 A 
HETATM    5  C5  UNL     1     -33.619   5.782   4.055  1.00 20.00    -0.052 A 
HETATM    6  C6  UNL     1     -33.418   7.139   4.370  1.00 20.00    -0.051 A 
HETATM    7  C8  UNL     1     -34.214   4.822   5.054  1.00 20.00     0.039 C 
HETATM    8  C9  UNL     1     -33.866   7.717   5.690  1.00 20.00     0.039 C 
HETATM    9  C10 UNL     1     -34.957   5.518   6.192  1.00 20.00     0.005 C 
HETATM   10  C11 UNL     1     -34.117   6.655   6.759  1.00 20.00     0.005 C 
ENDROOT
BRANCH   4  11
HETATM   11  C7  UNL     1     -31.840   8.389   1.196  1.00 20.00     0.269 C 
HETATM   12  O12 UNL     1     -32.500   9.147   0.479  1.00 20.00    -0.301 OA
ENDBRANCH   4  11
TORSDOF 1
ENDMDL
MODEL 3
REMARK VINA RESULT:      -4.7     11.742     12.948
REMARK  1 active torsions:
REMARK  status: ('A' for Active; 'I' for Inactive)
REMARK    1  A    between atoms: C4_4  and  C7_7 
ROOT
HETATM    1  C1  UNL     1     -33.762  14.963  -5.150  1.00 20.00     0.015 A 
HETATM    2  C2  UNL     1     -33.257  15.388  -3.922  1.00 20.00     0.008 A 
HETATM    3  C3  UNL     1     -35.212  16.889  -5.216  1.00 20.00     0.022 A 
HETATM    4  C4  UNL     1     -34.742  15.712  -5.797  1.00 20.00     0.002 A 
HETATM    5  C5  UNL     1     -33.729  16.565  -3.324  1.00 20.00    -0.052 A 
HETATM    6  C6  UNL     1     -34.704  17.333  -3.986  1.00 20.00    -0.051 A 
HETATM    7  C8  UNL     1     -33.134  17.009  -2.011  1.00 20.00     0.039 C 
HETATM    8  C9  UNL     1     -35.264  18.595  -3.376  1.00 20.00     0.039 C 
HETATM    9  C10 UNL     1     -33.974  18.063  -1.294  1.00 20.00     0.005 C 
HETATM   10  C11 UNL     1     -34.387  19.164  -2.262  1.00 20.00     0.005 C 
ENDROOT
BRANCH   4  11
HETATM   11  C7  UNL     1     -35.274  15.267  -7.074  1.00 20.00     0.269 C 
HETATM   12  O12 UNL     1     -36.042  14.307  -7.186  1.00 20.00    -0.301 OA
ENDBRANCH   4  11
TORSDOF 1
ENDMDL
MODEL 4
REMARK VINA RESULT:      -4.3     11.654     13.448
REMARK  1 active torsions:
REMARK  status: ('A' for Active; 'I' for Inactive)
REMARK    1  A    between atoms: C4_4  and  C7_7 
ROOT
HETATM    1  C1  UNL     1     -34.724  17.665  -6.476  1.00 20.00     0.015 A 
HETATM    2  C2  UNL     1     -34.238  18.598  -5.561  1.00 20.00     0.008 A 
HETATM    3  C3  UNL     1     -34.392  15.909  -4.855  1.00 20.00     0.022 A 
HETATM    4  C4  UNL     1     -34.799  16.320  -6.124  1.00 20.00     0.002 A 
HETATM    5  C5  UNL     1     -33.817  18.197  -4.285  1.00 20.00    -0.052 A 
HETATM    6  C6  UNL     1     -33.911  16.840  -3.922  1.00 20.00    -0.051 A 
HETATM    7  C8  UNL     1     -33.329  19.241  -3.313  1.00 20.00     0.039 C 
HETATM    8  C9  UNL     1     -33.450  16.352  -2.571  1.00 20.00     0.039 C 
HETATM    9  C10 UNL     1     -32.560  18.652  -2.131  1.00 20.00     0.005 C 
HETATM   10  C11 UNL     1     -33.316  17.470  -1.539  1.00 20.00     0.005 C 
ENDROOT
BRANCH   4  11
HETATM   11  C7  UNL     1     -35.298  15.344  -7.079  1.00 20.00     0.269 C 
HETATM   12  O12 UNL     1     -35.890  14.314  -6.742  1.00 20.00    -0.301 OA
ENDBRANCH   4  11
TORSDOF 1
ENDMDL
MODEL 5
REMARK VINA RESULT:      -4.2     11.798     13.759
REMARK  1 active torsions:
REMARK  status: ('A' for Active; 'I' for Inactive)
REMARK    1  A    between atoms: C4_4  and  C7_7 
ROOT
HETATM    1  C1  UNL     1     -33.067  17.013  -1.927  1.00 20.00     0.015 A 
HETATM    2  C2  UNL     1     -33.668  16.260  -2.935  1.00 20.00     0.008 A 
HETATM    3  C3  UNL     1     -33.117  18.957  -3.353  1.00 20.00     0.022 A 
HETATM    4  C4  UNL     1     -32.789  18.361  -2.136  1.00 20.00     0.002 A 
HETATM    5  C5  UNL     1     -33.994  16.846  -4.167  1.00 20.00    -0.052 A 
HETATM    6  C6  UNL     1     -33.732  18.214  -4.372  1.00 20.00    -0.051 A 
HETATM    7  C8  UNL     1     -34.674  16.008  -5.220  1.00 20.00     0.039 C 
HETATM    8  C9  UNL     1     -34.042  18.888  -5.686  1.00 20.00     0.039 C 
HETATM    9  C10 UNL     1     -34.629  16.635  -6.612  1.00 20.00     0.005 C 
HETATM   10  C11 UNL     1     -35.029  18.103  -6.548  1.00 20.00     0.005 C 
ENDROOT
BRANCH   4  11
HETATM   11  C7  UNL     1     -32.157  19.146  -1.089  1.00 20.00     0.269 C 
HETATM   12  O12 UNL     1     -31.032  18.895  -0.644  1.00 20.00    -0.301 OA
ENDBRANCH   4  11
TORSDOF 1
ENDMDL
MODEL 6
REMARK VINA RESULT:      -4.1     11.650     13.538
REMARK  1 active torsions:
REMARK  status: ('A' for Active; 'I' for Inactive)
REMARK    1  A    between atoms: C4_4  and  C7_7 
ROOT
HETATM    1  C1  UNL     1     -33.301  16.647  -2.327  1.00 20.00     0.015 A 
HETATM    2  C2  UNL     1     -33.697  15.697  -3.268  1.00 20.00     0.008 A 
HETATM    3  C3  UNL     1     -33.735  18.403  -3.922  1.00 20.00     0.022 A 
HETATM    4  C4  UNL     1     -33.317  18.000  -2.654  1.00 20.00     0.002 A 
HETATM    5  C5  UNL     1     -34.111  16.090  -4.550  1.00 20.00    -0.052 A 
HETATM    6  C6  UNL     1     -34.147  17.459  -4.874  1.00 20.00    -0.051 A 
HETATM    7  C8  UNL     1     -34.565  15.037  -5.528  1.00 20.00     0.039 C 
HETATM    8  C9  UNL     1     -34.561  17.934  -6.245  1.00 20.00     0.039 C 
HETATM    9  C10 UNL     1     -34.621  15.537  -6.971  1.00 20.00     0.005 C 
HETATM   10  C11 UNL     1     -35.331  16.882  -7.040  1.00 20.00     0.005 C 
ENDROOT
BRANCH   4  11
HETATM   11  C7  UNL     1     -32.897  18.991  -1.677  1.00 20.00     0.269 C 
HETATM   12  O12 UNL     1     -31.713  19.263  -1.459  1.00 20.00    -0.301 OA
ENDBRANCH   4  11
TORSDOF 1
ENDMDL
MODEL 7
REMARK VINA RESULT:      -4.1     14.409     16.001
REMARK  1 active torsions:
REMARK  status: ('A' for Active; 'I' for Inactive)
REMARK    1  A    between atoms: C4_4  and  C7_7 
ROOT
HETATM    1  C1  UNL     1     -23.985  19.262   7.205  1.00 20.00     0.015 A 
HETATM    2  C2  UNL     1     -22.923  19.154   8.102  1.00 20.00     0.008 A 
HETATM    3  C3  UNL     1     -25.544  18.948   9.019  1.00 20.00     0.022 A 
HETATM    4  C4  UNL     1     -25.296  19.157   7.663  1.00 20.00     0.002 A 
HETATM    5  C5  UNL     1     -23.160  18.935   9.467  1.00 20.00    -0.052 A 
HETATM    6  C6  UNL     1     -24.485  18.849   9.933  1.00 20.00    -0.051 A 
HETATM    7  C8  UNL     1     -21.986  18.858  10.411  1.00 20.00     0.039 C 
HETATM    8  C9  UNL     1     -24.794  18.591  11.387  1.00 20.00     0.039 C 
HETATM    9  C10 UNL     1     -22.341  18.251  11.766  1.00 20.00     0.005 C 
HETATM   10  C11 UNL     1     -23.615  18.879  12.314  1.00 20.00     0.005 C 
ENDROOT
BRANCH   4  11
HETATM   11  C7  UNL     1     -26.404  19.262   6.728  1.00 20.00     0.269 C 
HETATM   12  O12 UNL     1     -26.334  18.886   5.554  1.00 20.00    -0.301 OA
ENDBRANCH   4  11
TORSDOF 1
ENDMDL
MODEL 8
REMARK VINA RESULT:      -3.9     11.961     13.718
REMARK  1 active torsions:
REMARK  status: ('A' for Active; 'I' for Inactive)
REMARK    1  A    between atoms: C4_4  and  C7_7 
ROOT
HETATM    1  C1  UNL     1     -35.774  15.090  -6.678  1.00 20.00     0.015 A 
HETATM    2  C2  UNL     1     -34.827  14.829  -5.689  1.00 20.00     0.008 A 
HETATM    3  C3  UNL     1     -35.948  17.368  -5.908  1.00 20.00     0.022 A 
HETATM    4  C4  UNL     1     -36.337  16.358  -6.786  1.00 20.00     0.002 A 
HETATM    5  C5  UNL     1     -34.434  15.834  -4.793  1.00 20.00    -0.052 A 
HETATM    6  C6  UNL     1     -34.987  17.123  -4.915  1.00 20.00    -0.051 A 
HETATM    7  C8  UNL     1     -33.382  15.523  -3.759  1.00 20.00     0.039 C 
HETATM    8  C9  UNL     1     -34.617  18.233  -3.963  1.00 20.00     0.039 C 
HETATM    9  C10 UNL     1     -33.322  16.552  -2.631  1.00 20.00     0.005 C 
HETATM   10  C11 UNL     1     -33.322  17.965  -3.199  1.00 20.00     0.005 C 
ENDROOT
BRANCH   4  11
HETATM   11  C7  UNL     1     -37.330  16.630  -7.813  1.00 20.00     0.269 C 
HETATM   12  O12 UNL     1     -38.517  16.306  -7.705  1.00 20.00    -0.301 OA
ENDBRANCH   4  11
TORSDOF 1
ENDMDL
MODEL 9
REMARK VINA RESULT:      -3.9      9.583     10.368
REMARK  1 active torsions:
REMARK  status: ('A' for Active; 'I' for Inactive)
REMARK    1  A    between atoms: C4_4  and  C7_7 
ROOT
HETATM    1  C1  UNL     1     -39.163  12.142   6.240  1.00 20.00     0.015 A 
HETATM    2  C2  UNL     1     -39.741  12.836   7.302  1.00 20.00     0.008 A 
HETATM    3  C3  UNL     1     -40.796  13.087   4.738  1.00 20.00     0.022 A 
HETATM    4  C4  UNL     1     -39.691  12.265   4.958  1.00 20.00     0.002 A 
HETATM    5  C5  UNL     1     -40.858  13.658   7.095  1.00 20.00    -0.052 A 
HETATM    6  C6  UNL     1     -41.380  13.800   5.796  1.00 20.00    -0.051 A 
HETATM    7  C8  UNL     1     -41.434  14.419   8.263  1.00 20.00     0.039 C 
HETATM    8  C9  UNL     1     -42.594  14.652   5.522  1.00 20.00     0.039 C 
HETATM    9  C10 UNL     1     -42.838  14.959   7.997  1.00 20.00     0.005 C 
HETATM   10  C11 UNL     1     -42.895  15.649   6.640  1.00 20.00     0.005 C 
ENDROOT
BRANCH   4  11
HETATM   11  C7  UNL     1     -39.094  11.537   3.851  1.00 20.00     0.269 C 
HETATM   12  O12 UNL     1     -39.092  11.958   2.690  1.00 20.00    -0.301 OA
ENDBRANCH   4  11
TORSDOF 1
ENDMDL
