MODEL 1
REMARK VINA RESULT:      -5.5      0.000      0.000
REMARK  1 active torsions:
REMARK  status: ('A' for Active; 'I' for Inactive)
REMARK    1  A    between atoms: C3_3  and  C6_6 
ROOT
HETATM    1  C1  UNL     1     -33.548   7.804   4.894  1.00 20.00     0.272 C 
HETATM    2  C2  UNL     1     -33.052   6.222   3.239  1.00 20.00     0.055 C 
HETATM    3  C3  UNL     1     -33.448   6.311   4.700  1.00 20.00     0.195 C 
HETATM    4  C4  UNL     1     -32.207   7.465   3.069  1.00 20.00     0.129 C 
HETATM    5  C5  UNL     1     -32.165   7.970   1.638  1.00 20.00     0.040 C 
HETATM    6  O7  UNL     1     -34.143   8.375   5.794  1.00 20.00    -0.265 OA
HETATM    7  O8  UNL     1     -32.836   8.441   3.911  1.00 20.00    -0.316 OA
ENDROOT
BRANCH   3   8
HETATM    8  C6  UNL     1     -34.747   5.591   5.003  1.00 20.00     0.400 C 
HETATM    9  F9  UNL     1     -35.001   5.612   6.323  1.00 20.00    -0.170 F 
HETATM   10  F10 UNL     1     -35.773   6.180   4.362  1.00 20.00    -0.170 F 
HETATM   11  F11 UNL     1     -34.677   4.308   4.605  1.00 20.00    -0.170 F 
ENDBRANCH   3   8
TORSDOF 1
ENDMDL
MODEL 2
REMARK VINA RESULT:      -5.3      1.959      2.426
REMARK  1 active torsions:
REMARK  status: ('A' for Active; 'I' for Inactive)
REMARK    1  A    between atoms: C3_3  and  C6_6 
ROOT
HETATM    1  C1  UNL     1     -33.907   5.266   4.136  1.00 20.00     0.272 C 
HETATM    2  C2  UNL     1     -33.424   7.512   4.594  1.00 20.00     0.055 C 
HETATM    3  C3  UNL     1     -34.412   6.422   4.964  1.00 20.00     0.195 C 
HETATM    4  C4  UNL     1     -33.116   7.176   3.152  1.00 20.00     0.129 C 
HETATM    5  C5  UNL     1     -31.761   7.686   2.695  1.00 20.00     0.040 C 
HETATM    6  O7  UNL     1     -34.157   4.085   4.320  1.00 20.00    -0.265 OA
HETATM    7  O8  UNL     1     -33.136   5.743   3.108  1.00 20.00    -0.316 OA
ENDROOT
BRANCH   3   8
HETATM    8  C6  UNL     1     -34.426   6.119   6.449  1.00 20.00     0.400 C 
HETATM    9  F9  UNL     1     -33.257   5.575   6.831  1.00 20.00    -0.170 F 
HETATM   10  F10 UNL     1     -34.622   7.246   7.158  1.00 20.00    -0.170 F 
HETATM   11  F11 UNL     1     -35.414   5.254   6.743  1.00 20.00    -0.170 F 
ENDBRANCH   3   8
TORSDOF 1
ENDMDL
MODEL 3
REMARK VINA RESULT:      -5.2      1.609      2.484
REMARK  1 active torsions:
REMARK  status: ('A' for Active; 'I' for Inactive)
REMARK    1  A    between atoms: C3_3  and  C6_6 
ROOT
HETATM    1  C1  UNL     1     -33.125   6.138   3.379  1.00 20.00     0.272 C 
HETATM    2  C2  UNL     1     -33.783   7.395   5.243  1.00 20.00     0.055 C 
HETATM    3  C3  UNL     1     -34.257   6.248   4.371  1.00 20.00     0.195 C 
HETATM    4  C4  UNL     1     -33.035   8.255   4.248  1.00 20.00     0.129 C 
HETATM    5  C5  UNL     1     -31.970   9.125   4.890  1.00 20.00     0.040 C 
HETATM    6  O7  UNL     1     -32.874   5.171   2.677  1.00 20.00    -0.265 OA
HETATM    7  O8  UNL     1     -32.422   7.314   3.356  1.00 20.00    -0.316 OA
ENDROOT
BRANCH   3   8
HETATM    8  C6  UNL     1     -34.482   4.968   5.151  1.00 20.00     0.400 C 
HETATM    9  F9  UNL     1     -33.848   3.939   4.562  1.00 20.00    -0.170 F 
HETATM   10  F10 UNL     1     -34.014   5.094   6.407  1.00 20.00    -0.170 F 
HETATM   11  F11 UNL     1     -35.795   4.680   5.213  1.00 20.00    -0.170 F 
ENDBRANCH   3   8
TORSDOF 1
ENDMDL
MODEL 4
REMARK VINA RESULT:      -5.2      2.535      3.721
REMARK  1 active torsions:
REMARK  status: ('A' for Active; 'I' for Inactive)
REMARK    1  A    between atoms: C3_3  and  C6_6 
ROOT
HETATM    1  C1  UNL     1     -33.157   8.133   5.148  1.00 20.00     0.272 C 
HETATM    2  C2  UNL     1     -33.941   6.101   4.286  1.00 20.00     0.055 C 
HETATM    3  C3  UNL     1     -33.504   7.481   3.833  1.00 20.00     0.195 C 
HETATM    4  C4  UNL     1     -34.575   6.400   5.626  1.00 20.00     0.129 C 
HETATM    5  C5  UNL     1     -34.565   5.213   6.572  1.00 20.00     0.040 C 
HETATM    6  O7  UNL     1     -32.457   9.122   5.299  1.00 20.00    -0.265 OA
HETATM    7  O8  UNL     1     -33.776   7.461   6.169  1.00 20.00    -0.316 OA
ENDROOT
BRANCH   3   8
HETATM    8  C6  UNL     1     -32.334   7.441   2.869  1.00 20.00     0.400 C 
HETATM    9  F9  UNL     1     -32.381   8.488   2.027  1.00 20.00    -0.170 F 
HETATM   10  F10 UNL     1     -31.169   7.486   3.541  1.00 20.00    -0.170 F 
HETATM   11  F11 UNL     1     -32.363   6.309   2.142  1.00 20.00    -0.170 F 
ENDBRANCH   3   8
TORSDOF 1
ENDMDL
MODEL 5
REMARK VINA RESULT:      -4.6      2.504      3.127
REMARK  1 active torsions:
REMARK  status: ('A' for Active; 'I' for Inactive)
REMARK    1  A    between atoms: C3_3  and  C6_6 
ROOT
HETATM    1  C1  UNL     1     -34.443   5.780   5.116  1.00 20.00     0.272 C 
HETATM    2  C2  UNL     1     -32.987   6.651   3.502  1.00 20.00     0.055 C 
HETATM    3  C3  UNL     1     -33.962   7.102   4.572  1.00 20.00     0.195 C 
HETATM    4  C4  UNL     1     -33.628   5.369   3.016  1.00 20.00     0.129 C 
HETATM    5  C5  UNL     1     -32.636   4.398   2.403  1.00 20.00     0.040 C 
HETATM    6  O7  UNL     1     -34.985   5.600   6.196  1.00 20.00    -0.265 OA
HETATM    7  O8  UNL     1     -34.207   4.793   4.195  1.00 20.00    -0.316 OA
ENDROOT
BRANCH   3   8
HETATM    8  C6  UNL     1     -33.314   7.973   5.630  1.00 20.00     0.400 C 
HETATM    9  F9  UNL     1     -32.922   7.228   6.678  1.00 20.00    -0.170 F 
HETATM   10  F10 UNL     1     -32.236   8.602   5.126  1.00 20.00    -0.170 F 
HETATM   11  F11 UNL     1     -34.182   8.902   6.069  1.00 20.00    -0.170 F 
ENDBRANCH   3   8
TORSDOF 1
ENDMDL
MODEL 6
REMARK VINA RESULT:      -4.3      2.887      3.627
REMARK  1 active torsions:
REMARK  status: ('A' for Active; 'I' for Inactive)
REMARK    1  A    between atoms: C3_3  and  C6_6 
ROOT
HETATM    1  C1  UNL     1     -33.941   7.158   5.753  1.00 20.00     0.272 C 
HETATM    2  C2  UNL     1     -33.417   6.343   3.621  1.00 20.00     0.055 C 
HETATM    3  C3  UNL     1     -33.667   7.647   4.353  1.00 20.00     0.195 C 
HETATM    4  C4  UNL     1     -34.344   5.395   4.349  1.00 20.00     0.129 C 
HETATM    5  C5  UNL     1     -33.903   3.945   4.266  1.00 20.00     0.040 C 
HETATM    6  O7  UNL     1     -33.880   7.825   6.775  1.00 20.00    -0.265 OA
HETATM    7  O8  UNL     1     -34.306   5.837   5.713  1.00 20.00    -0.316 OA
ENDROOT
BRANCH   3   8
HETATM    8  C6  UNL     1     -32.488   8.598   4.283  1.00 20.00     0.400 C 
HETATM    9  F9  UNL     1     -31.331   7.913   4.264  1.00 20.00    -0.170 F 
HETATM   10  F10 UNL     1     -32.555   9.351   3.170  1.00 20.00    -0.170 F 
HETATM   11  F11 UNL     1     -32.480   9.416   5.351  1.00 20.00    -0.170 F 
ENDBRANCH   3   8
TORSDOF 1
ENDMDL
MODEL 7
REMARK VINA RESULT:      -4.3      8.073      9.211
REMARK  1 active torsions:
REMARK  status: ('A' for Active; 'I' for Inactive)
REMARK    1  A    between atoms: C3_3  and  C6_6 
ROOT
HETATM    1  C1  UNL     1     -39.750  12.522   6.716  1.00 20.00     0.272 C 
HETATM    2  C2  UNL     1     -41.172  13.137   4.960  1.00 20.00     0.055 C 
HETATM    3  C3  UNL     1     -39.702  12.911   5.259  1.00 20.00     0.195 C 
HETATM    4  C4  UNL     1     -41.680  13.674   6.280  1.00 20.00     0.129 C 
HETATM    5  C5  UNL     1     -43.163  13.435   6.493  1.00 20.00     0.040 C 
HETATM    6  O7  UNL     1     -38.875  11.932   7.332  1.00 20.00    -0.265 OA
HETATM    7  O8  UNL     1     -40.925  12.958   7.268  1.00 20.00    -0.316 OA
ENDROOT
BRANCH   3   8
HETATM    8  C6  UNL     1     -39.081  11.840   4.384  1.00 20.00     0.400 C 
HETATM    9  F9  UNL     1     -39.652  10.647   4.622  1.00 20.00    -0.170 F 
HETATM   10  F10 UNL     1     -39.248  12.141   3.082  1.00 20.00    -0.170 F 
HETATM   11  F11 UNL     1     -37.763  11.738   4.631  1.00 20.00    -0.170 F 
ENDBRANCH   3   8
TORSDOF 1
ENDMDL
MODEL 8
REMARK VINA RESULT:      -4.2      8.415      9.554
REMARK  1 active torsions:
REMARK  status: ('A' for Active; 'I' for Inactive)
REMARK    1  A    between atoms: C3_3  and  C6_6 
ROOT
HETATM    1  C1  UNL     1     -41.112  13.549   5.019  1.00 20.00     0.272 C 
HETATM    2  C2  UNL     1     -39.833  12.785   6.826  1.00 20.00     0.055 C 
HETATM    3  C3  UNL     1     -40.402  12.309   5.504  1.00 20.00     0.195 C 
HETATM    4  C4  UNL     1     -40.892  13.762   7.288  1.00 20.00     0.129 C 
HETATM    5  C5  UNL     1     -40.358  14.819   8.237  1.00 20.00     0.040 C 
HETATM    6  O7  UNL     1     -41.450  13.783   3.869  1.00 20.00    -0.265 OA
HETATM    7  O8  UNL     1     -41.355  14.381   6.080  1.00 20.00    -0.316 OA
ENDROOT
BRANCH   3   8
HETATM    8  C6  UNL     1     -39.334  11.829   4.541  1.00 20.00     0.400 C 
HETATM    9  F9  UNL     1     -39.444  12.462   3.361  1.00 20.00    -0.170 F 
HETATM   10  F10 UNL     1     -38.108  12.067   5.041  1.00 20.00    -0.170 F 
HETATM   11  F11 UNL     1     -39.456  10.506   4.327  1.00 20.00    -0.170 F 
ENDBRANCH   3   8
TORSDOF 1
ENDMDL
MODEL 9
REMARK VINA RESULT:      -4.0     12.145     13.661
REMARK  1 active torsions:
REMARK  status: ('A' for Active; 'I' for Inactive)
REMARK    1  A    between atoms: C3_3  and  C6_6 
ROOT
HETATM    1  C1  UNL     1     -34.437  15.801  -6.262  1.00 20.00     0.272 C 
HETATM    2  C2  UNL     1     -34.136  17.573  -4.761  1.00 20.00     0.055 C 
HETATM    3  C3  UNL     1     -34.596  16.129  -4.798  1.00 20.00     0.195 C 
HETATM    4  C4  UNL     1     -34.592  18.081  -6.111  1.00 20.00     0.129 C 
HETATM    5  C5  UNL     1     -33.783  19.263  -6.612  1.00 20.00     0.040 C 
HETATM    6  O7  UNL     1     -34.367  14.682  -6.745  1.00 20.00    -0.265 OA
HETATM    7  O8  UNL     1     -34.412  16.961  -6.990  1.00 20.00    -0.316 OA
ENDROOT
BRANCH   3   8
HETATM    8  C6  UNL     1     -33.774  15.226  -3.900  1.00 20.00     0.400 C 
HETATM    9  F9  UNL     1     -33.665  15.757  -2.669  1.00 20.00    -0.170 F 
HETATM   10  F10 UNL     1     -34.352  14.016  -3.792  1.00 20.00    -0.170 F 
HETATM   11  F11 UNL     1     -32.537  15.063  -4.404  1.00 20.00    -0.170 F 
ENDBRANCH   3   8
TORSDOF 1
ENDMDL
