MODEL 1
REMARK VINA RESULT:      -4.6      0.000      0.000
REMARK  1 active torsions:
REMARK  status: ('A' for Active; 'I' for Inactive)
REMARK    1  A    between atoms: C1_1  and  C2_2 
ROOT
HETATM    1  C2  UNL     1     -34.573   5.631   4.791  1.00 20.00     0.395 C 
HETATM    2  F4  UNL     1     -34.430   4.280   4.734  1.00 20.00    -0.178 F 
HETATM    3  F5  UNL     1     -35.821   5.902   4.324  1.00 20.00    -0.178 F 
HETATM    4 CL7  UNL     1     -34.453   6.172   6.472  1.00 20.00    -0.038 Cl
ENDROOT
BRANCH   1   5
HETATM    5  C1  UNL     1     -33.527   6.364   3.993  1.00 20.00     0.307 C 
HETATM    6  O3  UNL     1     -33.158   7.491   4.311  1.00 20.00    -0.272 OA
HETATM    7 CL6  UNL     1     -32.907   5.435   2.659  1.00 20.00    -0.036 Cl
ENDBRANCH   1   5
TORSDOF 1
ENDMDL
MODEL 2
REMARK VINA RESULT:      -4.6      1.571      1.571
REMARK  1 active torsions:
REMARK  status: ('A' for Active; 'I' for Inactive)
REMARK    1  A    between atoms: C1_1  and  C2_2 
ROOT
HETATM    1  C2  UNL     1     -34.602   5.638   4.778  1.00 20.00     0.395 C 
HETATM    2  F4  UNL     1     -34.312   4.383   4.345  1.00 20.00    -0.178 F 
HETATM    3  F5  UNL     1     -35.846   5.924   4.309  1.00 20.00    -0.178 F 
HETATM    4 CL7  UNL     1     -34.629   5.667   6.548  1.00 20.00    -0.038 Cl
ENDROOT
BRANCH   1   5
HETATM    5  C1  UNL     1     -33.601   6.663   4.314  1.00 20.00     0.307 C 
HETATM    6  O3  UNL     1     -32.893   6.462   3.331  1.00 20.00    -0.272 OA
HETATM    7 CL6  UNL     1     -33.610   8.114   5.276  1.00 20.00    -0.036 Cl
ENDBRANCH   1   5
TORSDOF 1
ENDMDL
MODEL 3
REMARK VINA RESULT:      -4.6      1.794      1.962
REMARK  1 active torsions:
REMARK  status: ('A' for Active; 'I' for Inactive)
REMARK    1  A    between atoms: C1_1  and  C2_2 
ROOT
HETATM    1  C2  UNL     1     -34.743   6.096   4.741  1.00 20.00     0.395 C 
HETATM    2  F4  UNL     1     -36.046   6.093   4.352  1.00 20.00    -0.178 F 
HETATM    3  F5  UNL     1     -34.259   7.331   4.440  1.00 20.00    -0.178 F 
HETATM    4 CL7  UNL     1     -34.642   5.845   6.490  1.00 20.00    -0.038 Cl
ENDROOT
BRANCH   1   5
HETATM    5  C1  UNL     1     -33.930   5.020   4.072  1.00 20.00     0.307 C 
HETATM    6  O3  UNL     1     -34.001   3.849   4.436  1.00 20.00    -0.272 OA
HETATM    7 CL6  UNL     1     -32.962   5.612   2.752  1.00 20.00    -0.036 Cl
ENDBRANCH   1   5
TORSDOF 1
ENDMDL
MODEL 4
REMARK VINA RESULT:      -4.5      1.694      2.391
REMARK  1 active torsions:
REMARK  status: ('A' for Active; 'I' for Inactive)
REMARK    1  A    between atoms: C1_1  and  C2_2 
ROOT
HETATM    1  C2  UNL     1     -34.602   5.724   4.721  1.00 20.00     0.395 C 
HETATM    2  F4  UNL     1     -35.878   5.906   4.289  1.00 20.00    -0.178 F 
HETATM    3  F5  UNL     1     -34.626   4.627   5.525  1.00 20.00    -0.178 F 
HETATM    4 CL7  UNL     1     -33.544   5.405   3.338  1.00 20.00    -0.038 Cl
ENDROOT
BRANCH   1   5
HETATM    5  C1  UNL     1     -34.056   6.920   5.455  1.00 20.00     0.307 C 
HETATM    6  O3  UNL     1     -34.234   7.062   6.662  1.00 20.00    -0.272 OA
HETATM    7 CL6  UNL     1     -33.148   7.995   4.433  1.00 20.00    -0.036 Cl
ENDBRANCH   1   5
TORSDOF 1
ENDMDL
MODEL 5
REMARK VINA RESULT:      -4.5      1.941      1.941
REMARK  1 active torsions:
REMARK  status: ('A' for Active; 'I' for Inactive)
REMARK    1  A    between atoms: C1_1  and  C2_2 
ROOT
HETATM    1  C2  UNL     1     -34.816   6.017   4.875  1.00 20.00     0.395 C 
HETATM    2  F4  UNL     1     -35.052   5.698   6.175  1.00 20.00    -0.178 F 
HETATM    3  F5  UNL     1     -36.036   6.140   4.286  1.00 20.00    -0.178 F 
HETATM    4 CL7  UNL     1     -33.972   7.571   4.786  1.00 20.00    -0.038 Cl
ENDROOT
BRANCH   1   5
HETATM    5  C1  UNL     1     -33.974   4.992   4.164  1.00 20.00     0.307 C 
HETATM    6  O3  UNL     1     -34.007   3.807   4.486  1.00 20.00    -0.272 OA
HETATM    7 CL6  UNL     1     -33.032   5.662   2.863  1.00 20.00    -0.036 Cl
ENDBRANCH   1   5
TORSDOF 1
ENDMDL
MODEL 6
REMARK VINA RESULT:      -4.2      2.291      3.152
REMARK  1 active torsions:
REMARK  status: ('A' for Active; 'I' for Inactive)
REMARK    1  A    between atoms: C1_1  and  C2_2 
ROOT
HETATM    1  C2  UNL     1     -33.368   7.406   4.627  1.00 20.00     0.395 C 
HETATM    2  F4  UNL     1     -32.678   7.728   5.753  1.00 20.00    -0.178 F 
HETATM    3  F5  UNL     1     -34.262   8.411   4.428  1.00 20.00    -0.178 F 
HETATM    4 CL7  UNL     1     -32.260   7.336   3.248  1.00 20.00    -0.038 Cl
ENDROOT
BRANCH   1   5
HETATM    5  C1  UNL     1     -34.065   6.075   4.728  1.00 20.00     0.307 C 
HETATM    6  O3  UNL     1     -34.114   5.308   3.771  1.00 20.00    -0.272 OA
HETATM    7 CL6  UNL     1     -34.717   5.762   6.311  1.00 20.00    -0.036 Cl
ENDBRANCH   1   5
TORSDOF 1
ENDMDL
MODEL 7
REMARK VINA RESULT:      -4.1      2.396      2.699
REMARK  1 active torsions:
REMARK  status: ('A' for Active; 'I' for Inactive)
REMARK    1  A    between atoms: C1_1  and  C2_2 
ROOT
HETATM    1  C2  UNL     1     -33.530   7.413   4.886  1.00 20.00     0.395 C 
HETATM    2  F4  UNL     1     -34.276   8.425   4.366  1.00 20.00    -0.178 F 
HETATM    3  F5  UNL     1     -32.256   7.880   4.962  1.00 20.00    -0.178 F 
HETATM    4 CL7  UNL     1     -34.104   7.027   6.516  1.00 20.00    -0.038 Cl
ENDROOT
BRANCH   1   5
HETATM    5  C1  UNL     1     -33.596   6.155   4.062  1.00 20.00     0.307 C 
HETATM    6  O3  UNL     1     -32.904   6.014   3.058  1.00 20.00    -0.272 OA
HETATM    7 CL6  UNL     1     -34.691   4.968   4.711  1.00 20.00    -0.036 Cl
ENDBRANCH   1   5
TORSDOF 1
ENDMDL
MODEL 8
REMARK VINA RESULT:      -4.1      2.326      2.600
REMARK  1 active torsions:
REMARK  status: ('A' for Active; 'I' for Inactive)
REMARK    1  A    between atoms: C1_1  and  C2_2 
ROOT
HETATM    1  C2  UNL     1     -33.690   7.395   5.497  1.00 20.00     0.395 C 
HETATM    2  F4  UNL     1     -34.385   8.453   5.993  1.00 20.00    -0.178 F 
HETATM    3  F5  UNL     1     -33.030   6.845   6.551  1.00 20.00    -0.178 F 
HETATM    4 CL7  UNL     1     -34.815   6.202   4.830  1.00 20.00    -0.038 Cl
ENDROOT
BRANCH   1   5
HETATM    5  C1  UNL     1     -32.731   7.787   4.404  1.00 20.00     0.307 C 
HETATM    6  O3  UNL     1     -32.103   8.841   4.456  1.00 20.00    -0.272 OA
HETATM    7 CL6  UNL     1     -32.600   6.591   3.146  1.00 20.00    -0.036 Cl
ENDBRANCH   1   5
TORSDOF 1
ENDMDL
MODEL 9
REMARK VINA RESULT:      -4.1      2.518      2.657
REMARK  1 active torsions:
REMARK  status: ('A' for Active; 'I' for Inactive)
REMARK    1  A    between atoms: C1_1  and  C2_2 
ROOT
HETATM    1  C2  UNL     1     -33.456   7.359   4.815  1.00 20.00     0.395 C 
HETATM    2  F4  UNL     1     -33.001   7.252   6.092  1.00 20.00    -0.178 F 
HETATM    3  F5  UNL     1     -34.323   8.406   4.807  1.00 20.00    -0.178 F 
HETATM    4 CL7  UNL     1     -32.103   7.718   3.730  1.00 20.00    -0.038 Cl
ENDROOT
BRANCH   1   5
HETATM    5  C1  UNL     1     -34.122   6.102   4.323  1.00 20.00     0.307 C 
HETATM    6  O3  UNL     1     -35.193   5.725   4.790  1.00 20.00    -0.272 OA
HETATM    7 CL6  UNL     1     -33.245   5.318   3.041  1.00 20.00    -0.036 Cl
ENDBRANCH   1   5
TORSDOF 1
ENDMDL
