MODEL 1
REMARK VINA RESULT:      -4.7      0.000      0.000
REMARK  1 active torsions:
REMARK  status: ('A' for Active; 'I' for Inactive)
REMARK    1  A    between atoms: C1_1  and  C2_2 
ROOT
HETATM    1  C2  UNL     1     -34.587   5.710   4.704  1.00 20.00     0.391 C 
HETATM    2  F4  UNL     1     -34.619   4.587   5.469  1.00 20.00    -0.178 F 
HETATM    3  F5  UNL     1     -35.859   5.918   4.274  1.00 20.00    -0.178 F 
HETATM    4 CL6  UNL     1     -33.526   5.442   3.315  1.00 20.00    -0.039 Cl
ENDROOT
BRANCH   1   5
HETATM    5  C1  UNL     1     -34.046   6.874   5.475  1.00 20.00     0.282 C 
HETATM    6  O3  UNL     1     -34.279   7.087   6.657  1.00 20.00    -0.277 OA
HETATM    7 BR7  UNL     1     -32.869   8.097   4.608  1.00 20.00    -0.001 Br
ENDBRANCH   1   5
TORSDOF 1
ENDMDL
MODEL 2
REMARK VINA RESULT:      -4.7      2.068      2.338
REMARK  1 active torsions:
REMARK  status: ('A' for Active; 'I' for Inactive)
REMARK    1  A    between atoms: C1_1  and  C2_2 
ROOT
HETATM    1  C2  UNL     1     -34.590   5.603   4.756  1.00 20.00     0.391 C 
HETATM    2  F4  UNL     1     -35.825   5.925   4.288  1.00 20.00    -0.178 F 
HETATM    3  F5  UNL     1     -34.400   4.289   4.466  1.00 20.00    -0.178 F 
HETATM    4 CL6  UNL     1     -34.551   5.835   6.509  1.00 20.00    -0.039 Cl
ENDROOT
BRANCH   1   5
HETATM    5  C1  UNL     1     -33.538   6.480   4.155  1.00 20.00     0.282 C 
HETATM    6  O3  UNL     1     -32.913   6.210   3.139  1.00 20.00    -0.277 OA
HETATM    7 BR7  UNL     1     -33.155   8.163   4.965  1.00 20.00    -0.001 Br
ENDBRANCH   1   5
TORSDOF 1
ENDMDL
MODEL 3
REMARK VINA RESULT:      -4.4      2.559      2.733
REMARK  1 active torsions:
REMARK  status: ('A' for Active; 'I' for Inactive)
REMARK    1  A    between atoms: C1_1  and  C2_2 
ROOT
HETATM    1  C2  UNL     1     -34.805   6.100   4.789  1.00 20.00     0.391 C 
HETATM    2  F4  UNL     1     -34.304   7.329   4.495  1.00 20.00    -0.178 F 
HETATM    3  F5  UNL     1     -36.097   6.103   4.370  1.00 20.00    -0.178 F 
HETATM    4 CL6  UNL     1     -34.747   5.848   6.538  1.00 20.00    -0.039 Cl
ENDROOT
BRANCH   1   5
HETATM    5  C1  UNL     1     -33.997   5.018   4.144  1.00 20.00     0.282 C 
HETATM    6  O3  UNL     1     -34.014   3.845   4.489  1.00 20.00    -0.277 OA
HETATM    7 BR7  UNL     1     -32.897   5.446   2.647  1.00 20.00    -0.001 Br
ENDBRANCH   1   5
TORSDOF 1
ENDMDL
MODEL 4
REMARK VINA RESULT:      -4.4      2.292      2.629
REMARK  1 active torsions:
REMARK  status: ('A' for Active; 'I' for Inactive)
REMARK    1  A    between atoms: C1_1  and  C2_2 
ROOT
HETATM    1  C2  UNL     1     -34.858   6.003   4.924  1.00 20.00     0.391 C 
HETATM    2  F4  UNL     1     -36.067   6.146   4.319  1.00 20.00    -0.178 F 
HETATM    3  F5  UNL     1     -35.114   5.679   6.219  1.00 20.00    -0.178 F 
HETATM    4 CL6  UNL     1     -33.985   7.539   4.857  1.00 20.00    -0.039 Cl
ENDROOT
BRANCH   1   5
HETATM    5  C1  UNL     1     -34.025   4.972   4.230  1.00 20.00     0.282 C 
HETATM    6  O3  UNL     1     -34.004   3.786   4.529  1.00 20.00    -0.277 OA
HETATM    7 BR7  UNL     1     -32.952   5.491   2.743  1.00 20.00    -0.001 Br
ENDBRANCH   1   5
TORSDOF 1
ENDMDL
MODEL 5
REMARK VINA RESULT:      -4.2      1.744      1.744
REMARK  1 active torsions:
REMARK  status: ('A' for Active; 'I' for Inactive)
REMARK    1  A    between atoms: C1_1  and  C2_2 
ROOT
HETATM    1  C2  UNL     1     -34.597   5.808   4.893  1.00 20.00     0.391 C 
HETATM    2  F4  UNL     1     -34.751   5.959   6.234  1.00 20.00    -0.178 F 
HETATM    3  F5  UNL     1     -35.822   6.010   4.341  1.00 20.00    -0.178 F 
HETATM    4 CL6  UNL     1     -34.055   4.160   4.548  1.00 20.00    -0.039 Cl
ENDROOT
BRANCH   1   5
HETATM    5  C1  UNL     1     -33.566   6.751   4.357  1.00 20.00     0.282 C 
HETATM    6  O3  UNL     1     -32.905   6.550   3.347  1.00 20.00    -0.277 OA
HETATM    7 BR7  UNL     1     -33.272   8.411   5.247  1.00 20.00    -0.001 Br
ENDBRANCH   1   5
TORSDOF 1
ENDMDL
MODEL 6
REMARK VINA RESULT:      -4.2      2.880      3.183
REMARK  1 active torsions:
REMARK  status: ('A' for Active; 'I' for Inactive)
REMARK    1  A    between atoms: C1_1  and  C2_2 
ROOT
HETATM    1  C2  UNL     1     -33.273   7.454   4.519  1.00 20.00     0.391 C 
HETATM    2  F4  UNL     1     -34.249   8.396   4.441  1.00 20.00    -0.178 F 
HETATM    3  F5  UNL     1     -32.607   7.685   5.680  1.00 20.00    -0.178 F 
HETATM    4 CL6  UNL     1     -32.166   7.645   3.152  1.00 20.00    -0.039 Cl
ENDROOT
BRANCH   1   5
HETATM    5  C1  UNL     1     -33.847   6.073   4.454  1.00 20.00     0.282 C 
HETATM    6  O3  UNL     1     -33.724   5.319   3.498  1.00 20.00    -0.277 OA
HETATM    7 BR7  UNL     1     -34.792   5.387   5.960  1.00 20.00    -0.001 Br
ENDBRANCH   1   5
TORSDOF 1
ENDMDL
MODEL 7
REMARK VINA RESULT:      -4.2      2.619      2.931
REMARK  1 active torsions:
REMARK  status: ('A' for Active; 'I' for Inactive)
REMARK    1  A    between atoms: C1_1  and  C2_2 
ROOT
HETATM    1  C2  UNL     1     -33.249   7.779   4.597  1.00 20.00     0.391 C 
HETATM    2  F4  UNL     1     -34.084   8.714   4.072  1.00 20.00    -0.178 F 
HETATM    3  F5  UNL     1     -32.266   8.461   5.241  1.00 20.00    -0.178 F 
HETATM    4 CL6  UNL     1     -32.546   6.821   3.287  1.00 20.00    -0.039 Cl
ENDROOT
BRANCH   1   5
HETATM    5  C1  UNL     1     -33.986   6.845   5.504  1.00 20.00     0.282 C 
HETATM    6  O3  UNL     1     -34.233   7.075   6.679  1.00 20.00    -0.277 OA
HETATM    7 BR7  UNL     1     -34.647   5.199   4.804  1.00 20.00    -0.001 Br
ENDBRANCH   1   5
TORSDOF 1
ENDMDL
MODEL 8
REMARK VINA RESULT:      -4.0      2.709      2.789
REMARK  1 active torsions:
REMARK  status: ('A' for Active; 'I' for Inactive)
REMARK    1  A    between atoms: C1_1  and  C2_2 
ROOT
HETATM    1  C2  UNL     1     -33.751   7.230   5.327  1.00 20.00     0.391 C 
HETATM    2  F4  UNL     1     -33.076   6.900   6.460  1.00 20.00    -0.178 F 
HETATM    3  F5  UNL     1     -34.260   8.473   5.532  1.00 20.00    -0.178 F 
HETATM    4 CL6  UNL     1     -35.072   6.081   5.078  1.00 20.00    -0.039 Cl
ENDROOT
BRANCH   1   5
HETATM    5  C1  UNL     1     -32.858   7.167   4.128  1.00 20.00     0.282 C 
HETATM    6  O3  UNL     1     -31.995   7.994   3.866  1.00 20.00    -0.277 OA
HETATM    7 BR7  UNL     1     -33.006   5.688   2.935  1.00 20.00    -0.001 Br
ENDBRANCH   1   5
TORSDOF 1
ENDMDL
MODEL 9
REMARK VINA RESULT:      -4.0      3.276      3.367
REMARK  1 active torsions:
REMARK  status: ('A' for Active; 'I' for Inactive)
REMARK    1  A    between atoms: C1_1  and  C2_2 
ROOT
HETATM    1  C2  UNL     1     -33.384   7.610   4.848  1.00 20.00     0.391 C 
HETATM    2  F4  UNL     1     -32.105   8.065   4.908  1.00 20.00    -0.178 F 
HETATM    3  F5  UNL     1     -34.120   8.605   4.287  1.00 20.00    -0.178 F 
HETATM    4 CL6  UNL     1     -33.968   7.291   6.487  1.00 20.00    -0.039 Cl
ENDROOT
BRANCH   1   5
HETATM    5  C1  UNL     1     -33.468   6.331   4.076  1.00 20.00     0.282 C 
HETATM    6  O3  UNL     1     -32.855   6.109   3.041  1.00 20.00    -0.277 OA
HETATM    7 BR7  UNL     1     -34.547   4.909   4.745  1.00 20.00    -0.001 Br
ENDBRANCH   1   5
TORSDOF 1
ENDMDL
