MODEL 1
REMARK VINA RESULT:      -4.8      0.000      0.000
REMARK  1 active torsions:
REMARK  status: ('A' for Active; 'I' for Inactive)
REMARK    1  A    between atoms: C1_1  and  C6_6 
ROOT
HETATM    1  C2  UNL     1     -34.554   4.992   5.835  1.00 20.00     0.005 C 
HETATM    2  C3  UNL     1     -34.088   6.267   6.556  1.00 20.00     0.006 C 
HETATM    3  C4  UNL     1     -33.351   5.700   3.750  1.00 20.00     0.017 C 
HETATM    4  C5  UNL     1     -35.240   6.890   4.575  1.00 20.00     0.010 C 
HETATM    5  C6  UNL     1     -32.840   6.941   4.501  1.00 20.00     0.059 C 
HETATM    6  C7  UNL     1     -34.736   5.462   4.380  1.00 20.00    -0.013 C 
HETATM    7  C8  UNL     1     -34.029   7.302   5.417  1.00 20.00    -0.003 C 
ENDROOT
BRANCH   5   8
HETATM    8  C1  UNL     1     -32.508   8.057   3.558  1.00 20.00     0.127 C 
HETATM    9  C9  UNL     1     -32.257   7.680   2.123  1.00 20.00     0.091 C 
HETATM   10  O10 UNL     1     -32.446   9.225   3.938  1.00 20.00    -0.298 OA
ENDBRANCH   5   8
TORSDOF 1
ENDMDL
MODEL 2
REMARK VINA RESULT:      -4.1      0.950      1.845
REMARK  1 active torsions:
REMARK  status: ('A' for Active; 'I' for Inactive)
REMARK    1  A    between atoms: C1_1  and  C6_6 
ROOT
HETATM    1  C2  UNL     1     -35.411   5.326   6.033  1.00 20.00     0.005 C 
HETATM    2  C3  UNL     1     -35.571   5.712   4.554  1.00 20.00     0.006 C 
HETATM    3  C4  UNL     1     -33.643   7.082   6.327  1.00 20.00     0.017 C 
HETATM    4  C5  UNL     1     -33.295   5.167   4.957  1.00 20.00     0.010 C 
HETATM    5  C6  UNL     1     -33.856   7.500   4.863  1.00 20.00     0.059 C 
HETATM    6  C7  UNL     1     -33.913   5.566   6.295  1.00 20.00    -0.013 C 
HETATM    7  C8  UNL     1     -34.151   6.157   4.161  1.00 20.00    -0.003 C 
ENDROOT
BRANCH   5   8
HETATM    8  C1  UNL     1     -32.639   8.166   4.297  1.00 20.00     0.127 C 
HETATM    9  C9  UNL     1     -32.181   7.701   2.942  1.00 20.00     0.091 C 
HETATM   10  O10 UNL     1     -32.046   9.052   4.909  1.00 20.00    -0.298 OA
ENDBRANCH   5   8
TORSDOF 1
ENDMDL
MODEL 3
REMARK VINA RESULT:      -3.9      1.475      3.610
REMARK  1 active torsions:
REMARK  status: ('A' for Active; 'I' for Inactive)
REMARK    1  A    between atoms: C1_1  and  C6_6 
ROOT
HETATM    1  C2  UNL     1     -32.426   8.157   1.946  1.00 20.00     0.005 C 
HETATM    2  C3  UNL     1     -33.117   9.154   2.890  1.00 20.00     0.006 C 
HETATM    3  C4  UNL     1     -33.258   6.234   3.326  1.00 20.00     0.017 C 
HETATM    4  C5  UNL     1     -31.658   7.782   4.166  1.00 20.00     0.010 C 
HETATM    5  C6  UNL     1     -33.996   7.237   4.227  1.00 20.00     0.059 C 
HETATM    6  C7  UNL     1     -32.006   7.017   2.891  1.00 20.00    -0.013 C 
HETATM    7  C8  UNL     1     -33.036   8.446   4.255  1.00 20.00    -0.003 C 
ENDROOT
BRANCH   5   8
HETATM    8  C1  UNL     1     -34.227   6.681   5.599  1.00 20.00     0.127 C 
HETATM    9  C9  UNL     1     -34.567   5.218   5.688  1.00 20.00     0.091 C 
HETATM   10  O10 UNL     1     -34.139   7.384   6.603  1.00 20.00    -0.298 OA
ENDBRANCH   5   8
TORSDOF 1
ENDMDL
MODEL 4
REMARK VINA RESULT:      -3.9      9.169     10.416
REMARK  1 active torsions:
REMARK  status: ('A' for Active; 'I' for Inactive)
REMARK    1  A    between atoms: C1_1  and  C6_6 
ROOT
HETATM    1  C2  UNL     1     -42.632  15.177   7.020  1.00 20.00     0.005 C 
HETATM    2  C3  UNL     1     -42.493  14.707   5.563  1.00 20.00     0.006 C 
HETATM    3  C4  UNL     1     -40.502  13.999   7.630  1.00 20.00     0.017 C 
HETATM    4  C5  UNL     1     -42.457  12.805   6.984  1.00 20.00     0.010 C 
HETATM    5  C6  UNL     1     -40.342  13.586   6.158  1.00 20.00     0.059 C 
HETATM    6  C7  UNL     1     -42.030  14.008   7.821  1.00 20.00    -0.013 C 
HETATM    7  C8  UNL     1     -41.799  13.340   5.709  1.00 20.00    -0.003 C 
ENDROOT
BRANCH   5   8
HETATM    8  C1  UNL     1     -39.503  12.353   6.018  1.00 20.00     0.127 C 
HETATM    9  C9  UNL     1     -39.336  11.802   4.628  1.00 20.00     0.091 C 
HETATM   10  O10 UNL     1     -38.975  11.819   6.991  1.00 20.00    -0.298 OA
ENDBRANCH   5   8
TORSDOF 1
ENDMDL
MODEL 5
REMARK VINA RESULT:      -3.8     15.322     16.461
REMARK  1 active torsions:
REMARK  status: ('A' for Active; 'I' for Inactive)
REMARK    1  A    between atoms: C1_1  and  C6_6 
ROOT
HETATM    1  C2  UNL     1     -22.209  18.148   7.874  1.00 20.00     0.005 C 
HETATM    2  C3  UNL     1     -23.218  19.263   8.190  1.00 20.00     0.006 C 
HETATM    3  C4  UNL     1     -23.169  16.723   9.703  1.00 20.00     0.017 C 
HETATM    4  C5  UNL     1     -22.007  18.748  10.167  1.00 20.00     0.010 C 
HETATM    5  C6  UNL     1     -24.213  17.820   9.970  1.00 20.00     0.059 C 
HETATM    6  C7  UNL     1     -21.934  17.526   9.255  1.00 20.00    -0.013 C 
HETATM    7  C8  UNL     1     -23.421  19.120   9.710  1.00 20.00    -0.003 C 
ENDROOT
BRANCH   5   8
HETATM    8  C1  UNL     1     -24.732  17.759  11.374  1.00 20.00     0.127 C 
HETATM    9  C9  UNL     1     -24.659  16.424  12.064  1.00 20.00     0.091 C 
HETATM   10  O10 UNL     1     -25.191  18.751  11.936  1.00 20.00    -0.298 OA
ENDBRANCH   5   8
TORSDOF 1
ENDMDL
MODEL 6
REMARK VINA RESULT:      -3.8      2.006      3.784
REMARK  1 active torsions:
REMARK  status: ('A' for Active; 'I' for Inactive)
REMARK    1  A    between atoms: C1_1  and  C6_6 
ROOT
HETATM    1  C2  UNL     1     -32.142   8.838   4.550  1.00 20.00     0.005 C 
HETATM    2  C3  UNL     1     -32.107   7.701   3.516  1.00 20.00     0.006 C 
HETATM    3  C4  UNL     1     -33.346   7.357   6.178  1.00 20.00     0.017 C 
HETATM    4  C5  UNL     1     -34.362   8.084   4.152  1.00 20.00     0.010 C 
HETATM    5  C6  UNL     1     -33.251   6.209   5.160  1.00 20.00     0.059 C 
HETATM    6  C7  UNL     1     -33.475   8.603   5.281  1.00 20.00    -0.013 C 
HETATM    7  C8  UNL     1     -33.411   6.934   3.807  1.00 20.00    -0.003 C 
ENDROOT
BRANCH   5   8
HETATM    8  C1  UNL     1     -34.330   5.191   5.374  1.00 20.00     0.127 C 
HETATM    9  C9  UNL     1     -35.082   5.266   6.675  1.00 20.00     0.091 C 
HETATM   10  O10 UNL     1     -34.589   4.339   4.527  1.00 20.00    -0.298 OA
ENDBRANCH   5   8
TORSDOF 1
ENDMDL
MODEL 7
REMARK VINA RESULT:      -3.8      9.034     10.380
REMARK  1 active torsions:
REMARK  status: ('A' for Active; 'I' for Inactive)
REMARK    1  A    between atoms: C1_1  and  C6_6 
ROOT
HETATM    1  C2  UNL     1     -40.879   8.392   0.110  1.00 20.00     0.005 C 
HETATM    2  C3  UNL     1     -42.319   8.502  -0.414  1.00 20.00     0.006 C 
HETATM    3  C4  UNL     1     -40.898   5.913  -0.278  1.00 20.00     0.017 C 
HETATM    4  C5  UNL     1     -42.275   6.937   1.372  1.00 20.00     0.010 C 
HETATM    5  C6  UNL     1     -42.316   6.044  -0.857  1.00 20.00     0.059 C 
HETATM    6  C7  UNL     1     -40.862   7.015   0.798  1.00 20.00    -0.013 C 
HETATM    7  C8  UNL     1     -42.941   7.158   0.010  1.00 20.00    -0.003 C 
ENDROOT
BRANCH   5   8
HETATM    8  C1  UNL     1     -43.079   4.760  -0.744  1.00 20.00     0.127 C 
HETATM    9  C9  UNL     1     -43.417   4.294   0.646  1.00 20.00     0.091 C 
HETATM   10  O10 UNL     1     -43.416   4.120  -1.738  1.00 20.00    -0.298 OA
ENDBRANCH   5   8
TORSDOF 1
ENDMDL
MODEL 8
REMARK VINA RESULT:      -3.7     15.591     16.633
REMARK  1 active torsions:
REMARK  status: ('A' for Active; 'I' for Inactive)
REMARK    1  A    between atoms: C1_1  and  C6_6 
ROOT
HETATM    1  C2  UNL     1     -21.890  19.263   9.098  1.00 20.00     0.005 C 
HETATM    2  C3  UNL     1     -21.477  18.621  10.432  1.00 20.00     0.006 C 
HETATM    3  C4  UNL     1     -24.310  19.111   9.744  1.00 20.00     0.017 C 
HETATM    4  C5  UNL     1     -22.997  17.170   9.327  1.00 20.00     0.010 C 
HETATM    5  C6  UNL     1     -23.881  18.526  11.100  1.00 20.00     0.059 C 
HETATM    6  C7  UNL     1     -23.231  18.577   8.783  1.00 20.00    -0.013 C 
HETATM    7  C8  UNL     1     -22.650  17.670  10.732  1.00 20.00    -0.003 C 
ENDROOT
BRANCH   5   8
HETATM    8  C1  UNL     1     -24.969  17.699  11.712  1.00 20.00     0.127 C 
HETATM    9  C9  UNL     1     -26.180  18.437  12.216  1.00 20.00     0.091 C 
HETATM   10  O10 UNL     1     -24.879  16.475  11.796  1.00 20.00    -0.298 OA
ENDBRANCH   5   8
TORSDOF 1
ENDMDL
MODEL 9
REMARK VINA RESULT:      -3.6     12.372     13.535
REMARK  1 active torsions:
REMARK  status: ('A' for Active; 'I' for Inactive)
REMARK    1  A    between atoms: C1_1  and  C6_6 
ROOT
HETATM    1  C2  UNL     1     -34.659  18.871  -3.266  1.00 20.00     0.005 C 
HETATM    2  C3  UNL     1     -33.172  18.828  -3.650  1.00 20.00     0.006 C 
HETATM    3  C4  UNL     1     -34.054  19.244  -0.860  1.00 20.00     0.017 C 
HETATM    4  C5  UNL     1     -33.572  17.196  -1.972  1.00 20.00     0.010 C 
HETATM    5  C6  UNL     1     -32.571  19.261  -1.265  1.00 20.00     0.059 C 
HETATM    6  C7  UNL     1     -34.673  18.248  -1.858  1.00 20.00    -0.013 C 
HETATM    7  C8  UNL     1     -32.513  18.216  -2.400  1.00 20.00    -0.003 C 
ENDROOT
BRANCH   5   8
HETATM    8  C1  UNL     1     -31.681  18.886  -0.120  1.00 20.00     0.127 C 
HETATM    9  C9  UNL     1     -32.325  18.802   1.238  1.00 20.00     0.091 C 
HETATM   10  O10 UNL     1     -30.485  18.654  -0.282  1.00 20.00    -0.298 OA
ENDBRANCH   5   8
TORSDOF 1
ENDMDL
