MODEL 1
REMARK VINA RESULT:      -3.9      0.000      0.000
REMARK  1 active torsions:
REMARK  status: ('A' for Active; 'I' for Inactive)
REMARK    1  A    between atoms: C5_5  and  C8_8 
ROOT
HETATM    1  C1  UNL     1     -34.437   6.861   6.542  1.00 20.00     0.010 C 
HETATM    2  C2  UNL     1     -33.830   5.462   6.651  1.00 20.00     0.035 C 
HETATM    3  C3  UNL     1     -34.605   6.785   4.015  1.00 20.00     0.041 C 
HETATM    4  C5  UNL     1     -34.083   7.573   5.226  1.00 20.00     0.019 C 
HETATM    5  C6  UNL     1     -33.970   4.655   5.403  1.00 20.00     0.151 A 
HETATM    6  C7  UNL     1     -34.312   5.318   4.097  1.00 20.00     0.151 A 
HETATM    7  O10 UNL     1     -35.289   4.583   4.859  1.00 20.00    -0.375 OA
ENDROOT
BRANCH   4   8
HETATM    8  C8  UNL     1     -32.605   7.860   5.112  1.00 20.00     0.149 A 
HETATM    9  C4  UNL     1     -32.130   9.203   4.672  1.00 20.00     0.200 A 
HETATM   10  O9  UNL     1     -32.167   8.080   3.778  1.00 20.00    -0.381 OA
ENDBRANCH   4   8
TORSDOF 1
ENDMDL
MODEL 2
REMARK VINA RESULT:      -3.8      1.469      1.659
REMARK  1 active torsions:
REMARK  status: ('A' for Active; 'I' for Inactive)
REMARK    1  A    between atoms: C5_5  and  C8_8 
ROOT
HETATM    1  C1  UNL     1     -34.028   7.827   5.634  1.00 20.00     0.010 C 
HETATM    2  C2  UNL     1     -33.427   6.859   6.654  1.00 20.00     0.035 C 
HETATM    3  C3  UNL     1     -34.819   5.985   4.083  1.00 20.00     0.041 C 
HETATM    4  C5  UNL     1     -34.004   7.283   4.196  1.00 20.00     0.019 C 
HETATM    5  C6  UNL     1     -33.881   5.449   6.471  1.00 20.00     0.151 A 
HETATM    6  C7  UNL     1     -34.530   5.012   5.185  1.00 20.00     0.151 A 
HETATM    7  O10 UNL     1     -35.294   5.261   6.381  1.00 20.00    -0.375 OA
ENDROOT
BRANCH   4   8
HETATM    8  C8  UNL     1     -32.598   7.108   3.675  1.00 20.00     0.149 A 
HETATM    9  C4  UNL     1     -32.230   7.605   2.318  1.00 20.00     0.200 A 
HETATM   10  O9  UNL     1     -32.504   6.218   2.571  1.00 20.00    -0.381 OA
ENDBRANCH   4   8
TORSDOF 1
ENDMDL
MODEL 3
REMARK VINA RESULT:      -3.6     15.528     16.347
REMARK  1 active torsions:
REMARK  status: ('A' for Active; 'I' for Inactive)
REMARK    1  A    between atoms: C5_5  and  C8_8 
ROOT
HETATM    1  C1  UNL     1     -22.663  17.876  11.794  1.00 20.00     0.010 C 
HETATM    2  C2  UNL     1     -23.820  16.910  12.057  1.00 20.00     0.035 C 
HETATM    3  C3  UNL     1     -23.966  19.263  10.121  1.00 20.00     0.041 C 
HETATM    4  C5  UNL     1     -22.678  18.466  10.375  1.00 20.00     0.019 C 
HETATM    5  C6  UNL     1     -25.135  17.411  11.560  1.00 20.00     0.151 A 
HETATM    6  C7  UNL     1     -25.200  18.545  10.574  1.00 20.00     0.151 A 
HETATM    7  O10 UNL     1     -25.489  18.732  11.973  1.00 20.00    -0.375 OA
ENDROOT
BRANCH   4   8
HETATM    8  C8  UNL     1     -22.454  17.412   9.317  1.00 20.00     0.149 A 
HETATM    9  C4  UNL     1     -21.294  17.512   8.386  1.00 20.00     0.200 A 
HETATM   10  O9  UNL     1     -22.621  17.890   7.989  1.00 20.00    -0.381 OA
ENDBRANCH   4   8
TORSDOF 1
ENDMDL
MODEL 4
REMARK VINA RESULT:      -3.6     15.378     16.380
REMARK  1 active torsions:
REMARK  status: ('A' for Active; 'I' for Inactive)
REMARK    1  A    between atoms: C5_5  and  C8_8 
ROOT
HETATM    1  C1  UNL     1     -25.062  18.880   9.924  1.00 20.00     0.010 C 
HETATM    2  C2  UNL     1     -25.310  19.233  11.391  1.00 20.00     0.035 C 
HETATM    3  C3  UNL     1     -23.671  16.833  10.466  1.00 20.00     0.041 C 
HETATM    4  C5  UNL     1     -23.724  18.159   9.693  1.00 20.00     0.019 C 
HETATM    5  C6  UNL     1     -24.986  18.120  12.332  1.00 20.00     0.151 A 
HETATM    6  C7  UNL     1     -24.142  16.959  11.882  1.00 20.00     0.151 A 
HETATM    7  O10 UNL     1     -25.572  16.856  12.019  1.00 20.00    -0.375 OA
ENDROOT
BRANCH   4   8
HETATM    8  C8  UNL     1     -22.540  19.040  10.010  1.00 20.00     0.149 A 
HETATM    9  C4  UNL     1     -21.408  19.157   9.046  1.00 20.00     0.200 A 
HETATM   10  O9  UNL     1     -21.330  18.321  10.211  1.00 20.00    -0.381 OA
ENDBRANCH   4   8
TORSDOF 1
ENDMDL
MODEL 5
REMARK VINA RESULT:      -3.4      9.086     10.483
REMARK  1 active torsions:
REMARK  status: ('A' for Active; 'I' for Inactive)
REMARK    1  A    between atoms: C5_5  and  C8_8 
ROOT
HETATM    1  C1  UNL     1     -42.505   5.661   1.473  1.00 20.00     0.010 C 
HETATM    2  C2  UNL     1     -43.046   7.089   1.386  1.00 20.00     0.035 C 
HETATM    3  C3  UNL     1     -40.844   5.985  -0.413  1.00 20.00     0.041 C 
HETATM    4  C5  UNL     1     -41.996   5.123   0.126  1.00 20.00     0.019 C 
HETATM    5  C6  UNL     1     -42.175   8.005   0.593  1.00 20.00     0.151 A 
HETATM    6  C7  UNL     1     -41.118   7.455  -0.325  1.00 20.00     0.151 A 
HETATM    7  O10 UNL     1     -40.795   8.020   0.961  1.00 20.00    -0.375 OA
ENDROOT
BRANCH   4   8
HETATM    8  C8  UNL     1     -43.107   4.978  -0.886  1.00 20.00     0.149 A 
HETATM    9  C4  UNL     1     -43.417   3.646  -1.479  1.00 20.00     0.200 A 
HETATM   10  O9  UNL     1     -42.652   4.633  -2.188  1.00 20.00    -0.381 OA
ENDBRANCH   4   8
TORSDOF 1
ENDMDL
MODEL 6
REMARK VINA RESULT:      -3.4     11.696     12.903
REMARK  1 active torsions:
REMARK  status: ('A' for Active; 'I' for Inactive)
REMARK    1  A    between atoms: C5_5  and  C8_8 
ROOT
HETATM    1  C1  UNL     1     -27.286  -2.856  12.169  1.00 20.00     0.010 C 
HETATM    2  C2  UNL     1     -27.729  -3.223  10.752  1.00 20.00     0.035 C 
HETATM    3  C3  UNL     1     -26.998  -0.396  11.635  1.00 20.00     0.041 C 
HETATM    4  C5  UNL     1     -26.330  -1.653  12.212  1.00 20.00     0.019 C 
HETATM    5  C6  UNL     1     -28.114  -2.040   9.927  1.00 20.00     0.151 A 
HETATM    6  C7  UNL     1     -27.715  -0.651  10.345  1.00 20.00     0.151 A 
HETATM    7  O10 UNL     1     -29.055  -1.148  10.525  1.00 20.00    -0.375 OA
ENDROOT
BRANCH   4   8
HETATM    8  C8  UNL     1     -25.013  -1.948  11.536  1.00 20.00     0.149 A 
HETATM    9  C4  UNL     1     -23.851  -2.439  12.332  1.00 20.00     0.200 A 
HETATM   10  O9  UNL     1     -23.964  -1.067  11.920  1.00 20.00    -0.381 OA
ENDBRANCH   4   8
TORSDOF 1
ENDMDL
MODEL 7
REMARK VINA RESULT:      -3.4      2.226      3.099
REMARK  1 active torsions:
REMARK  status: ('A' for Active; 'I' for Inactive)
REMARK    1  A    between atoms: C5_5  and  C8_8 
ROOT
HETATM    1  C1  UNL     1     -32.595   6.060   3.295  1.00 20.00     0.010 C 
HETATM    2  C2  UNL     1     -34.024   5.919   3.823  1.00 20.00     0.035 C 
HETATM    3  C3  UNL     1     -32.226   8.321   4.378  1.00 20.00     0.041 C 
HETATM    4  C5  UNL     1     -32.175   7.521   3.068  1.00 20.00     0.019 C 
HETATM    5  C6  UNL     1     -34.348   6.880   4.918  1.00 20.00     0.151 A 
HETATM    6  C7  UNL     1     -33.482   8.086   5.161  1.00 20.00     0.151 A 
HETATM    7  O10 UNL     1     -33.420   6.918   6.003  1.00 20.00    -0.375 OA
ENDROOT
BRANCH   4   8
HETATM    8  C8  UNL     1     -32.982   8.183   1.976  1.00 20.00     0.149 A 
HETATM    9  C4  UNL     1     -32.302   8.759   0.780  1.00 20.00     0.200 A 
HETATM   10  O9  UNL     1     -32.755   9.582   1.866  1.00 20.00    -0.381 OA
ENDBRANCH   4   8
TORSDOF 1
ENDMDL
MODEL 8
REMARK VINA RESULT:      -3.4     12.696     14.195
REMARK  1 active torsions:
REMARK  status: ('A' for Active; 'I' for Inactive)
REMARK    1  A    between atoms: C5_5  and  C8_8 
ROOT
HETATM    1  C1  UNL     1     -35.564  17.095  -4.580  1.00 20.00     0.010 C 
HETATM    2  C2  UNL     1     -34.387  17.970  -4.148  1.00 20.00     0.035 C 
HETATM    3  C3  UNL     1     -34.237  14.940  -4.462  1.00 20.00     0.041 C 
HETATM    4  C5  UNL     1     -35.131  15.829  -5.338  1.00 20.00     0.019 C 
HETATM    5  C6  UNL     1     -33.258  17.195  -3.554  1.00 20.00     0.151 A 
HETATM    6  C7  UNL     1     -33.166  15.706  -3.747  1.00 20.00     0.151 A 
HETATM    7  O10 UNL     1     -33.613  16.290  -2.508  1.00 20.00    -0.375 OA
ENDROOT
BRANCH   4   8
HETATM    8  C8  UNL     1     -34.477  16.152  -6.660  1.00 20.00     0.149 A 
HETATM    9  C4  UNL     1     -34.959  15.510  -7.916  1.00 20.00     0.200 A 
HETATM   10  O9  UNL     1     -33.779  15.056  -7.235  1.00 20.00    -0.381 OA
ENDBRANCH   4   8
TORSDOF 1
ENDMDL
MODEL 9
REMARK VINA RESULT:      -3.3     12.758     14.364
REMARK  1 active torsions:
REMARK  status: ('A' for Active; 'I' for Inactive)
REMARK    1  A    between atoms: C5_5  and  C8_8 
ROOT
HETATM    1  C1  UNL     1     -33.332  16.421  -2.899  1.00 20.00     0.010 C 
HETATM    2  C2  UNL     1     -33.631  16.969  -1.503  1.00 20.00     0.035 C 
HETATM    3  C3  UNL     1     -32.949  18.712  -3.911  1.00 20.00     0.041 C 
HETATM    4  C5  UNL     1     -33.723  17.391  -4.026  1.00 20.00     0.019 C 
HETATM    5  C6  UNL     1     -33.221  18.393  -1.324  1.00 20.00     0.151 A 
HETATM    6  C7  UNL     1     -32.926  19.261  -2.518  1.00 20.00     0.151 A 
HETATM    7  O10 UNL     1     -31.879  18.702  -1.701  1.00 20.00    -0.375 OA
ENDROOT
BRANCH   4   8
HETATM    8  C8  UNL     1     -35.214  17.619  -4.090  1.00 20.00     0.149 A 
HETATM    9  C4  UNL     1     -35.998  17.158  -5.272  1.00 20.00     0.200 A 
HETATM   10  O9  UNL     1     -35.610  18.531  -5.106  1.00 20.00    -0.381 OA
ENDBRANCH   4   8
TORSDOF 1
ENDMDL
