MODEL 1
REMARK VINA RESULT:      -4.2      0.000      0.000
REMARK  0 active torsions:
REMARK  status: ('A' for Active; 'I' for Inactive)
ROOT
HETATM    1  C1  UNL     1     -32.933   7.571   4.175  1.00 20.00     0.025 C 
HETATM    2  C2  UNL     1     -33.816   7.264   5.344  1.00 20.00     0.081 C 
HETATM    3  C3  UNL     1     -34.421   5.947   4.867  1.00 20.00     0.029 C 
HETATM    4  C4  UNL     1     -32.292   8.909   4.023  1.00 20.00     0.067 C 
HETATM    5  C5  UNL     1     -34.462   4.895   5.972  1.00 20.00     0.034 C 
HETATM    6  C6  UNL     1     -35.814   6.150   4.259  1.00 20.00     0.034 C 
HETATM    7  N7  UNL     1     -32.766   6.604   3.332  1.00 20.00    -0.210 NA
HETATM    8  N8  UNL     1     -33.459   5.552   3.829  1.00 20.00    -0.208 NA
HETATM    9  H20 UNL     1     -32.799   4.858   4.178  1.00 20.00     0.149 HD
ENDROOT
TORSDOF 0
ENDMDL
MODEL 2
REMARK VINA RESULT:      -4.1      9.002      9.600
REMARK  0 active torsions:
REMARK  status: ('A' for Active; 'I' for Inactive)
ROOT
HETATM    1  C1  UNL     1     -39.650  12.227   5.338  1.00 20.00     0.025 C 
HETATM    2  C2  UNL     1     -40.772  13.206   5.182  1.00 20.00     0.081 C 
HETATM    3  C3  UNL     1     -41.183  13.356   6.644  1.00 20.00     0.029 C 
HETATM    4  C4  UNL     1     -39.054  11.542   4.155  1.00 20.00     0.067 C 
HETATM    5  C5  UNL     1     -41.439  14.811   7.026  1.00 20.00     0.034 C 
HETATM    6  C6  UNL     1     -42.398  12.485   6.984  1.00 20.00     0.034 C 
HETATM    7  N7  UNL     1     -39.241  12.035   6.550  1.00 20.00    -0.210 NA
HETATM    8  N8  UNL     1     -39.984  12.857   7.329  1.00 20.00    -0.208 NA
HETATM    9  H20 UNL     1     -39.395  13.623   7.655  1.00 20.00     0.149 HD
ENDROOT
TORSDOF 0
ENDMDL
MODEL 3
REMARK VINA RESULT:      -4.1     16.170     16.855
REMARK  0 active torsions:
REMARK  status: ('A' for Active; 'I' for Inactive)
ROOT
HETATM    1  C1  UNL     1     -21.938  17.970   8.476  1.00 20.00     0.025 C 
HETATM    2  C2  UNL     1     -22.155  19.044   9.496  1.00 20.00     0.081 C 
HETATM    3  C3  UNL     1     -23.076  18.299  10.458  1.00 20.00     0.029 C 
HETATM    4  C4  UNL     1     -21.295  18.269   7.165  1.00 20.00     0.067 C 
HETATM    5  C5  UNL     1     -22.695  18.527  11.918  1.00 20.00     0.034 C 
HETATM    6  C6  UNL     1     -24.549  18.653  10.221  1.00 20.00     0.034 C 
HETATM    7  N7  UNL     1     -22.334  16.786   8.819  1.00 20.00    -0.210 NA
HETATM    8  N8  UNL     1     -22.814  16.904  10.080  1.00 20.00    -0.208 NA
HETATM    9  H20 UNL     1     -22.161  16.460  10.724  1.00 20.00     0.149 HD
ENDROOT
TORSDOF 0
ENDMDL
MODEL 4
REMARK VINA RESULT:      -3.8     16.077     16.803
REMARK  0 active torsions:
REMARK  status: ('A' for Active; 'I' for Inactive)
ROOT
HETATM    1  C1  UNL     1     -23.213  18.714   9.948  1.00 20.00     0.025 C 
HETATM    2  C2  UNL     1     -24.700  18.704  10.122  1.00 20.00     0.081 C 
HETATM    3  C3  UNL     1     -24.779  18.396  11.614  1.00 20.00     0.029 C 
HETATM    4  C4  UNL     1     -22.595  18.722   8.591  1.00 20.00     0.067 C 
HETATM    5  C5  UNL     1     -25.811  19.263  12.330  1.00 20.00     0.034 C 
HETATM    6  C6  UNL     1     -25.046  16.909  11.873  1.00 20.00     0.034 C 
HETATM    7  N7  UNL     1     -22.522  18.724  11.042  1.00 20.00    -0.210 NA
HETATM    8  N8  UNL     1     -23.424  18.760  12.051  1.00 20.00    -0.208 NA
HETATM    9  H20 UNL     1     -23.406  19.685  12.477  1.00 20.00     0.149 HD
ENDROOT
TORSDOF 0
ENDMDL
MODEL 5
REMARK VINA RESULT:      -3.7     12.465     13.078
REMARK  0 active torsions:
REMARK  status: ('A' for Active; 'I' for Inactive)
ROOT
HETATM    1  C1  UNL     1     -33.538  15.906  -3.934  1.00 20.00     0.025 C 
HETATM    2  C2  UNL     1     -34.694  16.231  -4.829  1.00 20.00     0.081 C 
HETATM    3  C3  UNL     1     -34.561  15.093  -5.837  1.00 20.00     0.029 C 
HETATM    4  C4  UNL     1     -33.062  16.876  -2.906  1.00 20.00     0.067 C 
HETATM    5  C5  UNL     1     -35.907  14.459  -6.174  1.00 20.00     0.034 C 
HETATM    6  C6  UNL     1     -33.842  15.546  -7.113  1.00 20.00     0.034 C 
HETATM    7  N7  UNL     1     -33.003  14.741  -4.112  1.00 20.00    -0.210 NA
HETATM    8  N8  UNL     1     -33.729  14.144  -5.086  1.00 20.00    -0.208 NA
HETATM    9  H20 UNL     1     -34.292  13.403  -4.671  1.00 20.00     0.149 HD
ENDROOT
TORSDOF 0
ENDMDL
MODEL 6
REMARK VINA RESULT:      -3.6     12.399     13.788
REMARK  0 active torsions:
REMARK  status: ('A' for Active; 'I' for Inactive)
ROOT
HETATM    1  C1  UNL     1     -34.828  16.128  -6.936  1.00 20.00     0.025 C 
HETATM    2  C2  UNL     1     -34.963  16.361  -5.463  1.00 20.00     0.081 C 
HETATM    3  C3  UNL     1     -34.205  15.142  -4.944  1.00 20.00     0.029 C 
HETATM    4  C4  UNL     1     -35.625  16.919  -7.918  1.00 20.00     0.067 C 
HETATM    5  C5  UNL     1     -33.267  15.493  -3.792  1.00 20.00     0.034 C 
HETATM    6  C6  UNL     1     -35.157  14.010  -4.542  1.00 20.00     0.034 C 
HETATM    7  N7  UNL     1     -33.978  15.216  -7.282  1.00 20.00    -0.210 NA
HETATM    8  N8  UNL     1     -33.427  14.764  -6.131  1.00 20.00    -0.208 NA
HETATM    9  H20 UNL     1     -32.467  15.101  -6.070  1.00 20.00     0.149 HD
ENDROOT
TORSDOF 0
ENDMDL
MODEL 7
REMARK VINA RESULT:      -3.4      9.204      9.777
REMARK  0 active torsions:
REMARK  status: ('A' for Active; 'I' for Inactive)
ROOT
HETATM    1  C1  UNL     1     -40.025  12.378   4.757  1.00 20.00     0.025 C 
HETATM    2  C2  UNL     1     -40.389  12.007   6.161  1.00 20.00     0.081 C 
HETATM    3  C3  UNL     1     -41.316  13.172   6.498  1.00 20.00     0.029 C 
HETATM    4  C4  UNL     1     -38.918  11.683   4.038  1.00 20.00     0.067 C 
HETATM    5  C5  UNL     1     -42.577  12.715   7.227  1.00 20.00     0.034 C 
HETATM    6  C6  UNL     1     -40.593  14.261   7.298  1.00 20.00     0.034 C 
HETATM    7  N7  UNL     1     -40.736  13.318   4.225  1.00 20.00    -0.210 NA
HETATM    8  N8  UNL     1     -41.658  13.660   5.156  1.00 20.00    -0.208 NA
HETATM    9  H20 UNL     1     -42.571  13.320   4.857  1.00 20.00     0.149 HD
ENDROOT
TORSDOF 0
ENDMDL
MODEL 8
REMARK VINA RESULT:      -3.4     12.682     13.385
REMARK  0 active torsions:
REMARK  status: ('A' for Active; 'I' for Inactive)
ROOT
HETATM    1  C1  UNL     1     -33.310  16.952  -3.030  1.00 20.00     0.025 C 
HETATM    2  C2  UNL     1     -33.592  17.053  -1.563  1.00 20.00     0.081 C 
HETATM    3  C3  UNL     1     -33.117  18.481  -1.311  1.00 20.00     0.029 C 
HETATM    4  C4  UNL     1     -33.364  15.641  -3.738  1.00 20.00     0.067 C 
HETATM    5  C5  UNL     1     -34.081  19.263  -0.424  1.00 20.00     0.034 C 
HETATM    6  C6  UNL     1     -31.699  18.513  -0.730  1.00 20.00     0.034 C 
HETATM    7  N7  UNL     1     -33.033  18.068  -3.624  1.00 20.00    -0.210 NA
HETATM    8  N8  UNL     1     -33.127  19.029  -2.674  1.00 20.00    -0.208 NA
HETATM    9  H20 UNL     1     -33.966  19.582  -2.846  1.00 20.00     0.149 HD
ENDROOT
TORSDOF 0
ENDMDL
MODEL 9
REMARK VINA RESULT:      -3.4     12.661     13.441
REMARK  0 active torsions:
REMARK  status: ('A' for Active; 'I' for Inactive)
ROOT
HETATM    1  C1  UNL     1     -34.180  16.053  -4.684  1.00 20.00     0.025 C 
HETATM    2  C2  UNL     1     -33.187  16.160  -3.569  1.00 20.00     0.081 C 
HETATM    3  C3  UNL     1     -33.690  17.437  -2.903  1.00 20.00     0.029 C 
HETATM    4  C4  UNL     1     -33.981  15.090  -5.805  1.00 20.00     0.067 C 
HETATM    5  C5  UNL     1     -33.722  17.322  -1.381  1.00 20.00     0.034 C 
HETATM    6  C6  UNL     1     -32.876  18.662  -3.336  1.00 20.00     0.034 C 
HETATM    7  N7  UNL     1     -35.207  16.835  -4.594  1.00 20.00    -0.210 NA
HETATM    8  N8  UNL     1     -35.058  17.515  -3.432  1.00 20.00    -0.208 NA
HETATM    9  H20 UNL     1     -35.738  17.168  -2.758  1.00 20.00     0.149 HD
ENDROOT
TORSDOF 0
ENDMDL
