MODEL 1
REMARK VINA RESULT:      -4.8      0.000      0.000
REMARK  1 active torsions:
REMARK  status: ('A' for Active; 'I' for Inactive)
REMARK    1  A    between atoms: C2_2  and  C5_5 
ROOT
HETATM    1  C3  UNL     1     -33.080   5.474   2.829  1.00 20.00     0.039 C 
HETATM    2  C4  UNL     1     -33.764   4.639   3.885  1.00 20.00     0.040 C 
HETATM    3  C5  UNL     1     -32.622   6.679   3.635  1.00 20.00     0.151 C 
HETATM    4  C6  UNL     1     -34.426   5.695   4.768  1.00 20.00     0.054 C 
HETATM    5  C9  UNL     1     -34.498   5.255   6.227  1.00 20.00     0.045 C 
HETATM    6  C10 UNL     1     -35.820   6.076   4.261  1.00 20.00     0.045 C 
HETATM    7  O11 UNL     1     -33.591   6.868   4.681  1.00 20.00    -0.371 OA
ENDROOT
BRANCH   3   8
HETATM    8  C2  UNL     1     -32.506   7.929   2.836  1.00 20.00    -0.059 C 
HETATM    9  C1  UNL     1     -32.438   7.893   1.491  1.00 20.00    -0.026 C 
HETATM   10  C7  UNL     1     -32.321   9.032   0.562  1.00 20.00     0.036 C 
HETATM   11  C8  UNL     1     -32.472   9.198   3.640  1.00 20.00     0.046 C 
ENDBRANCH   3   8
TORSDOF 1
ENDMDL
MODEL 2
REMARK VINA RESULT:      -4.1      9.745     11.008
REMARK  1 active torsions:
REMARK  status: ('A' for Active; 'I' for Inactive)
REMARK    1  A    between atoms: C2_2  and  C5_5 
ROOT
HETATM    1  C3  UNL     1     -42.440  13.726   7.133  1.00 20.00     0.039 C 
HETATM    2  C4  UNL     1     -42.367  14.281   8.535  1.00 20.00     0.040 C 
HETATM    3  C5  UNL     1     -41.148  12.929   7.048  1.00 20.00     0.151 C 
HETATM    4  C6  UNL     1     -40.877  14.570   8.703  1.00 20.00     0.054 C 
HETATM    5  C9  UNL     1     -40.419  14.388  10.147  1.00 20.00     0.045 C 
HETATM    6  C10 UNL     1     -40.503  15.968   8.202  1.00 20.00     0.045 C 
HETATM    7  O11 UNL     1     -40.188  13.609   7.877  1.00 20.00    -0.371 OA
ENDROOT
BRANCH   3   8
HETATM    8  C2  UNL     1     -40.608  12.805   5.667  1.00 20.00    -0.059 C 
HETATM    9  C1  UNL     1     -39.566  11.996   5.396  1.00 20.00    -0.026 C 
HETATM   10  C7  UNL     1     -38.919  11.763   4.090  1.00 20.00     0.036 C 
HETATM   11  C8  UNL     1     -41.309  13.638   4.631  1.00 20.00     0.046 C 
ENDBRANCH   3   8
TORSDOF 1
ENDMDL
MODEL 3
REMARK VINA RESULT:      -4.0     11.987     13.191
REMARK  1 active torsions:
REMARK  status: ('A' for Active; 'I' for Inactive)
REMARK    1  A    between atoms: C2_2  and  C5_5 
ROOT
HETATM    1  C3  UNL     1     -33.178  16.647  -2.617  1.00 20.00     0.039 C 
HETATM    2  C4  UNL     1     -33.902  16.813  -3.931  1.00 20.00     0.040 C 
HETATM    3  C5  UNL     1     -33.979  17.561  -1.703  1.00 20.00     0.151 C 
HETATM    4  C6  UNL     1     -34.292  18.290  -3.911  1.00 20.00     0.054 C 
HETATM    5  C9  UNL     1     -35.607  18.543  -4.645  1.00 20.00     0.045 C 
HETATM    6  C10 UNL     1     -33.189  19.185  -4.482  1.00 20.00     0.045 C 
HETATM    7  O11 UNL     1     -34.466  18.639  -2.522  1.00 20.00    -0.371 OA
ENDROOT
BRANCH   3   8
HETATM    8  C2  UNL     1     -33.192  18.117  -0.570  1.00 20.00    -0.059 C 
HETATM    9  C1  UNL     1     -31.873  18.359  -0.689  1.00 20.00    -0.026 C 
HETATM   10  C7  UNL     1     -30.958  18.905   0.332  1.00 20.00     0.036 C 
HETATM   11  C8  UNL     1     -33.979  18.377   0.684  1.00 20.00     0.046 C 
ENDBRANCH   3   8
TORSDOF 1
ENDMDL
MODEL 4
REMARK VINA RESULT:      -3.9     11.828     12.816
REMARK  1 active torsions:
REMARK  status: ('A' for Active; 'I' for Inactive)
REMARK    1  A    between atoms: C2_2  and  C5_5 
ROOT
HETATM    1  C3  UNL     1     -32.984  15.395  -4.054  1.00 20.00     0.039 C 
HETATM    2  C4  UNL     1     -33.953  14.715  -4.991  1.00 20.00     0.040 C 
HETATM    3  C5  UNL     1     -33.894  16.366  -3.319  1.00 20.00     0.151 C 
HETATM    4  C6  UNL     1     -34.898  15.852  -5.377  1.00 20.00     0.054 C 
HETATM    5  C9  UNL     1     -36.316  15.352  -5.636  1.00 20.00     0.045 C 
HETATM    6  C10 UNL     1     -34.386  16.641  -6.585  1.00 20.00     0.045 C 
HETATM    7  O11 UNL     1     -34.925  16.748  -4.246  1.00 20.00    -0.371 OA
ENDROOT
BRANCH   3   8
HETATM    8  C2  UNL     1     -33.198  17.584  -2.824  1.00 20.00    -0.059 C 
HETATM    9  C1  UNL     1     -32.710  17.648  -1.570  1.00 20.00    -0.026 C 
HETATM   10  C7  UNL     1     -32.001  18.773  -0.933  1.00 20.00     0.036 C 
HETATM   11  C8  UNL     1     -33.090  18.705  -3.819  1.00 20.00     0.046 C 
ENDBRANCH   3   8
TORSDOF 1
ENDMDL
MODEL 5
REMARK VINA RESULT:      -3.7     11.971     13.180
REMARK  1 active torsions:
REMARK  status: ('A' for Active; 'I' for Inactive)
REMARK    1  A    between atoms: C2_2  and  C5_5 
ROOT
HETATM    1  C3  UNL     1     -34.461  18.691  -0.728  1.00 20.00     0.039 C 
HETATM    2  C4  UNL     1     -34.867  18.492  -2.169  1.00 20.00     0.040 C 
HETATM    3  C5  UNL     1     -33.061  19.263  -0.877  1.00 20.00     0.151 C 
HETATM    4  C6  UNL     1     -33.558  18.055  -2.826  1.00 20.00     0.054 C 
HETATM    5  C9  UNL     1     -33.464  18.521  -4.275  1.00 20.00     0.045 C 
HETATM    6  C10 UNL     1     -33.351  16.540  -2.744  1.00 20.00     0.045 C 
HETATM    7  O11 UNL     1     -32.503  18.685  -2.070  1.00 20.00    -0.371 OA
ENDROOT
BRANCH   3   8
HETATM    8  C2  UNL     1     -32.168  18.973   0.278  1.00 20.00    -0.059 C 
HETATM    9  C1  UNL     1     -32.541  19.263   1.539  1.00 20.00    -0.026 C 
HETATM   10  C7  UNL     1     -31.778  19.040   2.781  1.00 20.00     0.036 C 
HETATM   11  C8  UNL     1     -30.849  18.346  -0.079  1.00 20.00     0.046 C 
ENDBRANCH   3   8
TORSDOF 1
ENDMDL
MODEL 6
REMARK VINA RESULT:      -3.6     10.617     12.025
REMARK  1 active torsions:
REMARK  status: ('A' for Active; 'I' for Inactive)
REMARK    1  A    between atoms: C2_2  and  C5_5 
ROOT
HETATM    1  C3  UNL     1     -41.558  15.314   6.827  1.00 20.00     0.039 C 
HETATM    2  C4  UNL     1     -41.496  14.263   5.745  1.00 20.00     0.040 C 
HETATM    3  C5  UNL     1     -40.474  14.841   7.782  1.00 20.00     0.151 C 
HETATM    4  C6  UNL     1     -41.197  12.990   6.534  1.00 20.00     0.054 C 
HETATM    5  C9  UNL     1     -40.353  12.005   5.731  1.00 20.00     0.045 C 
HETATM    6  C10 UNL     1     -42.475  12.308   7.031  1.00 20.00     0.045 C 
HETATM    7  O11 UNL     1     -40.442  13.405   7.692  1.00 20.00    -0.371 OA
ENDROOT
BRANCH   3   8
HETATM    8  C2  UNL     1     -40.701  15.243   9.196  1.00 20.00    -0.059 C 
HETATM    9  C1  UNL     1     -40.532  14.367  10.206  1.00 20.00    -0.026 C 
HETATM   10  C7  UNL     1     -40.715  14.608  11.650  1.00 20.00     0.036 C 
HETATM   11  C8  UNL     1     -41.125  16.671   9.392  1.00 20.00     0.046 C 
ENDBRANCH   3   8
TORSDOF 1
ENDMDL
MODEL 7
REMARK VINA RESULT:      -3.5     11.861     13.492
REMARK  1 active torsions:
REMARK  status: ('A' for Active; 'I' for Inactive)
REMARK    1  A    between atoms: C2_2  and  C5_5 
ROOT
HETATM    1  C3  UNL     1     -36.014  17.573  -4.674  1.00 20.00     0.039 C 
HETATM    2  C4  UNL     1     -36.616  16.943  -5.907  1.00 20.00     0.040 C 
HETATM    3  C5  UNL     1     -34.526  17.431  -4.949  1.00 20.00     0.151 C 
HETATM    4  C6  UNL     1     -35.651  15.796  -6.200  1.00 20.00     0.054 C 
HETATM    5  C9  UNL     1     -35.542  15.510  -7.695  1.00 20.00     0.045 C 
HETATM    6  C10 UNL     1     -36.029  14.519  -5.444  1.00 20.00     0.045 C 
HETATM    7  O11 UNL     1     -34.361  16.227  -5.718  1.00 20.00    -0.371 OA
ENDROOT
BRANCH   3   8
HETATM    8  C2  UNL     1     -33.693  17.350  -3.719  1.00 20.00    -0.059 C 
HETATM    9  C1  UNL     1     -33.321  18.461  -3.054  1.00 20.00    -0.026 C 
HETATM   10  C7  UNL     1     -32.503  18.549  -1.829  1.00 20.00     0.036 C 
HETATM   11  C8  UNL     1     -33.314  15.958  -3.297  1.00 20.00     0.046 C 
ENDBRANCH   3   8
TORSDOF 1
ENDMDL
MODEL 8
REMARK VINA RESULT:      -3.4     12.163     12.961
REMARK  1 active torsions:
REMARK  status: ('A' for Active; 'I' for Inactive)
REMARK    1  A    between atoms: C2_2  and  C5_5 
ROOT
HETATM    1  C3  UNL     1     -32.553  19.120  -2.416  1.00 20.00     0.039 C 
HETATM    2  C4  UNL     1     -32.961  18.455  -3.709  1.00 20.00     0.040 C 
HETATM    3  C5  UNL     1     -32.703  17.981  -1.421  1.00 20.00     0.151 C 
HETATM    4  C6  UNL     1     -34.081  17.518  -3.263  1.00 20.00     0.054 C 
HETATM    5  C9  UNL     1     -34.133  16.248  -4.108  1.00 20.00     0.045 C 
HETATM    6  C10 UNL     1     -35.447  18.211  -3.266  1.00 20.00     0.045 C 
HETATM    7  O11 UNL     1     -33.777  17.153  -1.901  1.00 20.00    -0.371 OA
ENDROOT
BRANCH   3   8
HETATM    8  C2  UNL     1     -33.005  18.430  -0.035  1.00 20.00    -0.059 C 
HETATM    9  C1  UNL     1     -34.262  18.735   0.340  1.00 20.00    -0.026 C 
HETATM   10  C7  UNL     1     -34.723  19.191   1.665  1.00 20.00     0.036 C 
HETATM   11  C8  UNL     1     -31.818  18.508   0.882  1.00 20.00     0.046 C 
ENDBRANCH   3   8
TORSDOF 1
ENDMDL
MODEL 9
REMARK VINA RESULT:      -3.4     11.696     13.221
REMARK  1 active torsions:
REMARK  status: ('A' for Active; 'I' for Inactive)
REMARK    1  A    between atoms: C2_2  and  C5_5 
ROOT
HETATM    1  C3  UNL     1     -33.811  15.818  -3.119  1.00 20.00     0.039 C 
HETATM    2  C4  UNL     1     -33.240  16.821  -2.145  1.00 20.00     0.040 C 
HETATM    3  C5  UNL     1     -33.629  16.536  -4.446  1.00 20.00     0.151 C 
HETATM    4  C6  UNL     1     -33.674  18.156  -2.748  1.00 20.00     0.054 C 
HETATM    5  C9  UNL     1     -32.661  19.263  -2.472  1.00 20.00     0.045 C 
HETATM    6  C10 UNL     1     -35.065  18.579  -2.266  1.00 20.00     0.045 C 
HETATM    7  O11 UNL     1     -33.748  17.944  -4.173  1.00 20.00    -0.371 OA
ENDROOT
BRANCH   3   8
HETATM    8  C2  UNL     1     -34.624  16.147  -5.482  1.00 20.00    -0.059 C 
HETATM    9  C1  UNL     1     -35.887  16.614  -5.446  1.00 20.00    -0.026 C 
HETATM   10  C7  UNL     1     -36.983  16.325  -6.390  1.00 20.00     0.036 C 
HETATM   11  C8  UNL     1     -34.108  15.213  -6.540  1.00 20.00     0.046 C 
ENDBRANCH   3   8
TORSDOF 1
ENDMDL
