MODEL 1
REMARK VINA RESULT:      -5.5      0.000      0.000
REMARK  2 active torsions:
REMARK  status: ('A' for Active; 'I' for Inactive)
REMARK    1  A    between atoms: C3_3  and  C7_7 
REMARK    2  A    between atoms: C4_4  and  C8_8 
ROOT
HETATM    1  C5  UNL     1     -32.359   8.824   3.816  1.00 20.00     0.014 C 
HETATM    2  C6  UNL     1     -32.767   8.371   5.212  1.00 20.00     0.037 C 
HETATM    3  C7  UNL     1     -32.097   7.619   2.892  1.00 20.00     0.036 C 
HETATM    4  C8  UNL     1     -34.013   7.477   5.133  1.00 20.00     0.144 C 
HETATM    5  C9  UNL     1     -32.730   6.326   3.457  1.00 20.00     0.126 C 
HETATM    6  C10 UNL     1     -32.869   5.193   2.443  1.00 20.00     0.040 C 
HETATM    7  O11 UNL     1     -34.024   6.606   3.995  1.00 20.00    -0.377 OA
ENDROOT
BRANCH   3   8
HETATM    8  C3  UNL     1     -32.540   7.955   1.498  1.00 20.00    -0.030 C 
HETATM    9  C1  UNL     1     -32.586   9.198   1.007  1.00 20.00     0.007 C 
ENDBRANCH   3   8
BRANCH   4  10
HETATM   10  C4  UNL     1     -34.200   6.665   6.375  1.00 20.00    -0.005 C 
HETATM   11  C2  UNL     1     -34.617   5.394   6.383  1.00 20.00     0.009 C 
ENDBRANCH   4  10
TORSDOF 2
ENDMDL
MODEL 2
REMARK VINA RESULT:      -4.1      0.926      4.117
REMARK  2 active torsions:
REMARK  status: ('A' for Active; 'I' for Inactive)
REMARK    1  A    between atoms: C3_3  and  C7_7 
REMARK    2  A    between atoms: C4_4  and  C8_8 
ROOT
HETATM    1  C5  UNL     1     -33.372   8.477   5.022  1.00 20.00     0.014 C 
HETATM    2  C6  UNL     1     -32.950   8.920   3.628  1.00 20.00     0.037 C 
HETATM    3  C7  UNL     1     -34.087   7.113   4.983  1.00 20.00     0.036 C 
HETATM    4  C8  UNL     1     -32.043   7.859   2.989  1.00 20.00     0.144 C 
HETATM    5  C9  UNL     1     -33.800   6.363   3.661  1.00 20.00     0.126 C 
HETATM    6  C10 UNL     1     -34.125   4.872   3.695  1.00 20.00     0.040 C 
HETATM    7  O11 UNL     1     -32.426   6.514   3.299  1.00 20.00    -0.377 OA
ENDROOT
BRANCH   3   8
HETATM    8  C3  UNL     1     -33.737   6.331   6.215  1.00 20.00    -0.030 C 
HETATM    9  C1  UNL     1     -34.519   5.387   6.750  1.00 20.00     0.007 C 
ENDBRANCH   3   8
BRANCH   4  10
HETATM   10  C4  UNL     1     -31.954   8.016   1.505  1.00 20.00    -0.005 C 
HETATM   11  C2  UNL     1     -32.554   8.996   0.819  1.00 20.00     0.009 C 
ENDBRANCH   4  10
TORSDOF 2
ENDMDL
MODEL 3
REMARK VINA RESULT:      -3.9     11.393     12.926
REMARK  2 active torsions:
REMARK  status: ('A' for Active; 'I' for Inactive)
REMARK    1  A    between atoms: C3_3  and  C7_7 
REMARK    2  A    between atoms: C4_4  and  C8_8 
ROOT
HETATM    1  C5  UNL     1     -33.983  14.822  -5.284  1.00 20.00     0.014 C 
HETATM    2  C6  UNL     1     -33.694  15.041  -3.805  1.00 20.00     0.037 C 
HETATM    3  C7  UNL     1     -35.106  15.755  -5.778  1.00 20.00     0.036 C 
HETATM    4  C8  UNL     1     -33.320  16.508  -3.552  1.00 20.00     0.144 C 
HETATM    5  C9  UNL     1     -35.325  16.938  -4.807  1.00 20.00     0.126 C 
HETATM    6  C10 UNL     1     -36.115  18.104  -5.396  1.00 20.00     0.040 C 
HETATM    7  O11 UNL     1     -34.067  17.437  -4.347  1.00 20.00    -0.377 OA
ENDROOT
BRANCH   3   8
HETATM    8  C3  UNL     1     -34.820  16.172  -7.191  1.00 20.00    -0.030 C 
HETATM    9  C1  UNL     1     -33.800  15.704  -7.918  1.00 20.00     0.007 C 
ENDBRANCH   3   8
BRANCH   4  10
HETATM   10  C4  UNL     1     -33.452  16.880  -2.109  1.00 20.00    -0.005 C 
HETATM   11  C2  UNL     1     -32.709  17.814  -1.506  1.00 20.00     0.009 C 
ENDBRANCH   4  10
TORSDOF 2
ENDMDL
MODEL 4
REMARK VINA RESULT:      -3.8     11.517     13.167
REMARK  2 active torsions:
REMARK  status: ('A' for Active; 'I' for Inactive)
REMARK    1  A    between atoms: C3_3  and  C7_7 
REMARK    2  A    between atoms: C4_4  and  C8_8 
ROOT
HETATM    1  C5  UNL     1     -33.253  15.269  -3.833  1.00 20.00     0.014 C 
HETATM    2  C6  UNL     1     -33.753  14.888  -5.220  1.00 20.00     0.037 C 
HETATM    3  C7  UNL     1     -33.317  16.794  -3.616  1.00 20.00     0.036 C 
HETATM    4  C8  UNL     1     -35.187  15.397  -5.423  1.00 20.00     0.144 C 
HETATM    5  C9  UNL     1     -34.257  17.471  -4.640  1.00 20.00     0.126 C 
HETATM    6  C10 UNL     1     -34.691  18.885  -4.264  1.00 20.00     0.040 C 
HETATM    7  O11 UNL     1     -35.431  16.678  -4.830  1.00 20.00    -0.377 OA
ENDROOT
BRANCH   3   8
HETATM    8  C3  UNL     1     -33.670  17.078  -2.185  1.00 20.00    -0.030 C 
HETATM    9  C1  UNL     1     -32.883  17.753  -1.341  1.00 20.00     0.007 C 
ENDBRANCH   3   8
BRANCH   4  10
HETATM   10  C4  UNL     1     -35.567  15.443  -6.868  1.00 20.00    -0.005 C 
HETATM   11  C2  UNL     1     -34.718  15.748  -7.856  1.00 20.00     0.009 C 
ENDBRANCH   4  10
TORSDOF 2
ENDMDL
MODEL 5
REMARK VINA RESULT:      -3.7     15.051     16.777
REMARK  2 active torsions:
REMARK  status: ('A' for Active; 'I' for Inactive)
REMARK    1  A    between atoms: C3_3  and  C7_7 
REMARK    2  A    between atoms: C4_4  and  C8_8 
ROOT
HETATM    1  C5  UNL     1     -22.619  18.008  12.288  1.00 20.00     0.014 C 
HETATM    2  C6  UNL     1     -21.588  18.466  11.265  1.00 20.00     0.037 C 
HETATM    3  C7  UNL     1     -24.016  18.570  11.963  1.00 20.00     0.036 C 
HETATM    4  C8  UNL     1     -22.020  18.041   9.854  1.00 20.00     0.144 C 
HETATM    5  C9  UNL     1     -24.103  19.054  10.497  1.00 20.00     0.126 C 
HETATM    6  C10 UNL     1     -25.525  19.248   9.977  1.00 20.00     0.040 C 
HETATM    7  O11 UNL     1     -23.433  18.133   9.634  1.00 20.00    -0.377 OA
ENDROOT
BRANCH   3   8
HETATM    8  C3  UNL     1     -25.059  17.555  12.332  1.00 20.00    -0.030 C 
HETATM    9  C1  UNL     1     -24.954  16.247  12.075  1.00 20.00     0.007 C 
ENDBRANCH   3   8
BRANCH   4  10
HETATM   10  C4  UNL     1     -21.306  18.814   8.792  1.00 20.00    -0.005 C 
HETATM   11  C2  UNL     1     -21.293  18.473   7.499  1.00 20.00     0.009 C 
ENDBRANCH   4  10
TORSDOF 2
ENDMDL
MODEL 6
REMARK VINA RESULT:      -3.6     10.155     11.436
REMARK  2 active torsions:
REMARK  status: ('A' for Active; 'I' for Inactive)
REMARK    1  A    between atoms: C3_3  and  C7_7 
REMARK    2  A    between atoms: C4_4  and  C8_8 
ROOT
HETATM    1  C5  UNL     1     -42.147  14.704   5.260  1.00 20.00     0.014 C 
HETATM    2  C6  UNL     1     -41.169  13.650   4.760  1.00 20.00     0.037 C 
HETATM    3  C7  UNL     1     -43.112  14.117   6.309  1.00 20.00     0.036 C 
HETATM    4  C8  UNL     1     -40.382  13.060   5.938  1.00 20.00     0.144 C 
HETATM    5  C9  UNL     1     -42.570  12.793   6.896  1.00 20.00     0.126 C 
HETATM    6  C10 UNL     1     -43.238  12.357   8.197  1.00 20.00     0.040 C 
HETATM    7  O11 UNL     1     -41.164  12.897   7.128  1.00 20.00    -0.377 OA
ENDROOT
BRANCH   3   8
HETATM    8  C3  UNL     1     -43.417  15.162   7.343  1.00 20.00    -0.030 C 
HETATM    9  C1  UNL     1     -42.606  16.184   7.637  1.00 20.00     0.007 C 
ENDBRANCH   3   8
BRANCH   4  10
HETATM   10  C4  UNL     1     -39.742  11.754   5.588  1.00 20.00    -0.005 C 
HETATM   11  C2  UNL     1     -39.247  11.463   4.380  1.00 20.00     0.009 C 
ENDBRANCH   4  10
TORSDOF 2
ENDMDL
MODEL 7
REMARK VINA RESULT:      -3.6     10.274     11.683
REMARK  2 active torsions:
REMARK  status: ('A' for Active; 'I' for Inactive)
REMARK    1  A    between atoms: C3_3  and  C7_7 
REMARK    2  A    between atoms: C4_4  and  C8_8 
ROOT
HETATM    1  C5  UNL     1     -42.997  13.412   7.096  1.00 20.00     0.014 C 
HETATM    2  C6  UNL     1     -41.975  12.427   6.544  1.00 20.00     0.037 C 
HETATM    3  C7  UNL     1     -42.395  14.265   8.229  1.00 20.00     0.036 C 
HETATM    4  C8  UNL     1     -40.734  13.180   6.044  1.00 20.00     0.144 C 
HETATM    5  C9  UNL     1     -40.849  14.225   8.205  1.00 20.00     0.126 C 
HETATM    6  C10 UNL     1     -40.174  15.330   9.013  1.00 20.00     0.040 C 
HETATM    7  O11 UNL     1     -40.375  14.302   6.859  1.00 20.00    -0.377 OA
ENDROOT
BRANCH   3   8
HETATM    8  C3  UNL     1     -42.969  15.651   8.167  1.00 20.00    -0.030 C 
HETATM    9  C1  UNL     1     -43.323  16.264   7.032  1.00 20.00     0.007 C 
ENDBRANCH   3   8
BRANCH   4  10
HETATM   10  C4  UNL     1     -39.550  12.277   5.902  1.00 20.00    -0.005 C 
HETATM   11  C2  UNL     1     -39.112  11.795   4.733  1.00 20.00     0.009 C 
ENDBRANCH   4  10
TORSDOF 2
ENDMDL
MODEL 8
REMARK VINA RESULT:      -3.4     11.255     12.777
REMARK  2 active torsions:
REMARK  status: ('A' for Active; 'I' for Inactive)
REMARK    1  A    between atoms: C3_3  and  C7_7 
REMARK    2  A    between atoms: C4_4  and  C8_8 
ROOT
HETATM    1  C5  UNL     1     -34.014  18.979  -4.246  1.00 20.00     0.014 C 
HETATM    2  C6  UNL     1     -32.967  19.218  -3.167  1.00 20.00     0.037 C 
HETATM    3  C7  UNL     1     -34.046  17.500  -4.677  1.00 20.00     0.036 C 
HETATM    4  C8  UNL     1     -33.242  18.315  -1.956  1.00 20.00     0.144 C 
HETATM    5  C9  UNL     1     -33.361  16.592  -3.629  1.00 20.00     0.126 C 
HETATM    6  C10 UNL     1     -33.688  15.108  -3.765  1.00 20.00     0.040 C 
HETATM    7  O11 UNL     1     -33.716  17.009  -2.309  1.00 20.00    -0.377 OA
ENDROOT
BRANCH   3   8
HETATM    8  C3  UNL     1     -35.458  17.104  -4.995  1.00 20.00    -0.030 C 
HETATM    9  C1  UNL     1     -36.532  17.827  -4.658  1.00 20.00     0.007 C 
ENDBRANCH   3   8
BRANCH   4  10
HETATM   10  C4  UNL     1     -32.042  18.180  -1.073  1.00 20.00    -0.005 C 
HETATM   11  C2  UNL     1     -32.001  18.589   0.200  1.00 20.00     0.009 C 
ENDBRANCH   4  10
TORSDOF 2
ENDMDL
MODEL 9
REMARK VINA RESULT:      -3.2     10.749     12.286
REMARK  2 active torsions:
REMARK  status: ('A' for Active; 'I' for Inactive)
REMARK    1  A    between atoms: C3_3  and  C7_7 
REMARK    2  A    between atoms: C4_4  and  C8_8 
ROOT
HETATM    1  C5  UNL     1     -40.488  15.919   8.831  1.00 20.00     0.014 C 
HETATM    2  C6  UNL     1     -40.398  15.383   7.409  1.00 20.00     0.037 C 
HETATM    3  C7  UNL     1     -41.771  15.431   9.532  1.00 20.00     0.036 C 
HETATM    4  C8  UNL     1     -40.450  13.849   7.419  1.00 20.00     0.144 C 
HETATM    5  C9  UNL     1     -42.380  14.208   8.807  1.00 20.00     0.126 C 
HETATM    6  C10 UNL     1     -43.396  13.423   9.632  1.00 20.00     0.040 C 
HETATM    7  O11 UNL     1     -41.344  13.310   8.401  1.00 20.00    -0.377 OA
ENDROOT
BRANCH   3   8
HETATM    8  C3  UNL     1     -41.485  15.196  10.986  1.00 20.00    -0.030 C 
HETATM    9  C1  UNL     1     -40.304  14.781  11.459  1.00 20.00     0.007 C 
ENDBRANCH   3   8
BRANCH   4  10
HETATM   10  C4  UNL     1     -40.801  13.290   6.077  1.00 20.00    -0.005 C 
HETATM   11  C2  UNL     1     -40.183  12.245   5.516  1.00 20.00     0.009 C 
ENDBRANCH   4  10
TORSDOF 2
ENDMDL
