MODEL 1
REMARK VINA RESULT:      -5.0      0.000      0.000
REMARK  1 active torsions:
REMARK  status: ('A' for Active; 'I' for Inactive)
REMARK    1  A    between atoms: C3_3  and  C6_6 
ROOT
HETATM    1  C1  UNL     1     -32.340   8.692   3.730  1.00 20.00    -0.024 C 
HETATM    2  C2  UNL     1     -32.445   7.798   2.734  1.00 20.00    -0.087 C 
HETATM    3  C4  UNL     1     -32.903   8.479   5.102  1.00 20.00     0.032 C 
HETATM    4  C5  UNL     1     -33.128   6.468   2.926  1.00 20.00     0.045 C 
HETATM    5  C6  UNL     1     -33.401   6.108   4.395  1.00 20.00     0.055 C 
HETATM    6  C7  UNL     1     -33.918   7.324   5.184  1.00 20.00    -0.004 C 
HETATM    7  C8  UNL     1     -31.893   8.066   1.366  1.00 20.00     0.043 C 
HETATM    8  C9  UNL     1     -34.201   6.992   6.651  1.00 20.00     0.011 C 
ENDROOT
BRANCH   5   9
HETATM    9  C3  UNL     1     -34.392   4.981   4.416  1.00 20.00     0.236 C 
HETATM   10  O10 UNL     1     -34.070   3.798   4.455  1.00 20.00    -0.306 OA
ENDBRANCH   5   9
TORSDOF 1
ENDMDL
MODEL 2
REMARK VINA RESULT:      -4.7      2.179      3.270
REMARK  1 active torsions:
REMARK  status: ('A' for Active; 'I' for Inactive)
REMARK    1  A    between atoms: C3_3  and  C6_6 
ROOT
HETATM    1  C1  UNL     1     -34.103   4.594   4.093  1.00 20.00    -0.024 C 
HETATM    2  C2  UNL     1     -33.339   5.274   3.223  1.00 20.00    -0.087 C 
HETATM    3  C4  UNL     1     -34.555   5.146   5.411  1.00 20.00     0.032 C 
HETATM    4  C5  UNL     1     -32.884   6.685   3.495  1.00 20.00     0.045 C 
HETATM    5  C6  UNL     1     -33.612   7.365   4.666  1.00 20.00     0.055 C 
HETATM    6  C7  UNL     1     -33.784   6.402   5.854  1.00 20.00    -0.004 C 
HETATM    7  C8  UNL     1     -32.884   4.671   1.927  1.00 20.00     0.043 C 
HETATM    8  C9  UNL     1     -34.505   7.056   7.037  1.00 20.00     0.011 C 
ENDROOT
BRANCH   5   9
HETATM    9  C3  UNL     1     -32.822   8.580   5.056  1.00 20.00     0.236 C 
HETATM   10  O10 UNL     1     -32.145   9.229   4.264  1.00 20.00    -0.306 OA
ENDBRANCH   5   9
TORSDOF 1
ENDMDL
MODEL 3
REMARK VINA RESULT:      -4.6      1.183      2.775
REMARK  1 active torsions:
REMARK  status: ('A' for Active; 'I' for Inactive)
REMARK    1  A    between atoms: C3_3  and  C6_6 
ROOT
HETATM    1  C1  UNL     1     -32.063   8.126   3.444  1.00 20.00    -0.024 C 
HETATM    2  C2  UNL     1     -32.631   8.294   4.649  1.00 20.00    -0.087 C 
HETATM    3  C4  UNL     1     -32.282   6.918   2.584  1.00 20.00     0.032 C 
HETATM    4  C5  UNL     1     -33.573   7.276   5.236  1.00 20.00     0.045 C 
HETATM    5  C6  UNL     1     -34.061   6.218   4.232  1.00 20.00     0.055 C 
HETATM    6  C7  UNL     1     -32.912   5.730   3.332  1.00 20.00    -0.004 C 
HETATM    7  C8  UNL     1     -32.359   9.506   5.491  1.00 20.00     0.043 C 
HETATM    8  C9  UNL     1     -33.370   4.672   2.323  1.00 20.00     0.011 C 
ENDROOT
BRANCH   5   9
HETATM    9  C3  UNL     1     -34.664   5.087   5.013  1.00 20.00     0.236 C 
HETATM   10  O10 UNL     1     -34.729   5.069   6.237  1.00 20.00    -0.306 OA
ENDBRANCH   5   9
TORSDOF 1
ENDMDL
MODEL 4
REMARK VINA RESULT:      -4.5      1.301      3.450
REMARK  1 active torsions:
REMARK  status: ('A' for Active; 'I' for Inactive)
REMARK    1  A    between atoms: C3_3  and  C6_6 
ROOT
HETATM    1  C1  UNL     1     -34.149   7.318   6.293  1.00 20.00    -0.024 C 
HETATM    2  C2  UNL     1     -34.354   6.034   5.959  1.00 20.00    -0.087 C 
HETATM    3  C4  UNL     1     -33.474   8.312   5.398  1.00 20.00     0.032 C 
HETATM    4  C5  UNL     1     -33.937   5.482   4.620  1.00 20.00     0.045 C 
HETATM    5  C6  UNL     1     -33.562   6.556   3.587  1.00 20.00     0.055 C 
HETATM    6  C7  UNL     1     -32.713   7.672   4.223  1.00 20.00    -0.004 C 
HETATM    7  C8  UNL     1     -35.007   5.064   6.899  1.00 20.00     0.043 C 
HETATM    8  C9  UNL     1     -32.322   8.756   3.214  1.00 20.00     0.011 C 
ENDROOT
BRANCH   5   9
HETATM    9  C3  UNL     1     -32.826   5.881   2.467  1.00 20.00     0.236 C 
HETATM   10  O10 UNL     1     -32.710   4.663   2.372  1.00 20.00    -0.306 OA
ENDBRANCH   5   9
TORSDOF 1
ENDMDL
MODEL 5
REMARK VINA RESULT:      -4.4      2.246      4.372
REMARK  1 active torsions:
REMARK  status: ('A' for Active; 'I' for Inactive)
REMARK    1  A    between atoms: C3_3  and  C6_6 
ROOT
HETATM    1  C1  UNL     1     -34.062   5.116   4.351  1.00 20.00    -0.024 C 
HETATM    2  C2  UNL     1     -34.257   5.854   5.456  1.00 20.00    -0.087 C 
HETATM    3  C4  UNL     1     -33.305   5.600   3.151  1.00 20.00     0.032 C 
HETATM    4  C5  UNL     1     -33.696   7.245   5.595  1.00 20.00     0.045 C 
HETATM    5  C6  UNL     1     -32.649   7.611   4.530  1.00 20.00     0.055 C 
HETATM    6  C7  UNL     1     -33.077   7.122   3.134  1.00 20.00    -0.004 C 
HETATM    7  C8  UNL     1     -35.049   5.340   6.622  1.00 20.00     0.043 C 
HETATM    8  C9  UNL     1     -32.053   7.476   2.052  1.00 20.00     0.011 C 
ENDROOT
BRANCH   5   9
HETATM    9  C3  UNL     1     -32.467   9.100   4.556  1.00 20.00     0.236 C 
HETATM   10  O10 UNL     1     -31.789   9.683   5.396  1.00 20.00    -0.306 OA
ENDBRANCH   5   9
TORSDOF 1
ENDMDL
MODEL 6
REMARK VINA RESULT:      -4.2      1.347      2.164
REMARK  1 active torsions:
REMARK  status: ('A' for Active; 'I' for Inactive)
REMARK    1  A    between atoms: C3_3  and  C6_6 
ROOT
HETATM    1  C1  UNL     1     -32.376   6.918   2.646  1.00 20.00    -0.024 C 
HETATM    2  C2  UNL     1     -32.989   5.739   2.837  1.00 20.00    -0.087 C 
HETATM    3  C4  UNL     1     -32.447   8.059   3.616  1.00 20.00     0.032 C 
HETATM    4  C5  UNL     1     -33.793   5.450   4.079  1.00 20.00     0.045 C 
HETATM    5  C6  UNL     1     -33.590   6.471   5.211  1.00 20.00     0.055 C 
HETATM    6  C7  UNL     1     -33.561   7.910   4.668  1.00 20.00    -0.004 C 
HETATM    7  C8  UNL     1     -32.917   4.635   1.824  1.00 20.00     0.043 C 
HETATM    8  C9  UNL     1     -33.363   8.949   5.776  1.00 20.00     0.011 C 
ENDROOT
BRANCH   5   9
HETATM    9  C3  UNL     1     -34.699   6.282   6.204  1.00 20.00     0.236 C 
HETATM   10  O10 UNL     1     -35.032   5.188   6.646  1.00 20.00    -0.306 OA
ENDBRANCH   5   9
TORSDOF 1
ENDMDL
MODEL 7
REMARK VINA RESULT:      -4.2      1.998      4.182
REMARK  1 active torsions:
REMARK  status: ('A' for Active; 'I' for Inactive)
REMARK    1  A    between atoms: C3_3  and  C6_6 
ROOT
HETATM    1  C1  UNL     1     -34.408   5.449   5.668  1.00 20.00    -0.024 C 
HETATM    2  C2  UNL     1     -34.094   6.731   5.913  1.00 20.00    -0.087 C 
HETATM    3  C4  UNL     1     -34.053   4.734   4.399  1.00 20.00     0.032 C 
HETATM    4  C5  UNL     1     -33.322   7.566   4.925  1.00 20.00     0.045 C 
HETATM    5  C6  UNL     1     -32.670   6.757   3.792  1.00 20.00     0.055 C 
HETATM    6  C7  UNL     1     -33.625   5.674   3.258  1.00 20.00    -0.004 C 
HETATM    7  C8  UNL     1     -34.497   7.416   7.186  1.00 20.00     0.043 C 
HETATM    8  C9  UNL     1     -33.001   4.853   2.124  1.00 20.00     0.011 C 
ENDROOT
BRANCH   5   9
HETATM    9  C3  UNL     1     -32.273   7.718   2.710  1.00 20.00     0.236 C 
HETATM   10  O10 UNL     1     -32.676   8.875   2.652  1.00 20.00    -0.306 OA
ENDBRANCH   5   9
TORSDOF 1
ENDMDL
MODEL 8
REMARK VINA RESULT:      -4.1      1.407      1.926
REMARK  1 active torsions:
REMARK  status: ('A' for Active; 'I' for Inactive)
REMARK    1  A    between atoms: C3_3  and  C6_6 
ROOT
HETATM    1  C1  UNL     1     -33.382   8.488   5.577  1.00 20.00    -0.024 C 
HETATM    2  C2  UNL     1     -32.859   8.484   4.341  1.00 20.00    -0.087 C 
HETATM    3  C4  UNL     1     -34.048   7.298   6.201  1.00 20.00     0.032 C 
HETATM    4  C5  UNL     1     -32.873   7.253   3.472  1.00 20.00     0.045 C 
HETATM    5  C6  UNL     1     -33.239   5.960   4.220  1.00 20.00     0.055 C 
HETATM    6  C7  UNL     1     -34.407   6.190   5.196  1.00 20.00    -0.004 C 
HETATM    7  C8  UNL     1     -32.229   9.707   3.743  1.00 20.00     0.043 C 
HETATM    8  C9  UNL     1     -34.795   4.916   5.953  1.00 20.00     0.011 C 
ENDROOT
BRANCH   5   9
HETATM    9  C3  UNL     1     -33.579   4.917   3.196  1.00 20.00     0.236 C 
HETATM   10  O10 UNL     1     -32.851   4.637   2.249  1.00 20.00    -0.306 OA
ENDBRANCH   5   9
TORSDOF 1
ENDMDL
MODEL 9
REMARK VINA RESULT:      -4.0      1.985      3.664
REMARK  1 active torsions:
REMARK  status: ('A' for Active; 'I' for Inactive)
REMARK    1  A    between atoms: C3_3  and  C6_6 
ROOT
HETATM    1  C1  UNL     1     -34.266   6.997   6.189  1.00 20.00    -0.024 C 
HETATM    2  C2  UNL     1     -34.304   6.006   5.284  1.00 20.00    -0.087 C 
HETATM    3  C4  UNL     1     -33.493   8.267   6.001  1.00 20.00     0.032 C 
HETATM    4  C5  UNL     1     -33.580   6.103   3.966  1.00 20.00     0.045 C 
HETATM    5  C6  UNL     1     -33.076   7.516   3.627  1.00 20.00     0.055 C 
HETATM    6  C7  UNL     1     -32.461   8.201   4.861  1.00 20.00    -0.004 C 
HETATM    7  C8  UNL     1     -35.067   4.738   5.527  1.00 20.00     0.043 C 
HETATM    8  C9  UNL     1     -31.948   9.610   4.551  1.00 20.00     0.011 C 
ENDROOT
BRANCH   5   9
HETATM    9  C3  UNL     1     -32.077   7.393   2.514  1.00 20.00     0.236 C 
HETATM   10  O10 UNL     1     -32.147   8.034   1.470  1.00 20.00    -0.306 OA
ENDBRANCH   5   9
TORSDOF 1
ENDMDL
