MODEL 1
REMARK VINA RESULT:      -5.1      0.000      0.000
REMARK  1 active torsions:
REMARK  status: ('A' for Active; 'I' for Inactive)
REMARK    1  A    between atoms: C3_3  and  C7_7 
ROOT
HETATM    1  C1  UNL     1     -33.935   7.282   5.155  1.00 20.00    -0.019 C 
HETATM    2  C2  UNL     1     -34.150   5.955   5.116  1.00 20.00    -0.087 C 
HETATM    3  C4  UNL     1     -33.649   5.099   3.982  1.00 20.00     0.034 C 
HETATM    4  C5  UNL     1     -33.236   5.910   2.754  1.00 20.00     0.016 C 
HETATM    5  C6  UNL     1     -33.147   8.046   4.118  1.00 20.00     0.015 C 
HETATM    6  C7  UNL     1     -32.384   7.116   3.151  1.00 20.00     0.054 C 
HETATM    7  C8  UNL     1     -34.906   5.241   6.197  1.00 20.00     0.043 C 
HETATM    8  C9  UNL     1     -32.179   9.012   4.810  1.00 20.00     0.015 C 
ENDROOT
BRANCH   6   9
HETATM    9  C3  UNL     1     -32.001   7.867   1.910  1.00 20.00     0.236 C 
HETATM   10  O10 UNL     1     -32.613   8.848   1.496  1.00 20.00    -0.306 OA
ENDBRANCH   6   9
TORSDOF 1
ENDMDL
MODEL 2
REMARK VINA RESULT:      -4.5      2.200      3.794
REMARK  1 active torsions:
REMARK  status: ('A' for Active; 'I' for Inactive)
REMARK    1  A    between atoms: C3_3  and  C7_7 
ROOT
HETATM    1  C1  UNL     1     -32.547   7.899   3.958  1.00 20.00    -0.019 C 
HETATM    2  C2  UNL     1     -32.543   7.284   2.762  1.00 20.00    -0.087 C 
HETATM    3  C4  UNL     1     -33.290   5.998   2.525  1.00 20.00     0.034 C 
HETATM    4  C5  UNL     1     -33.703   5.295   3.819  1.00 20.00     0.016 C 
HETATM    5  C6  UNL     1     -33.314   7.409   5.163  1.00 20.00     0.015 C 
HETATM    6  C7  UNL     1     -34.311   6.284   4.813  1.00 20.00     0.054 C 
HETATM    7  C8  UNL     1     -31.794   7.839   1.588  1.00 20.00     0.043 C 
HETATM    8  C9  UNL     1     -34.042   8.585   5.826  1.00 20.00     0.015 C 
ENDROOT
BRANCH   6   9
HETATM    9  C3  UNL     1     -34.706   5.542   6.055  1.00 20.00     0.236 C 
HETATM   10  O10 UNL     1     -33.897   5.039   6.829  1.00 20.00    -0.306 OA
ENDBRANCH   6   9
TORSDOF 1
ENDMDL
MODEL 3
REMARK VINA RESULT:      -4.2     11.615     13.136
REMARK  1 active torsions:
REMARK  status: ('A' for Active; 'I' for Inactive)
REMARK    1  A    between atoms: C3_3  and  C7_7 
ROOT
HETATM    1  C1  UNL     1     -34.361  17.523  -4.217  1.00 20.00    -0.019 C 
HETATM    2  C2  UNL     1     -33.721  16.646  -3.423  1.00 20.00    -0.087 C 
HETATM    3  C4  UNL     1     -33.544  15.202  -3.811  1.00 20.00     0.034 C 
HETATM    4  C5  UNL     1     -34.460  14.769  -4.955  1.00 20.00     0.016 C 
HETATM    5  C6  UNL     1     -34.925  17.183  -5.576  1.00 20.00     0.015 C 
HETATM    6  C7  UNL     1     -34.458  15.802  -6.082  1.00 20.00     0.054 C 
HETATM    7  C8  UNL     1     -33.144  17.050  -2.098  1.00 20.00     0.043 C 
HETATM    8  C9  UNL     1     -34.549  18.279  -6.581  1.00 20.00     0.015 C 
ENDROOT
BRANCH   6   9
HETATM    9  C3  UNL     1     -35.364  15.324  -7.179  1.00 20.00     0.236 C 
HETATM   10  O10 UNL     1     -36.013  14.284  -7.115  1.00 20.00    -0.306 OA
ENDBRANCH   6   9
TORSDOF 1
ENDMDL
MODEL 4
REMARK VINA RESULT:      -4.1      2.310      4.372
REMARK  1 active torsions:
REMARK  status: ('A' for Active; 'I' for Inactive)
REMARK    1  A    between atoms: C3_3  and  C7_7 
ROOT
HETATM    1  C1  UNL     1     -33.313   6.470   2.917  1.00 20.00    -0.019 C 
HETATM    2  C2  UNL     1     -32.555   7.581   2.909  1.00 20.00    -0.087 C 
HETATM    3  C4  UNL     1     -32.381   8.436   4.136  1.00 20.00     0.034 C 
HETATM    4  C5  UNL     1     -33.415   8.144   5.224  1.00 20.00     0.016 C 
HETATM    5  C6  UNL     1     -34.025   5.936   4.137  1.00 20.00     0.015 C 
HETATM    6  C7  UNL     1     -33.580   6.639   5.437  1.00 20.00     0.054 C 
HETATM    7  C8  UNL     1     -31.837   8.043   1.675  1.00 20.00     0.043 C 
HETATM    8  C9  UNL     1     -33.806   4.422   4.243  1.00 20.00     0.015 C 
ENDROOT
BRANCH   6   9
HETATM    9  C3  UNL     1     -34.595   6.411   6.518  1.00 20.00     0.236 C 
HETATM   10  O10 UNL     1     -34.932   5.296   6.905  1.00 20.00    -0.306 OA
ENDBRANCH   6   9
TORSDOF 1
ENDMDL
MODEL 5
REMARK VINA RESULT:      -4.0      1.696      3.545
REMARK  1 active torsions:
REMARK  status: ('A' for Active; 'I' for Inactive)
REMARK    1  A    between atoms: C3_3  and  C7_7 
ROOT
HETATM    1  C1  UNL     1     -34.125   5.247   3.924  1.00 20.00    -0.019 C 
HETATM    2  C2  UNL     1     -33.188   5.544   3.006  1.00 20.00    -0.087 C 
HETATM    3  C4  UNL     1     -32.355   6.795   3.093  1.00 20.00     0.034 C 
HETATM    4  C5  UNL     1     -32.923   7.830   4.064  1.00 20.00     0.016 C 
HETATM    5  C6  UNL     1     -34.413   6.087   5.145  1.00 20.00     0.015 C 
HETATM    6  C7  UNL     1     -33.346   7.178   5.380  1.00 20.00     0.054 C 
HETATM    7  C8  UNL     1     -32.917   4.650   1.833  1.00 20.00     0.043 C 
HETATM    8  C9  UNL     1     -34.538   5.185   6.378  1.00 20.00     0.015 C 
ENDROOT
BRANCH   6   9
HETATM    9  C3  UNL     1     -33.885   8.237   6.294  1.00 20.00     0.236 C 
HETATM   10  O10 UNL     1     -34.040   9.407   5.957  1.00 20.00    -0.306 OA
ENDBRANCH   6   9
TORSDOF 1
ENDMDL
MODEL 6
REMARK VINA RESULT:      -4.0      2.174      3.712
REMARK  1 active torsions:
REMARK  status: ('A' for Active; 'I' for Inactive)
REMARK    1  A    between atoms: C3_3  and  C7_7 
ROOT
HETATM    1  C1  UNL     1     -33.074   7.596   5.743  1.00 20.00    -0.019 C 
HETATM    2  C2  UNL     1     -32.570   8.345   4.745  1.00 20.00    -0.087 C 
HETATM    3  C4  UNL     1     -32.549   7.862   3.319  1.00 20.00     0.034 C 
HETATM    4  C5  UNL     1     -32.785   6.357   3.191  1.00 20.00     0.016 C 
HETATM    5  C6  UNL     1     -33.701   6.237   5.551  1.00 20.00     0.015 C 
HETATM    6  C7  UNL     1     -33.954   5.905   4.065  1.00 20.00     0.054 C 
HETATM    7  C8  UNL     1     -31.995   9.708   4.990  1.00 20.00     0.043 C 
HETATM    8  C9  UNL     1     -35.007   6.152   6.351  1.00 20.00     0.015 C 
ENDROOT
BRANCH   6   9
HETATM    9  C3  UNL     1     -34.146   4.427   3.893  1.00 20.00     0.236 C 
HETATM   10  O10 UNL     1     -33.750   3.595   4.703  1.00 20.00    -0.306 OA
ENDBRANCH   6   9
TORSDOF 1
ENDMDL
MODEL 7
REMARK VINA RESULT:      -4.0     11.524     12.870
REMARK  1 active torsions:
REMARK  status: ('A' for Active; 'I' for Inactive)
REMARK    1  A    between atoms: C3_3  and  C7_7 
ROOT
HETATM    1  C1  UNL     1     -33.329  16.574  -2.453  1.00 20.00    -0.019 C 
HETATM    2  C2  UNL     1     -33.918  17.601  -1.814  1.00 20.00    -0.087 C 
HETATM    3  C4  UNL     1     -34.853  18.548  -2.519  1.00 20.00     0.034 C 
HETATM    4  C5  UNL     1     -34.758  18.463  -4.043  1.00 20.00     0.016 C 
HETATM    5  C6  UNL     1     -33.563  16.231  -3.904  1.00 20.00     0.015 C 
HETATM    6  C7  UNL     1     -34.749  17.008  -4.513  1.00 20.00     0.054 C 
HETATM    7  C8  UNL     1     -33.680  17.870  -0.358  1.00 20.00     0.043 C 
HETATM    8  C9  UNL     1     -33.778  14.721  -4.051  1.00 20.00     0.015 C 
ENDROOT
BRANCH   6   9
HETATM    9  C3  UNL     1     -34.665  16.985  -6.011  1.00 20.00     0.236 C 
HETATM   10  O10 UNL     1     -35.482  16.411  -6.725  1.00 20.00    -0.306 OA
ENDBRANCH   6   9
TORSDOF 1
ENDMDL
MODEL 8
REMARK VINA RESULT:      -3.8      0.726      2.298
REMARK  1 active torsions:
REMARK  status: ('A' for Active; 'I' for Inactive)
REMARK    1  A    between atoms: C3_3  and  C7_7 
ROOT
HETATM    1  C1  UNL     1     -33.504   5.582   4.451  1.00 20.00    -0.019 C 
HETATM    2  C2  UNL     1     -34.013   6.449   5.345  1.00 20.00    -0.087 C 
HETATM    3  C4  UNL     1     -33.866   7.939   5.182  1.00 20.00     0.034 C 
HETATM    4  C5  UNL     1     -32.797   8.330   4.162  1.00 20.00     0.016 C 
HETATM    5  C6  UNL     1     -32.782   5.989   3.189  1.00 20.00     0.015 C 
HETATM    6  C7  UNL     1     -32.921   7.496   2.887  1.00 20.00     0.054 C 
HETATM    7  C8  UNL     1     -34.757   5.988   6.563  1.00 20.00     0.043 C 
HETATM    8  C9  UNL     1     -33.293   5.155   2.009  1.00 20.00     0.015 C 
ENDROOT
BRANCH   6   9
HETATM    9  C3  UNL     1     -31.858   7.927   1.920  1.00 20.00     0.236 C 
HETATM   10  O10 UNL     1     -32.101   8.396   0.812  1.00 20.00    -0.306 OA
ENDBRANCH   6   9
TORSDOF 1
ENDMDL
MODEL 9
REMARK VINA RESULT:      -3.7      2.169      3.379
REMARK  1 active torsions:
REMARK  status: ('A' for Active; 'I' for Inactive)
REMARK    1  A    between atoms: C3_3  and  C7_7 
ROOT
HETATM    1  C1  UNL     1     -32.391   6.401   2.930  1.00 20.00    -0.019 C 
HETATM    2  C2  UNL     1     -33.068   5.249   2.783  1.00 20.00    -0.087 C 
HETATM    3  C4  UNL     1     -34.163   4.841   3.733  1.00 20.00     0.034 C 
HETATM    4  C5  UNL     1     -34.156   5.639   5.037  1.00 20.00     0.016 C 
HETATM    5  C6  UNL     1     -32.670   7.418   4.011  1.00 20.00     0.015 C 
HETATM    6  C7  UNL     1     -33.985   7.133   4.767  1.00 20.00     0.054 C 
HETATM    7  C8  UNL     1     -32.775   4.294   1.664  1.00 20.00     0.043 C 
HETATM    8  C9  UNL     1     -32.693   8.826   3.405  1.00 20.00     0.015 C 
ENDROOT
BRANCH   6   9
HETATM    9  C3  UNL     1     -33.996   7.866   6.076  1.00 20.00     0.236 C 
HETATM   10  O10 UNL     1     -34.400   7.372   7.124  1.00 20.00    -0.306 OA
ENDBRANCH   6   9
TORSDOF 1
ENDMDL
