MODEL 1
REMARK VINA RESULT:      -5.2      0.000      0.000
REMARK  1 active torsions:
REMARK  status: ('A' for Active; 'I' for Inactive)
REMARK    1  A    between atoms: C3_3  and  C7_7 
ROOT
HETATM    1  C1  UNL     1     -34.188   5.610   4.288  1.00 20.00    -0.019 C 
HETATM    2  C2  UNL     1     -34.157   6.262   5.463  1.00 20.00    -0.087 C 
HETATM    3  C4  UNL     1     -33.419   7.565   5.634  1.00 20.00     0.034 C 
HETATM    4  C5  UNL     1     -33.055   8.228   4.306  1.00 20.00     0.016 C 
HETATM    5  C6  UNL     1     -33.470   6.072   3.041  1.00 20.00     0.015 C 
HETATM    6  C7  UNL     1     -32.471   7.214   3.323  1.00 20.00     0.054 C 
HETATM    7  C8  UNL     1     -34.857   5.736   6.681  1.00 20.00     0.043 C 
HETATM    8  C9  UNL     1     -32.755   4.884   2.385  1.00 20.00     0.015 C 
ENDROOT
BRANCH   6   9
HETATM    9  C3  UNL     1     -32.118   7.932   2.054  1.00 20.00     0.236 C 
HETATM   10  O10 UNL     1     -32.595   9.015   1.734  1.00 20.00    -0.306 OA
ENDBRANCH   6   9
TORSDOF 1
ENDMDL
MODEL 2
REMARK VINA RESULT:      -4.6      0.686      2.297
REMARK  1 active torsions:
REMARK  status: ('A' for Active; 'I' for Inactive)
REMARK    1  A    between atoms: C3_3  and  C7_7 
ROOT
HETATM    1  C1  UNL     1     -33.350   7.128   5.746  1.00 20.00    -0.019 C 
HETATM    2  C2  UNL     1     -34.192   6.092   5.578  1.00 20.00    -0.087 C 
HETATM    3  C4  UNL     1     -34.380   5.426   4.240  1.00 20.00     0.034 C 
HETATM    4  C5  UNL     1     -33.285   5.778   3.233  1.00 20.00     0.016 C 
HETATM    5  C6  UNL     1     -32.545   7.758   4.633  1.00 20.00     0.015 C 
HETATM    6  C7  UNL     1     -32.994   7.279   3.236  1.00 20.00     0.054 C 
HETATM    7  C8  UNL     1     -34.996   5.532   6.713  1.00 20.00     0.043 C 
HETATM    8  C9  UNL     1     -32.635   9.286   4.730  1.00 20.00     0.015 C 
ENDROOT
BRANCH   6   9
HETATM    9  C3  UNL     1     -31.930   7.558   2.216  1.00 20.00     0.236 C 
HETATM   10  O10 UNL     1     -32.141   8.150   1.163  1.00 20.00    -0.306 OA
ENDBRANCH   6   9
TORSDOF 1
ENDMDL
MODEL 3
REMARK VINA RESULT:      -4.5      2.195      3.821
REMARK  1 active torsions:
REMARK  status: ('A' for Active; 'I' for Inactive)
REMARK    1  A    between atoms: C3_3  and  C7_7 
ROOT
HETATM    1  C1  UNL     1     -32.636   6.565   2.701  1.00 20.00    -0.019 C 
HETATM    2  C2  UNL     1     -32.389   7.842   2.357  1.00 20.00    -0.087 C 
HETATM    3  C4  UNL     1     -32.582   8.980   3.324  1.00 20.00     0.034 C 
HETATM    4  C5  UNL     1     -32.708   8.522   4.776  1.00 20.00     0.016 C 
HETATM    5  C6  UNL     1     -33.163   6.137   4.051  1.00 20.00     0.015 C 
HETATM    6  C7  UNL     1     -33.656   7.329   4.898  1.00 20.00     0.054 C 
HETATM    7  C8  UNL     1     -31.902   8.214   0.988  1.00 20.00     0.043 C 
HETATM    8  C9  UNL     1     -34.288   5.111   3.865  1.00 20.00     0.015 C 
ENDROOT
BRANCH   6   9
HETATM    9  C3  UNL     1     -33.750   6.944   6.345  1.00 20.00     0.236 C 
HETATM   10  O10 UNL     1     -34.729   6.392   6.836  1.00 20.00    -0.306 OA
ENDBRANCH   6   9
TORSDOF 1
ENDMDL
MODEL 4
REMARK VINA RESULT:      -4.4     15.976     16.714
REMARK  1 active torsions:
REMARK  status: ('A' for Active; 'I' for Inactive)
REMARK    1  A    between atoms: C3_3  and  C7_7 
ROOT
HETATM    1  C1  UNL     1     -24.293  18.337  12.134  1.00 20.00    -0.019 C 
HETATM    2  C2  UNL     1     -25.362  18.894  11.537  1.00 20.00    -0.087 C 
HETATM    3  C4  UNL     1     -25.357  19.263  10.077  1.00 20.00     0.034 C 
HETATM    4  C5  UNL     1     -24.212  18.617   9.296  1.00 20.00     0.016 C 
HETATM    5  C6  UNL     1     -22.980  18.061  11.439  1.00 20.00     0.015 C 
HETATM    6  C7  UNL     1     -22.891  18.736  10.055  1.00 20.00     0.054 C 
HETATM    7  C8  UNL     1     -26.629  19.181  12.286  1.00 20.00     0.043 C 
HETATM    8  C9  UNL     1     -21.817  18.513  12.332  1.00 20.00     0.015 C 
ENDROOT
BRANCH   6   9
HETATM    9  C3  UNL     1     -21.811  18.103   9.228  1.00 20.00     0.236 C 
HETATM   10  O10 UNL     1     -21.918  17.001   8.703  1.00 20.00    -0.306 OA
ENDBRANCH   6   9
TORSDOF 1
ENDMDL
MODEL 5
REMARK VINA RESULT:      -4.1      2.187      3.472
REMARK  1 active torsions:
REMARK  status: ('A' for Active; 'I' for Inactive)
REMARK    1  A    between atoms: C3_3  and  C7_7 
ROOT
HETATM    1  C1  UNL     1     -32.250   7.545   3.880  1.00 20.00    -0.019 C 
HETATM    2  C2  UNL     1     -32.610   8.507   4.747  1.00 20.00    -0.087 C 
HETATM    3  C4  UNL     1     -33.734   8.314   5.731  1.00 20.00     0.034 C 
HETATM    4  C5  UNL     1     -34.146   6.852   5.896  1.00 20.00     0.016 C 
HETATM    5  C6  UNL     1     -32.940   6.205   3.763  1.00 20.00     0.015 C 
HETATM    6  C7  UNL     1     -34.272   6.158   4.541  1.00 20.00     0.054 C 
HETATM    7  C8  UNL     1     -31.913   9.835   4.793  1.00 20.00     0.043 C 
HETATM    8  C9  UNL     1     -33.170   5.869   2.284  1.00 20.00     0.015 C 
ENDROOT
BRANCH   6   9
HETATM    9  C3  UNL     1     -34.696   4.737   4.773  1.00 20.00     0.236 C 
HETATM   10  O10 UNL     1     -33.956   3.774   4.606  1.00 20.00    -0.306 OA
ENDBRANCH   6   9
TORSDOF 1
ENDMDL
MODEL 6
REMARK VINA RESULT:      -4.1     11.849     13.243
REMARK  1 active torsions:
REMARK  status: ('A' for Active; 'I' for Inactive)
REMARK    1  A    between atoms: C3_3  and  C7_7 
ROOT
HETATM    1  C1  UNL     1     -34.535  17.473  -4.116  1.00 20.00    -0.019 C 
HETATM    2  C2  UNL     1     -33.738  16.672  -3.389  1.00 20.00    -0.087 C 
HETATM    3  C4  UNL     1     -33.418  15.263  -3.817  1.00 20.00     0.034 C 
HETATM    4  C5  UNL     1     -33.762  14.986  -5.280  1.00 20.00     0.016 C 
HETATM    5  C6  UNL     1     -35.223  17.054  -5.395  1.00 20.00     0.015 C 
HETATM    6  C7  UNL     1     -35.145  15.532  -5.635  1.00 20.00     0.054 C 
HETATM    7  C8  UNL     1     -33.112  17.129  -2.105  1.00 20.00     0.043 C 
HETATM    8  C9  UNL     1     -36.684  17.519  -5.374  1.00 20.00     0.015 C 
ENDROOT
BRANCH   6   9
HETATM    9  C3  UNL     1     -35.427  15.210  -7.074  1.00 20.00     0.236 C 
HETATM   10  O10 UNL     1     -36.178  14.309  -7.431  1.00 20.00    -0.306 OA
ENDBRANCH   6   9
TORSDOF 1
ENDMDL
MODEL 7
REMARK VINA RESULT:      -4.0      2.234      4.394
REMARK  1 active torsions:
REMARK  status: ('A' for Active; 'I' for Inactive)
REMARK    1  A    between atoms: C3_3  and  C7_7 
ROOT
HETATM    1  C1  UNL     1     -32.925   8.429   3.352  1.00 20.00    -0.019 C 
HETATM    2  C2  UNL     1     -32.515   7.548   2.423  1.00 20.00    -0.087 C 
HETATM    3  C4  UNL     1     -32.726   6.065   2.582  1.00 20.00     0.034 C 
HETATM    4  C5  UNL     1     -33.746   5.715   3.666  1.00 20.00     0.016 C 
HETATM    5  C6  UNL     1     -33.592   8.044   4.652  1.00 20.00     0.015 C 
HETATM    6  C7  UNL     1     -33.503   6.529   4.935  1.00 20.00     0.054 C 
HETATM    7  C8  UNL     1     -31.822   7.985   1.166  1.00 20.00     0.043 C 
HETATM    8  C9  UNL     1     -32.974   8.842   5.807  1.00 20.00     0.015 C 
ENDROOT
BRANCH   6   9
HETATM    9  C3  UNL     1     -34.520   6.124   5.961  1.00 20.00     0.236 C 
HETATM   10  O10 UNL     1     -34.388   5.155   6.700  1.00 20.00    -0.306 OA
ENDBRANCH   6   9
TORSDOF 1
ENDMDL
MODEL 8
REMARK VINA RESULT:      -4.0      2.182      3.771
REMARK  1 active torsions:
REMARK  status: ('A' for Active; 'I' for Inactive)
REMARK    1  A    between atoms: C3_3  and  C7_7 
ROOT
HETATM    1  C1  UNL     1     -33.574   8.168   5.348  1.00 20.00    -0.019 C 
HETATM    2  C2  UNL     1     -32.514   8.634   4.665  1.00 20.00    -0.087 C 
HETATM    3  C4  UNL     1     -31.847   7.830   3.580  1.00 20.00     0.034 C 
HETATM    4  C5  UNL     1     -32.695   6.653   3.096  1.00 20.00     0.016 C 
HETATM    5  C6  UNL     1     -34.182   6.799   5.143  1.00 20.00     0.015 C 
HETATM    6  C7  UNL     1     -33.295   5.884   4.272  1.00 20.00     0.054 C 
HETATM    7  C8  UNL     1     -31.928   9.988   4.938  1.00 20.00     0.043 C 
HETATM    8  C9  UNL     1     -34.454   6.145   6.503  1.00 20.00     0.015 C 
ENDROOT
BRANCH   6   9
HETATM    9  C3  UNL     1     -34.094   4.736   3.730  1.00 20.00     0.236 C 
HETATM   10  O10 UNL     1     -34.062   3.605   4.203  1.00 20.00    -0.306 OA
ENDBRANCH   6   9
TORSDOF 1
ENDMDL
MODEL 9
REMARK VINA RESULT:      -3.7     11.630     13.096
REMARK  1 active torsions:
REMARK  status: ('A' for Active; 'I' for Inactive)
REMARK    1  A    between atoms: C3_3  and  C7_7 
ROOT
HETATM    1  C1  UNL     1     -33.304  16.553  -3.351  1.00 20.00    -0.019 C 
HETATM    2  C2  UNL     1     -33.594  17.840  -3.610  1.00 20.00    -0.087 C 
HETATM    3  C4  UNL     1     -34.656  18.235  -4.603  1.00 20.00     0.034 C 
HETATM    4  C5  UNL     1     -35.587  17.082  -4.978  1.00 20.00     0.016 C 
HETATM    5  C6  UNL     1     -33.963  15.379  -4.038  1.00 20.00     0.015 C 
HETATM    6  C7  UNL     1     -34.798  15.806  -5.264  1.00 20.00     0.054 C 
HETATM    7  C8  UNL     1     -32.881  18.967  -2.924  1.00 20.00     0.043 C 
HETATM    8  C9  UNL     1     -32.897  14.354  -4.446  1.00 20.00     0.015 C 
ENDROOT
BRANCH   6   9
HETATM    9  C3  UNL     1     -35.766  14.724  -5.645  1.00 20.00     0.236 C 
HETATM   10  O10 UNL     1     -35.918  14.326  -6.794  1.00 20.00    -0.306 OA
ENDBRANCH   6   9
TORSDOF 1
ENDMDL
