MODEL 1
REMARK VINA RESULT:      -4.1      0.000      0.000
REMARK  1 active torsions:
REMARK  status: ('A' for Active; 'I' for Inactive)
REMARK    1  A    between atoms: C1_1  and  C5_5 
ROOT
HETATM    1  C2  UNL     1     -40.401  14.357   8.792  1.00 20.00     0.006 C 
HETATM    2  C3  UNL     1     -41.904  14.288   9.091  1.00 20.00     0.006 C 
HETATM    3  C4  UNL     1     -41.557  15.893   7.406  1.00 20.00     0.011 C 
HETATM    4  C5  UNL     1     -40.802  13.947   6.291  1.00 20.00     0.067 C 
HETATM    5  C6  UNL     1     -40.347  14.955   7.373  1.00 20.00    -0.002 C 
HETATM    6  C7  UNL     1     -42.534  14.765   7.770  1.00 20.00    -0.006 C 
HETATM    7  C8  UNL     1     -42.312  13.728   6.615  1.00 20.00    -0.033 C 
HETATM    8  C10 UNL     1     -43.176  14.104   5.393  1.00 20.00     0.016 C 
HETATM    9  C11 UNL     1     -42.692  12.294   7.015  1.00 20.00     0.016 C 
ENDROOT
BRANCH   4  10
HETATM   10  C1  UNL     1     -39.935  12.725   6.234  1.00 20.00     0.128 C 
HETATM   11  C9  UNL     1     -39.787  12.064   4.890  1.00 20.00     0.091 C 
HETATM   12  O12 UNL     1     -39.372  12.286   7.235  1.00 20.00    -0.298 OA
ENDBRANCH   4  10
TORSDOF 1
ENDMDL
MODEL 2
REMARK VINA RESULT:      -3.6     12.851     14.452
REMARK  1 active torsions:
REMARK  status: ('A' for Active; 'I' for Inactive)
REMARK    1  A    between atoms: C1_1  and  C5_5 
ROOT
HETATM    1  C2  UNL     1     -33.935  15.165  -6.648  1.00 20.00     0.006 C 
HETATM    2  C3  UNL     1     -34.383  16.441  -7.373  1.00 20.00     0.006 C 
HETATM    3  C4  UNL     1     -36.243  15.535  -6.252  1.00 20.00     0.011 C 
HETATM    4  C5  UNL     1     -34.843  16.028  -4.409  1.00 20.00     0.067 C 
HETATM    5  C6  UNL     1     -34.997  14.991  -5.546  1.00 20.00    -0.002 C 
HETATM    6  C7  UNL     1     -35.593  16.898  -6.539  1.00 20.00    -0.006 C 
HETATM    7  C8  UNL     1     -35.163  17.383  -5.112  1.00 20.00    -0.033 C 
HETATM    8  C10 UNL     1     -36.348  18.078  -4.410  1.00 20.00     0.016 C 
HETATM    9  C11 UNL     1     -34.002  18.390  -5.145  1.00 20.00     0.016 C 
ENDROOT
BRANCH   4  10
HETATM   10  C1  UNL     1     -33.525  15.924  -3.702  1.00 20.00     0.128 C 
HETATM   11  C9  UNL     1     -33.398  16.662  -2.397  1.00 20.00     0.091 C 
HETATM   12  O12 UNL     1     -32.595  15.266  -4.164  1.00 20.00    -0.298 OA
ENDBRANCH   4  10
TORSDOF 1
ENDMDL
MODEL 3
REMARK VINA RESULT:      -3.3      1.530      3.782
REMARK  1 active torsions:
REMARK  status: ('A' for Active; 'I' for Inactive)
REMARK    1  A    between atoms: C1_1  and  C5_5 
ROOT
HETATM    1  C2  UNL     1     -42.324  12.269   6.773  1.00 20.00     0.006 C 
HETATM    2  C3  UNL     1     -40.929  12.739   6.342  1.00 20.00     0.006 C 
HETATM    3  C4  UNL     1     -42.496  14.359   5.667  1.00 20.00     0.011 C 
HETATM    4  C5  UNL     1     -42.764  14.470   8.015  1.00 20.00     0.067 C 
HETATM    5  C6  UNL     1     -43.142  13.574   6.813  1.00 20.00    -0.002 C 
HETATM    6  C7  UNL     1     -41.090  14.268   6.279  1.00 20.00    -0.006 C 
HETATM    7  C8  UNL     1     -41.294  14.887   7.705  1.00 20.00    -0.033 C 
HETATM    8  C10 UNL     1     -41.182  16.424   7.635  1.00 20.00     0.016 C 
HETATM    9  C11 UNL     1     -40.250  14.403   8.724  1.00 20.00     0.016 C 
ENDROOT
BRANCH   4  10
HETATM   10  C1  UNL     1     -43.018  13.809   9.336  1.00 20.00     0.128 C 
HETATM   11  C9  UNL     1     -43.380  14.711  10.486  1.00 20.00     0.091 C 
HETATM   12  O12 UNL     1     -42.937  12.590   9.473  1.00 20.00    -0.298 OA
ENDBRANCH   4  10
TORSDOF 1
ENDMDL
MODEL 4
REMARK VINA RESULT:      -3.2     13.074     14.031
REMARK  1 active torsions:
REMARK  status: ('A' for Active; 'I' for Inactive)
REMARK    1  A    between atoms: C1_1  and  C5_5 
ROOT
HETATM    1  C2  UNL     1     -35.550  17.947  -4.076  1.00 20.00     0.006 C 
HETATM    2  C3  UNL     1     -36.865  17.652  -4.809  1.00 20.00     0.006 C 
HETATM    3  C4  UNL     1     -35.212  18.126  -6.415  1.00 20.00     0.011 C 
HETATM    4  C5  UNL     1     -34.302  16.171  -5.443  1.00 20.00     0.067 C 
HETATM    5  C6  UNL     1     -34.476  17.678  -5.149  1.00 20.00    -0.002 C 
HETATM    6  C7  UNL     1     -36.383  17.159  -6.185  1.00 20.00    -0.006 C 
HETATM    7  C8  UNL     1     -35.667  15.768  -6.082  1.00 20.00    -0.033 C 
HETATM    8  C10 UNL     1     -35.440  15.184  -7.492  1.00 20.00     0.016 C 
HETATM    9  C11 UNL     1     -36.478  14.732  -5.288  1.00 20.00     0.016 C 
ENDROOT
BRANCH   4  10
HETATM   10  C1  UNL     1     -33.858  15.390  -4.243  1.00 20.00     0.128 C 
HETATM   11  C9  UNL     1     -33.367  16.186  -3.063  1.00 20.00     0.091 C 
HETATM   12  O12 UNL     1     -33.895  14.162  -4.222  1.00 20.00    -0.298 OA
ENDBRANCH   4  10
TORSDOF 1
ENDMDL
MODEL 5
REMARK VINA RESULT:      -3.2     13.248     14.411
REMARK  1 active torsions:
REMARK  status: ('A' for Active; 'I' for Inactive)
REMARK    1  A    between atoms: C1_1  and  C5_5 
ROOT
HETATM    1  C2  UNL     1     -35.548  14.214  -5.034  1.00 20.00     0.006 C 
HETATM    2  C3  UNL     1     -34.360  14.926  -4.374  1.00 20.00     0.006 C 
HETATM    3  C4  UNL     1     -34.149  15.143  -6.707  1.00 20.00     0.011 C 
HETATM    4  C5  UNL     1     -36.171  16.320  -6.359  1.00 20.00     0.067 C 
HETATM    5  C6  UNL     1     -35.630  14.874  -6.424  1.00 20.00    -0.002 C 
HETATM    6  C7  UNL     1     -33.964  15.974  -5.429  1.00 20.00    -0.006 C 
HETATM    7  C8  UNL     1     -35.059  17.086  -5.578  1.00 20.00    -0.033 C 
HETATM    8  C10 UNL     1     -34.517  18.251  -6.433  1.00 20.00     0.016 C 
HETATM    9  C11 UNL     1     -35.499  17.680  -4.230  1.00 20.00     0.016 C 
ENDROOT
BRANCH   4  10
HETATM   10  C1  UNL     1     -37.563  16.397  -5.808  1.00 20.00     0.128 C 
HETATM   11  C9  UNL     1     -38.356  17.632  -6.139  1.00 20.00     0.091 C 
HETATM   12  O12 UNL     1     -38.035  15.493  -5.120  1.00 20.00    -0.298 OA
ENDBRANCH   4  10
TORSDOF 1
ENDMDL
MODEL 6
REMARK VINA RESULT:      -3.1     20.128     21.736
REMARK  1 active torsions:
REMARK  status: ('A' for Active; 'I' for Inactive)
REMARK    1  A    between atoms: C1_1  and  C5_5 
ROOT
HETATM    1  C2  UNL     1     -26.786  -0.313  11.929  1.00 20.00     0.006 C 
HETATM    2  C3  UNL     1     -28.235  -0.618  12.332  1.00 20.00     0.006 C 
HETATM    3  C4  UNL     1     -28.105  -0.618   9.983  1.00 20.00     0.011 C 
HETATM    4  C5  UNL     1     -26.664  -2.428  10.482  1.00 20.00     0.067 C 
HETATM    5  C6  UNL     1     -26.688  -0.882  10.500  1.00 20.00    -0.002 C 
HETATM    6  C7  UNL     1     -28.764  -1.410  11.123  1.00 20.00    -0.006 C 
HETATM    7  C8  UNL     1     -28.080  -2.815  11.009  1.00 20.00    -0.033 C 
HETATM    8  C10 UNL     1     -28.817  -3.678   9.963  1.00 20.00     0.016 C 
HETATM    9  C11 UNL     1     -28.093  -3.598  12.331  1.00 20.00     0.016 C 
ENDROOT
BRANCH   4  10
HETATM   10  C1  UNL     1     -25.487  -3.001  11.213  1.00 20.00     0.128 C 
HETATM   11  C9  UNL     1     -25.026  -4.368  10.787  1.00 20.00     0.091 C 
HETATM   12  O12 UNL     1     -24.926  -2.382  12.116  1.00 20.00    -0.298 OA
ENDBRANCH   4  10
TORSDOF 1
ENDMDL
MODEL 7
REMARK VINA RESULT:      -3.1     12.091     13.515
REMARK  1 active torsions:
REMARK  status: ('A' for Active; 'I' for Inactive)
REMARK    1  A    between atoms: C1_1  and  C5_5 
ROOT
HETATM    1  C2  UNL     1     -33.778  17.383  -1.765  1.00 20.00     0.006 C 
HETATM    2  C3  UNL     1     -34.823  18.505  -1.817  1.00 20.00     0.006 C 
HETATM    3  C4  UNL     1     -32.917  19.213  -3.001  1.00 20.00     0.011 C 
HETATM    4  C5  UNL     1     -33.564  17.360  -4.322  1.00 20.00     0.067 C 
HETATM    5  C6  UNL     1     -32.874  17.682  -2.976  1.00 20.00    -0.002 C 
HETATM    6  C7  UNL     1     -34.449  19.257  -3.107  1.00 20.00    -0.006 C 
HETATM    7  C8  UNL     1     -34.732  18.392  -4.383  1.00 20.00    -0.033 C 
HETATM    8  C10 UNL     1     -34.603  19.263  -5.651  1.00 20.00     0.016 C 
HETATM    9  C11 UNL     1     -36.143  17.782  -4.394  1.00 20.00     0.016 C 
ENDROOT
BRANCH   4  10
HETATM   10  C1  UNL     1     -33.931  15.912  -4.456  1.00 20.00     0.128 C 
HETATM   11  C9  UNL     1     -34.230  15.416  -5.844  1.00 20.00     0.091 C 
HETATM   12  O12 UNL     1     -33.982  15.167  -3.479  1.00 20.00    -0.298 OA
ENDBRANCH   4  10
TORSDOF 1
ENDMDL
MODEL 8
REMARK VINA RESULT:      -3.0      1.611      2.793
REMARK  1 active torsions:
REMARK  status: ('A' for Active; 'I' for Inactive)
REMARK    1  A    between atoms: C1_1  and  C5_5 
ROOT
HETATM    1  C2  UNL     1     -41.201  16.156   7.093  1.00 20.00     0.006 C 
HETATM    2  C3  UNL     1     -40.538  15.079   7.962  1.00 20.00     0.006 C 
HETATM    3  C4  UNL     1     -42.860  15.002   8.335  1.00 20.00     0.011 C 
HETATM    4  C5  UNL     1     -42.786  14.435   6.039  1.00 20.00     0.067 C 
HETATM    5  C6  UNL     1     -42.656  15.664   6.968  1.00 20.00    -0.002 C 
HETATM    6  C7  UNL     1     -41.667  14.051   8.150  1.00 20.00    -0.006 C 
HETATM    7  C8  UNL     1     -42.013  13.319   6.808  1.00 20.00    -0.033 C 
HETATM    8  C10 UNL     1     -42.947  12.122   7.084  1.00 20.00     0.016 C 
HETATM    9  C11 UNL     1     -40.772  12.769   6.087  1.00 20.00     0.016 C 
ENDROOT
BRANCH   4  10
HETATM   10  C1  UNL     1     -42.346  14.719   4.634  1.00 20.00     0.128 C 
HETATM   11  C9  UNL     1     -42.785  16.031   4.040  1.00 20.00     0.091 C 
HETATM   12  O12 UNL     1     -41.659  13.921   3.999  1.00 20.00    -0.298 OA
ENDBRANCH   4  10
TORSDOF 1
ENDMDL
MODEL 9
REMARK VINA RESULT:      -3.0     13.255     14.737
REMARK  1 active torsions:
REMARK  status: ('A' for Active; 'I' for Inactive)
REMARK    1  A    between atoms: C1_1  and  C5_5 
ROOT
HETATM    1  C2  UNL     1     -33.681  15.032  -5.788  1.00 20.00     0.006 C 
HETATM    2  C3  UNL     1     -34.103  15.509  -7.184  1.00 20.00     0.006 C 
HETATM    3  C4  UNL     1     -36.045  15.163  -5.901  1.00 20.00     0.011 C 
HETATM    4  C5  UNL     1     -35.028  16.900  -4.659  1.00 20.00     0.067 C 
HETATM    5  C6  UNL     1     -34.898  15.380  -4.910  1.00 20.00    -0.002 C 
HETATM    6  C7  UNL     1     -35.472  16.160  -6.920  1.00 20.00    -0.006 C 
HETATM    7  C8  UNL     1     -35.335  17.474  -6.077  1.00 20.00    -0.033 C 
HETATM    8  C10 UNL     1     -36.676  18.236  -6.062  1.00 20.00     0.016 C 
HETATM    9  C11 UNL     1     -34.274  18.437  -6.635  1.00 20.00     0.016 C 
ENDROOT
BRANCH   4  10
HETATM   10  C1  UNL     1     -33.847  17.474  -3.936  1.00 20.00     0.128 C 
HETATM   11  C9  UNL     1     -33.303  16.671  -2.785  1.00 20.00     0.091 C 
HETATM   12  O12 UNL     1     -33.346  18.546  -4.268  1.00 20.00    -0.298 OA
ENDBRANCH   4  10
TORSDOF 1
ENDMDL
