MODEL 1
REMARK VINA RESULT:      -3.7      0.000      0.000
REMARK  5 active torsions:
REMARK  status: ('A' for Active; 'I' for Inactive)
REMARK    1  A    between atoms: C2_2  and  C3_3 
REMARK    2  A    between atoms: C3_3  and  N7_7 
REMARK    3  A    between atoms: C4_4  and  C5_5 
REMARK    4  A    between atoms: C4_4  and  N7_7 
REMARK    5  A    between atoms: N6_6  and  N7_7 
ROOT
HETATM    1  N7  UNL     1     -33.842   6.694   5.409  1.00 20.00    -0.205 NA
ENDROOT
BRANCH   1   2
HETATM    2  C3  UNL     1     -34.557   6.084   4.323  1.00 20.00     0.111 C 
BRANCH   2   3
HETATM    3  C2  UNL     1     -33.824   4.876   3.752  1.00 20.00     0.011 C 
HETATM    4  C1  UNL     1     -32.898   5.242   2.600  1.00 20.00     0.006 C 
ENDBRANCH   2   3
ENDBRANCH   1   2
BRANCH   1   5
HETATM    5  C4  UNL     1     -33.620   8.131   5.146  1.00 20.00     0.127 C 
BRANCH   5   6
HETATM    6  C5  UNL     1     -32.296   8.400   4.452  1.00 20.00     0.130 C 
HETATM    7 CL9  UNL     1     -32.538   8.834   2.741  1.00 20.00    -0.129 Cl
ENDBRANCH   5   6
ENDBRANCH   1   5
BRANCH   1   8
HETATM    8  N6  UNL     1     -34.379   6.520   6.614  1.00 20.00     0.030 NA
HETATM    9  O8  UNL     1     -34.861   5.386   6.719  1.00 20.00    -0.082 OA
ENDBRANCH   1   8
TORSDOF 5
ENDMDL
MODEL 2
REMARK VINA RESULT:      -3.6      1.503      2.842
REMARK  5 active torsions:
REMARK  status: ('A' for Active; 'I' for Inactive)
REMARK    1  A    between atoms: C2_2  and  C3_3 
REMARK    2  A    between atoms: C3_3  and  N7_7 
REMARK    3  A    between atoms: C4_4  and  C5_5 
REMARK    4  A    between atoms: C4_4  and  N7_7 
REMARK    5  A    between atoms: N6_6  and  N7_7 
ROOT
HETATM    1  N7  UNL     1     -34.786   6.241   5.720  1.00 20.00    -0.205 NA
ENDROOT
BRANCH   1   2
HETATM    2  C3  UNL     1     -33.682   7.128   5.961  1.00 20.00     0.111 C 
BRANCH   2   3
HETATM    3  C2  UNL     1     -33.580   8.227   4.910  1.00 20.00     0.011 C 
HETATM    4  C1  UNL     1     -32.166   8.397   4.373  1.00 20.00     0.006 C 
ENDBRANCH   2   3
ENDBRANCH   1   2
BRANCH   1   5
HETATM    5  C4  UNL     1     -34.907   5.939   4.279  1.00 20.00     0.127 C 
BRANCH   5   6
HETATM    6  C5  UNL     1     -34.042   4.764   3.854  1.00 20.00     0.130 C 
HETATM    7 CL9  UNL     1     -32.902   5.232   2.568  1.00 20.00    -0.129 Cl
ENDBRANCH   5   6
ENDBRANCH   1   5
BRANCH   1   8
HETATM    8  N6  UNL     1     -34.779   5.118   6.432  1.00 20.00     0.030 NA
HETATM    9  O8  UNL     1     -33.732   5.016   7.081  1.00 20.00    -0.082 OA
ENDBRANCH   1   8
TORSDOF 5
ENDMDL
MODEL 3
REMARK VINA RESULT:      -3.5      2.799      3.327
REMARK  5 active torsions:
REMARK  status: ('A' for Active; 'I' for Inactive)
REMARK    1  A    between atoms: C2_2  and  C3_3 
REMARK    2  A    between atoms: C3_3  and  N7_7 
REMARK    3  A    between atoms: C4_4  and  C5_5 
REMARK    4  A    between atoms: C4_4  and  N7_7 
REMARK    5  A    between atoms: N6_6  and  N7_7 
ROOT
HETATM    1  N7  UNL     1     -32.831   7.850   4.842  1.00 20.00    -0.205 NA
ENDROOT
BRANCH   1   2
HETATM    2  C3  UNL     1     -34.070   7.670   5.547  1.00 20.00     0.111 C 
BRANCH   2   3
HETATM    3  C2  UNL     1     -34.062   6.424   6.425  1.00 20.00     0.011 C 
HETATM    4  C1  UNL     1     -34.771   5.243   5.776  1.00 20.00     0.006 C 
ENDBRANCH   2   3
ENDBRANCH   1   2
BRANCH   1   5
HETATM    5  C4  UNL     1     -33.039   7.726   3.384  1.00 20.00     0.127 C 
BRANCH   5   6
HETATM    6  C5  UNL     1     -32.162   6.655   2.759  1.00 20.00     0.130 C 
HETATM    7 CL9  UNL     1     -33.021   5.099   2.647  1.00 20.00    -0.129 Cl
ENDBRANCH   5   6
ENDBRANCH   1   5
BRANCH   1   8
HETATM    8  N6  UNL     1     -32.174   8.972   5.125  1.00 20.00     0.030 NA
HETATM    9  O8  UNL     1     -32.189   9.744   4.160  1.00 20.00    -0.082 OA
ENDBRANCH   1   8
TORSDOF 5
ENDMDL
MODEL 4
REMARK VINA RESULT:      -3.5      3.034      3.662
REMARK  5 active torsions:
REMARK  status: ('A' for Active; 'I' for Inactive)
REMARK    1  A    between atoms: C2_2  and  C3_3 
REMARK    2  A    between atoms: C3_3  and  N7_7 
REMARK    3  A    between atoms: C4_4  and  C5_5 
REMARK    4  A    between atoms: C4_4  and  N7_7 
REMARK    5  A    between atoms: N6_6  and  N7_7 
ROOT
HETATM    1  N7  UNL     1     -32.914   6.611   3.919  1.00 20.00    -0.205 NA
ENDROOT
BRANCH   1   2
HETATM    2  C3  UNL     1     -32.144   7.452   3.045  1.00 20.00     0.111 C 
BRANCH   2   3
HETATM    3  C2  UNL     1     -32.673   8.880   3.000  1.00 20.00     0.011 C 
HETATM    4  C1  UNL     1     -32.825   9.406   1.579  1.00 20.00     0.006 C 
ENDBRANCH   2   3
ENDBRANCH   1   2
BRANCH   1   5
HETATM    5  C4  UNL     1     -33.845   7.419   4.733  1.00 20.00     0.127 C 
BRANCH   5   6
HETATM    6  C5  UNL     1     -33.844   7.011   6.197  1.00 20.00     0.130 C 
HETATM    7 CL9  UNL     1     -34.762   5.506   6.450  1.00 20.00    -0.129 Cl
ENDBRANCH   5   6
ENDBRANCH   1   5
BRANCH   1   8
HETATM    8  N6  UNL     1     -33.562   5.614   3.323  1.00 20.00     0.030 NA
HETATM    9  O8  UNL     1     -32.819   5.014   2.538  1.00 20.00    -0.082 OA
ENDBRANCH   1   8
TORSDOF 5
ENDMDL
MODEL 5
REMARK VINA RESULT:      -3.5      9.521     10.177
REMARK  5 active torsions:
REMARK  status: ('A' for Active; 'I' for Inactive)
REMARK    1  A    between atoms: C2_2  and  C3_3 
REMARK    2  A    between atoms: C3_3  and  N7_7 
REMARK    3  A    between atoms: C4_4  and  C5_5 
REMARK    4  A    between atoms: C4_4  and  N7_7 
REMARK    5  A    between atoms: N6_6  and  N7_7 
ROOT
HETATM    1  N7  UNL     1     -41.319  12.912   7.051  1.00 20.00    -0.205 NA
ENDROOT
BRANCH   1   2
HETATM    2  C3  UNL     1     -40.638  12.934   5.787  1.00 20.00     0.111 C 
BRANCH   2   3
HETATM    3  C2  UNL     1     -39.596  11.829   5.669  1.00 20.00     0.011 C 
HETATM    4  C1  UNL     1     -39.069  11.667   4.250  1.00 20.00     0.006 C 
ENDBRANCH   2   3
ENDBRANCH   1   2
BRANCH   1   5
HETATM    5  C4  UNL     1     -41.654  14.283   7.488  1.00 20.00     0.127 C 
BRANCH   5   6
HETATM    6  C5  UNL     1     -40.420  15.135   7.732  1.00 20.00     0.130 C 
HETATM    7 CL9  UNL     1     -40.025  15.219   9.467  1.00 20.00    -0.129 Cl
ENDBRANCH   5   6
ENDBRANCH   1   5
BRANCH   1   8
HETATM    8  N6  UNL     1     -42.396  12.132   7.104  1.00 20.00     0.030 NA
HETATM    9  O8  UNL     1     -42.915  12.176   8.225  1.00 20.00    -0.082 OA
ENDBRANCH   1   8
TORSDOF 5
ENDMDL
MODEL 6
REMARK VINA RESULT:      -3.5     12.612     13.293
REMARK  5 active torsions:
REMARK  status: ('A' for Active; 'I' for Inactive)
REMARK    1  A    between atoms: C2_2  and  C3_3 
REMARK    2  A    between atoms: C3_3  and  N7_7 
REMARK    3  A    between atoms: C4_4  and  C5_5 
REMARK    4  A    between atoms: C4_4  and  N7_7 
REMARK    5  A    between atoms: N6_6  and  N7_7 
ROOT
HETATM    1  N7  UNL     1     -35.094  14.917  -5.137  1.00 20.00    -0.205 NA
ENDROOT
BRANCH   1   2
HETATM    2  C3  UNL     1     -34.118  14.465  -4.186  1.00 20.00     0.111 C 
BRANCH   2   3
HETATM    3  C2  UNL     1     -33.056  15.520  -3.899  1.00 20.00     0.011 C 
HETATM    4  C1  UNL     1     -33.438  16.440  -2.748  1.00 20.00     0.006 C 
ENDBRANCH   2   3
ENDBRANCH   1   2
BRANCH   1   5
HETATM    5  C4  UNL     1     -34.468  15.156  -6.454  1.00 20.00     0.127 C 
BRANCH   5   6
HETATM    6  C5  UNL     1     -34.941  16.447  -7.100  1.00 20.00     0.130 C 
HETATM    7 CL9  UNL     1     -35.138  17.741  -5.891  1.00 20.00    -0.129 Cl
ENDBRANCH   5   6
ENDBRANCH   1   5
BRANCH   1   8
HETATM    8  N6  UNL     1     -36.165  14.138  -5.267  1.00 20.00     0.030 NA
HETATM    9  O8  UNL     1     -36.124  13.199  -4.463  1.00 20.00    -0.082 OA
ENDBRANCH   1   8
TORSDOF 5
ENDMDL
MODEL 7
REMARK VINA RESULT:      -3.4      2.555      3.048
REMARK  5 active torsions:
REMARK  status: ('A' for Active; 'I' for Inactive)
REMARK    1  A    between atoms: C2_2  and  C3_3 
REMARK    2  A    between atoms: C3_3  and  N7_7 
REMARK    3  A    between atoms: C4_4  and  C5_5 
REMARK    4  A    between atoms: C4_4  and  N7_7 
REMARK    5  A    between atoms: N6_6  and  N7_7 
ROOT
HETATM    1  N7  UNL     1     -33.143   7.339   3.832  1.00 20.00    -0.205 NA
ENDROOT
BRANCH   1   2
HETATM    2  C3  UNL     1     -32.948   7.478   5.248  1.00 20.00     0.111 C 
BRANCH   2   3
HETATM    3  C2  UNL     1     -34.232   7.249   6.036  1.00 20.00     0.011 C 
HETATM    4  C1  UNL     1     -34.446   5.787   6.401  1.00 20.00     0.006 C 
ENDBRANCH   2   3
ENDBRANCH   1   2
BRANCH   1   5
HETATM    5  C4  UNL     1     -32.663   8.542   3.120  1.00 20.00     0.127 C 
BRANCH   5   6
HETATM    6  C5  UNL     1     -32.173   8.232   1.716  1.00 20.00     0.130 C 
HETATM    7 CL9  UNL     1     -32.712   9.470   0.554  1.00 20.00    -0.129 Cl
ENDBRANCH   5   6
ENDBRANCH   1   5
BRANCH   1   8
HETATM    8  N6  UNL     1     -32.625   6.240   3.291  1.00 20.00     0.030 NA
HETATM    9  O8  UNL     1     -33.488   5.364   3.165  1.00 20.00    -0.082 OA
ENDBRANCH   1   8
TORSDOF 5
ENDMDL
MODEL 8
REMARK VINA RESULT:      -3.4      2.116      2.533
REMARK  5 active torsions:
REMARK  status: ('A' for Active; 'I' for Inactive)
REMARK    1  A    between atoms: C2_2  and  C3_3 
REMARK    2  A    between atoms: C3_3  and  N7_7 
REMARK    3  A    between atoms: C4_4  and  C5_5 
REMARK    4  A    between atoms: C4_4  and  N7_7 
REMARK    5  A    between atoms: N6_6  and  N7_7 
ROOT
HETATM    1  N7  UNL     1     -32.936   7.168   4.403  1.00 20.00    -0.205 NA
ENDROOT
BRANCH   1   2
HETATM    2  C3  UNL     1     -34.305   6.750   4.291  1.00 20.00     0.111 C 
BRANCH   2   3
HETATM    3  C2  UNL     1     -34.532   5.349   4.848  1.00 20.00     0.011 C 
HETATM    4  C1  UNL     1     -34.554   5.319   6.370  1.00 20.00     0.006 C 
ENDBRANCH   2   3
ENDBRANCH   1   2
BRANCH   1   5
HETATM    5  C4  UNL     1     -32.317   7.290   3.067  1.00 20.00     0.127 C 
BRANCH   5   6
HETATM    6  C5  UNL     1     -32.503   8.670   2.461  1.00 20.00     0.130 C 
HETATM    7 CL9  UNL     1     -32.308   8.631   0.690  1.00 20.00    -0.129 Cl
ENDBRANCH   5   6
ENDBRANCH   1   5
BRANCH   1   8
HETATM    8  N6  UNL     1     -32.736   8.277   5.111  1.00 20.00     0.030 NA
HETATM    9  O8  UNL     1     -33.792   8.668   5.622  1.00 20.00    -0.082 OA
ENDBRANCH   1   8
TORSDOF 5
ENDMDL
MODEL 9
REMARK VINA RESULT:      -3.4      2.975      3.733
REMARK  5 active torsions:
REMARK  status: ('A' for Active; 'I' for Inactive)
REMARK    1  A    between atoms: C2_2  and  C3_3 
REMARK    2  A    between atoms: C3_3  and  N7_7 
REMARK    3  A    between atoms: C4_4  and  C5_5 
REMARK    4  A    between atoms: C4_4  and  N7_7 
REMARK    5  A    between atoms: N6_6  and  N7_7 
ROOT
HETATM    1  N7  UNL     1     -33.253   7.508   3.904  1.00 20.00    -0.205 NA
ENDROOT
BRANCH   1   2
HETATM    2  C3  UNL     1     -32.030   7.603   3.156  1.00 20.00     0.111 C 
BRANCH   2   3
HETATM    3  C2  UNL     1     -32.268   7.976   1.698  1.00 20.00     0.011 C 
HETATM    4  C1  UNL     1     -32.816   9.387   1.535  1.00 20.00     0.006 C 
ENDBRANCH   2   3
ENDBRANCH   1   2
BRANCH   1   5
HETATM    5  C4  UNL     1     -33.657   6.095   4.065  1.00 20.00     0.127 C 
BRANCH   5   6
HETATM    6  C5  UNL     1     -34.974   5.946   4.807  1.00 20.00     0.130 C 
HETATM    7 CL9  UNL     1     -34.720   5.337   6.462  1.00 20.00    -0.129 Cl
ENDBRANCH   5   6
ENDBRANCH   1   5
BRANCH   1   8
HETATM    8  N6  UNL     1     -33.250   8.128   5.081  1.00 20.00     0.030 NA
HETATM    9  O8  UNL     1     -32.376   9.002   5.113  1.00 20.00    -0.082 OA
ENDBRANCH   1   8
TORSDOF 5
ENDMDL
