MODEL 1
REMARK VINA RESULT:      -4.6      0.000      0.000
REMARK  2 active torsions:
REMARK  status: ('A' for Active; 'I' for Inactive)
REMARK    1  A    between atoms: C6_6  and  C8_8 
REMARK    2  A    between atoms: C8_8  and  O9_9 
ROOT
HETATM    1  C1  UNL     1     -34.000   4.921   3.513  1.00 20.00    -0.030 C 
HETATM    2  C2  UNL     1     -32.941   5.642   3.119  1.00 20.00    -0.030 C 
HETATM    3  C3  UNL     1     -34.969   5.388   4.559  1.00 20.00     0.031 C 
HETATM    4  C4  UNL     1     -32.626   7.004   3.663  1.00 20.00     0.034 C 
HETATM    5  C5  UNL     1     -34.456   6.577   5.400  1.00 20.00    -0.009 C 
HETATM    6  C6  UNL     1     -33.788   7.618   4.468  1.00 20.00     0.016 C 
HETATM    7  C7  UNL     1     -33.539   6.087   6.529  1.00 20.00     0.011 C 
ENDROOT
BRANCH   6   8
HETATM    8  C8  UNL     1     -33.326   8.875   5.205  1.00 20.00     0.169 C 
BRANCH   8   9
HETATM    9  O9  UNL     1     -31.914   8.933   5.150  1.00 20.00    -0.400 OA
HETATM   10  H23 UNL     1     -31.590   8.890   6.067  1.00 20.00     0.209 HD
ENDBRANCH   8   9
ENDBRANCH   6   8
TORSDOF 2
ENDMDL
MODEL 2
REMARK VINA RESULT:      -4.5      1.567      2.927
REMARK  2 active torsions:
REMARK  status: ('A' for Active; 'I' for Inactive)
REMARK    1  A    between atoms: C6_6  and  C8_8 
REMARK    2  A    between atoms: C8_8  and  O9_9 
ROOT
HETATM    1  C1  UNL     1     -34.269   6.921   6.721  1.00 20.00    -0.030 C 
HETATM    2  C2  UNL     1     -33.661   7.823   5.939  1.00 20.00    -0.030 C 
HETATM    3  C3  UNL     1     -34.602   5.531   6.266  1.00 20.00     0.031 C 
HETATM    4  C4  UNL     1     -33.224   7.532   4.534  1.00 20.00     0.034 C 
HETATM    5  C5  UNL     1     -34.528   5.340   4.735  1.00 20.00    -0.009 C 
HETATM    6  C6  UNL     1     -33.254   6.030   4.190  1.00 20.00     0.016 C 
HETATM    7  C7  UNL     1     -35.822   5.823   4.065  1.00 20.00     0.011 C 
ENDROOT
BRANCH   6   8
HETATM    8  C8  UNL     1     -33.050   5.817   2.690  1.00 20.00     0.169 C 
BRANCH   8   9
HETATM    9  O9  UNL     1     -32.291   6.898   2.184  1.00 20.00    -0.400 OA
HETATM   10  H23 UNL     1     -31.353   6.658   2.276  1.00 20.00     0.209 HD
ENDBRANCH   8   9
ENDBRANCH   6   8
TORSDOF 2
ENDMDL
MODEL 3
REMARK VINA RESULT:      -4.3      2.031      3.072
REMARK  2 active torsions:
REMARK  status: ('A' for Active; 'I' for Inactive)
REMARK    1  A    between atoms: C6_6  and  C8_8 
REMARK    2  A    between atoms: C8_8  and  O9_9 
ROOT
HETATM    1  C1  UNL     1     -32.120   7.270   2.959  1.00 20.00    -0.030 C 
HETATM    2  C2  UNL     1     -32.919   6.204   2.811  1.00 20.00    -0.030 C 
HETATM    3  C3  UNL     1     -32.043   8.069   4.227  1.00 20.00     0.031 C 
HETATM    4  C4  UNL     1     -33.801   5.679   3.905  1.00 20.00     0.034 C 
HETATM    5  C5  UNL     1     -33.205   7.800   5.207  1.00 20.00    -0.009 C 
HETATM    6  C6  UNL     1     -33.472   6.277   5.287  1.00 20.00     0.016 C 
HETATM    7  C7  UNL     1     -34.443   8.619   4.818  1.00 20.00     0.011 C 
ENDROOT
BRANCH   6   8
HETATM    8  C8  UNL     1     -34.551   5.908   6.304  1.00 20.00     0.169 C 
BRANCH   8   9
HETATM    9  O9  UNL     1     -35.295   4.819   5.792  1.00 20.00    -0.400 OA
HETATM   10  H23 UNL     1     -36.219   4.947   6.069  1.00 20.00     0.209 HD
ENDBRANCH   8   9
ENDBRANCH   6   8
TORSDOF 2
ENDMDL
MODEL 4
REMARK VINA RESULT:      -4.0     15.513     16.555
REMARK  2 active torsions:
REMARK  status: ('A' for Active; 'I' for Inactive)
REMARK    1  A    between atoms: C6_6  and  C8_8 
REMARK    2  A    between atoms: C8_8  and  O9_9 
ROOT
HETATM    1  C1  UNL     1     -23.496  17.831  12.320  1.00 20.00    -0.030 C 
HETATM    2  C2  UNL     1     -22.316  18.406  12.050  1.00 20.00    -0.030 C 
HETATM    3  C3  UNL     1     -24.408  17.288  11.260  1.00 20.00     0.031 C 
HETATM    4  C4  UNL     1     -21.768  18.544  10.661  1.00 20.00     0.034 C 
HETATM    5  C5  UNL     1     -24.061  17.767   9.833  1.00 20.00    -0.009 C 
HETATM    6  C6  UNL     1     -22.529  17.696   9.622  1.00 20.00     0.016 C 
HETATM    7  C7  UNL     1     -24.653  19.158   9.569  1.00 20.00     0.011 C 
ENDROOT
BRANCH   6   8
HETATM    8  C8  UNL     1     -22.099  18.068   8.204  1.00 20.00     0.169 C 
BRANCH   8   9
HETATM    9  O9  UNL     1     -21.756  16.881   7.514  1.00 20.00    -0.400 OA
HETATM   10  H23 UNL     1     -22.436  16.219   7.729  1.00 20.00     0.209 HD
ENDBRANCH   8   9
ENDBRANCH   6   8
TORSDOF 2
ENDMDL
MODEL 5
REMARK VINA RESULT:      -3.9      1.953      3.423
REMARK  2 active torsions:
REMARK  status: ('A' for Active; 'I' for Inactive)
REMARK    1  A    between atoms: C6_6  and  C8_8 
REMARK    2  A    between atoms: C8_8  and  O9_9 
ROOT
HETATM    1  C1  UNL     1     -32.173   8.469   4.077  1.00 20.00    -0.030 C 
HETATM    2  C2  UNL     1     -32.544   8.170   5.330  1.00 20.00    -0.030 C 
HETATM    3  C3  UNL     1     -32.761   7.807   2.866  1.00 20.00     0.031 C 
HETATM    4  C4  UNL     1     -33.605   7.161   5.654  1.00 20.00     0.034 C 
HETATM    5  C5  UNL     1     -33.545   6.514   3.179  1.00 20.00    -0.009 C 
HETATM    6  C6  UNL     1     -34.435   6.739   4.425  1.00 20.00     0.016 C 
HETATM    7  C7  UNL     1     -32.590   5.320   3.315  1.00 20.00     0.011 C 
ENDROOT
BRANCH   6   8
HETATM    8  C8  UNL     1     -35.318   5.537   4.759  1.00 20.00     0.169 C 
BRANCH   8   9
HETATM    9  O9  UNL     1     -35.121   5.201   6.119  1.00 20.00    -0.400 OA
HETATM   10  H23 UNL     1     -34.192   4.927   6.215  1.00 20.00     0.209 HD
ENDBRANCH   8   9
ENDBRANCH   6   8
TORSDOF 2
ENDMDL
MODEL 6
REMARK VINA RESULT:      -3.6     15.640     16.582
REMARK  2 active torsions:
REMARK  status: ('A' for Active; 'I' for Inactive)
REMARK    1  A    between atoms: C6_6  and  C8_8 
REMARK    2  A    between atoms: C8_8  and  O9_9 
ROOT
HETATM    1  C1  UNL     1     -22.873  18.212  12.329  1.00 20.00    -0.030 C 
HETATM    2  C2  UNL     1     -24.209  18.211  12.222  1.00 20.00    -0.030 C 
HETATM    3  C3  UNL     1     -21.958  18.520  11.181  1.00 20.00     0.031 C 
HETATM    4  C4  UNL     1     -24.933  18.543  10.952  1.00 20.00     0.034 C 
HETATM    5  C5  UNL     1     -22.649  18.472   9.801  1.00 20.00    -0.009 C 
HETATM    6  C6  UNL     1     -24.022  19.183   9.886  1.00 20.00     0.016 C 
HETATM    7  C7  UNL     1     -22.736  17.029   9.287  1.00 20.00     0.011 C 
ENDROOT
BRANCH   6   8
HETATM    8  C8  UNL     1     -24.742  19.263   8.540  1.00 20.00     0.169 C 
BRANCH   8   9
HETATM    9  O9  UNL     1     -26.137  19.248   8.777  1.00 20.00    -0.400 OA
HETATM   10  H23 UNL     1     -26.474  20.134   8.559  1.00 20.00     0.209 HD
ENDBRANCH   8   9
ENDBRANCH   6   8
TORSDOF 2
ENDMDL
MODEL 7
REMARK VINA RESULT:      -3.5     12.525     13.772
REMARK  2 active torsions:
REMARK  status: ('A' for Active; 'I' for Inactive)
REMARK    1  A    between atoms: C6_6  and  C8_8 
REMARK    2  A    between atoms: C8_8  and  O9_9 
ROOT
HETATM    1  C1  UNL     1     -34.044  17.722  -2.268  1.00 20.00    -0.030 C 
HETATM    2  C2  UNL     1     -33.205  16.705  -2.511  1.00 20.00    -0.030 C 
HETATM    3  C3  UNL     1     -35.122  18.144  -3.223  1.00 20.00     0.031 C 
HETATM    4  C4  UNL     1     -33.270  15.864  -3.751  1.00 20.00     0.034 C 
HETATM    5  C5  UNL     1     -34.956  17.569  -4.646  1.00 20.00    -0.009 C 
HETATM    6  C6  UNL     1     -34.568  16.072  -4.557  1.00 20.00     0.016 C 
HETATM    7  C7  UNL     1     -33.965  18.411  -5.460  1.00 20.00     0.011 C 
ENDROOT
BRANCH   6   8
HETATM    8  C8  UNL     1     -34.469  15.394  -5.923  1.00 20.00     0.169 C 
BRANCH   8   9
HETATM    9  O9  UNL     1     -33.229  14.716  -5.997  1.00 20.00    -0.400 OA
HETATM   10  H23 UNL     1     -33.410  13.825  -6.343  1.00 20.00     0.209 HD
ENDBRANCH   8   9
ENDBRANCH   6   8
TORSDOF 2
ENDMDL
MODEL 8
REMARK VINA RESULT:      -3.5      8.957      9.699
REMARK  2 active torsions:
REMARK  status: ('A' for Active; 'I' for Inactive)
REMARK    1  A    between atoms: C6_6  and  C8_8 
REMARK    2  A    between atoms: C8_8  and  O9_9 
ROOT
HETATM    1  C1  UNL     1     -43.144   5.331   2.204  1.00 20.00    -0.030 C 
HETATM    2  C2  UNL     1     -43.417   6.635   2.062  1.00 20.00    -0.030 C 
HETATM    3  C3  UNL     1     -42.080   4.624   1.418  1.00 20.00     0.031 C 
HETATM    4  C4  UNL     1     -42.671   7.534   1.121  1.00 20.00     0.034 C 
HETATM    5  C5  UNL     1     -41.583   5.414   0.188  1.00 20.00    -0.009 C 
HETATM    6  C6  UNL     1     -41.376   6.899   0.576  1.00 20.00     0.016 C 
HETATM    7  C7  UNL     1     -42.532   5.218  -1.003  1.00 20.00     0.011 C 
ENDROOT
BRANCH   6   8
HETATM    8  C8  UNL     1     -40.799   7.743  -0.560  1.00 20.00     0.169 C 
BRANCH   8   9
HETATM    9  O9  UNL     1     -40.427   9.003  -0.036  1.00 20.00    -0.400 OA
HETATM   10  H23 UNL     1     -39.459   8.997   0.064  1.00 20.00     0.209 HD
ENDBRANCH   8   9
ENDBRANCH   6   8
TORSDOF 2
ENDMDL
MODEL 9
REMARK VINA RESULT:      -3.3      9.730     10.872
REMARK  2 active torsions:
REMARK  status: ('A' for Active; 'I' for Inactive)
REMARK    1  A    between atoms: C6_6  and  C8_8 
REMARK    2  A    between atoms: C8_8  and  O9_9 
ROOT
HETATM    1  C1  UNL     1     -42.915  15.191   5.812  1.00 20.00    -0.030 C 
HETATM    2  C2  UNL     1     -42.378  14.689   4.691  1.00 20.00    -0.030 C 
HETATM    3  C3  UNL     1     -42.565  14.696   7.184  1.00 20.00     0.031 C 
HETATM    4  C4  UNL     1     -41.350  13.597   4.690  1.00 20.00     0.034 C 
HETATM    5  C5  UNL     1     -41.831  13.337   7.189  1.00 20.00    -0.009 C 
HETATM    6  C6  UNL     1     -40.747  13.331   6.084  1.00 20.00     0.016 C 
HETATM    7  C7  UNL     1     -42.832  12.179   7.074  1.00 20.00     0.011 C 
ENDROOT
BRANCH   6   8
HETATM    8  C8  UNL     1     -39.907  12.055   6.072  1.00 20.00     0.169 C 
BRANCH   8   9
HETATM    9  O9  UNL     1     -38.933  12.150   7.094  1.00 20.00    -0.400 OA
HETATM   10  H23 UNL     1     -38.114  11.759   6.746  1.00 20.00     0.209 HD
ENDBRANCH   8   9
ENDBRANCH   6   8
TORSDOF 2
ENDMDL
