MODEL 1
REMARK VINA RESULT:      -4.0      0.000      0.000
REMARK  2 active torsions:
REMARK  status: ('A' for Active; 'I' for Inactive)
REMARK    1  A    between atoms: C1_1  and  O5_5 
REMARK    2  A    between atoms: C3_3  and  O5_5 
ROOT
HETATM    1  O5  UNL     1     -34.226   6.423   4.230  1.00 20.00    -0.288 OA
ENDROOT
BRANCH   1   2
HETATM    2  C1  UNL     1     -34.366   5.236   4.902  1.00 20.00     0.359 C 
HETATM    3  O4  UNL     1     -34.222   4.138   4.372  1.00 20.00    -0.245 OA
HETATM    4 CL6  UNL     1     -34.771   5.470   6.582  1.00 20.00    -0.012 Cl
ENDBRANCH   1   2
BRANCH   1   5
HETATM    5  C3  UNL     1     -33.042   7.199   4.482  1.00 20.00     0.224 C 
HETATM    6  C2  UNL     1     -33.414   8.532   5.110  1.00 20.00     0.057 C 
HETATM    7 CL7  UNL     1     -32.233   7.481   2.917  1.00 20.00    -0.095 Cl
ENDBRANCH   1   5
TORSDOF 2
ENDMDL
MODEL 2
REMARK VINA RESULT:      -4.0      1.756      1.906
REMARK  2 active torsions:
REMARK  status: ('A' for Active; 'I' for Inactive)
REMARK    1  A    between atoms: C1_1  and  O5_5 
REMARK    2  A    between atoms: C3_3  and  O5_5 
ROOT
HETATM    1  O5  UNL     1     -33.432   6.312   4.014  1.00 20.00    -0.288 OA
ENDROOT
BRANCH   1   2
HETATM    2  C1  UNL     1     -34.369   5.339   4.253  1.00 20.00     0.359 C 
HETATM    3  O4  UNL     1     -34.085   4.164   4.463  1.00 20.00    -0.245 OA
HETATM    4 CL6  UNL     1     -35.996   5.967   4.223  1.00 20.00    -0.012 Cl
ENDBRANCH   1   2
BRANCH   1   5
HETATM    5  C3  UNL     1     -33.550   7.548   4.739  1.00 20.00     0.224 C 
HETATM    6  C2  UNL     1     -32.308   8.398   4.529  1.00 20.00     0.057 C 
HETATM    7 CL7  UNL     1     -33.718   7.151   6.470  1.00 20.00    -0.095 Cl
ENDBRANCH   1   5
TORSDOF 2
ENDMDL
MODEL 3
REMARK VINA RESULT:      -3.9      1.979      2.172
REMARK  2 active torsions:
REMARK  status: ('A' for Active; 'I' for Inactive)
REMARK    1  A    between atoms: C1_1  and  O5_5 
REMARK    2  A    between atoms: C3_3  and  O5_5 
ROOT
HETATM    1  O5  UNL     1     -34.099   6.544   4.317  1.00 20.00    -0.288 OA
ENDROOT
BRANCH   1   2
HETATM    2  C1  UNL     1     -33.891   5.240   3.947  1.00 20.00     0.359 C 
HETATM    3  O4  UNL     1     -34.388   4.283   4.531  1.00 20.00    -0.245 OA
HETATM    4 CL6  UNL     1     -32.843   5.106   2.558  1.00 20.00    -0.012 Cl
ENDBRANCH   1   2
BRANCH   1   5
HETATM    5  C3  UNL     1     -33.329   7.059   5.417  1.00 20.00     0.224 C 
HETATM    6  C2  UNL     1     -34.197   7.161   6.660  1.00 20.00     0.057 C 
HETATM    7 CL7  UNL     1     -32.746   8.682   4.960  1.00 20.00    -0.095 Cl
ENDBRANCH   1   5
TORSDOF 2
ENDMDL
MODEL 4
REMARK VINA RESULT:      -3.9      1.712      3.820
REMARK  2 active torsions:
REMARK  status: ('A' for Active; 'I' for Inactive)
REMARK    1  A    between atoms: C1_1  and  O5_5 
REMARK    2  A    between atoms: C3_3  and  O5_5 
ROOT
HETATM    1  O5  UNL     1     -34.015   7.796   4.588  1.00 20.00    -0.288 OA
ENDROOT
BRANCH   1   2
HETATM    2  C1  UNL     1     -32.754   8.230   4.271  1.00 20.00     0.359 C 
HETATM    3  O4  UNL     1     -32.155   9.090   4.909  1.00 20.00    -0.245 OA
HETATM    4 CL6  UNL     1     -32.109   7.422   2.866  1.00 20.00    -0.012 Cl
ENDBRANCH   1   2
BRANCH   1   5
HETATM    5  C3  UNL     1     -34.169   6.424   4.993  1.00 20.00     0.224 C 
HETATM    6  C2  UNL     1     -35.426   5.835   4.374  1.00 20.00     0.057 C 
HETATM    7 CL7  UNL     1     -34.308   6.395   6.771  1.00 20.00    -0.095 Cl
ENDBRANCH   1   5
TORSDOF 2
ENDMDL
MODEL 5
REMARK VINA RESULT:      -3.9      1.618      1.689
REMARK  2 active torsions:
REMARK  status: ('A' for Active; 'I' for Inactive)
REMARK    1  A    between atoms: C1_1  and  O5_5 
REMARK    2  A    between atoms: C3_3  and  O5_5 
ROOT
HETATM    1  O5  UNL     1     -34.021   7.319   4.537  1.00 20.00    -0.288 OA
ENDROOT
BRANCH   1   2
HETATM    2  C1  UNL     1     -34.360   6.398   5.495  1.00 20.00     0.359 C 
HETATM    3  O4  UNL     1     -34.453   6.667   6.688  1.00 20.00    -0.245 OA
HETATM    4 CL6  UNL     1     -34.640   4.814   4.821  1.00 20.00    -0.012 Cl
ENDBRANCH   1   2
BRANCH   1   5
HETATM    5  C3  UNL     1     -32.626   7.620   4.361  1.00 20.00     0.224 C 
HETATM    6  C2  UNL     1     -32.336   9.040   4.818  1.00 20.00     0.057 C 
HETATM    7 CL7  UNL     1     -32.251   7.462   2.624  1.00 20.00    -0.095 Cl
ENDBRANCH   1   5
TORSDOF 2
ENDMDL
MODEL 6
REMARK VINA RESULT:      -3.8      2.033      3.366
REMARK  2 active torsions:
REMARK  status: ('A' for Active; 'I' for Inactive)
REMARK    1  A    between atoms: C1_1  and  O5_5 
REMARK    2  A    between atoms: C3_3  and  O5_5 
ROOT
HETATM    1  O5  UNL     1     -33.108   6.600   4.216  1.00 20.00    -0.288 OA
ENDROOT
BRANCH   1   2
HETATM    2  C1  UNL     1     -32.481   7.651   3.597  1.00 20.00     0.359 C 
HETATM    3  O4  UNL     1     -32.141   7.636   2.419  1.00 20.00    -0.245 OA
HETATM    4 CL6  UNL     1     -32.229   8.998   4.676  1.00 20.00    -0.012 Cl
ENDBRANCH   1   2
BRANCH   1   5
HETATM    5  C3  UNL     1     -34.290   6.883   4.984  1.00 20.00     0.224 C 
HETATM    6  C2  UNL     1     -34.023   6.647   6.461  1.00 20.00     0.057 C 
HETATM    7 CL7  UNL     1     -35.578   5.782   4.426  1.00 20.00    -0.095 Cl
ENDBRANCH   1   5
TORSDOF 2
ENDMDL
MODEL 7
REMARK VINA RESULT:      -3.8      1.922      3.722
REMARK  2 active torsions:
REMARK  status: ('A' for Active; 'I' for Inactive)
REMARK    1  A    between atoms: C1_1  and  O5_5 
REMARK    2  A    between atoms: C3_3  and  O5_5 
ROOT
HETATM    1  O5  UNL     1     -33.080   6.804   4.164  1.00 20.00    -0.288 OA
ENDROOT
BRANCH   1   2
HETATM    2  C1  UNL     1     -32.483   7.931   3.660  1.00 20.00     0.359 C 
HETATM    3  O4  UNL     1     -32.218   8.917   4.339  1.00 20.00    -0.245 OA
HETATM    4 CL6  UNL     1     -32.150   7.795   1.953  1.00 20.00    -0.012 Cl
ENDBRANCH   1   2
BRANCH   1   5
HETATM    5  C3  UNL     1     -34.258   6.973   4.971  1.00 20.00     0.224 C 
HETATM    6  C2  UNL     1     -33.918   6.778   6.439  1.00 20.00     0.057 C 
HETATM    7 CL7  UNL     1     -35.447   5.744   4.463  1.00 20.00    -0.095 Cl
ENDBRANCH   1   5
TORSDOF 2
ENDMDL
MODEL 8
REMARK VINA RESULT:      -3.7      1.610      1.790
REMARK  2 active torsions:
REMARK  status: ('A' for Active; 'I' for Inactive)
REMARK    1  A    between atoms: C1_1  and  O5_5 
REMARK    2  A    between atoms: C3_3  and  O5_5 
ROOT
HETATM    1  O5  UNL     1     -33.605   6.190   4.191  1.00 20.00    -0.288 OA
ENDROOT
BRANCH   1   2
HETATM    2  C1  UNL     1     -34.758   5.818   4.833  1.00 20.00     0.359 C 
HETATM    3  O4  UNL     1     -35.872   5.902   4.326  1.00 20.00    -0.245 OA
HETATM    4 CL6  UNL     1     -34.454   5.219   6.443  1.00 20.00    -0.012 Cl
ENDBRANCH   1   2
BRANCH   1   5
HETATM    5  C3  UNL     1     -33.367   7.595   4.000  1.00 20.00     0.224 C 
HETATM    6  C2  UNL     1     -31.942   7.824   3.526  1.00 20.00     0.057 C 
HETATM    7 CL7  UNL     1     -33.614   8.406   5.569  1.00 20.00    -0.095 Cl
ENDBRANCH   1   5
TORSDOF 2
ENDMDL
MODEL 9
REMARK VINA RESULT:      -3.6      1.916      3.465
REMARK  2 active torsions:
REMARK  status: ('A' for Active; 'I' for Inactive)
REMARK    1  A    between atoms: C1_1  and  O5_5 
REMARK    2  A    between atoms: C3_3  and  O5_5 
ROOT
HETATM    1  O5  UNL     1     -33.468   6.935   4.305  1.00 20.00    -0.288 OA
ENDROOT
BRANCH   1   2
HETATM    2  C1  UNL     1     -32.724   6.738   3.169  1.00 20.00     0.359 C 
HETATM    3  O4  UNL     1     -32.084   7.627   2.618  1.00 20.00    -0.245 OA
HETATM    4 CL6  UNL     1     -32.798   5.088   2.608  1.00 20.00    -0.012 Cl
ENDBRANCH   1   2
BRANCH   1   5
HETATM    5  C3  UNL     1     -34.276   5.842   4.774  1.00 20.00     0.224 C 
HETATM    6  C2  UNL     1     -35.710   6.011   4.302  1.00 20.00     0.057 C 
HETATM    7 CL7  UNL     1     -34.228   5.856   6.557  1.00 20.00    -0.095 Cl
ENDBRANCH   1   5
TORSDOF 2
ENDMDL
