MODEL 1
REMARK VINA RESULT:      -4.0      0.000      0.000
REMARK  2 active torsions:
REMARK  status: ('A' for Active; 'I' for Inactive)
REMARK    1  A    between atoms: C3_3  and  C7_7 
REMARK    2  A    between atoms: C4_4  and  C8_8 
ROOT
HETATM    1  C5  UNL     1     -32.198   6.511   2.419  1.00 20.00     0.014 C 
HETATM    2  C6  UNL     1     -33.466   5.894   3.006  1.00 20.00     0.037 C 
HETATM    3  C7  UNL     1     -32.021   7.974   2.853  1.00 20.00     0.036 C 
HETATM    4  C8  UNL     1     -33.531   6.126   4.516  1.00 20.00     0.144 C 
HETATM    5  C9  UNL     1     -32.177   8.083   4.384  1.00 20.00     0.126 C 
HETATM    6  C10 UNL     1     -32.101   9.515   4.904  1.00 20.00     0.040 C 
HETATM    7  O11 UNL     1     -33.425   7.522   4.811  1.00 20.00    -0.377 OA
ENDROOT
BRANCH   3   8
HETATM    8  C3  UNL     1     -32.971   8.857   2.092  1.00 20.00    -0.030 C 
HETATM    9  C1  UNL     1     -32.721   9.350   0.875  1.00 20.00     0.007 C 
ENDBRANCH   3   8
BRANCH   4  10
HETATM   10  C4  UNL     1     -34.823   5.630   5.076  1.00 20.00    -0.005 C 
HETATM   11  C2  UNL     1     -35.015   5.335   6.366  1.00 20.00     0.009 C 
ENDBRANCH   4  10
TORSDOF 2
ENDMDL
MODEL 2
REMARK VINA RESULT:      -3.8     10.558     11.530
REMARK  2 active torsions:
REMARK  status: ('A' for Active; 'I' for Inactive)
REMARK    1  A    between atoms: C3_3  and  C7_7 
REMARK    2  A    between atoms: C4_4  and  C8_8 
ROOT
HETATM    1  C5  UNL     1     -40.562  14.979   7.218  1.00 20.00     0.014 C 
HETATM    2  C6  UNL     1     -40.204  14.798   8.692  1.00 20.00     0.037 C 
HETATM    3  C7  UNL     1     -41.277  13.745   6.648  1.00 20.00     0.036 C 
HETATM    4  C8  UNL     1     -41.424  14.338   9.491  1.00 20.00     0.144 C 
HETATM    5  C9  UNL     1     -42.439  13.343   7.579  1.00 20.00     0.126 C 
HETATM    6  C10 UNL     1     -43.161  12.073   7.141  1.00 20.00     0.040 C 
HETATM    7  O11 UNL     1     -41.975  13.147   8.921  1.00 20.00    -0.377 OA
ENDROOT
BRANCH   3   8
HETATM    8  C3  UNL     1     -40.288  12.636   6.416  1.00 20.00    -0.030 C 
HETATM    9  C1  UNL     1     -39.940  12.186   5.206  1.00 20.00     0.007 C 
ENDBRANCH   3   8
BRANCH   4  10
HETATM   10  C4  UNL     1     -41.053  14.045  10.907  1.00 20.00    -0.005 C 
HETATM   11  C2  UNL     1     -40.242  14.813  11.642  1.00 20.00     0.009 C 
ENDBRANCH   4  10
TORSDOF 2
ENDMDL
MODEL 3
REMARK VINA RESULT:      -3.8      1.173      4.509
REMARK  2 active torsions:
REMARK  status: ('A' for Active; 'I' for Inactive)
REMARK    1  A    between atoms: C3_3  and  C7_7 
REMARK    2  A    between atoms: C4_4  and  C8_8 
ROOT
HETATM    1  C5  UNL     1     -32.532   8.172   4.882  1.00 20.00     0.014 C 
HETATM    2  C6  UNL     1     -32.881   9.174   3.782  1.00 20.00     0.037 C 
HETATM    3  C7  UNL     1     -32.955   6.744   4.509  1.00 20.00     0.036 C 
HETATM    4  C8  UNL     1     -32.367   8.687   2.426  1.00 20.00     0.144 C 
HETATM    5  C9  UNL     1     -32.436   6.402   3.096  1.00 20.00     0.126 C 
HETATM    6  C10 UNL     1     -32.878   5.029   2.600  1.00 20.00     0.040 C 
HETATM    7  O11 UNL     1     -32.870   7.378   2.142  1.00 20.00    -0.377 OA
ENDROOT
BRANCH   3   8
HETATM    8  C3  UNL     1     -34.444   6.592   4.649  1.00 20.00    -0.030 C 
HETATM    9  C1  UNL     1     -35.033   5.745   5.500  1.00 20.00     0.007 C 
ENDBRANCH   3   8
BRANCH   4  10
HETATM   10  C4  UNL     1     -32.807   9.601   1.331  1.00 20.00    -0.005 C 
HETATM   11  C2  UNL     1     -32.839   9.260   0.039  1.00 20.00     0.009 C 
ENDBRANCH   4  10
TORSDOF 2
ENDMDL
MODEL 4
REMARK VINA RESULT:      -3.8     11.212     12.591
REMARK  2 active torsions:
REMARK  status: ('A' for Active; 'I' for Inactive)
REMARK    1  A    between atoms: C3_3  and  C7_7 
REMARK    2  A    between atoms: C4_4  and  C8_8 
ROOT
HETATM    1  C5  UNL     1     -33.401  14.895  -4.766  1.00 20.00     0.014 C 
HETATM    2  C6  UNL     1     -33.502  15.673  -3.455  1.00 20.00     0.037 C 
HETATM    3  C7  UNL     1     -34.496  15.307  -5.761  1.00 20.00     0.036 C 
HETATM    4  C8  UNL     1     -33.591  17.176  -3.724  1.00 20.00     0.144 C 
HETATM    5  C9  UNL     1     -34.527  16.845  -5.890  1.00 20.00     0.126 C 
HETATM    6  C10 UNL     1     -35.642  17.358  -6.796  1.00 20.00     0.040 C 
HETATM    7  O11 UNL     1     -34.680  17.463  -4.606  1.00 20.00    -0.377 OA
ENDROOT
BRANCH   3   8
HETATM    8  C3  UNL     1     -35.816  14.717  -5.351  1.00 20.00    -0.030 C 
HETATM    9  C1  UNL     1     -35.944  13.575  -4.667  1.00 20.00     0.007 C 
ENDBRANCH   3   8
BRANCH   4  10
HETATM   10  C4  UNL     1     -33.810  17.932  -2.456  1.00 20.00    -0.005 C 
HETATM   11  C2  UNL     1     -33.653  17.408  -1.236  1.00 20.00     0.009 C 
ENDBRANCH   4  10
TORSDOF 2
ENDMDL
MODEL 5
REMARK VINA RESULT:      -3.6     10.284     11.154
REMARK  2 active torsions:
REMARK  status: ('A' for Active; 'I' for Inactive)
REMARK    1  A    between atoms: C3_3  and  C7_7 
REMARK    2  A    between atoms: C4_4  and  C8_8 
ROOT
HETATM    1  C5  UNL     1     -41.686  13.873   7.650  1.00 20.00     0.014 C 
HETATM    2  C6  UNL     1     -40.370  13.251   7.186  1.00 20.00     0.037 C 
HETATM    3  C7  UNL     1     -42.312  14.761   6.565  1.00 20.00     0.036 C 
HETATM    4  C8  UNL     1     -40.543  12.575   5.825  1.00 20.00     0.144 C 
HETATM    5  C9  UNL     1     -42.365  13.989   5.230  1.00 20.00     0.126 C 
HETATM    6  C10 UNL     1     -42.896  14.820   4.066  1.00 20.00     0.040 C 
HETATM    7  O11 UNL     1     -41.066  13.501   4.869  1.00 20.00    -0.377 OA
ENDROOT
BRANCH   3   8
HETATM    8  C3  UNL     1     -41.568  16.064   6.471  1.00 20.00    -0.030 C 
HETATM    9  C1  UNL     1     -41.240  16.816   7.527  1.00 20.00     0.007 C 
ENDBRANCH   3   8
BRANCH   4  10
HETATM   10  C4  UNL     1     -39.235  12.070   5.312  1.00 20.00    -0.005 C 
HETATM   11  C2  UNL     1     -39.019  11.705   4.044  1.00 20.00     0.009 C 
ENDBRANCH   4  10
TORSDOF 2
ENDMDL
MODEL 6
REMARK VINA RESULT:      -3.5     11.441     12.688
REMARK  2 active torsions:
REMARK  status: ('A' for Active; 'I' for Inactive)
REMARK    1  A    between atoms: C3_3  and  C7_7 
REMARK    2  A    between atoms: C4_4  and  C8_8 
ROOT
HETATM    1  C5  UNL     1     -35.258  18.690  -2.463  1.00 20.00     0.014 C 
HETATM    2  C6  UNL     1     -34.275  19.154  -1.389  1.00 20.00     0.037 C 
HETATM    3  C7  UNL     1     -34.582  17.783  -3.502  1.00 20.00     0.036 C 
HETATM    4  C8  UNL     1     -33.513  17.965  -0.803  1.00 20.00     0.144 C 
HETATM    5  C9  UNL     1     -33.792  16.669  -2.783  1.00 20.00     0.126 C 
HETATM    6  C10 UNL     1     -33.014  15.764  -3.732  1.00 20.00     0.040 C 
HETATM    7  O11 UNL     1     -32.865  17.226  -1.842  1.00 20.00    -0.377 OA
ENDROOT
BRANCH   3   8
HETATM    8  C3  UNL     1     -33.737  18.606  -4.434  1.00 20.00    -0.030 C 
HETATM    9  C1  UNL     1     -34.120  18.976  -5.661  1.00 20.00     0.007 C 
ENDBRANCH   3   8
BRANCH   4  10
HETATM   10  C4  UNL     1     -32.468  18.424   0.160  1.00 20.00    -0.005 C 
HETATM   11  C2  UNL     1     -31.174  18.559  -0.148  1.00 20.00     0.009 C 
ENDBRANCH   4  10
TORSDOF 2
ENDMDL
MODEL 7
REMARK VINA RESULT:      -3.5     11.146     12.978
REMARK  2 active torsions:
REMARK  status: ('A' for Active; 'I' for Inactive)
REMARK    1  A    between atoms: C3_3  and  C7_7 
REMARK    2  A    between atoms: C4_4  and  C8_8 
ROOT
HETATM    1  C5  UNL     1     -33.659  18.366  -4.132  1.00 20.00     0.014 C 
HETATM    2  C6  UNL     1     -35.167  18.491  -4.338  1.00 20.00     0.037 C 
HETATM    3  C7  UNL     1     -33.256  16.942  -3.719  1.00 20.00     0.036 C 
HETATM    4  C8  UNL     1     -35.680  17.386  -5.263  1.00 20.00     0.144 C 
HETATM    5  C9  UNL     1     -33.891  15.922  -4.687  1.00 20.00     0.126 C 
HETATM    6  C10 UNL     1     -33.616  14.470  -4.309  1.00 20.00     0.040 C 
HETATM    7  O11 UNL     1     -35.311  16.100  -4.757  1.00 20.00    -0.377 OA
ENDROOT
BRANCH   3   8
HETATM    8  C3  UNL     1     -33.614  16.701  -2.279  1.00 20.00    -0.030 C 
HETATM    9  C1  UNL     1     -33.343  17.556  -1.287  1.00 20.00     0.007 C 
ENDBRANCH   3   8
BRANCH   4  10
HETATM   10  C4  UNL     1     -37.168  17.432  -5.373  1.00 20.00    -0.005 C 
HETATM   11  C2  UNL     1     -37.961  16.364  -5.241  1.00 20.00     0.009 C 
ENDBRANCH   4  10
TORSDOF 2
ENDMDL
MODEL 8
REMARK VINA RESULT:      -3.5     13.479     14.883
REMARK  2 active torsions:
REMARK  status: ('A' for Active; 'I' for Inactive)
REMARK    1  A    between atoms: C3_3  and  C7_7 
REMARK    2  A    between atoms: C4_4  and  C8_8 
ROOT
HETATM    1  C5  UNL     1     -24.471  -2.482  12.332  1.00 20.00     0.014 C 
HETATM    2  C6  UNL     1     -23.499  -2.353  11.160  1.00 20.00     0.037 C 
HETATM    3  C7  UNL     1     -25.925  -2.251  11.895  1.00 20.00     0.036 C 
HETATM    4  C8  UNL     1     -23.958  -3.212   9.980  1.00 20.00     0.144 C 
HETATM    5  C9  UNL     1     -26.240  -3.120  10.659  1.00 20.00     0.126 C 
HETATM    6  C10 UNL     1     -27.641  -2.898  10.098  1.00 20.00     0.040 C 
HETATM    7  O11 UNL     1     -25.297  -2.874   9.608  1.00 20.00    -0.377 OA
ENDROOT
BRANCH   3   8
HETATM    8  C3  UNL     1     -26.171  -0.786  11.671  1.00 20.00    -0.030 C 
HETATM    9  C1  UNL     1     -27.089  -0.072  12.331  1.00 20.00     0.007 C 
ENDBRANCH   3   8
BRANCH   4  10
HETATM   10  C4  UNL     1     -23.079  -2.998   8.793  1.00 20.00    -0.005 C 
HETATM   11  C2  UNL     1     -23.146  -3.724   7.672  1.00 20.00     0.009 C 
ENDBRANCH   4  10
TORSDOF 2
ENDMDL
MODEL 9
REMARK VINA RESULT:      -3.5     10.917     12.320
REMARK  2 active torsions:
REMARK  status: ('A' for Active; 'I' for Inactive)
REMARK    1  A    between atoms: C3_3  and  C7_7 
REMARK    2  A    between atoms: C4_4  and  C8_8 
ROOT
HETATM    1  C5  UNL     1     -33.855  18.585  -4.120  1.00 20.00     0.014 C 
HETATM    2  C6  UNL     1     -34.019  17.134  -4.568  1.00 20.00     0.037 C 
HETATM    3  C7  UNL     1     -34.140  18.755  -2.620  1.00 20.00     0.036 C 
HETATM    4  C8  UNL     1     -33.229  16.195  -3.655  1.00 20.00     0.144 C 
HETATM    5  C9  UNL     1     -33.339  17.708  -1.818  1.00 20.00     0.126 C 
HETATM    6  C10 UNL     1     -33.620  17.742  -0.320  1.00 20.00     0.040 C 
HETATM    7  O11 UNL     1     -33.614  16.383  -2.290  1.00 20.00    -0.377 OA
ENDROOT
BRANCH   3   8
HETATM    8  C3  UNL     1     -35.620  18.697  -2.365  1.00 20.00    -0.030 C 
HETATM    9  C1  UNL     1     -36.538  19.261  -3.157  1.00 20.00     0.007 C 
ENDBRANCH   3   8
BRANCH   4  10
HETATM   10  C4  UNL     1     -33.480  14.768  -4.015  1.00 20.00    -0.005 C 
HETATM   11  C2  UNL     1     -34.670  14.290  -4.394  1.00 20.00     0.009 C 
ENDBRANCH   4  10
TORSDOF 2
ENDMDL
