MODEL 1
REMARK VINA RESULT:      -5.8      0.000      0.000
REMARK  2 active torsions:
REMARK  status: ('A' for Active; 'I' for Inactive)
REMARK    1  A    between atoms: C6_6  and  C8_8 
REMARK    2  A    between atoms: C8_8  and  O9_9 
ROOT
HETATM    1  C1  UNL     1     -34.888   5.222   5.947  1.00 20.00    -0.030 C 
HETATM    2  C2  UNL     1     -34.556   6.370   6.550  1.00 20.00    -0.030 C 
HETATM    3  C3  UNL     1     -34.422   4.857   4.571  1.00 20.00     0.031 C 
HETATM    4  C4  UNL     1     -33.709   7.421   5.899  1.00 20.00     0.034 C 
HETATM    5  C5  UNL     1     -33.266   5.739   4.056  1.00 20.00    -0.009 C 
HETATM    6  C6  UNL     1     -33.544   7.226   4.377  1.00 20.00     0.016 C 
HETATM    7  C7  UNL     1     -33.048   5.473   2.564  1.00 20.00     0.011 C 
ENDROOT
BRANCH   6   8
HETATM    8  C8  UNL     1     -32.457   8.171   3.857  1.00 20.00     0.169 C 
BRANCH   8   9
HETATM    9  O9  UNL     1     -31.774   8.719   4.968  1.00 20.00    -0.400 OA
HETATM   10  H23 UNL     1     -31.013   9.215   4.621  1.00 20.00     0.209 HD
ENDBRANCH   8   9
ENDBRANCH   6   8
TORSDOF 2
ENDMDL
MODEL 2
REMARK VINA RESULT:      -5.3      1.921      3.142
REMARK  2 active torsions:
REMARK  status: ('A' for Active; 'I' for Inactive)
REMARK    1  A    between atoms: C6_6  and  C8_8 
REMARK    2  A    between atoms: C8_8  and  O9_9 
ROOT
HETATM    1  C1  UNL     1     -32.264   8.578   4.189  1.00 20.00    -0.030 C 
HETATM    2  C2  UNL     1     -33.132   8.585   5.207  1.00 20.00    -0.030 C 
HETATM    3  C3  UNL     1     -32.126   7.428   3.239  1.00 20.00     0.031 C 
HETATM    4  C4  UNL     1     -34.036   7.431   5.520  1.00 20.00     0.034 C 
HETATM    5  C5  UNL     1     -33.290   6.418   3.319  1.00 20.00    -0.009 C 
HETATM    6  C6  UNL     1     -33.642   6.125   4.796  1.00 20.00     0.016 C 
HETATM    7  C7  UNL     1     -32.929   5.161   2.523  1.00 20.00     0.011 C 
ENDROOT
BRANCH   6   8
HETATM    8  C8  UNL     1     -34.764   5.095   4.958  1.00 20.00     0.169 C 
BRANCH   8   9
HETATM    9  O9  UNL     1     -35.195   5.113   6.305  1.00 20.00    -0.400 OA
HETATM   10  H23 UNL     1     -34.810   5.905   6.719  1.00 20.00     0.209 HD
ENDBRANCH   8   9
ENDBRANCH   6   8
TORSDOF 2
ENDMDL
MODEL 3
REMARK VINA RESULT:      -5.3      1.693      2.788
REMARK  2 active torsions:
REMARK  status: ('A' for Active; 'I' for Inactive)
REMARK    1  A    between atoms: C6_6  and  C8_8 
REMARK    2  A    between atoms: C8_8  and  O9_9 
ROOT
HETATM    1  C1  UNL     1     -34.603   6.416   6.600  1.00 20.00    -0.030 C 
HETATM    2  C2  UNL     1     -34.905   5.371   5.820  1.00 20.00    -0.030 C 
HETATM    3  C3  UNL     1     -33.723   7.542   6.152  1.00 20.00     0.031 C 
HETATM    4  C4  UNL     1     -34.369   5.205   4.430  1.00 20.00     0.034 C 
HETATM    5  C5  UNL     1     -33.482   7.571   4.629  1.00 20.00    -0.009 C 
HETATM    6  C6  UNL     1     -33.188   6.145   4.107  1.00 20.00     0.016 C 
HETATM    7  C7  UNL     1     -32.369   8.573   4.308  1.00 20.00     0.011 C 
ENDROOT
BRANCH   6   8
HETATM    8  C8  UNL     1     -32.896   6.098   2.605  1.00 20.00     0.169 C 
BRANCH   8   9
HETATM    9  O9  UNL     1     -32.774   4.743   2.216  1.00 20.00    -0.400 OA
HETATM   10  H23 UNL     1     -32.631   4.733   1.254  1.00 20.00     0.209 HD
ENDBRANCH   8   9
ENDBRANCH   6   8
TORSDOF 2
ENDMDL
MODEL 4
REMARK VINA RESULT:      -5.3      1.996      3.926
REMARK  2 active torsions:
REMARK  status: ('A' for Active; 'I' for Inactive)
REMARK    1  A    between atoms: C6_6  and  C8_8 
REMARK    2  A    between atoms: C8_8  and  O9_9 
ROOT
HETATM    1  C1  UNL     1     -32.133   8.184   3.590  1.00 20.00    -0.030 C 
HETATM    2  C2  UNL     1     -32.287   7.097   2.825  1.00 20.00    -0.030 C 
HETATM    3  C3  UNL     1     -32.794   8.344   4.925  1.00 20.00     0.031 C 
HETATM    4  C4  UNL     1     -33.158   5.941   3.211  1.00 20.00     0.034 C 
HETATM    5  C5  UNL     1     -33.372   7.030   5.490  1.00 20.00    -0.009 C 
HETATM    6  C6  UNL     1     -34.118   6.254   4.379  1.00 20.00     0.016 C 
HETATM    7  C7  UNL     1     -34.251   7.341   6.704  1.00 20.00     0.011 C 
ENDROOT
BRANCH   6   8
HETATM    8  C8  UNL     1     -34.758   4.954   4.874  1.00 20.00     0.169 C 
BRANCH   8   9
HETATM    9  O9  UNL     1     -33.994   3.867   4.388  1.00 20.00    -0.400 OA
HETATM   10  H23 UNL     1     -33.073   4.172   4.319  1.00 20.00     0.209 HD
ENDBRANCH   8   9
ENDBRANCH   6   8
TORSDOF 2
ENDMDL
MODEL 5
REMARK VINA RESULT:      -5.2      0.924      1.128
REMARK  2 active torsions:
REMARK  status: ('A' for Active; 'I' for Inactive)
REMARK    1  A    between atoms: C6_6  and  C8_8 
REMARK    2  A    between atoms: C8_8  and  O9_9 
ROOT
HETATM    1  C1  UNL     1     -34.397   4.674   4.833  1.00 20.00    -0.030 C 
HETATM    2  C2  UNL     1     -34.588   5.406   5.937  1.00 20.00    -0.030 C 
HETATM    3  C3  UNL     1     -33.717   5.205   3.608  1.00 20.00     0.031 C 
HETATM    4  C4  UNL     1     -34.169   6.840   6.051  1.00 20.00     0.034 C 
HETATM    5  C5  UNL     1     -32.959   6.528   3.846  1.00 20.00    -0.009 C 
HETATM    6  C6  UNL     1     -33.820   7.491   4.696  1.00 20.00     0.016 C 
HETATM    7  C7  UNL     1     -32.536   7.122   2.500  1.00 20.00     0.011 C 
ENDROOT
BRANCH   6   8
HETATM    8  C8  UNL     1     -33.150   8.846   4.939  1.00 20.00     0.169 C 
BRANCH   8   9
HETATM    9  O9  UNL     1     -31.806   8.618   5.316  1.00 20.00    -0.400 OA
HETATM   10  H23 UNL     1     -31.822   8.034   6.095  1.00 20.00     0.209 HD
ENDBRANCH   8   9
ENDBRANCH   6   8
TORSDOF 2
ENDMDL
MODEL 6
REMARK VINA RESULT:      -5.1      2.007      3.927
REMARK  2 active torsions:
REMARK  status: ('A' for Active; 'I' for Inactive)
REMARK    1  A    between atoms: C6_6  and  C8_8 
REMARK    2  A    between atoms: C8_8  and  O9_9 
ROOT
HETATM    1  C1  UNL     1     -32.187   7.373   2.652  1.00 20.00    -0.030 C 
HETATM    2  C2  UNL     1     -32.631   6.111   2.607  1.00 20.00    -0.030 C 
HETATM    3  C3  UNL     1     -32.521   8.318   3.765  1.00 20.00     0.031 C 
HETATM    4  C4  UNL     1     -33.532   5.523   3.650  1.00 20.00     0.034 C 
HETATM    5  C5  UNL     1     -33.120   7.624   5.007  1.00 20.00    -0.009 C 
HETATM    6  C6  UNL     1     -34.174   6.577   4.577  1.00 20.00     0.016 C 
HETATM    7  C7  UNL     1     -33.674   8.683   5.964  1.00 20.00     0.011 C 
ENDROOT
BRANCH   6   8
HETATM    8  C8  UNL     1     -34.845   5.874   5.760  1.00 20.00     0.169 C 
BRANCH   8   9
HETATM    9  O9  UNL     1     -35.326   4.620   5.318  1.00 20.00    -0.400 OA
HETATM   10  H23 UNL     1     -35.528   4.707   4.370  1.00 20.00     0.209 HD
ENDBRANCH   8   9
ENDBRANCH   6   8
TORSDOF 2
ENDMDL
MODEL 7
REMARK VINA RESULT:      -4.9      1.827      3.502
REMARK  2 active torsions:
REMARK  status: ('A' for Active; 'I' for Inactive)
REMARK    1  A    between atoms: C6_6  and  C8_8 
REMARK    2  A    between atoms: C8_8  and  O9_9 
ROOT
HETATM    1  C1  UNL     1     -32.789   8.850   5.121  1.00 20.00    -0.030 C 
HETATM    2  C2  UNL     1     -32.235   8.447   3.971  1.00 20.00    -0.030 C 
HETATM    3  C3  UNL     1     -33.704   7.986   5.934  1.00 20.00     0.031 C 
HETATM    4  C4  UNL     1     -32.496   7.103   3.363  1.00 20.00     0.034 C 
HETATM    5  C5  UNL     1     -33.677   6.499   5.523  1.00 20.00    -0.009 C 
HETATM    6  C6  UNL     1     -33.706   6.370   3.982  1.00 20.00     0.016 C 
HETATM    7  C7  UNL     1     -34.826   5.759   6.213  1.00 20.00     0.011 C 
ENDROOT
BRANCH   6   8
HETATM    8  C8  UNL     1     -33.724   4.918   3.497  1.00 20.00     0.169 C 
BRANCH   8   9
HETATM    9  O9  UNL     1     -32.796   4.790   2.437  1.00 20.00    -0.400 OA
HETATM   10  H23 UNL     1     -31.940   4.550   2.832  1.00 20.00     0.209 HD
ENDBRANCH   8   9
ENDBRANCH   6   8
TORSDOF 2
ENDMDL
MODEL 8
REMARK VINA RESULT:      -4.9      0.870      2.652
REMARK  2 active torsions:
REMARK  status: ('A' for Active; 'I' for Inactive)
REMARK    1  A    between atoms: C6_6  and  C8_8 
REMARK    2  A    between atoms: C8_8  and  O9_9 
ROOT
HETATM    1  C1  UNL     1     -33.297   4.923   2.918  1.00 20.00    -0.030 C 
HETATM    2  C2  UNL     1     -32.660   6.029   2.515  1.00 20.00    -0.030 C 
HETATM    3  C3  UNL     1     -34.058   4.841   4.206  1.00 20.00     0.031 C 
HETATM    4  C4  UNL     1     -32.617   7.289   3.324  1.00 20.00     0.034 C 
HETATM    5  C5  UNL     1     -34.335   6.216   4.849  1.00 20.00    -0.009 C 
HETATM    6  C6  UNL     1     -33.065   7.099   4.789  1.00 20.00     0.016 C 
HETATM    7  C7  UNL     1     -34.865   6.016   6.271  1.00 20.00     0.011 C 
ENDROOT
BRANCH   6   8
HETATM    8  C8  UNL     1     -33.250   8.468   5.448  1.00 20.00     0.169 C 
BRANCH   8   9
HETATM    9  O9  UNL     1     -32.075   9.227   5.234  1.00 20.00    -0.400 OA
HETATM   10  H23 UNL     1     -32.178  10.061   5.726  1.00 20.00     0.209 HD
ENDBRANCH   8   9
ENDBRANCH   6   8
TORSDOF 2
ENDMDL
MODEL 9
REMARK VINA RESULT:      -4.4      1.285      2.898
REMARK  2 active torsions:
REMARK  status: ('A' for Active; 'I' for Inactive)
REMARK    1  A    between atoms: C6_6  and  C8_8 
REMARK    2  A    between atoms: C8_8  and  O9_9 
ROOT
HETATM    1  C1  UNL     1     -33.077   5.102   2.590  1.00 20.00    -0.030 C 
HETATM    2  C2  UNL     1     -33.784   4.537   3.577  1.00 20.00    -0.030 C 
HETATM    3  C3  UNL     1     -32.597   6.520   2.636  1.00 20.00     0.031 C 
HETATM    4  C4  UNL     1     -34.192   5.275   4.816  1.00 20.00     0.034 C 
HETATM    5  C5  UNL     1     -32.681   7.156   4.039  1.00 20.00    -0.009 C 
HETATM    6  C6  UNL     1     -34.033   6.806   4.705  1.00 20.00     0.016 C 
HETATM    7  C7  UNL     1     -32.432   8.662   3.932  1.00 20.00     0.011 C 
ENDROOT
BRANCH   6   8
HETATM    8  C8  UNL     1     -34.208   7.439   6.088  1.00 20.00     0.169 C 
BRANCH   8   9
HETATM    9  O9  UNL     1     -33.134   7.022   6.908  1.00 20.00    -0.400 OA
HETATM   10  H23 UNL     1     -32.465   7.728   6.886  1.00 20.00     0.209 HD
ENDBRANCH   8   9
ENDBRANCH   6   8
TORSDOF 2
ENDMDL
