MODEL 1
REMARK VINA RESULT:      -3.9      0.000      0.000
REMARK  2 active torsions:
REMARK  status: ('A' for Active; 'I' for Inactive)
REMARK    1  A    between atoms: C1_1  and  S11_11 
REMARK    2  A    between atoms: C8_8  and  S11_11 
ROOT
HETATM    1  C2  UNL     1     -32.350  18.141  -1.462  1.00 20.00     0.005 C 
HETATM    2  C3  UNL     1     -32.581  19.158  -2.590  1.00 20.00     0.006 C 
HETATM    3  C4  UNL     1     -34.683  18.300  -1.902  1.00 20.00     0.010 C 
HETATM    4  C5  UNL     1     -33.571  16.378  -2.766  1.00 20.00     0.020 C 
HETATM    5  C6  UNL     1     -33.620  17.275  -1.512  1.00 20.00    -0.013 C 
HETATM    6  C7  UNL     1     -33.941  18.726  -3.172  1.00 20.00     0.000 C 
HETATM    7  C8  UNL     1     -33.735  17.388  -3.919  1.00 20.00     0.059 C 
ENDROOT
BRANCH   7   8
HETATM    8  S11 UNL     1     -35.150  16.980  -4.990  1.00 20.00    -0.088 SA
BRANCH   8   9
HETATM    9  C1  UNL     1     -34.729  15.329  -5.435  1.00 20.00     0.182 C 
HETATM   10  C9  UNL     1     -35.847  14.351  -5.207  1.00 20.00     0.104 C 
HETATM   11  O10 UNL     1     -33.638  15.004  -5.888  1.00 20.00    -0.286 OA
ENDBRANCH   8   9
ENDBRANCH   7   8
TORSDOF 2
ENDMDL
MODEL 2
REMARK VINA RESULT:      -3.9     12.240     13.143
REMARK  2 active torsions:
REMARK  status: ('A' for Active; 'I' for Inactive)
REMARK    1  A    between atoms: C1_1  and  S11_11 
REMARK    2  A    between atoms: C8_8  and  S11_11 
ROOT
HETATM    1  C2  UNL     1     -34.595   5.258   6.341  1.00 20.00     0.005 C 
HETATM    2  C3  UNL     1     -34.123   6.719   6.342  1.00 20.00     0.006 C 
HETATM    3  C4  UNL     1     -35.420   6.346   4.392  1.00 20.00     0.010 C 
HETATM    4  C5  UNL     1     -33.555   4.895   4.086  1.00 20.00     0.020 C 
HETATM    5  C6  UNL     1     -34.888   4.990   4.855  1.00 20.00    -0.013 C 
HETATM    6  C7  UNL     1     -34.168   7.098   4.849  1.00 20.00     0.000 C 
HETATM    7  C8  UNL     1     -33.026   6.343   4.131  1.00 20.00     0.059 C 
ENDROOT
BRANCH   7   8
HETATM    8  S11 UNL     1     -32.710   7.008   2.466  1.00 20.00    -0.088 SA
BRANCH   8   9
HETATM    9  C1  UNL     1     -32.562   8.722   2.846  1.00 20.00     0.182 C 
HETATM   10  C9  UNL     1     -32.923   9.617   1.694  1.00 20.00     0.104 C 
HETATM   11  O10 UNL     1     -32.205   9.149   3.937  1.00 20.00    -0.286 OA
ENDBRANCH   8   9
ENDBRANCH   7   8
TORSDOF 2
ENDMDL
MODEL 3
REMARK VINA RESULT:      -3.8      1.030      1.856
REMARK  2 active torsions:
REMARK  status: ('A' for Active; 'I' for Inactive)
REMARK    1  A    between atoms: C1_1  and  S11_11 
REMARK    2  A    between atoms: C8_8  and  S11_11 
ROOT
HETATM    1  C2  UNL     1     -34.097  17.887  -1.561  1.00 20.00     0.005 C 
HETATM    2  C3  UNL     1     -33.449  16.660  -2.220  1.00 20.00     0.006 C 
HETATM    3  C4  UNL     1     -33.002  18.565  -3.561  1.00 20.00     0.010 C 
HETATM    4  C5  UNL     1     -35.375  18.377  -3.664  1.00 20.00     0.020 C 
HETATM    5  C6  UNL     1     -34.249  18.870  -2.733  1.00 20.00    -0.013 C 
HETATM    6  C7  UNL     1     -33.344  17.078  -3.699  1.00 20.00     0.000 C 
HETATM    7  C8  UNL     1     -34.772  17.103  -4.290  1.00 20.00     0.059 C 
ENDROOT
BRANCH   7   8
HETATM    8  S11 UNL     1     -34.756  17.177  -6.109  1.00 20.00    -0.088 SA
BRANCH   8   9
HETATM    9  C1  UNL     1     -34.627  15.461  -6.483  1.00 20.00     0.182 C 
HETATM   10  C9  UNL     1     -35.668  14.624  -5.794  1.00 20.00     0.104 C 
HETATM   11  O10 UNL     1     -33.777  14.989  -7.229  1.00 20.00    -0.286 OA
ENDBRANCH   8   9
ENDBRANCH   7   8
TORSDOF 2
ENDMDL
MODEL 4
REMARK VINA RESULT:      -3.7     12.450     13.331
REMARK  2 active torsions:
REMARK  status: ('A' for Active; 'I' for Inactive)
REMARK    1  A    between atoms: C1_1  and  S11_11 
REMARK    2  A    between atoms: C8_8  and  S11_11 
ROOT
HETATM    1  C2  UNL     1     -41.706  15.341   9.774  1.00 20.00     0.005 C 
HETATM    2  C3  UNL     1     -40.256  15.082   9.335  1.00 20.00     0.006 C 
HETATM    3  C4  UNL     1     -41.416  16.116   7.543  1.00 20.00     0.010 C 
HETATM    4  C5  UNL     1     -42.562  14.044   7.803  1.00 20.00     0.020 C 
HETATM    5  C6  UNL     1     -42.458  15.446   8.437  1.00 20.00    -0.013 C 
HETATM    6  C7  UNL     1     -40.364  15.033   7.799  1.00 20.00     0.000 C 
HETATM    7  C8  UNL     1     -41.103  13.732   7.414  1.00 20.00     0.059 C 
ENDROOT
BRANCH   7   8
HETATM    8  S11 UNL     1     -40.935  13.351   5.641  1.00 20.00    -0.088 SA
BRANCH   8   9
HETATM    9  C1  UNL     1     -39.616  12.185   5.704  1.00 20.00     0.182 C 
HETATM   10  C9  UNL     1     -39.207  11.680   4.349  1.00 20.00     0.104 C 
HETATM   11  O10 UNL     1     -39.080  11.820   6.743  1.00 20.00    -0.286 OA
ENDBRANCH   8   9
ENDBRANCH   7   8
TORSDOF 2
ENDMDL
MODEL 5
REMARK VINA RESULT:      -3.6     12.804     14.439
REMARK  2 active torsions:
REMARK  status: ('A' for Active; 'I' for Inactive)
REMARK    1  A    between atoms: C1_1  and  S11_11 
REMARK    2  A    between atoms: C8_8  and  S11_11 
ROOT
HETATM    1  C2  UNL     1     -41.058   8.140   0.218  1.00 20.00     0.005 C 
HETATM    2  C3  UNL     1     -42.429   8.254  -0.465  1.00 20.00     0.006 C 
HETATM    3  C4  UNL     1     -42.623   6.776   1.381  1.00 20.00     0.010 C 
HETATM    4  C5  UNL     1     -41.096   5.646  -0.057  1.00 20.00     0.020 C 
HETATM    5  C6  UNL     1     -41.153   6.799   0.965  1.00 20.00    -0.013 C 
HETATM    6  C7  UNL     1     -43.128   6.943  -0.055  1.00 20.00     0.000 C 
HETATM    7  C8  UNL     1     -42.438   5.781  -0.804  1.00 20.00     0.059 C 
ENDROOT
BRANCH   7   8
HETATM    8  S11 UNL     1     -43.417   4.247  -0.733  1.00 20.00    -0.088 SA
BRANCH   8   9
HETATM    9  C1  UNL     1     -43.049   3.576  -2.319  1.00 20.00     0.182 C 
HETATM   10  C9  UNL     1     -43.404   2.121  -2.444  1.00 20.00     0.104 C 
HETATM   11  O10 UNL     1     -42.555   4.224  -3.233  1.00 20.00    -0.286 OA
ENDBRANCH   8   9
ENDBRANCH   7   8
TORSDOF 2
ENDMDL
MODEL 6
REMARK VINA RESULT:      -3.6     12.259     13.126
REMARK  2 active torsions:
REMARK  status: ('A' for Active; 'I' for Inactive)
REMARK    1  A    between atoms: C1_1  and  S11_11 
REMARK    2  A    between atoms: C8_8  and  S11_11 
ROOT
HETATM    1  C2  UNL     1     -40.849  16.826   8.671  1.00 20.00     0.005 C 
HETATM    2  C3  UNL     1     -41.200  16.883   7.176  1.00 20.00     0.006 C 
HETATM    3  C4  UNL     1     -42.603  15.281   8.222  1.00 20.00     0.010 C 
HETATM    4  C5  UNL     1     -40.425  14.358   8.505  1.00 20.00     0.020 C 
HETATM    5  C6  UNL     1     -41.356  15.437   9.092  1.00 20.00    -0.013 C 
HETATM    6  C7  UNL     1     -41.833  15.502   6.917  1.00 20.00     0.000 C 
HETATM    7  C8  UNL     1     -40.710  14.442   6.992  1.00 20.00     0.059 C 
ENDROOT
BRANCH   7   8
HETATM    8  S11 UNL     1     -41.238  12.841   6.305  1.00 20.00    -0.088 SA
BRANCH   8   9
HETATM    9  C1  UNL     1     -39.666  12.094   6.032  1.00 20.00     0.182 C 
HETATM   10  C9  UNL     1     -39.394  11.799   4.584  1.00 20.00     0.104 C 
HETATM   11  O10 UNL     1     -38.869  11.839   6.927  1.00 20.00    -0.286 OA
ENDBRANCH   8   9
ENDBRANCH   7   8
TORSDOF 2
ENDMDL
MODEL 7
REMARK VINA RESULT:      -3.5      2.199      4.506
REMARK  2 active torsions:
REMARK  status: ('A' for Active; 'I' for Inactive)
REMARK    1  A    between atoms: C1_1  and  S11_11 
REMARK    2  A    between atoms: C8_8  and  S11_11 
ROOT
HETATM    1  C2  UNL     1     -35.590  14.597  -5.440  1.00 20.00     0.005 C 
HETATM    2  C3  UNL     1     -36.388  15.905  -5.335  1.00 20.00     0.006 C 
HETATM    3  C4  UNL     1     -34.393  16.330  -6.546  1.00 20.00     0.010 C 
HETATM    4  C5  UNL     1     -33.593  15.698  -4.393  1.00 20.00     0.020 C 
HETATM    5  C6  UNL     1     -34.154  15.086  -5.692  1.00 20.00    -0.013 C 
HETATM    6  C7  UNL     1     -35.303  16.986  -5.503  1.00 20.00     0.000 C 
HETATM    7  C8  UNL     1     -34.428  16.984  -4.229  1.00 20.00     0.059 C 
ENDROOT
BRANCH   7   8
HETATM    8  S11 UNL     1     -33.380  18.469  -4.119  1.00 20.00    -0.088 SA
BRANCH   8   9
HETATM    9  C1  UNL     1     -32.960  18.420  -2.409  1.00 20.00     0.182 C 
HETATM   10  C9  UNL     1     -33.935  17.631  -1.582  1.00 20.00     0.104 C 
HETATM   11  O10 UNL     1     -31.972  18.968  -1.935  1.00 20.00    -0.286 OA
ENDBRANCH   8   9
ENDBRANCH   7   8
TORSDOF 2
ENDMDL
MODEL 8
REMARK VINA RESULT:      -3.4      2.215      4.844
REMARK  2 active torsions:
REMARK  status: ('A' for Active; 'I' for Inactive)
REMARK    1  A    between atoms: C1_1  and  S11_11 
REMARK    2  A    between atoms: C8_8  and  S11_11 
ROOT
HETATM    1  C2  UNL     1     -36.614  16.135  -7.224  1.00 20.00     0.005 C 
HETATM    2  C3  UNL     1     -35.789  17.363  -6.812  1.00 20.00     0.006 C 
HETATM    3  C4  UNL     1     -34.307  15.553  -7.203  1.00 20.00     0.010 C 
HETATM    4  C5  UNL     1     -35.607  14.797  -5.355  1.00 20.00     0.020 C 
HETATM    5  C6  UNL     1     -35.680  14.961  -6.886  1.00 20.00    -0.013 C 
HETATM    6  C7  UNL     1     -34.496  16.739  -6.253  1.00 20.00     0.000 C 
HETATM    7  C8  UNL     1     -34.838  16.057  -4.909  1.00 20.00     0.059 C 
ENDROOT
BRANCH   7   8
HETATM    8  S11 UNL     1     -33.344  15.644  -3.954  1.00 20.00    -0.088 SA
BRANCH   8   9
HETATM    9  C1  UNL     1     -33.391  16.925  -2.746  1.00 20.00     0.182 C 
HETATM   10  C9  UNL     1     -33.088  18.284  -3.310  1.00 20.00     0.104 C 
HETATM   11  O10 UNL     1     -33.647  16.735  -1.563  1.00 20.00    -0.286 OA
ENDBRANCH   8   9
ENDBRANCH   7   8
TORSDOF 2
ENDMDL
MODEL 9
REMARK VINA RESULT:      -3.3     24.716     25.592
REMARK  2 active torsions:
REMARK  status: ('A' for Active; 'I' for Inactive)
REMARK    1  A    between atoms: C1_1  and  S11_11 
REMARK    2  A    between atoms: C8_8  and  S11_11 
ROOT
HETATM    1  C2  UNL     1     -29.093  -2.242  10.893  1.00 20.00     0.005 C 
HETATM    2  C3  UNL     1     -28.741  -1.541  12.214  1.00 20.00     0.006 C 
HETATM    3  C4  UNL     1     -27.535  -0.497  10.458  1.00 20.00     0.010 C 
HETATM    4  C5  UNL     1     -26.666  -2.715  10.465  1.00 20.00     0.020 C 
HETATM    5  C6  UNL     1     -27.891  -1.908   9.993  1.00 20.00    -0.013 C 
HETATM    6  C7  UNL     1     -27.360  -0.922  11.919  1.00 20.00     0.000 C 
HETATM    7  C8  UNL     1     -26.332  -2.072  11.826  1.00 20.00     0.059 C 
ENDROOT
BRANCH   7   8
HETATM    8  S11 UNL     1     -24.618  -1.461  11.893  1.00 20.00    -0.088 SA
BRANCH   8   9
HETATM    9  C1  UNL     1     -23.755  -2.924  11.425  1.00 20.00     0.182 C 
HETATM   10  C9  UNL     1     -23.032  -2.791  10.115  1.00 20.00     0.104 C 
HETATM   11  O10 UNL     1     -23.740  -3.949  12.096  1.00 20.00    -0.286 OA
ENDBRANCH   8   9
ENDBRANCH   7   8
TORSDOF 2
ENDMDL
