MODEL 1
REMARK VINA RESULT:      -3.6      0.000      0.000
REMARK  2 active torsions:
REMARK  status: ('A' for Active; 'I' for Inactive)
REMARK    1  A    between atoms: C1_1  and  S6_6 
REMARK    2  A    between atoms: N4_4  and  O5_5 
ROOT
HETATM    1  C1  UNL     1     -33.851   5.522   4.064  1.00 20.00     0.093 C 
HETATM    2  C2  UNL     1     -33.020   5.421   2.809  1.00 20.00     0.081 C 
HETATM    3  N4  UNL     1     -34.535   4.548   4.576  1.00 20.00    -0.134 NA
ENDROOT
BRANCH   1   4
HETATM    4  S6  UNL     1     -33.829   7.106   4.834  1.00 20.00    -0.117 SA
HETATM    5  C3  UNL     1     -32.449   7.908   3.990  1.00 20.00     0.097 C 
ENDBRANCH   1   4
BRANCH   3   6
HETATM    6  O5  UNL     1     -35.196   4.957   5.736  1.00 20.00    -0.266 OA
HETATM    7  H13 UNL     1     -35.362   5.896   5.545  1.00 20.00     0.247 HD
ENDBRANCH   3   6
TORSDOF 2
ENDMDL
MODEL 2
REMARK VINA RESULT:      -3.3      2.540      3.155
REMARK  2 active torsions:
REMARK  status: ('A' for Active; 'I' for Inactive)
REMARK    1  A    between atoms: C1_1  and  S6_6 
REMARK    2  A    between atoms: N4_4  and  O5_5 
ROOT
HETATM    1  C1  UNL     1     -33.464   6.936   4.283  1.00 20.00     0.093 C 
HETATM    2  C2  UNL     1     -33.494   8.132   5.201  1.00 20.00     0.081 C 
HETATM    3  N4  UNL     1     -32.603   6.758   3.331  1.00 20.00    -0.134 NA
ENDROOT
BRANCH   1   4
HETATM    4  S6  UNL     1     -34.715   5.737   4.597  1.00 20.00    -0.117 SA
HETATM    5  C3  UNL     1     -34.524   5.460   6.372  1.00 20.00     0.097 C 
ENDBRANCH   1   4
BRANCH   3   6
HETATM    6  O5  UNL     1     -32.840   5.556   2.661  1.00 20.00    -0.266 OA
HETATM    7  H13 UNL     1     -33.366   5.067   3.317  1.00 20.00     0.247 HD
ENDBRANCH   3   6
TORSDOF 2
ENDMDL
MODEL 3
REMARK VINA RESULT:      -3.2      1.564      1.997
REMARK  2 active torsions:
REMARK  status: ('A' for Active; 'I' for Inactive)
REMARK    1  A    between atoms: C1_1  and  S6_6 
REMARK    2  A    between atoms: N4_4  and  O5_5 
ROOT
HETATM    1  C1  UNL     1     -34.054   6.612   4.990  1.00 20.00     0.093 C 
HETATM    2  C2  UNL     1     -33.565   7.986   5.372  1.00 20.00     0.081 C 
HETATM    3  N4  UNL     1     -34.919   5.922   5.665  1.00 20.00    -0.134 NA
ENDROOT
BRANCH   1   4
HETATM    4  S6  UNL     1     -33.362   5.973   3.501  1.00 20.00    -0.117 SA
HETATM    5  C3  UNL     1     -32.224   7.293   3.027  1.00 20.00     0.097 C 
ENDBRANCH   1   4
BRANCH   3   6
HETATM    6  O5  UNL     1     -35.164   4.691   5.052  1.00 20.00    -0.266 OA
HETATM    7  H13 UNL     1     -34.320   4.527   4.598  1.00 20.00     0.247 HD
ENDBRANCH   3   6
TORSDOF 2
ENDMDL
MODEL 4
REMARK VINA RESULT:      -3.1      2.735      3.134
REMARK  2 active torsions:
REMARK  status: ('A' for Active; 'I' for Inactive)
REMARK    1  A    between atoms: C1_1  and  S6_6 
REMARK    2  A    between atoms: N4_4  and  O5_5 
ROOT
HETATM    1  C1  UNL     1     -32.865   6.948   3.891  1.00 20.00     0.093 C 
HETATM    2  C2  UNL     1     -32.930   5.899   2.810  1.00 20.00     0.081 C 
HETATM    3  N4  UNL     1     -32.012   7.923   3.924  1.00 20.00    -0.134 NA
ENDROOT
BRANCH   1   4
HETATM    4  S6  UNL     1     -34.077   6.772   5.158  1.00 20.00    -0.117 SA
HETATM    5  C3  UNL     1     -34.717   5.116   4.830  1.00 20.00     0.097 C 
ENDBRANCH   1   4
BRANCH   3   6
HETATM    6  O5  UNL     1     -32.210   8.723   5.051  1.00 20.00    -0.266 OA
HETATM    7  H13 UNL     1     -32.716   9.464   4.678  1.00 20.00     0.247 HD
ENDBRANCH   3   6
TORSDOF 2
ENDMDL
MODEL 5
REMARK VINA RESULT:      -3.1     12.447     12.856
REMARK  2 active torsions:
REMARK  status: ('A' for Active; 'I' for Inactive)
REMARK    1  A    between atoms: C1_1  and  S6_6 
REMARK    2  A    between atoms: N4_4  and  O5_5 
ROOT
HETATM    1  C1  UNL     1     -34.379  14.677  -4.453  1.00 20.00     0.093 C 
HETATM    2  C2  UNL     1     -33.288  15.636  -4.047  1.00 20.00     0.081 C 
HETATM    3  N4  UNL     1     -34.625  13.548  -3.866  1.00 20.00    -0.134 NA
ENDROOT
BRANCH   1   4
HETATM    4  S6  UNL     1     -35.348  15.205  -5.826  1.00 20.00    -0.117 SA
HETATM    5  C3  UNL     1     -34.090  15.437  -7.100  1.00 20.00     0.097 C 
ENDBRANCH   1   4
BRANCH   3   6
HETATM    6  O5  UNL     1     -35.695  12.890  -4.476  1.00 20.00    -0.266 OA
HETATM    7  H13 UNL     1     -35.535  11.969  -4.211  1.00 20.00     0.247 HD
ENDBRANCH   3   6
TORSDOF 2
ENDMDL
MODEL 6
REMARK VINA RESULT:      -3.1     12.555     12.908
REMARK  2 active torsions:
REMARK  status: ('A' for Active; 'I' for Inactive)
REMARK    1  A    between atoms: C1_1  and  S6_6 
REMARK    2  A    between atoms: N4_4  and  O5_5 
ROOT
HETATM    1  C1  UNL     1     -35.217  14.934  -5.243  1.00 20.00     0.093 C 
HETATM    2  C2  UNL     1     -35.330  16.258  -5.956  1.00 20.00     0.081 C 
HETATM    3  N4  UNL     1     -36.158  14.045  -5.185  1.00 20.00    -0.134 NA
ENDROOT
BRANCH   1   4
HETATM    4  S6  UNL     1     -33.662  14.647  -4.468  1.00 20.00    -0.117 SA
HETATM    5  C3  UNL     1     -33.480  16.124  -3.444  1.00 20.00     0.097 C 
ENDBRANCH   1   4
BRANCH   3   6
HETATM    6  O5  UNL     1     -35.747  12.929  -4.452  1.00 20.00    -0.266 OA
HETATM    7  H13 UNL     1     -35.963  12.204  -5.063  1.00 20.00     0.247 HD
ENDBRANCH   3   6
TORSDOF 2
ENDMDL
MODEL 7
REMARK VINA RESULT:      -3.0      1.768      2.407
REMARK  2 active torsions:
REMARK  status: ('A' for Active; 'I' for Inactive)
REMARK    1  A    between atoms: C1_1  and  S6_6 
REMARK    2  A    between atoms: N4_4  and  O5_5 
ROOT
HETATM    1  C1  UNL     1     -33.661   7.029   4.987  1.00 20.00     0.093 C 
HETATM    2  C2  UNL     1     -32.858   8.014   4.174  1.00 20.00     0.081 C 
HETATM    3  N4  UNL     1     -33.951   7.171   6.242  1.00 20.00    -0.134 NA
ENDROOT
BRANCH   1   4
HETATM    4  S6  UNL     1     -34.216   5.618   4.091  1.00 20.00    -0.117 SA
HETATM    5  C3  UNL     1     -32.945   5.465   2.817  1.00 20.00     0.097 C 
ENDBRANCH   1   4
BRANCH   3   6
HETATM    6  O5  UNL     1     -34.705   6.091   6.705  1.00 20.00    -0.266 OA
HETATM    7  H13 UNL     1     -35.556   6.241   6.259  1.00 20.00     0.247 HD
ENDBRANCH   3   6
TORSDOF 2
ENDMDL
MODEL 8
REMARK VINA RESULT:      -3.0      2.741      3.165
REMARK  2 active torsions:
REMARK  status: ('A' for Active; 'I' for Inactive)
REMARK    1  A    between atoms: C1_1  and  S6_6 
REMARK    2  A    between atoms: N4_4  and  O5_5 
ROOT
HETATM    1  C1  UNL     1     -33.583   7.023   4.635  1.00 20.00     0.093 C 
HETATM    2  C2  UNL     1     -34.744   6.063   4.715  1.00 20.00     0.081 C 
HETATM    3  N4  UNL     1     -33.275   7.885   5.552  1.00 20.00    -0.134 NA
ENDROOT
BRANCH   1   4
HETATM    4  S6  UNL     1     -32.622   6.891   3.165  1.00 20.00    -0.117 SA
HETATM    5  C3  UNL     1     -32.946   5.188   2.662  1.00 20.00     0.097 C 
ENDBRANCH   1   4
BRANCH   3   6
HETATM    6  O5  UNL     1     -32.150   8.626   5.183  1.00 20.00    -0.266 OA
HETATM    7  H13 UNL     1     -31.736   8.797   6.046  1.00 20.00     0.247 HD
ENDBRANCH   3   6
TORSDOF 2
ENDMDL
MODEL 9
REMARK VINA RESULT:      -3.0      2.491      2.700
REMARK  2 active torsions:
REMARK  status: ('A' for Active; 'I' for Inactive)
REMARK    1  A    between atoms: C1_1  and  S6_6 
REMARK    2  A    between atoms: N4_4  and  O5_5 
ROOT
HETATM    1  C1  UNL     1     -33.738   5.830   4.037  1.00 20.00     0.093 C 
HETATM    2  C2  UNL     1     -34.637   4.876   4.783  1.00 20.00     0.081 C 
HETATM    3  N4  UNL     1     -33.123   5.551   2.931  1.00 20.00    -0.134 NA
ENDROOT
BRANCH   1   4
HETATM    4  S6  UNL     1     -33.573   7.418   4.781  1.00 20.00    -0.117 SA
HETATM    5  C3  UNL     1     -34.106   7.090   6.475  1.00 20.00     0.097 C 
ENDBRANCH   1   4
BRANCH   3   6
HETATM    6  O5  UNL     1     -32.369   6.641   2.490  1.00 20.00    -0.266 OA
HETATM    7  H13 UNL     1     -32.055   7.014   3.332  1.00 20.00     0.247 HD
ENDBRANCH   3   6
TORSDOF 2
ENDMDL
