MODEL 1
REMARK VINA RESULT:      -5.1      0.000      0.000
REMARK  3 active torsions:
REMARK  status: ('A' for Active; 'I' for Inactive)
REMARK    1  A    between atoms: C3_3  and  C8_8 
REMARK    2  A    between atoms: C4_4  and  C10_10 
REMARK    3  A    between atoms: C10_10  and  O11_11 
ROOT
HETATM    1  C1  UNL     1     -34.666   5.417   6.130  1.00 20.00    -0.031 C 
HETATM    2  C2  UNL     1     -34.329   6.658   6.507  1.00 20.00    -0.030 C 
HETATM    3  C5  UNL     1     -34.373   4.867   4.766  1.00 20.00     0.027 C 
HETATM    4  C6  UNL     1     -33.592   7.616   5.618  1.00 20.00     0.035 C 
HETATM    5  C7  UNL     1     -33.966   5.946   3.759  1.00 20.00     0.012 C 
HETATM    6  C8  UNL     1     -32.991   6.937   4.386  1.00 20.00     0.011 C 
ENDROOT
BRANCH   6   7
HETATM    7  C3  UNL     1     -32.695   8.012   3.357  1.00 20.00    -0.023 C 
HETATM    8  C4  UNL     1     -32.536   7.769   2.047  1.00 20.00     0.000 C 
BRANCH   8   9
HETATM    9  C10 UNL     1     -32.244   8.834   1.032  1.00 20.00     0.136 C 
HETATM   10  C9  UNL     1     -32.752   8.436  -0.347  1.00 20.00     0.043 C 
BRANCH   9  11
HETATM   11  O11 UNL     1     -32.903  10.028   1.447  1.00 20.00    -0.392 OA
HETATM   12  H27 UNL     1     -33.180   9.885   2.365  1.00 20.00     0.210 HD
ENDBRANCH   9  11
ENDBRANCH   8   9
ENDBRANCH   6   7
TORSDOF 3
ENDMDL
MODEL 2
REMARK VINA RESULT:      -4.7     11.243     11.874
REMARK  3 active torsions:
REMARK  status: ('A' for Active; 'I' for Inactive)
REMARK    1  A    between atoms: C3_3  and  C8_8 
REMARK    2  A    between atoms: C4_4  and  C10_10 
REMARK    3  A    between atoms: C10_10  and  O11_11 
ROOT
HETATM    1  C1  UNL     1     -32.300  18.894   1.245  1.00 20.00    -0.031 C 
HETATM    2  C2  UNL     1     -33.556  18.537   0.943  1.00 20.00    -0.030 C 
HETATM    3  C5  UNL     1     -31.186  18.898   0.241  1.00 20.00     0.027 C 
HETATM    4  C6  UNL     1     -33.989  18.139  -0.437  1.00 20.00     0.035 C 
HETATM    5  C7  UNL     1     -31.538  18.151  -1.048  1.00 20.00     0.012 C 
HETATM    6  C8  UNL     1     -32.952  18.488  -1.506  1.00 20.00     0.011 C 
ENDROOT
BRANCH   6   7
HETATM    7  C3  UNL     1     -33.252  17.656  -2.739  1.00 20.00    -0.023 C 
HETATM    8  C4  UNL     1     -33.303  16.316  -2.741  1.00 20.00     0.000 C 
BRANCH   8   9
HETATM    9  C10 UNL     1     -33.600  15.496  -3.962  1.00 20.00     0.136 C 
HETATM   10  C9  UNL     1     -34.393  16.299  -4.985  1.00 20.00     0.043 C 
BRANCH   9  11
HETATM   11  O11 UNL     1     -32.358  15.101  -4.539  1.00 20.00    -0.392 OA
HETATM   12  H27 UNL     1     -32.322  15.506  -5.419  1.00 20.00     0.210 HD
ENDBRANCH   9  11
ENDBRANCH   8   9
ENDBRANCH   6   7
TORSDOF 3
ENDMDL
MODEL 3
REMARK VINA RESULT:      -4.4     11.258     11.860
REMARK  3 active torsions:
REMARK  status: ('A' for Active; 'I' for Inactive)
REMARK    1  A    between atoms: C3_3  and  C8_8 
REMARK    2  A    between atoms: C4_4  and  C10_10 
REMARK    3  A    between atoms: C10_10  and  O11_11 
ROOT
HETATM    1  C1  UNL     1     -31.964  19.263   1.499  1.00 20.00    -0.031 C 
HETATM    2  C2  UNL     1     -31.177  18.980   0.452  1.00 20.00    -0.030 C 
HETATM    3  C5  UNL     1     -33.435  18.968   1.522  1.00 20.00     0.027 C 
HETATM    4  C6  UNL     1     -31.676  18.306  -0.793  1.00 20.00     0.035 C 
HETATM    5  C7  UNL     1     -34.000  18.631   0.140  1.00 20.00     0.012 C 
HETATM    6  C8  UNL     1     -33.067  17.694  -0.619  1.00 20.00     0.011 C 
ENDROOT
BRANCH   6   7
HETATM    7  C3  UNL     1     -33.655  17.469  -1.998  1.00 20.00    -0.023 C 
HETATM    8  C4  UNL     1     -33.316  16.446  -2.797  1.00 20.00     0.000 C 
BRANCH   8   9
HETATM    9  C10 UNL     1     -33.901  16.227  -4.162  1.00 20.00     0.136 C 
HETATM   10  C9  UNL     1     -34.031  14.742  -4.473  1.00 20.00     0.043 C 
BRANCH   9  11
HETATM   11  O11 UNL     1     -35.194  16.824  -4.187  1.00 20.00    -0.392 OA
HETATM   12  H27 UNL     1     -35.831  16.111  -4.024  1.00 20.00     0.210 HD
ENDBRANCH   9  11
ENDBRANCH   8   9
ENDBRANCH   6   7
TORSDOF 3
ENDMDL
MODEL 4
REMARK VINA RESULT:      -4.4     11.265     12.542
REMARK  3 active torsions:
REMARK  status: ('A' for Active; 'I' for Inactive)
REMARK    1  A    between atoms: C3_3  and  C8_8 
REMARK    2  A    between atoms: C4_4  and  C10_10 
REMARK    3  A    between atoms: C10_10  and  O11_11 
ROOT
HETATM    1  C1  UNL     1     -34.519  15.448  -5.491  1.00 20.00    -0.031 C 
HETATM    2  C2  UNL     1     -34.702  16.770  -5.613  1.00 20.00    -0.030 C 
HETATM    3  C5  UNL     1     -33.834  14.821  -4.313  1.00 20.00     0.027 C 
HETATM    4  C6  UNL     1     -34.276  17.759  -4.568  1.00 20.00     0.035 C 
HETATM    5  C7  UNL     1     -33.084  15.835  -3.446  1.00 20.00     0.012 C 
HETATM    6  C8  UNL     1     -33.915  17.097  -3.238  1.00 20.00     0.011 C 
ENDROOT
BRANCH   6   7
HETATM    7  C3  UNL     1     -33.079  18.077  -2.438  1.00 20.00    -0.023 C 
HETATM    8  C4  UNL     1     -32.779  17.918  -1.140  1.00 20.00     0.000 C 
BRANCH   8   9
HETATM    9  C10 UNL     1     -31.951  18.890  -0.352  1.00 20.00     0.136 C 
HETATM   10  C9  UNL     1     -32.279  18.817   1.133  1.00 20.00     0.043 C 
BRANCH   9  11
HETATM   11  O11 UNL     1     -30.579  18.556  -0.545  1.00 20.00    -0.392 OA
HETATM   12  H27 UNL     1     -30.121  18.788   0.278  1.00 20.00     0.210 HD
ENDBRANCH   9  11
ENDBRANCH   8   9
ENDBRANCH   6   7
TORSDOF 3
ENDMDL
MODEL 5
REMARK VINA RESULT:      -4.4     11.192     12.092
REMARK  3 active torsions:
REMARK  status: ('A' for Active; 'I' for Inactive)
REMARK    1  A    between atoms: C3_3  and  C8_8 
REMARK    2  A    between atoms: C4_4  and  C10_10 
REMARK    3  A    between atoms: C10_10  and  O11_11 
ROOT
HETATM    1  C1  UNL     1     -33.859  19.251  -0.190  1.00 20.00    -0.031 C 
HETATM    2  C2  UNL     1     -34.967  19.263  -0.944  1.00 20.00    -0.030 C 
HETATM    3  C5  UNL     1     -32.630  18.471  -0.552  1.00 20.00     0.027 C 
HETATM    4  C6  UNL     1     -35.083  18.527  -2.247  1.00 20.00     0.035 C 
HETATM    5  C7  UNL     1     -32.876  17.447  -1.663  1.00 20.00     0.012 C 
HETATM    6  C8  UNL     1     -33.732  18.042  -2.775  1.00 20.00     0.011 C 
ENDROOT
BRANCH   6   7
HETATM    7  C3  UNL     1     -33.994  16.951  -3.796  1.00 20.00    -0.023 C 
HETATM    8  C4  UNL     1     -33.664  15.663  -3.613  1.00 20.00     0.000 C 
BRANCH   8   9
HETATM    9  C10 UNL     1     -33.925  14.586  -4.625  1.00 20.00     0.136 C 
HETATM   10  C9  UNL     1     -33.974  15.155  -6.036  1.00 20.00     0.043 C 
BRANCH   9  11
HETATM   11  O11 UNL     1     -32.864  13.638  -4.540  1.00 20.00    -0.392 OA
HETATM   12  H27 UNL     1     -32.695  13.497  -3.595  1.00 20.00     0.210 HD
ENDBRANCH   9  11
ENDBRANCH   8   9
ENDBRANCH   6   7
TORSDOF 3
ENDMDL
MODEL 6
REMARK VINA RESULT:      -4.3     11.221     12.503
REMARK  3 active torsions:
REMARK  status: ('A' for Active; 'I' for Inactive)
REMARK    1  A    between atoms: C3_3  and  C8_8 
REMARK    2  A    between atoms: C4_4  and  C10_10 
REMARK    3  A    between atoms: C10_10  and  O11_11 
ROOT
HETATM    1  C1  UNL     1     -34.949  15.129  -5.112  1.00 20.00    -0.031 C 
HETATM    2  C2  UNL     1     -33.966  14.832  -4.250  1.00 20.00    -0.030 C 
HETATM    3  C5  UNL     1     -35.440  16.527  -5.346  1.00 20.00     0.027 C 
HETATM    4  C6  UNL     1     -33.228  15.870  -3.457  1.00 20.00     0.035 C 
HETATM    5  C7  UNL     1     -34.954  17.518  -4.285  1.00 20.00     0.012 C 
HETATM    6  C8  UNL     1     -33.482  17.292  -3.960  1.00 20.00     0.011 C 
ENDROOT
BRANCH   6   7
HETATM    7  C3  UNL     1     -33.097  18.256  -2.854  1.00 20.00    -0.023 C 
HETATM    8  C4  UNL     1     -32.497  17.883  -1.713  1.00 20.00     0.000 C 
BRANCH   8   9
HETATM    9  C10 UNL     1     -32.118  18.840  -0.621  1.00 20.00     0.136 C 
HETATM   10  C9  UNL     1     -32.832  18.502   0.680  1.00 20.00     0.043 C 
BRANCH   9  11
HETATM   11  O11 UNL     1     -30.710  18.741  -0.421  1.00 20.00    -0.392 OA
HETATM   12  H27 UNL     1     -30.357  19.642  -0.496  1.00 20.00     0.210 HD
ENDBRANCH   9  11
ENDBRANCH   8   9
ENDBRANCH   6   7
TORSDOF 3
ENDMDL
MODEL 7
REMARK VINA RESULT:      -4.1     11.650     12.425
REMARK  3 active torsions:
REMARK  status: ('A' for Active; 'I' for Inactive)
REMARK    1  A    between atoms: C3_3  and  C8_8 
REMARK    2  A    between atoms: C4_4  and  C10_10 
REMARK    3  A    between atoms: C10_10  and  O11_11 
ROOT
HETATM    1  C1  UNL     1     -34.111  18.808  -0.675  1.00 20.00    -0.031 C 
HETATM    2  C2  UNL     1     -35.114  19.118  -1.509  1.00 20.00    -0.030 C 
HETATM    3  C5  UNL     1     -33.028  17.831  -1.024  1.00 20.00     0.027 C 
HETATM    4  C6  UNL     1     -35.239  18.549  -2.891  1.00 20.00     0.035 C 
HETATM    5  C7  UNL     1     -33.356  16.989  -2.260  1.00 20.00     0.012 C 
HETATM    6  C8  UNL     1     -33.963  17.849  -3.362  1.00 20.00     0.011 C 
ENDROOT
BRANCH   6   7
HETATM    7  C3  UNL     1     -34.329  16.936  -4.517  1.00 20.00    -0.023 C 
HETATM    8  C4  UNL     1     -34.017  15.632  -4.566  1.00 20.00     0.000 C 
BRANCH   8   9
HETATM    9  C10 UNL     1     -34.381  14.732  -5.709  1.00 20.00     0.136 C 
HETATM   10  C9  UNL     1     -35.630  15.228  -6.426  1.00 20.00     0.043 C 
BRANCH   9  11
HETATM   11  O11 UNL     1     -33.289  14.722  -6.625  1.00 20.00    -0.392 OA
HETATM   12  H27 UNL     1     -33.648  14.431  -7.478  1.00 20.00     0.210 HD
ENDBRANCH   9  11
ENDBRANCH   8   9
ENDBRANCH   6   7
TORSDOF 3
ENDMDL
MODEL 8
REMARK VINA RESULT:      -3.9      2.145      5.231
REMARK  3 active torsions:
REMARK  status: ('A' for Active; 'I' for Inactive)
REMARK    1  A    between atoms: C3_3  and  C8_8 
REMARK    2  A    between atoms: C4_4  and  C10_10 
REMARK    3  A    between atoms: C10_10  and  O11_11 
ROOT
HETATM    1  C1  UNL     1     -32.441   8.925   0.347  1.00 20.00    -0.031 C 
HETATM    2  C2  UNL     1     -32.091   7.706   0.781  1.00 20.00    -0.030 C 
HETATM    3  C5  UNL     1     -32.893  10.023   1.263  1.00 20.00     0.027 C 
HETATM    4  C6  UNL     1     -32.079   7.323   2.232  1.00 20.00     0.035 C 
HETATM    5  C7  UNL     1     -33.231   9.527   2.672  1.00 20.00     0.012 C 
HETATM    6  C8  UNL     1     -32.189   8.530   3.165  1.00 20.00     0.011 C 
ENDROOT
BRANCH   6   7
HETATM    7  C3  UNL     1     -32.632   8.030   4.527  1.00 20.00    -0.023 C 
HETATM    8  C4  UNL     1     -33.753   7.323   4.735  1.00 20.00     0.000 C 
BRANCH   8   9
HETATM    9  C10 UNL     1     -34.187   6.830   6.084  1.00 20.00     0.136 C 
HETATM   10  C9  UNL     1     -34.730   5.409   6.003  1.00 20.00     0.043 C 
BRANCH   9  11
HETATM   11  O11 UNL     1     -33.052   6.848   6.945  1.00 20.00    -0.392 OA
HETATM   12  H27 UNL     1     -32.272   6.758   6.375  1.00 20.00     0.210 HD
ENDBRANCH   9  11
ENDBRANCH   8   9
ENDBRANCH   6   7
TORSDOF 3
ENDMDL
MODEL 9
REMARK VINA RESULT:      -3.9     10.145     11.071
REMARK  3 active torsions:
REMARK  status: ('A' for Active; 'I' for Inactive)
REMARK    1  A    between atoms: C3_3  and  C8_8 
REMARK    2  A    between atoms: C4_4  and  C10_10 
REMARK    3  A    between atoms: C10_10  and  O11_11 
ROOT
HETATM    1  C1  UNL     1     -42.510  17.042   7.246  1.00 20.00    -0.031 C 
HETATM    2  C2  UNL     1     -41.324  16.967   7.867  1.00 20.00    -0.030 C 
HETATM    3  C5  UNL     1     -43.091  15.910   6.452  1.00 20.00     0.027 C 
HETATM    4  C6  UNL     1     -40.470  15.733   7.863  1.00 20.00     0.035 C 
HETATM    5  C7  UNL     1     -42.073  14.809   6.144  1.00 20.00     0.012 C 
HETATM    6  C8  UNL     1     -41.220  14.495   7.368  1.00 20.00     0.011 C 
ENDROOT
BRANCH   6   7
HETATM    7  C3  UNL     1     -40.192  13.456   6.964  1.00 20.00    -0.023 C 
HETATM    8  C4  UNL     1     -40.189  12.830   5.778  1.00 20.00     0.000 C 
BRANCH   8   9
HETATM    9  C10 UNL     1     -39.170  11.802   5.381  1.00 20.00     0.136 C 
HETATM   10  C9  UNL     1     -39.037  11.713   3.867  1.00 20.00     0.043 C 
BRANCH   9  11
HETATM   11  O11 UNL     1     -37.917  12.189   5.938  1.00 20.00    -0.392 OA
HETATM   12  H27 UNL     1     -37.354  11.398   5.926  1.00 20.00     0.210 HD
ENDBRANCH   9  11
ENDBRANCH   8   9
ENDBRANCH   6   7
TORSDOF 3
ENDMDL
