MODEL 1
REMARK VINA RESULT:      -4.3      0.000      0.000
REMARK  1 active torsions:
REMARK  status: ('A' for Active; 'I' for Inactive)
REMARK    1  A    between atoms: C2_2  and  C3_3 
ROOT
HETATM    1  C1  UNL     1     -41.133  13.202   6.775  1.00 20.00    -0.061 C 
HETATM    2  C2  UNL     1     -40.525  12.318   5.976  1.00 20.00     0.088 C 
HETATM    3  C4  UNL     1     -40.496  15.533   7.281  1.00 20.00     0.009 C 
HETATM    4  C5  UNL     1     -41.977  15.906   7.478  1.00 20.00     0.006 C 
HETATM    5  C6  UNL     1     -41.477  14.101   8.909  1.00 20.00     0.014 C 
HETATM    6  C7  UNL     1     -40.435  14.084   7.793  1.00 20.00     0.016 C 
HETATM    7  C8  UNL     1     -42.604  14.586   7.983  1.00 20.00    -0.002 C 
HETATM    8  C9  UNL     1     -42.630  13.482   6.874  1.00 20.00    -0.020 C 
HETATM    9  C10 UNL     1     -43.416  12.245   7.348  1.00 20.00     0.020 C 
HETATM   10  C11 UNL     1     -43.232  13.963   5.546  1.00 20.00     0.020 C 
ENDROOT
BRANCH   2  11
HETATM   11  C3  UNL     1     -39.007  12.105   6.013  1.00 20.00     0.198 C 
HETATM   12  O12 UNL     1     -38.553  11.839   7.164  1.00 20.00    -0.644 OA
HETATM   13  O13 UNL     1     -38.386  12.216   4.919  1.00 20.00    -0.644 OA
ENDBRANCH   2  11
TORSDOF 1
ENDMDL
MODEL 2
REMARK VINA RESULT:      -4.2      1.179      2.795
REMARK  1 active torsions:
REMARK  status: ('A' for Active; 'I' for Inactive)
REMARK    1  A    between atoms: C2_2  and  C3_3 
ROOT
HETATM    1  C1  UNL     1     -41.058  13.739   6.848  1.00 20.00    -0.061 C 
HETATM    2  C2  UNL     1     -39.927  13.287   6.295  1.00 20.00     0.088 C 
HETATM    3  C4  UNL     1     -43.044  12.470   7.583  1.00 20.00     0.009 C 
HETATM    4  C5  UNL     1     -43.315  13.511   8.684  1.00 20.00     0.006 C 
HETATM    5  C6  UNL     1     -43.207  14.638   6.617  1.00 20.00     0.014 C 
HETATM    6  C7  UNL     1     -42.458  13.319   6.442  1.00 20.00     0.016 C 
HETATM    7  C8  UNL     1     -42.753  14.816   8.075  1.00 20.00    -0.002 C 
HETATM    8  C9  UNL     1     -41.193  14.786   7.950  1.00 20.00    -0.020 C 
HETATM    9  C10 UNL     1     -40.650  16.159   7.509  1.00 20.00     0.020 C 
HETATM   10  C11 UNL     1     -40.484  14.376   9.248  1.00 20.00     0.020 C 
ENDROOT
BRANCH   2  11
HETATM   11  C3  UNL     1     -39.939  12.260   5.155  1.00 20.00     0.198 C 
HETATM   12  O12 UNL     1     -39.775  11.065   5.539  1.00 20.00    -0.644 OA
HETATM   13  O13 UNL     1     -40.104  12.704   3.985  1.00 20.00    -0.644 OA
ENDBRANCH   2  11
TORSDOF 1
ENDMDL
MODEL 3
REMARK VINA RESULT:      -4.1     12.851     13.975
REMARK  1 active torsions:
REMARK  status: ('A' for Active; 'I' for Inactive)
REMARK    1  A    between atoms: C2_2  and  C3_3 
ROOT
HETATM    1  C1  UNL     1     -34.661  16.475  -4.634  1.00 20.00    -0.061 C 
HETATM    2  C2  UNL     1     -33.687  16.228  -3.751  1.00 20.00     0.088 C 
HETATM    3  C4  UNL     1     -35.124  18.545  -5.896  1.00 20.00     0.009 C 
HETATM    4  C5  UNL     1     -35.705  17.719  -7.058  1.00 20.00     0.006 C 
HETATM    5  C6  UNL     1     -36.861  17.133  -5.090  1.00 20.00     0.014 C 
HETATM    6  C7  UNL     1     -35.521  17.724  -4.658  1.00 20.00     0.016 C 
HETATM    7  C8  UNL     1     -36.274  16.471  -6.347  1.00 20.00    -0.002 C 
HETATM    8  C9  UNL     1     -35.146  15.561  -5.755  1.00 20.00    -0.020 C 
HETATM    9  C10 UNL     1     -35.730  14.243  -5.211  1.00 20.00     0.020 C 
HETATM   10  C11 UNL     1     -34.040  15.224  -6.765  1.00 20.00     0.020 C 
ENDROOT
BRANCH   2  11
HETATM   11  C3  UNL     1     -33.332  17.222  -2.638  1.00 20.00     0.198 C 
HETATM   12  O12 UNL     1     -33.681  16.845  -1.481  1.00 20.00    -0.644 OA
HETATM   13  O13 UNL     1     -32.745  18.285  -2.985  1.00 20.00    -0.644 OA
ENDBRANCH   2  11
TORSDOF 1
ENDMDL
MODEL 4
REMARK VINA RESULT:      -4.0     12.853     14.009
REMARK  1 active torsions:
REMARK  status: ('A' for Active; 'I' for Inactive)
REMARK    1  A    between atoms: C2_2  and  C3_3 
ROOT
HETATM    1  C1  UNL     1     -34.863  16.730  -4.719  1.00 20.00    -0.061 C 
HETATM    2  C2  UNL     1     -34.677  17.716  -3.835  1.00 20.00     0.088 C 
HETATM    3  C4  UNL     1     -34.819  14.289  -4.355  1.00 20.00     0.009 C 
HETATM    4  C5  UNL     1     -35.842  14.091  -5.488  1.00 20.00     0.006 C 
HETATM    5  C6  UNL     1     -34.008  15.290  -6.355  1.00 20.00     0.014 C 
HETATM    6  C7  UNL     1     -33.995  15.493  -4.841  1.00 20.00     0.016 C 
HETATM    7  C8  UNL     1     -35.543  15.273  -6.437  1.00 20.00    -0.002 C 
HETATM    8  C9  UNL     1     -35.931  16.652  -5.806  1.00 20.00    -0.020 C 
HETATM    9  C10 UNL     1     -35.788  17.788  -6.836  1.00 20.00     0.020 C 
HETATM   10  C11 UNL     1     -37.357  16.684  -5.239  1.00 20.00     0.020 C 
ENDROOT
BRANCH   2  11
HETATM   11  C3  UNL     1     -33.527  17.688  -2.821  1.00 20.00     0.198 C 
HETATM   12  O12 UNL     1     -32.628  18.553  -3.039  1.00 20.00    -0.644 OA
HETATM   13  O13 UNL     1     -33.596  16.827  -1.900  1.00 20.00    -0.644 OA
ENDBRANCH   2  11
TORSDOF 1
ENDMDL
MODEL 5
REMARK VINA RESULT:      -3.9     13.461     14.923
REMARK  1 active torsions:
REMARK  status: ('A' for Active; 'I' for Inactive)
REMARK    1  A    between atoms: C2_2  and  C3_3 
ROOT
HETATM    1  C1  UNL     1     -34.685  16.473  -5.642  1.00 20.00    -0.061 C 
HETATM    2  C2  UNL     1     -34.290  16.092  -4.422  1.00 20.00     0.088 C 
HETATM    3  C4  UNL     1     -35.902  15.177  -7.355  1.00 20.00     0.009 C 
HETATM    4  C5  UNL     1     -36.563  16.467  -7.876  1.00 20.00     0.006 C 
HETATM    5  C6  UNL     1     -34.226  16.770  -7.918  1.00 20.00     0.014 C 
HETATM    6  C7  UNL     1     -34.511  15.659  -6.909  1.00 20.00     0.016 C 
HETATM    7  C8  UNL     1     -35.504  17.549  -7.567  1.00 20.00    -0.002 C 
HETATM    8  C9  UNL     1     -35.339  17.795  -6.030  1.00 20.00    -0.020 C 
HETATM    9  C10 UNL     1     -34.413  18.996  -5.761  1.00 20.00     0.020 C 
HETATM   10  C11 UNL     1     -36.671  18.035  -5.304  1.00 20.00     0.020 C 
ENDROOT
BRANCH   2  11
HETATM   11  C3  UNL     1     -33.599  14.745  -4.179  1.00 20.00     0.198 C 
HETATM   12  O12 UNL     1     -32.335  14.802  -4.213  1.00 20.00    -0.644 OA
HETATM   13  O13 UNL     1     -34.345  13.746  -3.977  1.00 20.00    -0.644 OA
ENDBRANCH   2  11
TORSDOF 1
ENDMDL
MODEL 6
REMARK VINA RESULT:      -3.9     12.365     13.814
REMARK  1 active torsions:
REMARK  status: ('A' for Active; 'I' for Inactive)
REMARK    1  A    between atoms: C2_2  and  C3_3 
ROOT
HETATM    1  C1  UNL     1     -34.078  17.170  -3.932  1.00 20.00    -0.061 C 
HETATM    2  C2  UNL     1     -33.510  16.130  -3.312  1.00 20.00     0.088 C 
HETATM    3  C4  UNL     1     -36.175  17.246  -5.233  1.00 20.00     0.009 C 
HETATM    4  C5  UNL     1     -36.396  18.710  -4.812  1.00 20.00     0.006 C 
HETATM    5  C6  UNL     1     -34.269  18.547  -5.815  1.00 20.00     0.014 C 
HETATM    6  C7  UNL     1     -34.643  17.145  -5.339  1.00 20.00     0.016 C 
HETATM    7  C8  UNL     1     -34.956  19.240  -4.627  1.00 20.00    -0.002 C 
HETATM    8  C9  UNL     1     -34.239  18.589  -3.396  1.00 20.00    -0.020 C 
HETATM    9  C10 UNL     1     -32.880  19.263  -3.132  1.00 20.00     0.020 C 
HETATM   10  C11 UNL     1     -35.070  18.646  -2.106  1.00 20.00     0.020 C 
ENDROOT
BRANCH   2  11
HETATM   11  C3  UNL     1     -33.371  14.761  -3.990  1.00 20.00     0.198 C 
HETATM   12  O12 UNL     1     -32.216  14.532  -4.455  1.00 20.00    -0.644 OA
HETATM   13  O13 UNL     1     -34.398  14.027  -4.014  1.00 20.00    -0.644 OA
ENDBRANCH   2  11
TORSDOF 1
ENDMDL
MODEL 7
REMARK VINA RESULT:      -3.8     11.602     13.099
REMARK  1 active torsions:
REMARK  status: ('A' for Active; 'I' for Inactive)
REMARK    1  A    between atoms: C2_2  and  C3_3 
ROOT
HETATM    1  C1  UNL     1     -33.714  17.017  -2.934  1.00 20.00    -0.061 C 
HETATM    2  C2  UNL     1     -33.390  15.724  -3.044  1.00 20.00     0.088 C 
HETATM    3  C4  UNL     1     -35.842  18.137  -3.495  1.00 20.00     0.009 C 
HETATM    4  C5  UNL     1     -35.599  19.177  -2.386  1.00 20.00     0.006 C 
HETATM    5  C6  UNL     1     -33.730  19.183  -3.821  1.00 20.00     0.014 C 
HETATM    6  C7  UNL     1     -34.421  17.834  -4.000  1.00 20.00     0.016 C 
HETATM    7  C8  UNL     1     -34.056  19.263  -2.322  1.00 20.00    -0.002 C 
HETATM    8  C9  UNL     1     -33.413  17.949  -1.765  1.00 20.00    -0.020 C 
HETATM    9  C10 UNL     1     -31.899  18.128  -1.546  1.00 20.00     0.020 C 
HETATM   10  C11 UNL     1     -34.043  17.471  -0.448  1.00 20.00     0.020 C 
ENDROOT
BRANCH   2  11
HETATM   11  C3  UNL     1     -33.715  14.913  -4.305  1.00 20.00     0.198 C 
HETATM   12  O12 UNL     1     -34.543  13.974  -4.113  1.00 20.00    -0.644 OA
HETATM   13  O13 UNL     1     -33.136  15.256  -5.373  1.00 20.00    -0.644 OA
ENDBRANCH   2  11
TORSDOF 1
ENDMDL
MODEL 8
REMARK VINA RESULT:      -3.7      1.066      2.149
REMARK  1 active torsions:
REMARK  status: ('A' for Active; 'I' for Inactive)
REMARK    1  A    between atoms: C2_2  and  C3_3 
ROOT
HETATM    1  C1  UNL     1     -41.139  13.076   6.238  1.00 20.00    -0.061 C 
HETATM    2  C2  UNL     1     -40.331  12.017   6.126  1.00 20.00     0.088 C 
HETATM    3  C4  UNL     1     -42.241  14.384   4.458  1.00 20.00     0.009 C 
HETATM    4  C5  UNL     1     -43.417  14.697   5.401  1.00 20.00     0.006 C 
HETATM    5  C6  UNL     1     -41.426  15.389   6.455  1.00 20.00     0.014 C 
HETATM    6  C7  UNL     1     -41.036  14.344   5.412  1.00 20.00     0.016 C 
HETATM    7  C8  UNL     1     -42.753  14.694   6.797  1.00 20.00    -0.002 C 
HETATM    8  C9  UNL     1     -42.285  13.264   7.227  1.00 20.00    -0.020 C 
HETATM    9  C10 UNL     1     -41.792  13.262   8.687  1.00 20.00     0.020 C 
HETATM   10  C11 UNL     1     -43.376  12.194   7.080  1.00 20.00     0.020 C 
ENDROOT
BRANCH   2  11
HETATM   11  C3  UNL     1     -39.180  11.980   5.112  1.00 20.00     0.198 C 
HETATM   12  O12 UNL     1     -39.551  11.758   3.921  1.00 20.00    -0.644 OA
HETATM   13  O13 UNL     1     -38.015  12.167   5.560  1.00 20.00    -0.644 OA
ENDBRANCH   2  11
TORSDOF 1
ENDMDL
MODEL 9
REMARK VINA RESULT:      -3.7     12.745     14.258
REMARK  1 active torsions:
REMARK  status: ('A' for Active; 'I' for Inactive)
REMARK    1  A    between atoms: C2_2  and  C3_3 
ROOT
HETATM    1  C1  UNL     1     -36.214  16.500  -5.282  1.00 20.00    -0.061 C 
HETATM    2  C2  UNL     1     -37.357  17.165  -5.086  1.00 20.00     0.088 C 
HETATM    3  C4  UNL     1     -35.627  14.917  -7.083  1.00 20.00     0.009 C 
HETATM    4  C5  UNL     1     -34.150  15.343  -6.991  1.00 20.00     0.006 C 
HETATM    5  C6  UNL     1     -34.850  14.647  -4.851  1.00 20.00     0.014 C 
HETATM    6  C7  UNL     1     -36.109  15.027  -5.627  1.00 20.00     0.016 C 
HETATM    7  C8  UNL     1     -33.997  15.744  -5.506  1.00 20.00    -0.002 C 
HETATM    8  C9  UNL     1     -34.794  17.046  -5.159  1.00 20.00    -0.020 C 
HETATM    9  C10 UNL     1     -34.481  17.518  -3.727  1.00 20.00     0.020 C 
HETATM   10  C11 UNL     1     -34.519  18.206  -6.126  1.00 20.00     0.020 C 
ENDROOT
BRANCH   2  11
HETATM   11  C3  UNL     1     -38.723  16.477  -5.197  1.00 20.00     0.198 C 
HETATM   12  O12 UNL     1     -39.199  16.097  -4.087  1.00 20.00    -0.644 OA
HETATM   13  O13 UNL     1     -39.216  16.364  -6.354  1.00 20.00    -0.644 OA
ENDBRANCH   2  11
TORSDOF 1
ENDMDL
