MODEL 1
REMARK VINA RESULT:      -4.9      0.000      0.000
REMARK  2 active torsions:
REMARK  status: ('A' for Active; 'I' for Inactive)
REMARK    1  A    between atoms: C1_1  and  C10_10 
REMARK    2  A    between atoms: C8_8  and  C10_10 
ROOT
HETATM    1  C2  UNL     1     -34.583   5.134   6.231  1.00 20.00     0.005 C 
HETATM    2  C3  UNL     1     -34.168   6.607   6.353  1.00 20.00     0.005 C 
HETATM    3  C4  UNL     1     -35.413   6.336   4.353  1.00 20.00     0.009 C 
HETATM    4  C5  UNL     1     -33.495   4.982   3.977  1.00 20.00     0.010 C 
HETATM    5  C6  UNL     1     -34.841   4.970   4.724  1.00 20.00    -0.014 C 
HETATM    6  C7  UNL     1     -34.200   7.096   4.893  1.00 20.00    -0.010 C 
HETATM    7  C8  UNL     1     -33.019   6.443   4.136  1.00 20.00    -0.003 C 
ENDROOT
BRANCH   7   8
HETATM    8  C10 UNL     1     -32.736   7.107   2.793  1.00 20.00     0.082 C 
BRANCH   8   9
HETATM    9  C1  UNL     1     -32.574   8.609   2.915  1.00 20.00     0.123 C 
HETATM   10  C9  UNL     1     -32.852   9.403   1.665  1.00 20.00     0.091 C 
HETATM   11  O11 UNL     1     -32.237   9.165   3.959  1.00 20.00    -0.298 OA
ENDBRANCH   8   9
ENDBRANCH   7   8
TORSDOF 2
ENDMDL
MODEL 2
REMARK VINA RESULT:      -4.5     11.860     12.791
REMARK  2 active torsions:
REMARK  status: ('A' for Active; 'I' for Inactive)
REMARK    1  A    between atoms: C1_1  and  C10_10 
REMARK    2  A    between atoms: C8_8  and  C10_10 
ROOT
HETATM    1  C2  UNL     1     -34.646  18.973  -1.136  1.00 20.00     0.005 C 
HETATM    2  C3  UNL     1     -33.769  17.872  -0.521  1.00 20.00     0.005 C 
HETATM    3  C4  UNL     1     -32.651  18.761  -2.415  1.00 20.00     0.009 C 
HETATM    4  C5  UNL     1     -34.615  17.803  -3.353  1.00 20.00     0.010 C 
HETATM    5  C6  UNL     1     -34.140  19.050  -2.586  1.00 20.00    -0.014 C 
HETATM    6  C7  UNL     1     -32.894  17.426  -1.709  1.00 20.00    -0.010 C 
HETATM    7  C8  UNL     1     -33.792  16.664  -2.713  1.00 20.00    -0.003 C 
ENDROOT
BRANCH   7   8
HETATM    8  C10 UNL     1     -32.991  15.879  -3.746  1.00 20.00     0.082 C 
BRANCH   8   9
HETATM    9  C1  UNL     1     -33.839  14.861  -4.481  1.00 20.00     0.123 C 
HETATM   10  C9  UNL     1     -34.053  15.122  -5.950  1.00 20.00     0.091 C 
HETATM   11  O11 UNL     1     -34.332  13.877  -3.933  1.00 20.00    -0.298 OA
ENDBRANCH   8   9
ENDBRANCH   7   8
TORSDOF 2
ENDMDL
MODEL 3
REMARK VINA RESULT:      -4.2     11.923     13.144
REMARK  2 active torsions:
REMARK  status: ('A' for Active; 'I' for Inactive)
REMARK    1  A    between atoms: C1_1  and  C10_10 
REMARK    2  A    between atoms: C8_8  and  C10_10 
ROOT
HETATM    1  C2  UNL     1     -33.587  17.200  -3.951  1.00 20.00     0.005 C 
HETATM    2  C3  UNL     1     -33.422  16.378  -2.665  1.00 20.00     0.005 C 
HETATM    3  C4  UNL     1     -34.835  18.227  -2.205  1.00 20.00     0.009 C 
HETATM    4  C5  UNL     1     -32.771  19.260  -2.777  1.00 20.00     0.010 C 
HETATM    5  C6  UNL     1     -33.993  18.587  -3.427  1.00 20.00    -0.014 C 
HETATM    6  C7  UNL     1     -33.716  17.409  -1.558  1.00 20.00    -0.010 C 
HETATM    7  C8  UNL     1     -32.541  18.415  -1.506  1.00 20.00    -0.003 C 
ENDROOT
BRANCH   7   8
HETATM    8  C10 UNL     1     -32.543  19.263  -0.239  1.00 20.00     0.082 C 
BRANCH   8   9
HETATM    9  C1  UNL     1     -31.469  18.837   0.742  1.00 20.00     0.123 C 
HETATM   10  C9  UNL     1     -31.832  18.945   2.201  1.00 20.00     0.091 C 
HETATM   11  O11 UNL     1     -30.365  18.427   0.392  1.00 20.00    -0.298 OA
ENDBRANCH   8   9
ENDBRANCH   7   8
TORSDOF 2
ENDMDL
MODEL 4
REMARK VINA RESULT:      -4.1     11.902     13.287
REMARK  2 active torsions:
REMARK  status: ('A' for Active; 'I' for Inactive)
REMARK    1  A    between atoms: C1_1  and  C10_10 
REMARK    2  A    between atoms: C8_8  and  C10_10 
ROOT
HETATM    1  C2  UNL     1     -33.017  19.174  -2.674  1.00 20.00     0.005 C 
HETATM    2  C3  UNL     1     -33.062  18.840  -4.173  1.00 20.00     0.005 C 
HETATM    3  C4  UNL     1     -35.052  18.041  -3.161  1.00 20.00     0.009 C 
HETATM    4  C5  UNL     1     -33.356  16.758  -2.095  1.00 20.00     0.010 C 
HETATM    5  C6  UNL     1     -33.996  18.157  -2.064  1.00 20.00    -0.014 C 
HETATM    6  C7  UNL     1     -34.033  17.646  -4.231  1.00 20.00    -0.010 C 
HETATM    7  C8  UNL     1     -33.331  16.419  -3.601  1.00 20.00    -0.003 C 
ENDROOT
BRANCH   7   8
HETATM    8  C10 UNL     1     -34.042  15.106  -3.910  1.00 20.00     0.082 C 
BRANCH   8   9
HETATM    9  C1  UNL     1     -34.460  15.004  -5.363  1.00 20.00     0.123 C 
HETATM   10  C9  UNL     1     -35.940  14.875  -5.614  1.00 20.00     0.091 C 
HETATM   11  O11 UNL     1     -33.658  15.023  -6.295  1.00 20.00    -0.298 OA
ENDBRANCH   8   9
ENDBRANCH   7   8
TORSDOF 2
ENDMDL
MODEL 5
REMARK VINA RESULT:      -4.1      9.413     10.358
REMARK  2 active torsions:
REMARK  status: ('A' for Active; 'I' for Inactive)
REMARK    1  A    between atoms: C1_1  and  C10_10 
REMARK    2  A    between atoms: C8_8  and  C10_10 
ROOT
HETATM    1  C2  UNL     1     -42.255  15.703   7.231  1.00 20.00     0.005 C 
HETATM    2  C3  UNL     1     -42.523  15.180   5.812  1.00 20.00     0.005 C 
HETATM    3  C4  UNL     1     -42.787  13.386   7.341  1.00 20.00     0.009 C 
HETATM    4  C5  UNL     1     -40.490  13.955   7.574  1.00 20.00     0.010 C 
HETATM    5  C6  UNL     1     -41.890  14.426   8.007  1.00 20.00    -0.014 C 
HETATM    6  C7  UNL     1     -42.239  13.672   5.941  1.00 20.00    -0.010 C 
HETATM    7  C8  UNL     1     -40.714  13.478   6.123  1.00 20.00    -0.003 C 
ENDROOT
BRANCH   7   8
HETATM    8  C10 UNL     1     -40.271  12.035   5.913  1.00 20.00     0.082 C 
BRANCH   8   9
HETATM    9  C1  UNL     1     -38.939  11.939   5.197  1.00 20.00     0.123 C 
HETATM   10  C9  UNL     1     -39.006  11.683   3.714  1.00 20.00     0.091 C 
HETATM   11  O11 UNL     1     -37.858  12.058   5.771  1.00 20.00    -0.298 OA
ENDBRANCH   8   9
ENDBRANCH   7   8
TORSDOF 2
ENDMDL
MODEL 6
REMARK VINA RESULT:      -4.1     12.084     13.209
REMARK  2 active torsions:
REMARK  status: ('A' for Active; 'I' for Inactive)
REMARK    1  A    between atoms: C1_1  and  C10_10 
REMARK    2  A    between atoms: C8_8  and  C10_10 
ROOT
HETATM    1  C2  UNL     1     -35.367  15.819  -7.091  1.00 20.00     0.005 C 
HETATM    2  C3  UNL     1     -33.951  15.260  -6.887  1.00 20.00     0.005 C 
HETATM    3  C4  UNL     1     -35.344  14.448  -5.147  1.00 20.00     0.009 C 
HETATM    4  C5  UNL     1     -35.347  16.798  -4.783  1.00 20.00     0.010 C 
HETATM    5  C6  UNL     1     -35.983  15.726  -5.686  1.00 20.00    -0.014 C 
HETATM    6  C7  UNL     1     -33.918  14.951  -5.378  1.00 20.00    -0.010 C 
HETATM    7  C8  UNL     1     -33.898  16.294  -4.608  1.00 20.00    -0.003 C 
ENDROOT
BRANCH   7   8
HETATM    8  C10 UNL     1     -33.516  16.131  -3.141  1.00 20.00     0.082 C 
BRANCH   8   9
HETATM    9  C1  UNL     1     -33.268  17.460  -2.458  1.00 20.00     0.123 C 
HETATM   10  C9  UNL     1     -33.693  17.548  -1.015  1.00 20.00     0.091 C 
HETATM   11  O11 UNL     1     -32.753  18.421  -3.027  1.00 20.00    -0.298 OA
ENDBRANCH   8   9
ENDBRANCH   7   8
TORSDOF 2
ENDMDL
MODEL 7
REMARK VINA RESULT:      -4.0     10.014     10.887
REMARK  2 active torsions:
REMARK  status: ('A' for Active; 'I' for Inactive)
REMARK    1  A    between atoms: C1_1  and  C10_10 
REMARK    2  A    between atoms: C8_8  and  C10_10 
ROOT
HETATM    1  C2  UNL     1     -41.903  15.442   9.360  1.00 20.00     0.005 C 
HETATM    2  C3  UNL     1     -40.413  15.340   9.006  1.00 20.00     0.005 C 
HETATM    3  C4  UNL     1     -41.613  15.959   7.056  1.00 20.00     0.009 C 
HETATM    4  C5  UNL     1     -42.477  13.800   7.554  1.00 20.00     0.010 C 
HETATM    5  C6  UNL     1     -42.596  15.269   7.998  1.00 20.00    -0.014 C 
HETATM    6  C7  UNL     1     -40.437  15.080   7.487  1.00 20.00    -0.010 C 
HETATM    7  C8  UNL     1     -40.971  13.648   7.248  1.00 20.00    -0.003 C 
ENDROOT
BRANCH   7   8
HETATM    8  C10 UNL     1     -40.717  13.150   5.830  1.00 20.00     0.082 C 
BRANCH   8   9
HETATM    9  C1  UNL     1     -39.552  12.184   5.758  1.00 20.00     0.123 C 
HETATM   10  C9  UNL     1     -39.138  11.755   4.373  1.00 20.00     0.091 C 
HETATM   11  O11 UNL     1     -38.967  11.762   6.753  1.00 20.00    -0.298 OA
ENDBRANCH   8   9
ENDBRANCH   7   8
TORSDOF 2
ENDMDL
MODEL 8
REMARK VINA RESULT:      -4.0     12.178     13.582
REMARK  2 active torsions:
REMARK  status: ('A' for Active; 'I' for Inactive)
REMARK    1  A    between atoms: C1_1  and  C10_10 
REMARK    2  A    between atoms: C8_8  and  C10_10 
ROOT
HETATM    1  C2  UNL     1     -34.216  18.012  -1.629  1.00 20.00     0.005 C 
HETATM    2  C3  UNL     1     -33.460  16.775  -2.134  1.00 20.00     0.005 C 
HETATM    3  C4  UNL     1     -33.060  18.570  -3.632  1.00 20.00     0.009 C 
HETATM    4  C5  UNL     1     -35.404  18.223  -3.826  1.00 20.00     0.010 C 
HETATM    5  C6  UNL     1     -34.363  18.870  -2.896  1.00 20.00    -0.014 C 
HETATM    6  C7  UNL     1     -33.302  17.060  -3.640  1.00 20.00    -0.010 C 
HETATM    7  C8  UNL     1     -34.694  16.938  -4.306  1.00 20.00    -0.003 C 
ENDROOT
BRANCH   7   8
HETATM    8  C10 UNL     1     -34.619  16.852  -5.826  1.00 20.00     0.082 C 
BRANCH   8   9
HETATM    9  C1  UNL     1     -34.640  15.421  -6.325  1.00 20.00     0.123 C 
HETATM   10  C9  UNL     1     -35.754  14.556  -5.794  1.00 20.00     0.091 C 
HETATM   11  O11 UNL     1     -33.809  14.972  -7.112  1.00 20.00    -0.298 OA
ENDBRANCH   8   9
ENDBRANCH   7   8
TORSDOF 2
ENDMDL
MODEL 9
REMARK VINA RESULT:      -4.0      1.882      4.211
REMARK  2 active torsions:
REMARK  status: ('A' for Active; 'I' for Inactive)
REMARK    1  A    between atoms: C1_1  and  C10_10 
REMARK    2  A    between atoms: C8_8  and  C10_10 
ROOT
HETATM    1  C2  UNL     1     -32.378   8.226   1.787  1.00 20.00     0.005 C 
HETATM    2  C3  UNL     1     -32.836   9.365   2.710  1.00 20.00     0.005 C 
HETATM    3  C4  UNL     1     -31.366   7.954   3.923  1.00 20.00     0.009 C 
HETATM    4  C5  UNL     1     -33.200   6.522   3.432  1.00 20.00     0.010 C 
HETATM    5  C6  UNL     1     -31.948   7.131   2.776  1.00 20.00    -0.014 C 
HETATM    6  C7  UNL     1     -32.648   8.765   4.116  1.00 20.00    -0.010 C 
HETATM    7  C8  UNL     1     -33.721   7.670   4.324  1.00 20.00    -0.003 C 
ENDROOT
BRANCH   7   8
HETATM    8  C10 UNL     1     -33.865   7.249   5.782  1.00 20.00     0.082 C 
BRANCH   8   9
HETATM    9  C1  UNL     1     -34.433   5.852   5.927  1.00 20.00     0.123 C 
HETATM   10  C9  UNL     1     -35.468   5.455   4.907  1.00 20.00     0.091 C 
HETATM   11  O11 UNL     1     -34.086   5.075   6.814  1.00 20.00    -0.298 OA
ENDBRANCH   8   9
ENDBRANCH   7   8
TORSDOF 2
ENDMDL
