MODEL 1
REMARK VINA RESULT:      -4.5      0.000      0.000
REMARK  1 active torsions:
REMARK  status: ('A' for Active; 'I' for Inactive)
REMARK    1  A    between atoms: C3_3  and  C7_7 
ROOT
HETATM    1  C1  UNL     1     -33.932   6.160   4.239  1.00 20.00    -0.020 C 
HETATM    2  C2  UNL     1     -33.669   7.040   5.220  1.00 20.00    -0.086 C 
HETATM    3  C4  UNL     1     -32.654   8.147   5.062  1.00 20.00     0.045 C 
HETATM    4  C5  UNL     1     -31.969   7.031   2.891  1.00 20.00     0.020 C 
HETATM    5  C6  UNL     1     -33.236   6.157   2.902  1.00 20.00     0.005 C 
HETATM    6  C7  UNL     1     -32.162   8.357   3.626  1.00 20.00     0.051 C 
HETATM    7  C8  UNL     1     -34.375   6.981   6.543  1.00 20.00     0.043 C 
HETATM    8  C9  UNL     1     -32.889   4.729   2.475  1.00 20.00     0.014 C 
ENDROOT
BRANCH   6   9
HETATM    9  C3  UNL     1     -33.097   9.247   2.858  1.00 20.00     0.236 C 
HETATM   10  O10 UNL     1     -32.888   9.615   1.707  1.00 20.00    -0.306 OA
ENDBRANCH   6   9
TORSDOF 1
ENDMDL
MODEL 2
REMARK VINA RESULT:      -4.3      2.406      3.483
REMARK  1 active torsions:
REMARK  status: ('A' for Active; 'I' for Inactive)
REMARK    1  A    between atoms: C3_3  and  C7_7 
ROOT
HETATM    1  C1  UNL     1     -32.421   6.984   3.535  1.00 20.00    -0.020 C 
HETATM    2  C2  UNL     1     -32.915   8.073   4.149  1.00 20.00    -0.086 C 
HETATM    3  C4  UNL     1     -34.202   8.040   4.939  1.00 20.00     0.045 C 
HETATM    4  C5  UNL     1     -34.558   5.706   4.013  1.00 20.00     0.020 C 
HETATM    5  C6  UNL     1     -33.096   5.636   3.536  1.00 20.00     0.005 C 
HETATM    6  C7  UNL     1     -34.742   6.632   5.215  1.00 20.00     0.051 C 
HETATM    7  C8  UNL     1     -32.213   9.398   4.093  1.00 20.00     0.043 C 
HETATM    8  C9  UNL     1     -33.030   4.995   2.149  1.00 20.00     0.014 C 
ENDROOT
BRANCH   6   9
HETATM    9  C3  UNL     1     -34.100   6.036   6.435  1.00 20.00     0.236 C 
HETATM   10  O10 UNL     1     -34.131   4.839   6.700  1.00 20.00    -0.306 OA
ENDBRANCH   6   9
TORSDOF 1
ENDMDL
MODEL 3
REMARK VINA RESULT:      -4.3     14.880     16.123
REMARK  1 active torsions:
REMARK  status: ('A' for Active; 'I' for Inactive)
REMARK    1  A    between atoms: C3_3  and  C7_7 
ROOT
HETATM    1  C1  UNL     1     -24.574  18.408   9.976  1.00 20.00    -0.020 C 
HETATM    2  C2  UNL     1     -24.474  18.944   8.748  1.00 20.00    -0.086 C 
HETATM    3  C4  UNL     1     -23.141  19.257   8.109  1.00 20.00     0.045 C 
HETATM    4  C5  UNL     1     -22.091  18.748  10.361  1.00 20.00     0.020 C 
HETATM    5  C6  UNL     1     -23.392  18.091  10.857  1.00 20.00     0.005 C 
HETATM    6  C7  UNL     1     -21.931  18.667   8.843  1.00 20.00     0.051 C 
HETATM    7  C8  UNL     1     -25.687  19.263   7.924  1.00 20.00     0.043 C 
HETATM    8  C9  UNL     1     -23.667  18.505  12.304  1.00 20.00     0.014 C 
ENDROOT
BRANCH   6   9
HETATM    9  C3  UNL     1     -21.682  17.247   8.420  1.00 20.00     0.236 C 
HETATM   10  O10 UNL     1     -21.623  16.891   7.249  1.00 20.00    -0.306 OA
ENDBRANCH   6   9
TORSDOF 1
ENDMDL
MODEL 4
REMARK VINA RESULT:      -3.9     11.264     12.690
REMARK  1 active torsions:
REMARK  status: ('A' for Active; 'I' for Inactive)
REMARK    1  A    between atoms: C3_3  and  C7_7 
ROOT
HETATM    1  C1  UNL     1     -34.491  17.417  -4.237  1.00 20.00    -0.020 C 
HETATM    2  C2  UNL     1     -35.242  18.337  -3.609  1.00 20.00    -0.086 C 
HETATM    3  C4  UNL     1     -35.029  18.702  -2.159  1.00 20.00     0.045 C 
HETATM    4  C5  UNL     1     -33.430  16.738  -2.037  1.00 20.00     0.020 C 
HETATM    5  C6  UNL     1     -33.388  16.633  -3.572  1.00 20.00     0.005 C 
HETATM    6  C7  UNL     1     -33.733  18.155  -1.550  1.00 20.00     0.051 C 
HETATM    7  C8  UNL     1     -36.345  19.071  -4.314  1.00 20.00     0.043 C 
HETATM    8  C9  UNL     1     -33.436  15.164  -3.996  1.00 20.00     0.014 C 
ENDROOT
BRANCH   6   9
HETATM    9  C3  UNL     1     -32.573  19.065  -1.841  1.00 20.00     0.236 C 
HETATM   10  O10 UNL     1     -31.501  19.003  -1.250  1.00 20.00    -0.306 OA
ENDBRANCH   6   9
TORSDOF 1
ENDMDL
MODEL 5
REMARK VINA RESULT:      -3.8     11.092     12.747
REMARK  1 active torsions:
REMARK  status: ('A' for Active; 'I' for Inactive)
REMARK    1  A    between atoms: C3_3  and  C7_7 
ROOT
HETATM    1  C1  UNL     1     -34.380  17.348  -4.728  1.00 20.00    -0.020 C 
HETATM    2  C2  UNL     1     -34.484  16.885  -5.985  1.00 20.00    -0.086 C 
HETATM    3  C4  UNL     1     -34.267  15.431  -6.331  1.00 20.00     0.045 C 
HETATM    4  C5  UNL     1     -33.435  15.126  -3.955  1.00 20.00     0.020 C 
HETATM    5  C6  UNL     1     -34.010  16.493  -3.543  1.00 20.00     0.005 C 
HETATM    6  C7  UNL     1     -34.195  14.494  -5.120  1.00 20.00     0.051 C 
HETATM    7  C8  UNL     1     -34.832  17.787  -7.133  1.00 20.00     0.043 C 
HETATM    8  C9  UNL     1     -33.018  17.225  -2.636  1.00 20.00     0.014 C 
ENDROOT
BRANCH   6   9
HETATM    9  C3  UNL     1     -35.569  14.075  -4.679  1.00 20.00     0.236 C 
HETATM   10  O10 UNL     1     -35.844  12.937  -4.313  1.00 20.00    -0.306 OA
ENDBRANCH   6   9
TORSDOF 1
ENDMDL
MODEL 6
REMARK VINA RESULT:      -3.7     11.438     12.877
REMARK  1 active torsions:
REMARK  status: ('A' for Active; 'I' for Inactive)
REMARK    1  A    between atoms: C3_3  and  C7_7 
ROOT
HETATM    1  C1  UNL     1     -33.233  16.526  -2.633  1.00 20.00    -0.020 C 
HETATM    2  C2  UNL     1     -33.739  16.062  -3.788  1.00 20.00    -0.086 C 
HETATM    3  C4  UNL     1     -34.725  16.854  -4.614  1.00 20.00     0.045 C 
HETATM    4  C5  UNL     1     -34.861  18.468  -2.663  1.00 20.00     0.020 C 
HETATM    5  C6  UNL     1     -33.604  17.853  -2.023  1.00 20.00     0.005 C 
HETATM    6  C7  UNL     1     -34.882  18.317  -4.184  1.00 20.00     0.051 C 
HETATM    7  C8  UNL     1     -33.353  14.720  -4.337  1.00 20.00     0.043 C 
HETATM    8  C9  UNL     1     -33.802  17.718  -0.511  1.00 20.00     0.014 C 
ENDROOT
BRANCH   6   9
HETATM    9  C3  UNL     1     -33.824  19.181  -4.808  1.00 20.00     0.236 C 
HETATM   10  O10 UNL     1     -33.601  19.213  -6.014  1.00 20.00    -0.306 OA
ENDBRANCH   6   9
TORSDOF 1
ENDMDL
MODEL 7
REMARK VINA RESULT:      -3.7      1.059      1.294
REMARK  1 active torsions:
REMARK  status: ('A' for Active; 'I' for Inactive)
REMARK    1  A    between atoms: C3_3  and  C7_7 
ROOT
HETATM    1  C1  UNL     1     -34.179   6.868   4.769  1.00 20.00    -0.020 C 
HETATM    2  C2  UNL     1     -33.415   7.933   5.065  1.00 20.00    -0.086 C 
HETATM    3  C4  UNL     1     -32.175   8.281   4.276  1.00 20.00     0.045 C 
HETATM    4  C5  UNL     1     -32.444   6.043   3.115  1.00 20.00     0.020 C 
HETATM    5  C6  UNL     1     -33.877   5.896   3.657  1.00 20.00     0.005 C 
HETATM    6  C7  UNL     1     -32.016   7.502   2.965  1.00 20.00     0.051 C 
HETATM    7  C8  UNL     1     -33.750   8.854   6.201  1.00 20.00     0.043 C 
HETATM    8  C9  UNL     1     -34.118   4.456   4.114  1.00 20.00     0.014 C 
ENDROOT
BRANCH   6   9
HETATM    9  C3  UNL     1     -32.782   8.157   1.851  1.00 20.00     0.236 C 
HETATM   10  O10 UNL     1     -32.755   9.363   1.630  1.00 20.00    -0.306 OA
ENDBRANCH   6   9
TORSDOF 1
ENDMDL
MODEL 8
REMARK VINA RESULT:      -3.6     10.128     11.339
REMARK  1 active torsions:
REMARK  status: ('A' for Active; 'I' for Inactive)
REMARK    1  A    between atoms: C3_3  and  C7_7 
ROOT
HETATM    1  C1  UNL     1     -41.090  13.194   4.994  1.00 20.00    -0.020 C 
HETATM    2  C2  UNL     1     -40.257  13.014   6.033  1.00 20.00    -0.086 C 
HETATM    3  C4  UNL     1     -40.395  13.789   7.322  1.00 20.00     0.045 C 
HETATM    4  C5  UNL     1     -42.118  15.215   6.128  1.00 20.00     0.020 C 
HETATM    5  C6  UNL     1     -42.219  14.192   4.982  1.00 20.00     0.005 C 
HETATM    6  C7  UNL     1     -41.703  14.577   7.453  1.00 20.00     0.051 C 
HETATM    7  C8  UNL     1     -39.132  12.022   5.982  1.00 20.00     0.043 C 
HETATM    8  C9  UNL     1     -42.286  14.919   3.637  1.00 20.00     0.014 C 
ENDROOT
BRANCH   6   9
HETATM    9  C3  UNL     1     -42.809  13.707   7.980  1.00 20.00     0.236 C 
HETATM   10  O10 UNL     1     -42.613  12.659   8.587  1.00 20.00    -0.306 OA
ENDBRANCH   6   9
TORSDOF 1
ENDMDL
MODEL 9
REMARK VINA RESULT:      -3.6     11.412     12.553
REMARK  1 active torsions:
REMARK  status: ('A' for Active; 'I' for Inactive)
REMARK    1  A    between atoms: C3_3  and  C7_7 
ROOT
HETATM    1  C1  UNL     1     -33.187  16.631  -2.379  1.00 20.00    -0.020 C 
HETATM    2  C2  UNL     1     -32.964  17.917  -2.056  1.00 20.00    -0.086 C 
HETATM    3  C4  UNL     1     -33.481  19.061  -2.896  1.00 20.00     0.045 C 
HETATM    4  C5  UNL     1     -34.128  17.326  -4.628  1.00 20.00     0.020 C 
HETATM    5  C6  UNL     1     -33.938  16.188  -3.608  1.00 20.00     0.005 C 
HETATM    6  C7  UNL     1     -34.498  18.653  -3.968  1.00 20.00     0.051 C 
HETATM    7  C8  UNL     1     -32.186  18.301  -0.832  1.00 20.00     0.043 C 
HETATM    8  C9  UNL     1     -33.237  15.002  -4.274  1.00 20.00     0.014 C 
ENDROOT
BRANCH   6   9
HETATM    9  C3  UNL     1     -35.886  18.582  -3.397  1.00 20.00     0.236 C 
HETATM   10  O10 UNL     1     -36.177  18.984  -2.275  1.00 20.00    -0.306 OA
ENDBRANCH   6   9
TORSDOF 1
ENDMDL
