MODEL 1
REMARK VINA RESULT:      -4.2      0.000      0.000
REMARK  1 active torsions:
REMARK  status: ('A' for Active; 'I' for Inactive)
REMARK    1  A    between atoms: C1_1  and  C3_3 
ROOT
HETATM    1  C1  UNL     1     -34.613   5.711   6.201  1.00 20.00     0.037 C 
HETATM    2  C2  UNL     1     -34.036   6.905   6.384  1.00 20.00    -0.028 C 
HETATM    3  C4  UNL     1     -33.532   7.754   5.263  1.00 20.00     0.036 C 
ENDROOT
BRANCH   1   4
HETATM    4  C3  UNL     1     -34.769   5.190   4.829  1.00 20.00     0.258 C 
HETATM    5  O5  UNL     1     -34.179   4.187   4.446  1.00 20.00    -0.302 OA
ENDBRANCH   1   4
TORSDOF 1
ENDMDL
MODEL 2
REMARK VINA RESULT:      -4.0      1.917      2.775
REMARK  1 active torsions:
REMARK  status: ('A' for Active; 'I' for Inactive)
REMARK    1  A    between atoms: C1_1  and  C3_3 
ROOT
HETATM    1  C1  UNL     1     -34.016   6.930   6.344  1.00 20.00     0.037 C 
HETATM    2  C2  UNL     1     -34.534   5.708   6.176  1.00 20.00    -0.028 C 
HETATM    3  C4  UNL     1     -34.743   5.082   4.836  1.00 20.00     0.036 C 
ENDROOT
BRANCH   1   4
HETATM    4  C3  UNL     1     -33.625   7.715   5.157  1.00 20.00     0.258 C 
HETATM    5  O5  UNL     1     -32.469   8.078   4.972  1.00 20.00    -0.302 OA
ENDBRANCH   1   4
TORSDOF 1
ENDMDL
MODEL 3
REMARK VINA RESULT:      -3.5      1.327      1.661
REMARK  1 active torsions:
REMARK  status: ('A' for Active; 'I' for Inactive)
REMARK    1  A    between atoms: C1_1  and  C3_3 
ROOT
HETATM    1  C1  UNL     1     -33.958   7.059   5.802  1.00 20.00     0.037 C 
HETATM    2  C2  UNL     1     -33.087   7.922   5.267  1.00 20.00    -0.028 C 
HETATM    3  C4  UNL     1     -32.544   7.788   3.882  1.00 20.00     0.036 C 
ENDROOT
BRANCH   1   4
HETATM    4  C3  UNL     1     -34.416   5.908   5.001  1.00 20.00     0.258 C 
HETATM    5  O5  UNL     1     -35.545   5.855   4.528  1.00 20.00    -0.302 OA
ENDBRANCH   1   4
TORSDOF 1
ENDMDL
MODEL 4
REMARK VINA RESULT:      -3.4      2.189      3.025
REMARK  1 active torsions:
REMARK  status: ('A' for Active; 'I' for Inactive)
REMARK    1  A    between atoms: C1_1  and  C3_3 
ROOT
HETATM    1  C1  UNL     1     -34.143   6.886   4.468  1.00 20.00     0.037 C 
HETATM    2  C2  UNL     1     -34.746   5.830   5.026  1.00 20.00    -0.028 C 
HETATM    3  C4  UNL     1     -34.571   5.447   6.459  1.00 20.00     0.036 C 
ENDROOT
BRANCH   1   4
HETATM    4  C3  UNL     1     -33.256   7.728   5.293  1.00 20.00     0.258 C 
HETATM    5  O5  UNL     1     -32.310   8.341   4.812  1.00 20.00    -0.302 OA
ENDBRANCH   1   4
TORSDOF 1
ENDMDL
MODEL 5
REMARK VINA RESULT:      -3.3      2.467      3.301
REMARK  1 active torsions:
REMARK  status: ('A' for Active; 'I' for Inactive)
REMARK    1  A    between atoms: C1_1  and  C3_3 
ROOT
HETATM    1  C1  UNL     1     -32.548   8.422   4.355  1.00 20.00     0.037 C 
HETATM    2  C2  UNL     1     -33.434   8.116   5.310  1.00 20.00    -0.028 C 
HETATM    3  C4  UNL     1     -34.114   6.789   5.404  1.00 20.00     0.036 C 
ENDROOT
BRANCH   1   4
HETATM    4  C3  UNL     1     -32.213   7.412   3.333  1.00 20.00     0.258 C 
HETATM    5  O5  UNL     1     -32.192   7.681   2.138  1.00 20.00    -0.302 OA
ENDBRANCH   1   4
TORSDOF 1
ENDMDL
MODEL 6
REMARK VINA RESULT:      -3.2      1.951      2.670
REMARK  1 active torsions:
REMARK  status: ('A' for Active; 'I' for Inactive)
REMARK    1  A    between atoms: C1_1  and  C3_3 
ROOT
HETATM    1  C1  UNL     1     -34.627   5.164   5.408  1.00 20.00     0.037 C 
HETATM    2  C2  UNL     1     -34.149   4.610   4.288  1.00 20.00    -0.028 C 
HETATM    3  C4  UNL     1     -33.355   5.364   3.273  1.00 20.00     0.036 C 
ENDROOT
BRANCH   1   4
HETATM    4  C3  UNL     1     -34.367   6.592   5.672  1.00 20.00     0.258 C 
HETATM    5  O5  UNL     1     -33.615   6.960   6.567  1.00 20.00    -0.302 OA
ENDBRANCH   1   4
TORSDOF 1
ENDMDL
MODEL 7
REMARK VINA RESULT:      -3.2      1.803      2.405
REMARK  1 active torsions:
REMARK  status: ('A' for Active; 'I' for Inactive)
REMARK    1  A    between atoms: C1_1  and  C3_3 
ROOT
HETATM    1  C1  UNL     1     -33.156   5.690   3.074  1.00 20.00     0.037 C 
HETATM    2  C2  UNL     1     -32.439   6.820   3.057  1.00 20.00    -0.028 C 
HETATM    3  C4  UNL     1     -32.606   7.914   4.060  1.00 20.00     0.036 C 
ENDROOT
BRANCH   1   4
HETATM    4  C3  UNL     1     -34.169   5.497   4.130  1.00 20.00     0.258 C 
HETATM    5  O5  UNL     1     -34.377   4.400   4.636  1.00 20.00    -0.302 OA
ENDBRANCH   1   4
TORSDOF 1
ENDMDL
MODEL 8
REMARK VINA RESULT:      -3.0      2.740      3.702
REMARK  1 active torsions:
REMARK  status: ('A' for Active; 'I' for Inactive)
REMARK    1  A    between atoms: C1_1  and  C3_3 
ROOT
HETATM    1  C1  UNL     1     -32.319   8.092   3.965  1.00 20.00     0.037 C 
HETATM    2  C2  UNL     1     -32.220   7.270   2.914  1.00 20.00    -0.028 C 
HETATM    3  C4  UNL     1     -32.842   5.913   2.872  1.00 20.00     0.036 C 
ENDROOT
BRANCH   1   4
HETATM    4  C3  UNL     1     -33.076   7.654   5.153  1.00 20.00     0.258 C 
HETATM    5  O5  UNL     1     -33.993   8.320   5.619  1.00 20.00    -0.302 OA
ENDBRANCH   1   4
TORSDOF 1
ENDMDL
MODEL 9
REMARK VINA RESULT:      -3.0      8.412      8.750
REMARK  1 active torsions:
REMARK  status: ('A' for Active; 'I' for Inactive)
REMARK    1  A    between atoms: C1_1  and  C3_3 
ROOT
HETATM    1  C1  UNL     1     -39.489  12.354   6.328  1.00 20.00     0.037 C 
HETATM    2  C2  UNL     1     -38.634  11.986   5.366  1.00 20.00    -0.028 C 
HETATM    3  C4  UNL     1     -39.056  11.673   3.968  1.00 20.00     0.036 C 
ENDROOT
BRANCH   1   4
HETATM    4  C3  UNL     1     -40.926  12.463   6.011  1.00 20.00     0.258 C 
HETATM    5  O5  UNL     1     -41.793  12.159   6.821  1.00 20.00    -0.302 OA
ENDBRANCH   1   4
TORSDOF 1
ENDMDL
