MODEL 1
REMARK VINA RESULT:      -4.9      0.000      0.000
REMARK  0 active torsions:
REMARK  status: ('A' for Active; 'I' for Inactive)
ROOT
HETATM    1  C1  UNL     1     -32.188   8.117   4.188  1.00 20.00     0.000 C 
HETATM    2  C2  UNL     1     -33.289   8.300   5.236  1.00 20.00     0.003 C 
HETATM    3  C3  UNL     1     -32.634   7.182   3.061  1.00 20.00     0.003 C 
HETATM    4  C4  UNL     1     -33.763   6.957   5.790  1.00 20.00     0.040 C 
HETATM    5  C5  UNL     1     -33.106   5.834   3.606  1.00 20.00     0.040 C 
HETATM    6  C6  UNL     1     -35.604   5.777   4.361  1.00 20.00     0.207 A 
HETATM    7  C7  UNL     1     -34.148   6.043   4.664  1.00 20.00     0.082 A 
HETATM    8  O8  UNL     1     -34.798   4.837   5.087  1.00 20.00    -0.375 OA
ENDROOT
TORSDOF 0
ENDMDL
MODEL 2
REMARK VINA RESULT:      -4.7      1.832      2.999
REMARK  0 active torsions:
REMARK  status: ('A' for Active; 'I' for Inactive)
ROOT
HETATM    1  C1  UNL     1     -34.779   5.403   5.951  1.00 20.00     0.000 C 
HETATM    2  C2  UNL     1     -34.025   6.571   6.592  1.00 20.00     0.003 C 
HETATM    3  C3  UNL     1     -34.160   5.001   4.611  1.00 20.00     0.003 C 
HETATM    4  C4  UNL     1     -33.937   7.767   5.646  1.00 20.00     0.040 C 
HETATM    5  C5  UNL     1     -34.073   6.192   3.655  1.00 20.00     0.040 C 
HETATM    6  C6  UNL     1     -31.947   7.678   3.956  1.00 20.00     0.207 A 
HETATM    7  C7  UNL     1     -33.372   7.337   4.325  1.00 20.00     0.082 A 
HETATM    8  O8  UNL     1     -33.060   8.423   3.442  1.00 20.00    -0.375 OA
ENDROOT
TORSDOF 0
ENDMDL
MODEL 3
REMARK VINA RESULT:      -4.7      1.843      3.407
REMARK  0 active torsions:
REMARK  status: ('A' for Active; 'I' for Inactive)
ROOT
HETATM    1  C1  UNL     1     -34.800   5.324   5.849  1.00 20.00     0.000 C 
HETATM    2  C2  UNL     1     -34.736   5.454   4.325  1.00 20.00     0.003 C 
HETATM    3  C3  UNL     1     -34.513   6.659   6.540  1.00 20.00     0.003 C 
HETATM    4  C4  UNL     1     -33.398   6.033   3.868  1.00 20.00     0.040 C 
HETATM    5  C5  UNL     1     -33.174   7.245   6.092  1.00 20.00     0.040 C 
HETATM    6  C6  UNL     1     -33.278   8.643   3.889  1.00 20.00     0.207 A 
HETATM    7  C7  UNL     1     -33.119   7.316   4.594  1.00 20.00     0.082 A 
HETATM    8  O8  UNL     1     -31.990   8.040   4.087  1.00 20.00    -0.375 OA
ENDROOT
TORSDOF 0
ENDMDL
MODEL 4
REMARK VINA RESULT:      -4.6      0.966      2.149
REMARK  0 active torsions:
REMARK  status: ('A' for Active; 'I' for Inactive)
ROOT
HETATM    1  C1  UNL     1     -32.374   7.318   2.971  1.00 20.00     0.000 C 
HETATM    2  C2  UNL     1     -32.699   5.825   3.069  1.00 20.00     0.003 C 
HETATM    3  C3  UNL     1     -32.443   8.000   4.339  1.00 20.00     0.003 C 
HETATM    4  C4  UNL     1     -34.055   5.589   3.734  1.00 20.00     0.040 C 
HETATM    5  C5  UNL     1     -33.798   7.774   5.010  1.00 20.00     0.040 C 
HETATM    6  C6  UNL     1     -33.993   5.538   6.345  1.00 20.00     0.207 A 
HETATM    7  C7  UNL     1     -34.113   6.307   5.050  1.00 20.00     0.082 A 
HETATM    8  O8  UNL     1     -35.262   5.981   5.842  1.00 20.00    -0.375 OA
ENDROOT
TORSDOF 0
ENDMDL
MODEL 5
REMARK VINA RESULT:      -4.3      1.468      2.639
REMARK  0 active torsions:
REMARK  status: ('A' for Active; 'I' for Inactive)
ROOT
HETATM    1  C1  UNL     1     -34.316   6.875   6.527  1.00 20.00     0.000 C 
HETATM    2  C2  UNL     1     -33.208   7.515   5.688  1.00 20.00     0.003 C 
HETATM    3  C3  UNL     1     -34.533   5.408   6.149  1.00 20.00     0.003 C 
HETATM    4  C4  UNL     1     -33.482   7.367   4.191  1.00 20.00     0.040 C 
HETATM    5  C5  UNL     1     -34.812   5.250   4.654  1.00 20.00     0.040 C 
HETATM    6  C6  UNL     1     -32.679   5.107   3.155  1.00 20.00     0.207 A 
HETATM    7  C7  UNL     1     -33.737   5.927   3.856  1.00 20.00     0.082 A 
HETATM    8  O8  UNL     1     -33.801   5.658   2.449  1.00 20.00    -0.375 OA
ENDROOT
TORSDOF 0
ENDMDL
MODEL 6
REMARK VINA RESULT:      -3.6     15.935     16.911
REMARK  0 active torsions:
REMARK  status: ('A' for Active; 'I' for Inactive)
ROOT
HETATM    1  C1  UNL     1     -23.442  19.227   8.207  1.00 20.00     0.000 C 
HETATM    2  C2  UNL     1     -22.108  19.218   8.958  1.00 20.00     0.003 C 
HETATM    3  C3  UNL     1     -24.630  19.263   9.172  1.00 20.00     0.003 C 
HETATM    4  C4  UNL     1     -22.037  18.068   9.961  1.00 20.00     0.040 C 
HETATM    5  C5  UNL     1     -24.570  18.113  10.177  1.00 20.00     0.040 C 
HETATM    6  C6  UNL     1     -23.108  18.584  12.288  1.00 20.00     0.207 A 
HETATM    7  C7  UNL     1     -23.236  18.099  10.863  1.00 20.00     0.082 A 
HETATM    8  O8  UNL     1     -23.160  17.186  11.967  1.00 20.00    -0.375 OA
ENDROOT
TORSDOF 0
ENDMDL
MODEL 7
REMARK VINA RESULT:      -3.6     15.510     16.724
REMARK  0 active torsions:
REMARK  status: ('A' for Active; 'I' for Inactive)
ROOT
HETATM    1  C1  UNL     1     -22.192  19.263   9.148  1.00 20.00     0.000 C 
HETATM    2  C2  UNL     1     -23.584  18.752   8.764  1.00 20.00     0.003 C 
HETATM    3  C3  UNL     1     -21.589  18.446  10.293  1.00 20.00     0.003 C 
HETATM    4  C4  UNL     1     -24.521  18.721   9.971  1.00 20.00     0.040 C 
HETATM    5  C5  UNL     1     -22.518  18.413  11.507  1.00 20.00     0.040 C 
HETATM    6  C6  UNL     1     -24.353  16.558  11.425  1.00 20.00     0.207 A 
HETATM    7  C7  UNL     1     -23.886  17.956  11.094  1.00 20.00     0.082 A 
HETATM    8  O8  UNL     1     -24.768  17.696  12.195  1.00 20.00    -0.375 OA
ENDROOT
TORSDOF 0
ENDMDL
MODEL 8
REMARK VINA RESULT:      -3.5     15.855     16.752
REMARK  0 active torsions:
REMARK  status: ('A' for Active; 'I' for Inactive)
ROOT
HETATM    1  C1  UNL     1     -21.945  18.519  10.288  1.00 20.00     0.000 C 
HETATM    2  C2  UNL     1     -22.094  18.463  11.811  1.00 20.00     0.003 C 
HETATM    3  C3  UNL     1     -23.214  19.049   9.618  1.00 20.00     0.003 C 
HETATM    4  C4  UNL     1     -23.317  17.646  12.224  1.00 20.00     0.040 C 
HETATM    5  C5  UNL     1     -24.443  18.234  10.022  1.00 20.00     0.040 C 
HETATM    6  C6  UNL     1     -25.560  18.983  12.259  1.00 20.00     0.207 A 
HETATM    7  C7  UNL     1     -24.538  18.155  11.517  1.00 20.00     0.082 A 
HETATM    8  O8  UNL     1     -25.766  17.589  11.992  1.00 20.00    -0.375 OA
ENDROOT
TORSDOF 0
ENDMDL
MODEL 9
REMARK VINA RESULT:      -3.5     16.343     17.167
REMARK  0 active torsions:
REMARK  status: ('A' for Active; 'I' for Inactive)
ROOT
HETATM    1  C1  UNL     1     -24.217  18.602  12.230  1.00 20.00     0.000 C 
HETATM    2  C2  UNL     1     -22.804  18.014  12.285  1.00 20.00     0.003 C 
HETATM    3  C3  UNL     1     -24.864  18.386  10.860  1.00 20.00     0.003 C 
HETATM    4  C4  UNL     1     -21.923  18.569  11.166  1.00 20.00     0.040 C 
HETATM    5  C5  UNL     1     -23.991  18.943   9.735  1.00 20.00     0.040 C 
HETATM    6  C6  UNL     1     -22.137  17.313   8.886  1.00 20.00     0.207 A 
HETATM    7  C7  UNL     1     -22.601  18.388   9.840  1.00 20.00     0.082 A 
HETATM    8  O8  UNL     1     -21.768  18.689   8.713  1.00 20.00    -0.375 OA
ENDROOT
TORSDOF 0
ENDMDL
