MODEL 1
REMARK VINA RESULT:      -3.8      0.000      0.000
REMARK  2 active torsions:
REMARK  status: ('A' for Active; 'I' for Inactive)
REMARK    1  A    between atoms: C1_1  and  S11_11 
REMARK    2  A    between atoms: C8_8  and  S11_11 
ROOT
HETATM    1  C2  UNL     1     -33.843   5.331   6.304  1.00 20.00     0.005 C 
HETATM    2  C3  UNL     1     -34.100   6.839   6.192  1.00 20.00     0.006 C 
HETATM    3  C4  UNL     1     -35.568   5.724   4.712  1.00 20.00     0.010 C 
HETATM    4  C5  UNL     1     -33.410   5.174   3.843  1.00 20.00     0.020 C 
HETATM    5  C6  UNL     1     -34.388   4.788   4.971  1.00 20.00    -0.013 C 
HETATM    6  C7  UNL     1     -34.700   6.987   4.781  1.00 20.00     0.000 C 
HETATM    7  C8  UNL     1     -33.675   6.683   3.664  1.00 20.00     0.059 C 
ENDROOT
BRANCH   7   8
HETATM    8  S11 UNL     1     -32.163   7.684   3.697  1.00 20.00    -0.088 SA
BRANCH   8   9
HETATM    9  C1  UNL     1     -32.439   8.714   2.295  1.00 20.00     0.182 C 
HETATM   10  C9  UNL     1     -31.998   8.093   0.999  1.00 20.00     0.104 C 
HETATM   11  O10 UNL     1     -32.943   9.829   2.364  1.00 20.00    -0.286 OA
ENDBRANCH   8   9
ENDBRANCH   7   8
TORSDOF 2
ENDMDL
MODEL 2
REMARK VINA RESULT:      -3.6     10.170     11.198
REMARK  2 active torsions:
REMARK  status: ('A' for Active; 'I' for Inactive)
REMARK    1  A    between atoms: C1_1  and  S11_11 
REMARK    2  A    between atoms: C8_8  and  S11_11 
ROOT
HETATM    1  C2  UNL     1     -42.780  15.217   8.825  1.00 20.00     0.005 C 
HETATM    2  C3  UNL     1     -41.882  14.012   9.133  1.00 20.00     0.006 C 
HETATM    3  C4  UNL     1     -40.499  15.896   8.775  1.00 20.00     0.010 C 
HETATM    4  C5  UNL     1     -41.583  15.617   6.663  1.00 20.00     0.020 C 
HETATM    5  C6  UNL     1     -41.832  16.173   8.080  1.00 20.00    -0.013 C 
HETATM    6  C7  UNL     1     -40.546  14.394   8.468  1.00 20.00     0.000 C 
HETATM    7  C8  UNL     1     -40.637  14.427   6.925  1.00 20.00     0.059 C 
ENDROOT
BRANCH   7   8
HETATM    8  S11 UNL     1     -41.189  12.888   6.141  1.00 20.00    -0.088 SA
BRANCH   8   9
HETATM    9  C1  UNL     1     -39.646  12.060   5.956  1.00 20.00     0.182 C 
HETATM   10  C9  UNL     1     -39.297  11.756   4.526  1.00 20.00     0.104 C 
HETATM   11  O10 UNL     1     -38.923  11.759   6.898  1.00 20.00    -0.286 OA
ENDBRANCH   8   9
ENDBRANCH   7   8
TORSDOF 2
ENDMDL
MODEL 3
REMARK VINA RESULT:      -3.5     12.244     13.619
REMARK  2 active torsions:
REMARK  status: ('A' for Active; 'I' for Inactive)
REMARK    1  A    between atoms: C1_1  and  S11_11 
REMARK    2  A    between atoms: C8_8  and  S11_11 
ROOT
HETATM    1  C2  UNL     1     -32.917  18.901  -3.891  1.00 20.00     0.005 C 
HETATM    2  C3  UNL     1     -34.181  19.009  -4.756  1.00 20.00     0.006 C 
HETATM    3  C4  UNL     1     -34.796  18.134  -2.647  1.00 20.00     0.010 C 
HETATM    4  C5  UNL     1     -33.326  16.460  -3.514  1.00 20.00     0.020 C 
HETATM    5  C6  UNL     1     -33.307  17.848  -2.841  1.00 20.00    -0.013 C 
HETATM    6  C7  UNL     1     -35.118  17.955  -4.136  1.00 20.00     0.000 C 
HETATM    7  C8  UNL     1     -34.616  16.509  -4.358  1.00 20.00     0.059 C 
ENDROOT
BRANCH   7   8
HETATM    8  S11 UNL     1     -34.358  16.027  -6.087  1.00 20.00    -0.088 SA
BRANCH   8   9
HETATM    9  C1  UNL     1     -35.543  14.732  -6.231  1.00 20.00     0.182 C 
HETATM   10  C9  UNL     1     -35.885  14.085  -4.918  1.00 20.00     0.104 C 
HETATM   11  O10 UNL     1     -36.043  14.388  -7.295  1.00 20.00    -0.286 OA
ENDBRANCH   8   9
ENDBRANCH   7   8
TORSDOF 2
ENDMDL
MODEL 4
REMARK VINA RESULT:      -3.4     12.125     13.006
REMARK  2 active torsions:
REMARK  status: ('A' for Active; 'I' for Inactive)
REMARK    1  A    between atoms: C1_1  and  S11_11 
REMARK    2  A    between atoms: C8_8  and  S11_11 
ROOT
HETATM    1  C2  UNL     1     -35.757  14.405  -4.927  1.00 20.00     0.005 C 
HETATM    2  C3  UNL     1     -36.133  15.743  -5.577  1.00 20.00     0.006 C 
HETATM    3  C4  UNL     1     -33.978  15.131  -6.333  1.00 20.00     0.010 C 
HETATM    4  C5  UNL     1     -33.665  15.401  -3.979  1.00 20.00     0.020 C 
HETATM    5  C6  UNL     1     -34.221  14.400  -5.013  1.00 20.00    -0.013 C 
HETATM    6  C7  UNL     1     -34.764  16.373  -5.896  1.00 20.00     0.000 C 
HETATM    7  C8  UNL     1     -33.980  16.766  -4.622  1.00 20.00     0.059 C 
ENDROOT
BRANCH   7   8
HETATM    8  S11 UNL     1     -34.832  17.907  -3.500  1.00 20.00    -0.088 SA
BRANCH   8   9
HETATM    9  C1  UNL     1     -33.535  18.250  -2.358  1.00 20.00     0.182 C 
HETATM   10  C9  UNL     1     -33.746  17.625  -1.007  1.00 20.00     0.104 C 
HETATM   11  O10 UNL     1     -32.553  18.929  -2.633  1.00 20.00    -0.286 OA
ENDBRANCH   8   9
ENDBRANCH   7   8
TORSDOF 2
ENDMDL
MODEL 5
REMARK VINA RESULT:      -3.4     12.362     13.672
REMARK  2 active torsions:
REMARK  status: ('A' for Active; 'I' for Inactive)
REMARK    1  A    between atoms: C1_1  and  S11_11 
REMARK    2  A    between atoms: C8_8  and  S11_11 
ROOT
HETATM    1  C2  UNL     1     -33.688  17.019  -1.631  1.00 20.00     0.005 C 
HETATM    2  C3  UNL     1     -33.131  16.605  -3.000  1.00 20.00     0.006 C 
HETATM    3  C4  UNL     1     -32.867  18.944  -2.767  1.00 20.00     0.010 C 
HETATM    4  C5  UNL     1     -35.240  18.663  -2.707  1.00 20.00     0.020 C 
HETATM    5  C6  UNL     1     -33.987  18.517  -1.819  1.00 20.00    -0.013 C 
HETATM    6  C7  UNL     1     -33.241  17.900  -3.827  1.00 20.00     0.000 C 
HETATM    7  C8  UNL     1     -34.707  18.302  -4.109  1.00 20.00     0.059 C 
ENDROOT
BRANCH   7   8
HETATM    8  S11 UNL     1     -35.712  17.053  -4.957  1.00 20.00    -0.088 SA
BRANCH   8   9
HETATM    9  C1  UNL     1     -34.680  16.710  -6.343  1.00 20.00     0.182 C 
HETATM   10  C9  UNL     1     -34.207  15.284  -6.399  1.00 20.00     0.104 C 
HETATM   11  O10 UNL     1     -34.377  17.547  -7.184  1.00 20.00    -0.286 OA
ENDBRANCH   8   9
ENDBRANCH   7   8
TORSDOF 2
ENDMDL
MODEL 6
REMARK VINA RESULT:      -3.4     10.280     11.313
REMARK  2 active torsions:
REMARK  status: ('A' for Active; 'I' for Inactive)
REMARK    1  A    between atoms: C1_1  and  S11_11 
REMARK    2  A    between atoms: C8_8  and  S11_11 
ROOT
HETATM    1  C2  UNL     1     -42.180  16.555   7.233  1.00 20.00     0.005 C 
HETATM    2  C3  UNL     1     -43.100  15.417   6.771  1.00 20.00     0.006 C 
HETATM    3  C4  UNL     1     -42.359  14.931   8.963  1.00 20.00     0.010 C 
HETATM    4  C5  UNL     1     -40.330  14.933   7.699  1.00 20.00     0.020 C 
HETATM    5  C6  UNL     1     -41.348  15.895   8.346  1.00 20.00    -0.013 C 
HETATM    6  C7  UNL     1     -42.638  14.225   7.630  1.00 20.00     0.000 C 
HETATM    7  C8  UNL     1     -41.214  13.746   7.264  1.00 20.00     0.059 C 
ENDROOT
BRANCH   7   8
HETATM    8  S11 UNL     1     -40.969  13.269   5.532  1.00 20.00    -0.088 SA
BRANCH   8   9
HETATM    9  C1  UNL     1     -39.610  12.161   5.701  1.00 20.00     0.182 C 
HETATM   10  C9  UNL     1     -39.096  11.640   4.388  1.00 20.00     0.104 C 
HETATM   11  O10 UNL     1     -39.127  11.844   6.781  1.00 20.00    -0.286 OA
ENDBRANCH   8   9
ENDBRANCH   7   8
TORSDOF 2
ENDMDL
MODEL 7
REMARK VINA RESULT:      -3.4     10.606     11.658
REMARK  2 active torsions:
REMARK  status: ('A' for Active; 'I' for Inactive)
REMARK    1  A    between atoms: C1_1  and  S11_11 
REMARK    2  A    between atoms: C8_8  and  S11_11 
ROOT
HETATM    1  C2  UNL     1     -41.539  15.601   9.619  1.00 20.00     0.005 C 
HETATM    2  C3  UNL     1     -40.325  14.892   9.003  1.00 20.00     0.006 C 
HETATM    3  C4  UNL     1     -40.750  16.858   7.759  1.00 20.00     0.010 C 
HETATM    4  C5  UNL     1     -42.734  15.570   7.420  1.00 20.00     0.020 C 
HETATM    5  C6  UNL     1     -42.051  16.477   8.463  1.00 20.00    -0.013 C 
HETATM    6  C7  UNL     1     -40.329  15.398   7.548  1.00 20.00     0.000 C 
HETATM    7  C8  UNL     1     -41.538  14.874   6.739  1.00 20.00     0.059 C 
ENDROOT
BRANCH   7   8
HETATM    8  S11 UNL     1     -41.707  13.070   6.665  1.00 20.00    -0.088 SA
BRANCH   8   9
HETATM    9  C1  UNL     1     -40.448  12.685   5.495  1.00 20.00     0.182 C 
HETATM   10  C9  UNL     1     -39.267  11.975   6.096  1.00 20.00     0.104 C 
HETATM   11  O10 UNL     1     -40.523  12.965   4.305  1.00 20.00    -0.286 OA
ENDBRANCH   8   9
ENDBRANCH   7   8
TORSDOF 2
ENDMDL
MODEL 8
REMARK VINA RESULT:      -3.3     12.276     13.659
REMARK  2 active torsions:
REMARK  status: ('A' for Active; 'I' for Inactive)
REMARK    1  A    between atoms: C1_1  and  S11_11 
REMARK    2  A    between atoms: C8_8  and  S11_11 
ROOT
HETATM    1  C2  UNL     1     -34.244  15.426  -7.366  1.00 20.00     0.005 C 
HETATM    2  C3  UNL     1     -33.717  15.132  -5.954  1.00 20.00     0.006 C 
HETATM    3  C4  UNL     1     -36.054  14.773  -5.965  1.00 20.00     0.010 C 
HETATM    4  C5  UNL     1     -35.867  17.104  -6.461  1.00 20.00     0.020 C 
HETATM    5  C6  UNL     1     -35.735  15.717  -7.123  1.00 20.00    -0.013 C 
HETATM    6  C7  UNL     1     -34.955  15.356  -5.067  1.00 20.00     0.000 C 
HETATM    7  C8  UNL     1     -35.392  16.839  -5.018  1.00 20.00     0.059 C 
ENDROOT
BRANCH   7   8
HETATM    8  S11 UNL     1     -34.126  18.009  -4.455  1.00 20.00    -0.088 SA
BRANCH   8   9
HETATM    9  C1  UNL     1     -34.350  17.897  -2.711  1.00 20.00     0.182 C 
HETATM   10  C9  UNL     1     -33.425  16.914  -2.050  1.00 20.00     0.104 C 
HETATM   11  O10 UNL     1     -35.177  18.556  -2.092  1.00 20.00    -0.286 OA
ENDBRANCH   8   9
ENDBRANCH   7   8
TORSDOF 2
ENDMDL
MODEL 9
REMARK VINA RESULT:      -3.2     10.928     11.998
REMARK  2 active torsions:
REMARK  status: ('A' for Active; 'I' for Inactive)
REMARK    1  A    between atoms: C1_1  and  S11_11 
REMARK    2  A    between atoms: C8_8  and  S11_11 
ROOT
HETATM    1  C2  UNL     1     -42.479  16.021   9.593  1.00 20.00     0.005 C 
HETATM    2  C3  UNL     1     -42.370  14.510   9.344  1.00 20.00     0.006 C 
HETATM    3  C4  UNL     1     -40.220  15.330   9.888  1.00 20.00     0.010 C 
HETATM    4  C5  UNL     1     -40.735  16.480   7.856  1.00 20.00     0.020 C 
HETATM    5  C6  UNL     1     -41.038  16.511   9.368  1.00 20.00    -0.013 C 
HETATM    6  C7  UNL     1     -40.895  14.329   8.941  1.00 20.00     0.000 C 
HETATM    7  C8  UNL     1     -40.567  14.973   7.574  1.00 20.00     0.059 C 
ENDROOT
BRANCH   7   8
HETATM    8  S11 UNL     1     -41.566  14.392   6.176  1.00 20.00    -0.088 SA
BRANCH   8   9
HETATM    9  C1  UNL     1     -41.369  12.651   6.354  1.00 20.00     0.182 C 
HETATM   10  C9  UNL     1     -40.082  12.132   5.775  1.00 20.00     0.104 C 
HETATM   11  O10 UNL     1     -42.196  11.928   6.896  1.00 20.00    -0.286 OA
ENDBRANCH   8   9
ENDBRANCH   7   8
TORSDOF 2
ENDMDL
