MODEL 1
REMARK VINA RESULT:      -5.8      0.000      0.000
REMARK  1 active torsions:
REMARK  status: ('A' for Active; 'I' for Inactive)
REMARK    1  A    between atoms: C3_3  and  C6_6 
ROOT
HETATM    1  C1  UNL     1     -34.555   6.369   6.542  1.00 20.00    -0.030 C 
HETATM    2  C2  UNL     1     -34.849   5.198   5.963  1.00 20.00    -0.030 C 
HETATM    3  C4  UNL     1     -33.749   7.437   5.870  1.00 20.00     0.038 C 
HETATM    4  C5  UNL     1     -34.380   4.825   4.590  1.00 20.00     0.031 C 
HETATM    5  C6  UNL     1     -33.550   7.206   4.364  1.00 20.00     0.054 C 
HETATM    6  C7  UNL     1     -33.249   5.727   4.056  1.00 20.00    -0.004 C 
HETATM    7  C8  UNL     1     -33.055   5.471   2.558  1.00 20.00     0.011 C 
ENDROOT
BRANCH   5   8
HETATM    8  C3  UNL     1     -32.434   8.097   3.905  1.00 20.00     0.236 C 
HETATM    9  O9  UNL     1     -32.140   9.152   4.456  1.00 20.00    -0.306 OA
ENDBRANCH   5   8
TORSDOF 1
ENDMDL
MODEL 2
REMARK VINA RESULT:      -5.5      2.056      3.938
REMARK  1 active torsions:
REMARK  status: ('A' for Active; 'I' for Inactive)
REMARK    1  A    between atoms: C3_3  and  C6_6 
ROOT
HETATM    1  C1  UNL     1     -32.242   7.294   2.933  1.00 20.00    -0.030 C 
HETATM    2  C2  UNL     1     -32.149   8.323   3.785  1.00 20.00    -0.030 C 
HETATM    3  C4  UNL     1     -33.088   6.087   3.196  1.00 20.00     0.038 C 
HETATM    4  C5  UNL     1     -32.861   8.363   5.102  1.00 20.00     0.031 C 
HETATM    5  C6  UNL     1     -34.068   6.261   4.367  1.00 20.00     0.054 C 
HETATM    6  C7  UNL     1     -33.406   6.992   5.551  1.00 20.00    -0.004 C 
HETATM    7  C8  UNL     1     -34.367   7.184   6.728  1.00 20.00     0.011 C 
ENDROOT
BRANCH   5   8
HETATM    8  C3  UNL     1     -34.553   4.899   4.768  1.00 20.00     0.236 C 
HETATM    9  O9  UNL     1     -34.005   3.857   4.425  1.00 20.00    -0.306 OA
ENDBRANCH   5   8
TORSDOF 1
ENDMDL
MODEL 3
REMARK VINA RESULT:      -5.4      1.703      2.795
REMARK  1 active torsions:
REMARK  status: ('A' for Active; 'I' for Inactive)
REMARK    1  A    between atoms: C3_3  and  C6_6 
ROOT
HETATM    1  C1  UNL     1     -34.865   5.360   6.001  1.00 20.00    -0.030 C 
HETATM    2  C2  UNL     1     -34.533   6.494   6.630  1.00 20.00    -0.030 C 
HETATM    3  C4  UNL     1     -34.384   5.013   4.626  1.00 20.00     0.038 C 
HETATM    4  C5  UNL     1     -33.665   7.547   6.014  1.00 20.00     0.031 C 
HETATM    5  C6  UNL     1     -33.244   5.914   4.125  1.00 20.00     0.054 C 
HETATM    6  C7  UNL     1     -33.490   7.390   4.489  1.00 20.00    -0.004 C 
HETATM    7  C8  UNL     1     -32.362   8.306   4.007  1.00 20.00     0.011 C 
ENDROOT
BRANCH   5   8
HETATM    8  C3  UNL     1     -33.131   5.729   2.641  1.00 20.00     0.236 C 
HETATM    9  O9  UNL     1     -32.742   4.692   2.115  1.00 20.00    -0.306 OA
ENDBRANCH   5   8
TORSDOF 1
ENDMDL
MODEL 4
REMARK VINA RESULT:      -5.3      1.895      3.748
REMARK  1 active torsions:
REMARK  status: ('A' for Active; 'I' for Inactive)
REMARK    1  A    between atoms: C3_3  and  C6_6 
ROOT
HETATM    1  C1  UNL     1     -32.902   5.465   2.707  1.00 20.00    -0.030 C 
HETATM    2  C2  UNL     1     -32.323   6.667   2.590  1.00 20.00    -0.030 C 
HETATM    3  C4  UNL     1     -33.837   5.110   3.821  1.00 20.00     0.038 C 
HETATM    4  C5  UNL     1     -32.532   7.774   3.577  1.00 20.00     0.031 C 
HETATM    5  C6  UNL     1     -34.313   6.321   4.639  1.00 20.00     0.054 C 
HETATM    6  C7  UNL     1     -33.161   7.308   4.906  1.00 20.00    -0.004 C 
HETATM    7  C8  UNL     1     -33.614   8.529   5.713  1.00 20.00     0.011 C 
ENDROOT
BRANCH   5   8
HETATM    8  C3  UNL     1     -34.901   5.809   5.920  1.00 20.00     0.236 C 
HETATM    9  O9  UNL     1     -34.271   5.146   6.737  1.00 20.00    -0.306 OA
ENDBRANCH   5   8
TORSDOF 1
ENDMDL
MODEL 5
REMARK VINA RESULT:      -5.1      1.359      2.575
REMARK  1 active torsions:
REMARK  status: ('A' for Active; 'I' for Inactive)
REMARK    1  A    between atoms: C3_3  and  C6_6 
ROOT
HETATM    1  C1  UNL     1     -34.498   4.985   4.688  1.00 20.00    -0.030 C 
HETATM    2  C2  UNL     1     -34.678   5.497   5.913  1.00 20.00    -0.030 C 
HETATM    3  C4  UNL     1     -33.728   5.686   3.612  1.00 20.00     0.038 C 
HETATM    4  C5  UNL     1     -34.149   6.836   6.326  1.00 20.00     0.031 C 
HETATM    5  C6  UNL     1     -32.910   6.886   4.118  1.00 20.00     0.054 C 
HETATM    6  C7  UNL     1     -33.706   7.718   5.141  1.00 20.00    -0.004 C 
HETATM    7  C8  UNL     1     -32.908   8.916   5.665  1.00 20.00     0.011 C 
ENDROOT
BRANCH   5   8
HETATM    8  C3  UNL     1     -32.521   7.711   2.927  1.00 20.00     0.236 C 
HETATM    9  O9  UNL     1     -32.110   7.232   1.876  1.00 20.00    -0.306 OA
ENDBRANCH   5   8
TORSDOF 1
ENDMDL
MODEL 6
REMARK VINA RESULT:      -5.1      1.849      3.412
REMARK  1 active torsions:
REMARK  status: ('A' for Active; 'I' for Inactive)
REMARK    1  A    between atoms: C3_3  and  C6_6 
ROOT
HETATM    1  C1  UNL     1     -32.298   8.559   4.181  1.00 20.00    -0.030 C 
HETATM    2  C2  UNL     1     -32.880   8.806   5.361  1.00 20.00    -0.030 C 
HETATM    3  C4  UNL     1     -32.505   7.289   3.414  1.00 20.00     0.038 C 
HETATM    4  C5  UNL     1     -33.780   7.827   6.050  1.00 20.00     0.031 C 
HETATM    5  C6  UNL     1     -33.668   6.432   3.940  1.00 20.00     0.054 C 
HETATM    6  C7  UNL     1     -33.691   6.397   5.479  1.00 20.00    -0.004 C 
HETATM    7  C8  UNL     1     -34.847   5.555   6.026  1.00 20.00     0.011 C 
ENDROOT
BRANCH   5   8
HETATM    8  C3  UNL     1     -33.520   5.055   3.364  1.00 20.00     0.236 C 
HETATM    9  O9  UNL     1     -32.745   4.780   2.455  1.00 20.00    -0.306 OA
ENDBRANCH   5   8
TORSDOF 1
ENDMDL
MODEL 7
REMARK VINA RESULT:      -5.0      2.104      3.248
REMARK  1 active torsions:
REMARK  status: ('A' for Active; 'I' for Inactive)
REMARK    1  A    between atoms: C3_3  and  C6_6 
ROOT
HETATM    1  C1  UNL     1     -33.028   8.819   5.272  1.00 20.00    -0.030 C 
HETATM    2  C2  UNL     1     -32.102   8.748   4.307  1.00 20.00    -0.030 C 
HETATM    3  C4  UNL     1     -34.031   7.736   5.526  1.00 20.00     0.038 C 
HETATM    4  C5  UNL     1     -31.989   7.590   3.365  1.00 20.00     0.031 C 
HETATM    5  C6  UNL     1     -33.718   6.419   4.798  1.00 20.00     0.054 C 
HETATM    6  C7  UNL     1     -33.230   6.674   3.359  1.00 20.00    -0.004 C 
HETATM    7  C8  UNL     1     -32.904   5.376   2.615  1.00 20.00     0.011 C 
ENDROOT
BRANCH   5   8
HETATM    8  C3  UNL     1     -34.961   5.579   4.812  1.00 20.00     0.236 C 
HETATM    9  O9  UNL     1     -34.966   4.383   5.081  1.00 20.00    -0.306 OA
ENDBRANCH   5   8
TORSDOF 1
ENDMDL
MODEL 8
REMARK VINA RESULT:      -5.0      0.860      2.562
REMARK  1 active torsions:
REMARK  status: ('A' for Active; 'I' for Inactive)
REMARK    1  A    between atoms: C3_3  and  C6_6 
ROOT
HETATM    1  C1  UNL     1     -33.102   5.238   2.737  1.00 20.00    -0.030 C 
HETATM    2  C2  UNL     1     -33.784   4.519   3.637  1.00 20.00    -0.030 C 
HETATM    3  C4  UNL     1     -32.703   6.665   2.959  1.00 20.00     0.038 C 
HETATM    4  C5  UNL     1     -34.243   5.075   4.950  1.00 20.00     0.031 C 
HETATM    5  C6  UNL     1     -32.872   7.135   4.413  1.00 20.00     0.054 C 
HETATM    6  C7  UNL     1     -34.187   6.615   5.024  1.00 20.00    -0.004 C 
HETATM    7  C8  UNL     1     -34.373   7.064   6.476  1.00 20.00     0.011 C 
ENDROOT
BRANCH   5   8
HETATM    8  C3  UNL     1     -32.822   8.634   4.420  1.00 20.00     0.236 C 
HETATM    9  O9  UNL     1     -32.008   9.282   5.068  1.00 20.00    -0.306 OA
ENDBRANCH   5   8
TORSDOF 1
ENDMDL
MODEL 9
REMARK VINA RESULT:      -4.6      1.022      2.753
REMARK  1 active torsions:
REMARK  status: ('A' for Active; 'I' for Inactive)
REMARK    1  A    between atoms: C3_3  and  C6_6 
ROOT
HETATM    1  C1  UNL     1     -32.431   6.558   2.651  1.00 20.00    -0.030 C 
HETATM    2  C2  UNL     1     -32.953   5.325   2.673  1.00 20.00    -0.030 C 
HETATM    3  C4  UNL     1     -32.618   7.547   3.759  1.00 20.00     0.038 C 
HETATM    4  C5  UNL     1     -33.800   4.815   3.798  1.00 20.00     0.031 C 
HETATM    5  C6  UNL     1     -33.193   6.934   5.046  1.00 20.00     0.054 C 
HETATM    6  C7  UNL     1     -34.316   5.926   4.736  1.00 20.00    -0.004 C 
HETATM    7  C8  UNL     1     -34.899   5.295   6.003  1.00 20.00     0.011 C 
ENDROOT
BRANCH   5   8
HETATM    8  C3  UNL     1     -33.689   8.056   5.909  1.00 20.00     0.236 C 
HETATM    9  O9  UNL     1     -33.895   9.191   5.492  1.00 20.00    -0.306 OA
ENDBRANCH   5   8
TORSDOF 1
ENDMDL
