MODEL 1
REMARK VINA RESULT:      -4.7      0.000      0.000
REMARK  1 active torsions:
REMARK  status: ('A' for Active; 'I' for Inactive)
REMARK    1  A    between atoms: C8_8  and  C9_9 
ROOT
HETATM    1  C1  UNL     1     -32.166   7.824   2.234  1.00 20.00     0.059 C 
HETATM    2  C9  UNL     1     -32.266   7.270   3.579  1.00 20.00     0.129 C 
HETATM    3  N10 UNL     1     -32.061   8.275   1.169  1.00 20.00    -0.197 NA
ENDROOT
BRANCH   2   4
HETATM    4  C8  UNL     1     -33.609   6.559   3.597  1.00 20.00     0.003 C 
HETATM    5  C5  UNL     1     -33.500   5.042   3.852  1.00 20.00     0.010 C 
HETATM    6  C6  UNL     1     -34.497   4.813   5.005  1.00 20.00    -0.014 C 
HETATM    7  C2  UNL     1     -33.886   5.374   6.301  1.00 20.00     0.005 C 
HETATM    8  C4  UNL     1     -35.584   5.843   4.700  1.00 20.00     0.009 C 
HETATM    9  C3  UNL     1     -33.988   6.893   6.100  1.00 20.00     0.005 C 
HETATM   10  C7  UNL     1     -34.599   7.016   4.695  1.00 20.00    -0.009 C 
ENDBRANCH   2   4
TORSDOF 1
ENDMDL
MODEL 2
REMARK VINA RESULT:      -4.4      1.350      1.423
REMARK  1 active torsions:
REMARK  status: ('A' for Active; 'I' for Inactive)
REMARK    1  A    between atoms: C8_8  and  C9_9 
ROOT
HETATM    1  C1  UNL     1     -32.215   8.476   4.351  1.00 20.00     0.059 C 
HETATM    2  C9  UNL     1     -32.072   7.139   3.787  1.00 20.00     0.129 C 
HETATM    3  N10 UNL     1     -32.302   9.543   4.798  1.00 20.00    -0.197 NA
ENDROOT
BRANCH   2   4
HETATM    4  C8  UNL     1     -33.496   6.620   3.675  1.00 20.00     0.003 C 
HETATM    5  C5  UNL     1     -33.595   5.080   3.699  1.00 20.00     0.010 C 
HETATM    6  C6  UNL     1     -34.654   4.820   4.788  1.00 20.00    -0.014 C 
HETATM    7  C2  UNL     1     -34.023   5.096   6.163  1.00 20.00     0.005 C 
HETATM    8  C4  UNL     1     -35.586   6.020   4.624  1.00 20.00     0.009 C 
HETATM    9  C3  UNL     1     -33.918   6.628   6.193  1.00 20.00     0.005 C 
HETATM   10  C7  UNL     1     -34.457   7.038   4.812  1.00 20.00    -0.009 C 
ENDBRANCH   2   4
TORSDOF 1
ENDMDL
MODEL 3
REMARK VINA RESULT:      -3.9      8.679     10.137
REMARK  1 active torsions:
REMARK  status: ('A' for Active; 'I' for Inactive)
REMARK    1  A    between atoms: C8_8  and  C9_9 
ROOT
HETATM    1  C1  UNL     1     -43.330   4.502  -0.835  1.00 20.00     0.059 C 
HETATM    2  C9  UNL     1     -43.382   4.800   0.592  1.00 20.00     0.129 C 
HETATM    3  N10 UNL     1     -43.313   4.253  -1.968  1.00 20.00    -0.197 NA
ENDROOT
BRANCH   2   4
HETATM    4  C8  UNL     1     -42.097   5.563   0.867  1.00 20.00     0.003 C 
HETATM    5  C5  UNL     1     -41.245   5.813  -0.395  1.00 20.00     0.010 C 
HETATM    6  C6  UNL     1     -40.975   7.329  -0.335  1.00 20.00    -0.014 C 
HETATM    7  C2  UNL     1     -42.269   8.074  -0.701  1.00 20.00     0.005 C 
HETATM    8  C4  UNL     1     -40.884   7.580   1.170  1.00 20.00     0.009 C 
HETATM    9  C3  UNL     1     -43.149   7.867   0.540  1.00 20.00     0.005 C 
HETATM   10  C7  UNL     1     -42.269   6.988   1.445  1.00 20.00    -0.009 C 
ENDBRANCH   2   4
TORSDOF 1
ENDMDL
MODEL 4
REMARK VINA RESULT:      -3.8     12.124     13.463
REMARK  1 active torsions:
REMARK  status: ('A' for Active; 'I' for Inactive)
REMARK    1  A    between atoms: C8_8  and  C9_9 
ROOT
HETATM    1  C1  UNL     1     -31.774  18.635   0.760  1.00 20.00     0.059 C 
HETATM    2  C9  UNL     1     -31.531  18.446  -0.665  1.00 20.00     0.129 C 
HETATM    3  N10 UNL     1     -31.941  18.776   1.899  1.00 20.00    -0.197 NA
ENDROOT
BRANCH   2   4
HETATM    4  C8  UNL     1     -32.822  18.892  -1.332  1.00 20.00     0.003 C 
HETATM    5  C5  UNL     1     -32.651  19.263  -2.820  1.00 20.00     0.010 C 
HETATM    6  C6  UNL     1     -33.758  18.441  -3.510  1.00 20.00    -0.014 C 
HETATM    7  C2  UNL     1     -33.335  16.963  -3.525  1.00 20.00     0.005 C 
HETATM    8  C4  UNL     1     -34.863  18.440  -2.454  1.00 20.00     0.009 C 
HETATM    9  C3  UNL     1     -33.505  16.540  -2.058  1.00 20.00     0.005 C 
HETATM   10  C7  UNL     1     -33.957  17.842  -1.374  1.00 20.00    -0.009 C 
ENDBRANCH   2   4
TORSDOF 1
ENDMDL
MODEL 5
REMARK VINA RESULT:      -3.7      9.471     10.474
REMARK  1 active torsions:
REMARK  status: ('A' for Active; 'I' for Inactive)
REMARK    1  A    between atoms: C8_8  and  C9_9 
ROOT
HETATM    1  C1  UNL     1     -39.392  11.860   4.751  1.00 20.00     0.059 C 
HETATM    2  C9  UNL     1     -39.905  12.012   6.107  1.00 20.00     0.129 C 
HETATM    3  N10 UNL     1     -38.963  11.724   3.681  1.00 20.00    -0.197 NA
ENDROOT
BRANCH   2   4
HETATM    4  C8  UNL     1     -41.136  12.890   5.952  1.00 20.00     0.003 C 
HETATM    5  C5  UNL     1     -42.336  12.427   6.803  1.00 20.00     0.010 C 
HETATM    6  C6  UNL     1     -42.748  13.713   7.546  1.00 20.00    -0.014 C 
HETATM    7  C2  UNL     1     -41.707  14.005   8.639  1.00 20.00     0.005 C 
HETATM    8  C4  UNL     1     -42.432  14.795   6.514  1.00 20.00     0.009 C 
HETATM    9  C3  UNL     1     -40.490  14.488   7.836  1.00 20.00     0.005 C 
HETATM   10  C7  UNL     1     -40.968  14.367   6.379  1.00 20.00    -0.009 C 
ENDBRANCH   2   4
TORSDOF 1
ENDMDL
MODEL 6
REMARK VINA RESULT:      -3.6     12.104     13.345
REMARK  1 active torsions:
REMARK  status: ('A' for Active; 'I' for Inactive)
REMARK    1  A    between atoms: C8_8  and  C9_9 
ROOT
HETATM    1  C1  UNL     1     -33.914  15.298  -4.795  1.00 20.00     0.059 C 
HETATM    2  C9  UNL     1     -33.691  15.614  -3.389  1.00 20.00     0.129 C 
HETATM    3  N10 UNL     1     -34.102  15.023  -5.906  1.00 20.00    -0.197 NA
ENDROOT
BRANCH   2   4
HETATM    4  C8  UNL     1     -33.120  17.022  -3.402  1.00 20.00     0.003 C 
HETATM    5  C5  UNL     1     -34.119  18.088  -3.899  1.00 20.00     0.010 C 
HETATM    6  C6  UNL     1     -34.063  19.156  -2.789  1.00 20.00    -0.014 C 
HETATM    7  C2  UNL     1     -34.800  18.618  -1.551  1.00 20.00     0.005 C 
HETATM    8  C4  UNL     1     -32.604  19.081  -2.343  1.00 20.00     0.009 C 
HETATM    9  C3  UNL     1     -33.831  17.557  -1.008  1.00 20.00     0.005 C 
HETATM   10  C7  UNL     1     -32.681  17.585  -2.029  1.00 20.00    -0.009 C 
ENDBRANCH   2   4
TORSDOF 1
ENDMDL
MODEL 7
REMARK VINA RESULT:      -3.6      8.927     10.370
REMARK  1 active torsions:
REMARK  status: ('A' for Active; 'I' for Inactive)
REMARK    1  A    between atoms: C8_8  and  C9_9 
ROOT
HETATM    1  C1  UNL     1     -43.416   4.112  -1.255  1.00 20.00     0.059 C 
HETATM    2  C9  UNL     1     -43.415   4.556   0.135  1.00 20.00     0.129 C 
HETATM    3  N10 UNL     1     -43.417   3.733  -2.351  1.00 20.00    -0.197 NA
ENDROOT
BRANCH   2   4
HETATM    4  C8  UNL     1     -43.371   6.073   0.048  1.00 20.00     0.003 C 
HETATM    5  C5  UNL     1     -43.178   6.763   1.414  1.00 20.00     0.010 C 
HETATM    6  C6  UNL     1     -41.995   7.717   1.155  1.00 20.00    -0.014 C 
HETATM    7  C2  UNL     1     -40.705   6.885   1.060  1.00 20.00     0.005 C 
HETATM    8  C4  UNL     1     -42.219   8.116  -0.304  1.00 20.00     0.009 C 
HETATM    9  C3  UNL     1     -40.844   6.188  -0.301  1.00 20.00     0.005 C 
HETATM   10  C7  UNL     1     -42.219   6.667  -0.796  1.00 20.00    -0.009 C 
ENDBRANCH   2   4
TORSDOF 1
ENDMDL
MODEL 8
REMARK VINA RESULT:      -3.6     11.786     13.292
REMARK  1 active torsions:
REMARK  status: ('A' for Active; 'I' for Inactive)
REMARK    1  A    between atoms: C8_8  and  C9_9 
ROOT
HETATM    1  C1  UNL     1     -33.891  14.813  -3.994  1.00 20.00     0.059 C 
HETATM    2  C9  UNL     1     -33.162  16.061  -3.808  1.00 20.00     0.129 C 
HETATM    3  N10 UNL     1     -34.451  13.809  -4.157  1.00 20.00    -0.197 NA
ENDROOT
BRANCH   2   4
HETATM    4  C8  UNL     1     -34.075  16.908  -2.937  1.00 20.00     0.003 C 
HETATM    5  C5  UNL     1     -33.559  17.090  -1.495  1.00 20.00     0.010 C 
HETATM    6  C6  UNL     1     -33.619  18.617  -1.296  1.00 20.00    -0.014 C 
HETATM    7  C2  UNL     1     -32.479  19.263  -2.101  1.00 20.00     0.005 C 
HETATM    8  C4  UNL     1     -34.844  19.001  -2.125  1.00 20.00     0.009 C 
HETATM    9  C3  UNL     1     -32.958  19.121  -3.552  1.00 20.00     0.005 C 
HETATM   10  C7  UNL     1     -34.290  18.367  -3.404  1.00 20.00    -0.009 C 
ENDBRANCH   2   4
TORSDOF 1
ENDMDL
MODEL 9
REMARK VINA RESULT:      -3.5     12.755     13.956
REMARK  1 active torsions:
REMARK  status: ('A' for Active; 'I' for Inactive)
REMARK    1  A    between atoms: C8_8  and  C9_9 
ROOT
HETATM    1  C1  UNL     1     -31.794  18.390  -0.748  1.00 20.00     0.059 C 
HETATM    2  C9  UNL     1     -33.024  17.764  -1.216  1.00 20.00     0.129 C 
HETATM    3  N10 UNL     1     -30.822  18.884  -0.349  1.00 20.00    -0.197 NA
ENDROOT
BRANCH   2   4
HETATM    4  C8  UNL     1     -32.926  17.820  -2.732  1.00 20.00     0.003 C 
HETATM    5  C5  UNL     1     -33.666  16.668  -3.442  1.00 20.00     0.010 C 
HETATM    6  C6  UNL     1     -34.541  17.405  -4.475  1.00 20.00    -0.014 C 
HETATM    7  C2  UNL     1     -35.702  18.091  -3.736  1.00 20.00     0.005 C 
HETATM    8  C4  UNL     1     -33.660  18.597  -4.850  1.00 20.00     0.009 C 
HETATM    9  C3  UNL     1     -35.013  19.263  -3.023  1.00 20.00     0.005 C 
HETATM   10  C7  UNL     1     -33.534  19.076  -3.401  1.00 20.00    -0.009 C 
ENDBRANCH   2   4
TORSDOF 1
ENDMDL
