MODEL 1
REMARK VINA RESULT:      -4.1      0.000      0.000
REMARK  0 active torsions:
REMARK  status: ('A' for Active; 'I' for Inactive)
ROOT
HETATM    1  C1  UNL     1     -22.271  17.337   9.111  1.00 20.00     0.086 C 
HETATM    2  C2  UNL     1     -24.740  18.823  12.332  1.00 20.00     0.005 C 
HETATM    3  C3  UNL     1     -25.439  18.060  11.198  1.00 20.00     0.008 C 
HETATM    4  C4  UNL     1     -23.527  16.835  11.844  1.00 20.00     0.012 C 
HETATM    5  C5  UNL     1     -22.590  18.887  11.042  1.00 20.00     0.046 C 
HETATM    6  C6  UNL     1     -23.301  18.284  12.274  1.00 20.00    -0.011 C 
HETATM    7  C7  UNL     1     -24.293  17.237  10.574  1.00 20.00     0.024 C 
HETATM    8  C8  UNL     1     -23.251  18.141   9.861  1.00 20.00     0.129 C 
HETATM    9  N9  UNL     1     -21.499  16.704   8.520  1.00 20.00    -0.195 NA
HETATM   10 CL10 UNL     1     -23.971  19.263   8.680  1.00 20.00    -0.102 Cl
ENDROOT
TORSDOF 0
ENDMDL
MODEL 2
REMARK VINA RESULT:      -3.9      1.760      2.388
REMARK  0 active torsions:
REMARK  status: ('A' for Active; 'I' for Inactive)
ROOT
HETATM    1  C1  UNL     1     -23.605  18.963   8.191  1.00 20.00     0.086 C 
HETATM    2  C2  UNL     1     -23.155  17.332  12.168  1.00 20.00     0.005 C 
HETATM    3  C3  UNL     1     -23.184  18.861  12.028  1.00 20.00     0.008 C 
HETATM    4  C4  UNL     1     -24.950  17.967  10.741  1.00 20.00     0.012 C 
HETATM    5  C5  UNL     1     -23.009  17.050   9.680  1.00 20.00     0.046 C 
HETATM    6  C6  UNL     1     -23.915  16.858  10.918  1.00 20.00    -0.011 C 
HETATM    7  C7  UNL     1     -23.885  19.073  10.671  1.00 20.00     0.024 C 
HETATM    8  C8  UNL     1     -23.012  18.583   9.484  1.00 20.00     0.129 C 
HETATM    9  N9  UNL     1     -24.074  19.263   7.172  1.00 20.00    -0.195 NA
HETATM   10 CL10 UNL     1     -21.364  19.260   9.484  1.00 20.00    -0.102 Cl
ENDROOT
TORSDOF 0
ENDMDL
MODEL 3
REMARK VINA RESULT:      -3.8     15.433     16.207
REMARK  0 active torsions:
REMARK  status: ('A' for Active; 'I' for Inactive)
ROOT
HETATM    1  C1  UNL     1     -31.719  18.498  -0.793  1.00 20.00     0.086 C 
HETATM    2  C2  UNL     1     -34.991  17.770  -3.521  1.00 20.00     0.005 C 
HETATM    3  C3  UNL     1     -35.100  18.989  -2.593  1.00 20.00     0.008 C 
HETATM    4  C4  UNL     1     -32.940  18.976  -3.547  1.00 20.00     0.012 C 
HETATM    5  C5  UNL     1     -32.971  16.939  -2.288  1.00 20.00     0.046 C 
HETATM    6  C6  UNL     1     -33.473  17.546  -3.618  1.00 20.00    -0.011 C 
HETATM    7  C7  UNL     1     -33.632  19.263  -2.205  1.00 20.00     0.024 C 
HETATM    8  C8  UNL     1     -33.049  18.135  -1.311  1.00 20.00     0.129 C 
HETATM    9  N9  UNL     1     -30.671  18.785  -0.385  1.00 20.00    -0.195 NA
HETATM   10 CL10 UNL     1     -34.048  17.769   0.117  1.00 20.00    -0.102 Cl
ENDROOT
TORSDOF 0
ENDMDL
MODEL 4
REMARK VINA RESULT:      -3.7     23.576     24.567
REMARK  0 active torsions:
REMARK  status: ('A' for Active; 'I' for Inactive)
ROOT
HETATM    1  C1  UNL     1     -43.099   4.311   1.024  1.00 20.00     0.086 C 
HETATM    2  C2  UNL     1     -41.372   8.083  -0.187  1.00 20.00     0.005 C 
HETATM    3  C3  UNL     1     -40.786   7.403   1.058  1.00 20.00     0.008 C 
HETATM    4  C4  UNL     1     -41.005   5.777  -0.639  1.00 20.00     0.012 C 
HETATM    5  C5  UNL     1     -43.272   6.446  -0.257  1.00 20.00     0.046 C 
HETATM    6  C6  UNL     1     -41.979   6.907  -0.969  1.00 20.00    -0.011 C 
HETATM    7  C7  UNL     1     -41.201   5.928   0.877  1.00 20.00     0.024 C 
HETATM    8  C8  UNL     1     -42.737   5.739   1.008  1.00 20.00     0.129 C 
HETATM    9  N9  UNL     1     -43.384   3.186   1.037  1.00 20.00    -0.195 NA
HETATM   10 CL10 UNL     1     -43.416   6.433   2.501  1.00 20.00    -0.102 Cl
ENDROOT
TORSDOF 0
ENDMDL
MODEL 5
REMARK VINA RESULT:      -3.4     19.619     20.493
REMARK  0 active torsions:
REMARK  status: ('A' for Active; 'I' for Inactive)
ROOT
HETATM    1  C1  UNL     1     -25.002  -1.702  11.836  1.00 20.00     0.086 C 
HETATM    2  C2  UNL     1     -29.090  -2.477  10.668  1.00 20.00     0.005 C 
HETATM    3  C3  UNL     1     -28.787  -2.389  12.171  1.00 20.00     0.008 C 
HETATM    4  C4  UNL     1     -27.735  -0.569  11.095  1.00 20.00     0.012 C 
HETATM    5  C5  UNL     1     -26.643  -2.462  10.116  1.00 20.00     0.046 C 
HETATM    6  C6  UNL     1     -27.957  -1.650  10.039  1.00 20.00    -0.011 C 
HETATM    7  C7  UNL     1     -27.468  -1.589  12.214  1.00 20.00     0.024 C 
HETATM    8  C8  UNL     1     -26.283  -2.395  11.617  1.00 20.00     0.129 C 
HETATM    9  N9  UNL     1     -23.993  -1.155  12.009  1.00 20.00    -0.195 NA
HETATM   10 CL10 UNL     1     -26.091  -4.015  12.332  1.00 20.00    -0.102 Cl
ENDROOT
TORSDOF 0
ENDMDL
MODEL 6
REMARK VINA RESULT:      -3.3     19.729     20.567
REMARK  0 active torsions:
REMARK  status: ('A' for Active; 'I' for Inactive)
ROOT
HETATM    1  C1  UNL     1     -25.075  -2.866  10.085  1.00 20.00     0.086 C 
HETATM    2  C2  UNL     1     -28.785  -1.717  11.980  1.00 20.00     0.005 C 
HETATM    3  C3  UNL     1     -28.047  -0.648  11.162  1.00 20.00     0.008 C 
HETATM    4  C4  UNL     1     -28.110  -2.639   9.893  1.00 20.00     0.012 C 
HETATM    5  C5  UNL     1     -26.829  -3.278  11.813  1.00 20.00     0.046 C 
HETATM    6  C6  UNL     1     -28.286  -3.032  11.359  1.00 20.00    -0.011 C 
HETATM    7  C7  UNL     1     -27.151  -1.484  10.225  1.00 20.00     0.024 C 
HETATM    8  C8  UNL     1     -26.034  -2.228  11.004  1.00 20.00     0.129 C 
HETATM    9  N9  UNL     1     -24.320  -3.368   9.360  1.00 20.00    -0.195 NA
HETATM   10 CL10 UNL     1     -25.069  -1.164  12.057  1.00 20.00    -0.102 Cl
ENDROOT
TORSDOF 0
ENDMDL
MODEL 7
REMARK VINA RESULT:      -3.3     19.501     20.252
REMARK  0 active torsions:
REMARK  status: ('A' for Active; 'I' for Inactive)
ROOT
HETATM    1  C1  UNL     1     -33.845  15.768  -4.065  1.00 20.00     0.086 C 
HETATM    2  C2  UNL     1     -35.849  15.762  -7.895  1.00 20.00     0.005 C 
HETATM    3  C3  UNL     1     -36.698  16.060  -6.651  1.00 20.00     0.008 C 
HETATM    4  C4  UNL     1     -34.723  17.347  -6.522  1.00 20.00     0.012 C 
HETATM    5  C5  UNL     1     -33.892  15.102  -6.471  1.00 20.00     0.046 C 
HETATM    6  C6  UNL     1     -34.434  16.168  -7.450  1.00 20.00    -0.011 C 
HETATM    7  C7  UNL     1     -35.651  16.523  -5.617  1.00 20.00     0.024 C 
HETATM    8  C8  UNL     1     -34.711  15.364  -5.187  1.00 20.00     0.129 C 
HETATM    9  N9  UNL     1     -33.163  16.086  -3.182  1.00 20.00    -0.195 NA
HETATM   10 CL10 UNL     1     -35.578  13.909  -4.636  1.00 20.00    -0.102 Cl
ENDROOT
TORSDOF 0
ENDMDL
MODEL 8
REMARK VINA RESULT:      -3.2     19.664     20.596
REMARK  0 active torsions:
REMARK  status: ('A' for Active; 'I' for Inactive)
ROOT
HETATM    1  C1  UNL     1     -29.172  -2.131  10.960  1.00 20.00     0.086 C 
HETATM    2  C2  UNL     1     -24.861  -2.142  11.266  1.00 20.00     0.005 C 
HETATM    3  C3  UNL     1     -25.630  -1.137  12.135  1.00 20.00     0.008 C 
HETATM    4  C4  UNL     1     -26.683  -3.241  12.329  1.00 20.00     0.012 C 
HETATM    5  C5  UNL     1     -26.946  -2.735  10.004  1.00 20.00     0.046 C 
HETATM    6  C6  UNL     1     -25.899  -3.249  11.018  1.00 20.00    -0.011 C 
HETATM    7  C7  UNL     1     -27.043  -1.752  12.210  1.00 20.00     0.024 C 
HETATM    8  C8  UNL     1     -27.763  -1.719  10.835  1.00 20.00     0.129 C 
HETATM    9  N9  UNL     1     -30.282  -2.455  11.059  1.00 20.00    -0.195 NA
HETATM   10 CL10 UNL     1     -27.789  -0.105  10.082  1.00 20.00    -0.102 Cl
ENDROOT
TORSDOF 0
ENDMDL
MODEL 9
REMARK VINA RESULT:      -3.2     17.924     19.136
REMARK  0 active torsions:
REMARK  status: ('A' for Active; 'I' for Inactive)
ROOT
HETATM    1  C1  UNL     1     -41.762  14.012   4.722  1.00 20.00     0.086 C 
HETATM    2  C2  UNL     1     -41.781  14.100   9.044  1.00 20.00     0.005 C 
HETATM    3  C3  UNL     1     -40.438  14.327   8.336  1.00 20.00     0.008 C 
HETATM    4  C4  UNL     1     -42.070  15.660   7.271  1.00 20.00     0.012 C 
HETATM    5  C5  UNL     1     -42.872  13.437   6.884  1.00 20.00     0.046 C 
HETATM    6  C6  UNL     1     -42.807  14.526   7.980  1.00 20.00    -0.011 C 
HETATM    7  C7  UNL     1     -40.860  14.778   6.923  1.00 20.00     0.024 C 
HETATM    8  C8  UNL     1     -41.538  13.629   6.127  1.00 20.00     0.129 C 
HETATM    9  N9  UNL     1     -41.939  14.315   3.616  1.00 20.00    -0.195 NA
HETATM   10 CL10 UNL     1     -40.575  12.132   6.078  1.00 20.00    -0.102 Cl
ENDROOT
TORSDOF 0
ENDMDL
