MODEL 1
REMARK VINA RESULT:      -3.4      0.000      0.000
REMARK  1 active torsions:
REMARK  status: ('A' for Active; 'I' for Inactive)
REMARK    1  A    between atoms: C2_2  and  C3_3 
ROOT
HETATM    1  C3  UNL     1     -34.252   6.324   4.672  1.00 20.00     0.216 C 
HETATM    2 CL5  UNL     1     -33.245   5.348   3.545  1.00 20.00    -0.081 Cl
HETATM    3 CL6  UNL     1     -34.032   5.664   6.330  1.00 20.00    -0.081 Cl
HETATM    4 CL7  UNL     1     -35.976   6.107   4.209  1.00 20.00    -0.081 Cl
ENDROOT
BRANCH   1   5
HETATM    5  C2  UNL     1     -33.866   7.758   4.617  1.00 20.00     0.199 A 
HETATM    6  C1  UNL     1     -32.488   8.209   5.015  1.00 20.00     0.204 A 
HETATM    7  O4  UNL     1     -32.870   8.069   3.637  1.00 20.00    -0.377 OA
ENDBRANCH   1   5
TORSDOF 1
ENDMDL
MODEL 2
REMARK VINA RESULT:      -3.4      0.003      1.906
REMARK  1 active torsions:
REMARK  status: ('A' for Active; 'I' for Inactive)
REMARK    1  A    between atoms: C2_2  and  C3_3 
ROOT
HETATM    1  C3  UNL     1     -34.252   6.321   4.673  1.00 20.00     0.216 C 
HETATM    2 CL5  UNL     1     -35.976   6.104   4.210  1.00 20.00    -0.081 Cl
HETATM    3 CL6  UNL     1     -33.245   5.345   3.547  1.00 20.00    -0.081 Cl
HETATM    4 CL7  UNL     1     -34.032   5.662   6.331  1.00 20.00    -0.081 Cl
ENDROOT
BRANCH   1   5
HETATM    5  C2  UNL     1     -33.867   7.755   4.619  1.00 20.00     0.199 A 
HETATM    6  C1  UNL     1     -32.489   8.207   5.014  1.00 20.00     0.204 A 
HETATM    7  O4  UNL     1     -32.873   8.068   3.636  1.00 20.00    -0.377 OA
ENDBRANCH   1   5
TORSDOF 1
ENDMDL
MODEL 3
REMARK VINA RESULT:      -3.4      0.004      1.906
REMARK  1 active torsions:
REMARK  status: ('A' for Active; 'I' for Inactive)
REMARK    1  A    between atoms: C2_2  and  C3_3 
ROOT
HETATM    1  C3  UNL     1     -34.253   6.321   4.673  1.00 20.00     0.216 C 
HETATM    2 CL5  UNL     1     -34.033   5.664   6.332  1.00 20.00    -0.081 Cl
HETATM    3 CL6  UNL     1     -35.977   6.104   4.210  1.00 20.00    -0.081 Cl
HETATM    4 CL7  UNL     1     -33.246   5.344   3.548  1.00 20.00    -0.081 Cl
ENDROOT
BRANCH   1   5
HETATM    5  C2  UNL     1     -33.867   7.756   4.617  1.00 20.00     0.199 A 
HETATM    6  C1  UNL     1     -32.489   8.207   5.014  1.00 20.00     0.204 A 
HETATM    7  O4  UNL     1     -32.871   8.066   3.636  1.00 20.00    -0.377 OA
ENDBRANCH   1   5
TORSDOF 1
ENDMDL
MODEL 4
REMARK VINA RESULT:      -3.1      8.998      9.473
REMARK  1 active torsions:
REMARK  status: ('A' for Active; 'I' for Inactive)
REMARK    1  A    between atoms: C2_2  and  C3_3 
ROOT
HETATM    1  C3  UNL     1     -41.169  12.943   6.250  1.00 20.00     0.216 C 
HETATM    2 CL5  UNL     1     -41.605  13.865   4.769  1.00 20.00    -0.081 Cl
HETATM    3 CL6  UNL     1     -42.679  12.266   6.952  1.00 20.00    -0.081 Cl
HETATM    4 CL7  UNL     1     -40.470  14.097   7.440  1.00 20.00    -0.081 Cl
ENDROOT
BRANCH   1   5
HETATM    5  C2  UNL     1     -40.201  11.860   5.933  1.00 20.00     0.199 A 
HETATM    6  C1  UNL     1     -38.827  12.173   5.408  1.00 20.00     0.204 A 
HETATM    7  O4  UNL     1     -39.050  11.823   6.784  1.00 20.00    -0.377 OA
ENDBRANCH   1   5
TORSDOF 1
ENDMDL
MODEL 5
REMARK VINA RESULT:      -3.1      8.998      9.505
REMARK  1 active torsions:
REMARK  status: ('A' for Active; 'I' for Inactive)
REMARK    1  A    between atoms: C2_2  and  C3_3 
ROOT
HETATM    1  C3  UNL     1     -41.169  12.943   6.252  1.00 20.00     0.216 C 
HETATM    2 CL5  UNL     1     -40.470  14.094   7.444  1.00 20.00    -0.081 Cl
HETATM    3 CL6  UNL     1     -41.606  13.867   4.773  1.00 20.00    -0.081 Cl
HETATM    4 CL7  UNL     1     -42.681  12.264   6.952  1.00 20.00    -0.081 Cl
ENDROOT
BRANCH   1   5
HETATM    5  C2  UNL     1     -40.202  11.860   5.934  1.00 20.00     0.199 A 
HETATM    6  C1  UNL     1     -38.829  12.173   5.408  1.00 20.00     0.204 A 
HETATM    7  O4  UNL     1     -39.050  11.823   6.784  1.00 20.00    -0.377 OA
ENDBRANCH   1   5
TORSDOF 1
ENDMDL
MODEL 6
REMARK VINA RESULT:      -3.0     16.012     16.730
REMARK  1 active torsions:
REMARK  status: ('A' for Active; 'I' for Inactive)
REMARK    1  A    between atoms: C2_2  and  C3_3 
ROOT
HETATM    1  C3  UNL     1     -23.621  17.780  11.015  1.00 20.00     0.216 C 
HETATM    2 CL5  UNL     1     -22.631  18.502  12.332  1.00 20.00    -0.081 Cl
HETATM    3 CL6  UNL     1     -24.997  18.887  10.680  1.00 20.00    -0.081 Cl
HETATM    4 CL7  UNL     1     -24.290  16.221  11.612  1.00 20.00    -0.081 Cl
ENDROOT
BRANCH   1   5
HETATM    5  C2  UNL     1     -22.801  17.570   9.793  1.00 20.00     0.199 A 
HETATM    6  C1  UNL     1     -22.397  18.724   8.919  1.00 20.00     0.204 A 
HETATM    7  O4  UNL     1     -21.484  18.130   9.857  1.00 20.00    -0.377 OA
ENDBRANCH   1   5
TORSDOF 1
ENDMDL
MODEL 7
REMARK VINA RESULT:      -2.9     16.063     16.800
REMARK  1 active torsions:
REMARK  status: ('A' for Active; 'I' for Inactive)
REMARK    1  A    between atoms: C2_2  and  C3_3 
ROOT
HETATM    1  C3  UNL     1     -23.456  17.874  10.072  1.00 20.00     0.216 C 
HETATM    2 CL5  UNL     1     -24.682  18.757   9.098  1.00 20.00    -0.081 Cl
HETATM    3 CL6  UNL     1     -22.285  17.113   8.940  1.00 20.00    -0.081 Cl
HETATM    4 CL7  UNL     1     -24.296  16.562  10.970  1.00 20.00    -0.081 Cl
ENDROOT
BRANCH   1   5
HETATM    5  C2  UNL     1     -22.762  18.796  11.010  1.00 20.00     0.199 A 
HETATM    6  C1  UNL     1     -22.226  18.308  12.327  1.00 20.00     0.204 A 
HETATM    7  O4  UNL     1     -21.369  18.520  11.193  1.00 20.00    -0.377 OA
ENDBRANCH   1   5
TORSDOF 1
ENDMDL
MODEL 8
REMARK VINA RESULT:      -2.9     16.058     16.825
REMARK  1 active torsions:
REMARK  status: ('A' for Active; 'I' for Inactive)
REMARK    1  A    between atoms: C2_2  and  C3_3 
ROOT
HETATM    1  C3  UNL     1     -23.439  17.853  10.061  1.00 20.00     0.216 C 
HETATM    2 CL5  UNL     1     -24.266  16.531  10.956  1.00 20.00    -0.081 Cl
HETATM    3 CL6  UNL     1     -24.672  18.721   9.081  1.00 20.00    -0.081 Cl
HETATM    4 CL7  UNL     1     -22.254  17.107   8.933  1.00 20.00    -0.081 Cl
ENDROOT
BRANCH   1   5
HETATM    5  C2  UNL     1     -22.760  18.783  11.002  1.00 20.00     0.199 A 
HETATM    6  C1  UNL     1     -22.238  18.305  12.328  1.00 20.00     0.204 A 
HETATM    7  O4  UNL     1     -21.368  18.514  11.203  1.00 20.00    -0.377 OA
ENDBRANCH   1   5
TORSDOF 1
ENDMDL
MODEL 9
REMARK VINA RESULT:      -2.8      8.883      9.574
REMARK  1 active torsions:
REMARK  status: ('A' for Active; 'I' for Inactive)
REMARK    1  A    between atoms: C2_2  and  C3_3 
ROOT
HETATM    1  C3  UNL     1     -41.688   6.175   0.316  1.00 20.00     0.216 C 
HETATM    2 CL5  UNL     1     -40.606   7.400   1.066  1.00 20.00    -0.081 Cl
HETATM    3 CL6  UNL     1     -42.319   5.112   1.623  1.00 20.00    -0.081 Cl
HETATM    4 CL7  UNL     1     -40.701   5.165  -0.797  1.00 20.00    -0.081 Cl
ENDROOT
BRANCH   1   5
HETATM    5  C2  UNL     1     -42.803   6.832  -0.415  1.00 20.00     0.199 A 
HETATM    6  C1  UNL     1     -43.417   8.109   0.086  1.00 20.00     0.204 A 
HETATM    7  O4  UNL     1     -42.469   8.099  -0.994  1.00 20.00    -0.377 OA
ENDBRANCH   1   5
TORSDOF 1
ENDMDL
