MODEL 1
REMARK VINA RESULT:      -4.8      0.000      0.000
REMARK  1 active torsions:
REMARK  status: ('A' for Active; 'I' for Inactive)
REMARK    1  A    between atoms: C8_8  and  C9_9 
ROOT
HETATM    1  C1  UNL     1     -32.482   8.059   2.849  1.00 20.00     0.059 C 
HETATM    2  C9  UNL     1     -33.003   8.357   4.177  1.00 20.00     0.129 C 
HETATM    3  N10 UNL     1     -32.067   7.852   1.785  1.00 20.00    -0.197 NA
ENDROOT
BRANCH   2   4
HETATM    4  C8  UNL     1     -33.115   6.994   4.851  1.00 20.00     0.003 C 
HETATM    5  C5  UNL     1     -33.771   7.083   6.246  1.00 20.00     0.010 C 
HETATM    6  C6  UNL     1     -34.956   6.107   6.137  1.00 20.00    -0.014 C 
HETATM    7  C2  UNL     1     -34.418   4.667   6.052  1.00 20.00     0.005 C 
HETATM    8  C4  UNL     1     -35.430   6.351   4.706  1.00 20.00     0.009 C 
HETATM    9  C3  UNL     1     -33.827   4.604   4.636  1.00 20.00     0.005 C 
HETATM   10  C7  UNL     1     -34.063   6.029   4.099  1.00 20.00    -0.009 C 
ENDBRANCH   2   4
TORSDOF 1
ENDMDL
MODEL 2
REMARK VINA RESULT:      -3.8      9.379     10.351
REMARK  1 active torsions:
REMARK  status: ('A' for Active; 'I' for Inactive)
REMARK    1  A    between atoms: C8_8  and  C9_9 
ROOT
HETATM    1  C1  UNL     1     -39.401  11.790   4.483  1.00 20.00     0.059 C 
HETATM    2  C9  UNL     1     -39.805  11.902   5.878  1.00 20.00     0.129 C 
HETATM    3  N10 UNL     1     -39.075  11.670   3.375  1.00 20.00    -0.197 NA
ENDROOT
BRANCH   2   4
HETATM    4  C8  UNL     1     -40.184  13.369   6.044  1.00 20.00     0.003 C 
HETATM    5  C5  UNL     1     -41.463  13.735   5.262  1.00 20.00     0.010 C 
HETATM    6  C6  UNL     1     -42.380  14.325   6.349  1.00 20.00    -0.014 C 
HETATM    7  C2  UNL     1     -41.809  15.675   6.815  1.00 20.00     0.005 C 
HETATM    8  C4  UNL     1     -42.067  13.423   7.541  1.00 20.00     0.009 C 
HETATM    9  C3  UNL     1     -40.575  15.264   7.631  1.00 20.00     0.005 C 
HETATM   10  C7  UNL     1     -40.568  13.730   7.499  1.00 20.00    -0.009 C 
ENDBRANCH   2   4
TORSDOF 1
ENDMDL
MODEL 3
REMARK VINA RESULT:      -3.7     12.380     13.413
REMARK  1 active torsions:
REMARK  status: ('A' for Active; 'I' for Inactive)
REMARK    1  A    between atoms: C8_8  and  C9_9 
ROOT
HETATM    1  C1  UNL     1     -31.096  18.509   1.364  1.00 20.00     0.059 C 
HETATM    2  C9  UNL     1     -31.013  18.444  -0.089  1.00 20.00     0.129 C 
HETATM    3  N10 UNL     1     -31.135  18.548   2.524  1.00 20.00    -0.197 NA
ENDROOT
BRANCH   2   4
HETATM    4  C8  UNL     1     -32.331  19.041  -0.569  1.00 20.00     0.003 C 
HETATM    5  C5  UNL     1     -32.425  19.093  -2.108  1.00 20.00     0.010 C 
HETATM    6  C6  UNL     1     -33.723  18.321  -2.405  1.00 20.00    -0.014 C 
HETATM    7  C2  UNL     1     -34.926  19.145  -1.914  1.00 20.00     0.005 C 
HETATM    8  C4  UNL     1     -33.663  17.202  -1.367  1.00 20.00     0.009 C 
HETATM    9  C3  UNL     1     -34.828  19.021  -0.387  1.00 20.00     0.005 C 
HETATM   10  C7  UNL     1     -33.556  18.174  -0.189  1.00 20.00    -0.009 C 
ENDBRANCH   2   4
TORSDOF 1
ENDMDL
MODEL 4
REMARK VINA RESULT:      -3.7     16.079     17.101
REMARK  1 active torsions:
REMARK  status: ('A' for Active; 'I' for Inactive)
REMARK    1  A    between atoms: C8_8  and  C9_9 
ROOT
HETATM    1  C1  UNL     1     -24.667  17.536  12.249  1.00 20.00     0.059 C 
HETATM    2  C9  UNL     1     -23.219  17.701  12.225  1.00 20.00     0.129 C 
HETATM    3  N10 UNL     1     -25.817  17.389  12.295  1.00 20.00    -0.197 NA
ENDROOT
BRANCH   2   4
HETATM    4  C8  UNL     1     -22.959  18.561  10.994  1.00 20.00     0.003 C 
HETATM    5  C5  UNL     1     -21.462  18.611  10.620  1.00 20.00     0.010 C 
HETATM    6  C6  UNL     1     -21.451  18.132   9.158  1.00 20.00    -0.014 C 
HETATM    7  C2  UNL     1     -22.110  19.201   8.270  1.00 20.00     0.005 C 
HETATM    8  C4  UNL     1     -22.520  17.040   9.180  1.00 20.00     0.009 C 
HETATM    9  C3  UNL     1     -23.598  19.080   8.630  1.00 20.00     0.005 C 
HETATM   10  C7  UNL     1     -23.603  17.983   9.711  1.00 20.00    -0.009 C 
ENDBRANCH   2   4
TORSDOF 1
ENDMDL
MODEL 5
REMARK VINA RESULT:      -3.7     12.434     13.594
REMARK  1 active torsions:
REMARK  status: ('A' for Active; 'I' for Inactive)
REMARK    1  A    between atoms: C8_8  and  C9_9 
ROOT
HETATM    1  C1  UNL     1     -33.455  16.792  -2.236  1.00 20.00     0.059 C 
HETATM    2  C9  UNL     1     -33.102  16.135  -3.488  1.00 20.00     0.129 C 
HETATM    3  N10 UNL     1     -33.707  17.314  -1.230  1.00 20.00    -0.197 NA
ENDROOT
BRANCH   2   4
HETATM    4  C8  UNL     1     -34.417  16.053  -4.254  1.00 20.00     0.003 C 
HETATM    5  C5  UNL     1     -34.530  17.142  -5.342  1.00 20.00     0.010 C 
HETATM    6  C6  UNL     1     -34.791  16.330  -6.623  1.00 20.00    -0.014 C 
HETATM    7  C2  UNL     1     -36.196  15.707  -6.549  1.00 20.00     0.005 C 
HETATM    8  C4  UNL     1     -33.895  15.112  -6.407  1.00 20.00     0.009 C 
HETATM    9  C3  UNL     1     -36.026  14.597  -5.501  1.00 20.00     0.005 C 
HETATM   10  C7  UNL     1     -34.554  14.748  -5.074  1.00 20.00    -0.009 C 
ENDBRANCH   2   4
TORSDOF 1
ENDMDL
MODEL 6
REMARK VINA RESULT:      -3.6     12.752     13.632
REMARK  1 active torsions:
REMARK  status: ('A' for Active; 'I' for Inactive)
REMARK    1  A    between atoms: C8_8  and  C9_9 
ROOT
HETATM    1  C1  UNL     1     -31.840  18.771  -0.504  1.00 20.00     0.059 C 
HETATM    2  C9  UNL     1     -33.243  19.119  -0.694  1.00 20.00     0.129 C 
HETATM    3  N10 UNL     1     -30.720  18.519  -0.335  1.00 20.00    -0.197 NA
ENDROOT
BRANCH   2   4
HETATM    4  C8  UNL     1     -33.787  18.012  -1.591  1.00 20.00     0.003 C 
HETATM    5  C5  UNL     1     -35.043  18.455  -2.370  1.00 20.00     0.010 C 
HETATM    6  C6  UNL     1     -34.655  18.194  -3.836  1.00 20.00    -0.014 C 
HETATM    7  C2  UNL     1     -34.564  16.677  -4.073  1.00 20.00     0.005 C 
HETATM    8  C4  UNL     1     -33.183  18.602  -3.844  1.00 20.00     0.009 C 
HETATM    9  C3  UNL     1     -33.276  16.288  -3.332  1.00 20.00     0.005 C 
HETATM   10  C7  UNL     1     -32.809  17.626  -2.727  1.00 20.00    -0.009 C 
ENDBRANCH   2   4
TORSDOF 1
ENDMDL
MODEL 7
REMARK VINA RESULT:      -3.5      8.991     10.359
REMARK  1 active torsions:
REMARK  status: ('A' for Active; 'I' for Inactive)
REMARK    1  A    between atoms: C8_8  and  C9_9 
ROOT
HETATM    1  C1  UNL     1     -42.804   3.908  -2.423  1.00 20.00     0.059 C 
HETATM    2  C9  UNL     1     -43.416   4.423  -1.205  1.00 20.00     0.129 C 
HETATM    3  N10 UNL     1     -42.338   3.475  -3.394  1.00 20.00    -0.197 NA
ENDROOT
BRANCH   2   4
HETATM    4  C8  UNL     1     -42.612   5.677  -0.882  1.00 20.00     0.003 C 
HETATM    5  C5  UNL     1     -43.412   6.680  -0.023  1.00 20.00     0.010 C 
HETATM    6  C6  UNL     1     -42.505   6.891   1.202  1.00 20.00    -0.014 C 
HETATM    7  C2  UNL     1     -41.246   7.665   0.772  1.00 20.00     0.005 C 
HETATM    8  C4  UNL     1     -41.949   5.486   1.424  1.00 20.00     0.009 C 
HETATM    9  C3  UNL     1     -40.456   6.619  -0.029  1.00 20.00     0.005 C 
HETATM   10  C7  UNL     1     -41.379   5.387   0.007  1.00 20.00    -0.009 C 
ENDBRANCH   2   4
TORSDOF 1
ENDMDL
MODEL 8
REMARK VINA RESULT:      -3.5     12.504     13.571
REMARK  1 active torsions:
REMARK  status: ('A' for Active; 'I' for Inactive)
REMARK    1  A    between atoms: C8_8  and  C9_9 
ROOT
HETATM    1  C1  UNL     1     -34.426  16.149  -5.087  1.00 20.00     0.059 C 
HETATM    2  C9  UNL     1     -34.241  17.547  -4.720  1.00 20.00     0.129 C 
HETATM    3  N10 UNL     1     -34.568  15.043  -5.408  1.00 20.00    -0.197 NA
ENDROOT
BRANCH   2   4
HETATM    4  C8  UNL     1     -34.416  17.566  -3.206  1.00 20.00     0.003 C 
HETATM    5  C5  UNL     1     -33.366  16.695  -2.484  1.00 20.00     0.010 C 
HETATM    6  C6  UNL     1     -32.711  17.682  -1.501  1.00 20.00    -0.014 C 
HETATM    7  C2  UNL     1     -33.726  18.055  -0.406  1.00 20.00     0.005 C 
HETATM    8  C4  UNL     1     -32.661  18.962  -2.332  1.00 20.00     0.009 C 
HETATM    9  C3  UNL     1     -34.717  18.961  -1.150  1.00 20.00     0.005 C 
HETATM   10  C7  UNL     1     -34.170  18.964  -2.590  1.00 20.00    -0.009 C 
ENDBRANCH   2   4
TORSDOF 1
ENDMDL
MODEL 9
REMARK VINA RESULT:      -3.5      9.903     10.859
REMARK  1 active torsions:
REMARK  status: ('A' for Active; 'I' for Inactive)
REMARK    1  A    between atoms: C8_8  and  C9_9 
ROOT
HETATM    1  C1  UNL     1     -39.200  12.152   5.580  1.00 20.00     0.059 C 
HETATM    2  C9  UNL     1     -40.590  12.233   6.011  1.00 20.00     0.129 C 
HETATM    3  N10 UNL     1     -38.096  12.056   5.235  1.00 20.00    -0.197 NA
ENDROOT
BRANCH   2   4
HETATM    4  C8  UNL     1     -40.838  13.726   6.200  1.00 20.00     0.003 C 
HETATM    5  C5  UNL     1     -42.324  14.099   6.018  1.00 20.00     0.010 C 
HETATM    6  C6  UNL     1     -42.671  14.807   7.340  1.00 20.00    -0.014 C 
HETATM    7  C2  UNL     1     -41.935  16.156   7.400  1.00 20.00     0.005 C 
HETATM    8  C4  UNL     1     -41.886  13.975   8.353  1.00 20.00     0.009 C 
HETATM    9  C3  UNL     1     -40.475  15.742   7.637  1.00 20.00     0.005 C 
HETATM   10  C7  UNL     1     -40.549  14.204   7.644  1.00 20.00    -0.009 C 
ENDBRANCH   2   4
TORSDOF 1
ENDMDL
