MODEL 1
REMARK VINA RESULT:      -3.1      0.000      0.000
REMARK  0 active torsions:
REMARK  status: ('A' for Active; 'I' for Inactive)
ROOT
HETATM    1  C1  UNL     1     -42.512  14.605   5.052  1.00 20.00     0.018 C 
HETATM    2  C2  UNL     1     -40.559  14.291   8.153  1.00 20.00     0.018 C 
HETATM    3  C3  UNL     1     -41.311  13.655   5.033  1.00 20.00     0.022 C 
HETATM    4  C4  UNL     1     -40.447  15.595   7.359  1.00 20.00     0.022 C 
HETATM    5  C5  UNL     1     -42.856  15.263   6.397  1.00 20.00     0.066 C 
HETATM    6  C6  UNL     1     -41.532  13.234   7.607  1.00 20.00     0.066 C 
HETATM    7  C7  UNL     1     -41.251  12.667   6.203  1.00 20.00     0.096 C 
HETATM    8  C8  UNL     1     -41.777  16.228   6.926  1.00 20.00     0.096 C 
HETATM    9  S9  UNL     1     -43.204  13.944   7.602  1.00 20.00    -0.156 SA
HETATM   10 CL10 UNL     1     -39.666  11.823   6.175  1.00 20.00    -0.124 Cl
HETATM   11 CL11 UNL     1     -42.444  17.187   8.306  1.00 20.00    -0.124 Cl
ENDROOT
TORSDOF 0
ENDMDL
MODEL 2
REMARK VINA RESULT:      -2.9     21.167     22.679
REMARK  0 active torsions:
REMARK  status: ('A' for Active; 'I' for Inactive)
ROOT
HETATM    1  C1  UNL     1     -26.846  -0.415  12.257  1.00 20.00     0.018 C 
HETATM    2  C2  UNL     1     -27.273  -3.848  11.004  1.00 20.00     0.018 C 
HETATM    3  C3  UNL     1     -25.633  -1.347  12.332  1.00 20.00     0.022 C 
HETATM    4  C4  UNL     1     -27.960  -3.469  12.319  1.00 20.00     0.022 C 
HETATM    5  C5  UNL     1     -28.104  -0.968  11.569  1.00 20.00     0.066 C 
HETATM    6  C6  UNL     1     -26.499  -2.732  10.286  1.00 20.00     0.066 C 
HETATM    7  C7  UNL     1     -25.312  -2.095  11.033  1.00 20.00     0.096 C 
HETATM    8  C8  UNL     1     -28.757  -2.158  12.300  1.00 20.00     0.096 C 
HETATM    9  S9  UNL     1     -27.668  -1.409   9.858  1.00 20.00    -0.156 SA
HETATM   10 CL10 UNL     1     -24.047  -3.326  11.364  1.00 20.00    -0.124 Cl
HETATM   11 CL11 UNL     1     -30.391  -2.478  11.598  1.00 20.00    -0.124 Cl
ENDROOT
TORSDOF 0
ENDMDL
MODEL 3
REMARK VINA RESULT:      -2.9     13.712     15.064
REMARK  0 active torsions:
REMARK  status: ('A' for Active; 'I' for Inactive)
ROOT
HETATM    1  C1  UNL     1     -33.667  15.516  -7.342  1.00 20.00     0.018 C 
HETATM    2  C2  UNL     1     -36.448  16.943  -5.402  1.00 20.00     0.018 C 
HETATM    3  C3  UNL     1     -34.284  16.821  -7.853  1.00 20.00     0.022 C 
HETATM    4  C4  UNL     1     -36.711  15.669  -6.209  1.00 20.00     0.022 C 
HETATM    5  C5  UNL     1     -34.198  14.974  -6.005  1.00 20.00     0.066 C 
HETATM    6  C6  UNL     1     -35.014  17.492  -5.431  1.00 20.00     0.066 C 
HETATM    7  C7  UNL     1     -34.442  17.919  -6.795  1.00 20.00     0.096 C 
HETATM    8  C8  UNL     1     -35.678  14.547  -6.036  1.00 20.00     0.096 C 
HETATM    9  S9  UNL     1     -33.906  16.236  -4.726  1.00 20.00    -0.156 SA
HETATM   10 CL10 UNL     1     -35.411  19.263  -7.487  1.00 20.00    -0.124 Cl
HETATM   11 CL11 UNL     1     -36.072  13.616  -4.537  1.00 20.00    -0.124 Cl
ENDROOT
TORSDOF 0
ENDMDL
MODEL 4
REMARK VINA RESULT:      -2.9     13.759     14.529
REMARK  0 active torsions:
REMARK  status: ('A' for Active; 'I' for Inactive)
ROOT
HETATM    1  C1  UNL     1     -36.359  14.741  -5.511  1.00 20.00     0.018 C 
HETATM    2  C2  UNL     1     -34.266  17.765  -5.434  1.00 20.00     0.018 C 
HETATM    3  C3  UNL     1     -37.073  16.093  -5.601  1.00 20.00     0.022 C 
HETATM    4  C4  UNL     1     -34.423  16.964  -4.140  1.00 20.00     0.022 C 
HETATM    5  C5  UNL     1     -34.822  14.767  -5.501  1.00 20.00     0.066 C 
HETATM    6  C6  UNL     1     -34.962  17.200  -6.682  1.00 20.00     0.066 C 
HETATM    7  C7  UNL     1     -36.495  17.061  -6.640  1.00 20.00     0.096 C 
HETATM    8  C8  UNL     1     -34.207  15.449  -4.264  1.00 20.00     0.096 C 
HETATM    9  S9  UNL     1     -34.259  15.563  -7.038  1.00 20.00    -0.156 SA
HETATM   10 CL10 UNL     1     -37.265  18.670  -6.432  1.00 20.00    -0.124 Cl
HETATM   11 CL11 UNL     1     -32.434  15.105  -4.200  1.00 20.00    -0.124 Cl
ENDROOT
TORSDOF 0
ENDMDL
MODEL 5
REMARK VINA RESULT:      -2.9     13.762     14.602
REMARK  0 active torsions:
REMARK  status: ('A' for Active; 'I' for Inactive)
ROOT
HETATM    1  C1  UNL     1     -34.636  18.109  -5.363  1.00 20.00     0.018 C 
HETATM    2  C2  UNL     1     -36.085  14.820  -6.149  1.00 20.00     0.018 C 
HETATM    3  C3  UNL     1     -34.335  16.959  -4.397  1.00 20.00     0.022 C 
HETATM    4  C4  UNL     1     -37.026  15.927  -5.665  1.00 20.00     0.022 C 
HETATM    5  C5  UNL     1     -35.431  17.761  -6.630  1.00 20.00     0.066 C 
HETATM    6  C6  UNL     1     -34.606  15.200  -6.317  1.00 20.00     0.066 C 
HETATM    7  C7  UNL     1     -33.845  15.668  -5.063  1.00 20.00     0.096 C 
HETATM    8  C8  UNL     1     -36.873  17.285  -6.364  1.00 20.00     0.096 C 
HETATM    9  S9  UNL     1     -34.491  16.515  -7.566  1.00 20.00    -0.156 SA
HETATM   10 CL10 UNL     1     -33.797  14.358  -3.835  1.00 20.00    -0.124 Cl
HETATM   11 CL11 UNL     1     -37.797  17.250  -7.917  1.00 20.00    -0.124 Cl
ENDROOT
TORSDOF 0
ENDMDL
MODEL 6
REMARK VINA RESULT:      -2.8     12.736     13.841
REMARK  0 active torsions:
REMARK  status: ('A' for Active; 'I' for Inactive)
ROOT
HETATM    1  C1  UNL     1     -36.049  19.060  -4.038  1.00 20.00     0.018 C 
HETATM    2  C2  UNL     1     -33.239  16.697  -3.801  1.00 20.00     0.018 C 
HETATM    3  C3  UNL     1     -35.683  18.540  -2.645  1.00 20.00     0.022 C 
HETATM    4  C4  UNL     1     -34.547  16.203  -4.424  1.00 20.00     0.022 C 
HETATM    5  C5  UNL     1     -35.141  18.628  -5.201  1.00 20.00     0.066 C 
HETATM    6  C6  UNL     1     -33.195  18.172  -3.372  1.00 20.00     0.066 C 
HETATM    7  C7  UNL     1     -34.193  18.628  -2.292  1.00 20.00     0.096 C 
HETATM    8  C8  UNL     1     -35.162  17.115  -5.494  1.00 20.00     0.096 C 
HETATM    9  S9  UNL     1     -33.451  19.204  -4.846  1.00 20.00    -0.156 SA
HETATM   10 CL10 UNL     1     -33.902  17.745  -0.757  1.00 20.00    -0.124 Cl
HETATM   11 CL11 UNL     1     -34.348  16.792  -7.075  1.00 20.00    -0.124 Cl
ENDROOT
TORSDOF 0
ENDMDL
MODEL 7
REMARK VINA RESULT:      -2.8      1.596      3.775
REMARK  0 active torsions:
REMARK  status: ('A' for Active; 'I' for Inactive)
ROOT
HETATM    1  C1  UNL     1     -43.318  12.480   7.925  1.00 20.00     0.018 C 
HETATM    2  C2  UNL     1     -41.065  15.306   7.240  1.00 20.00     0.018 C 
HETATM    3  C3  UNL     1     -43.123  13.511   9.042  1.00 20.00     0.022 C 
HETATM    4  C4  UNL     1     -40.445  13.920   7.435  1.00 20.00     0.022 C 
HETATM    5  C5  UNL     1     -42.636  12.776   6.581  1.00 20.00     0.066 C 
HETATM    6  C6  UNL     1     -42.598  15.388   7.294  1.00 20.00     0.066 C 
HETATM    7  C7  UNL     1     -43.286  14.972   8.607  1.00 20.00     0.096 C 
HETATM    8  C8  UNL     1     -41.096  12.781   6.639  1.00 20.00     0.096 C 
HETATM    9  S9  UNL     1     -43.274  14.362   5.956  1.00 20.00    -0.156 SA
HETATM   10 CL10 UNL     1     -42.768  16.043   9.952  1.00 20.00    -0.124 Cl
HETATM   11 CL11 UNL     1     -40.426  12.786   4.960  1.00 20.00    -0.124 Cl
ENDROOT
TORSDOF 0
ENDMDL
MODEL 8
REMARK VINA RESULT:      -2.8     13.322     14.669
REMARK  0 active torsions:
REMARK  status: ('A' for Active; 'I' for Inactive)
ROOT
HETATM    1  C1  UNL     1     -34.543  17.228  -7.315  1.00 20.00     0.018 C 
HETATM    2  C2  UNL     1     -37.021  15.382  -5.318  1.00 20.00     0.018 C 
HETATM    3  C3  UNL     1     -35.939  17.049  -7.918  1.00 20.00     0.022 C 
HETATM    4  C4  UNL     1     -35.869  14.594  -5.947  1.00 20.00     0.022 C 
HETATM    5  C5  UNL     1     -34.333  16.710  -5.883  1.00 20.00     0.066 C 
HETATM    6  C6  UNL     1     -37.012  16.903  -5.534  1.00 20.00     0.066 C 
HETATM    7  C7  UNL     1     -37.098  17.416  -6.983  1.00 20.00     0.096 C 
HETATM    8  C8  UNL     1     -34.466  15.181  -5.736  1.00 20.00     0.096 C 
HETATM    9  S9  UNL     1     -35.499  17.579  -4.788  1.00 20.00    -0.156 SA
HETATM   10 CL10 UNL     1     -38.644  16.902  -7.739  1.00 20.00    -0.124 Cl
HETATM   11 CL11 UNL     1     -33.859  14.674  -4.111  1.00 20.00    -0.124 Cl
ENDROOT
TORSDOF 0
ENDMDL
MODEL 9
REMARK VINA RESULT:      -2.8      1.553      3.929
REMARK  0 active torsions:
REMARK  status: ('A' for Active; 'I' for Inactive)
ROOT
HETATM    1  C1  UNL     1     -40.490  14.974   8.586  1.00 20.00     0.018 C 
HETATM    2  C2  UNL     1     -43.013  15.245   5.923  1.00 20.00     0.018 C 
HETATM    3  C3  UNL     1     -40.399  16.184   7.652  1.00 20.00     0.022 C 
HETATM    4  C4  UNL     1     -41.939  14.163   5.792  1.00 20.00     0.022 C 
HETATM    5  C5  UNL     1     -41.691  14.036   8.392  1.00 20.00     0.066 C 
HETATM    6  C6  UNL     1     -42.976  16.100   7.199  1.00 20.00     0.066 C 
HETATM    7  C7  UNL     1     -41.714  16.946   7.451  1.00 20.00     0.096 C 
HETATM    8  C8  UNL     1     -41.707  13.298   7.038  1.00 20.00     0.096 C 
HETATM    9  S9  UNL     1     -43.213  15.005   8.629  1.00 20.00    -0.156 SA
HETATM   10 CL10 UNL     1     -41.497  18.153   6.140  1.00 20.00    -0.124 Cl
HETATM   11 CL11 UNL     1     -42.950  11.986   7.078  1.00 20.00    -0.124 Cl
ENDROOT
TORSDOF 0
ENDMDL
