MODEL 1
REMARK VINA RESULT:      -3.7      0.000      0.000
REMARK  1 active torsions:
REMARK  status: ('A' for Active; 'I' for Inactive)
REMARK    1  A    between atoms: C8_8  and  O10_10 
ROOT
HETATM    1  C1  UNL     1     -43.367   6.688   1.787  1.00 20.00     0.005 C 
HETATM    2  C2  UNL     1     -43.376   4.359   0.865  1.00 20.00     0.005 C 
HETATM    3  C3  UNL     1     -43.417   7.241   0.357  1.00 20.00     0.008 C 
HETATM    4  C4  UNL     1     -43.415   4.933  -0.558  1.00 20.00     0.008 C 
HETATM    5  C5  UNL     1     -41.202   5.522   1.308  1.00 20.00     0.042 C 
HETATM    6  C6  UNL     1     -42.647   5.327   1.811  1.00 20.00    -0.012 C 
HETATM    7  C7  UNL     1     -42.677   6.289  -0.601  1.00 20.00     0.019 C 
HETATM    8  C8  UNL     1     -41.209   6.087  -0.133  1.00 20.00     0.058 C 
HETATM    9  C9  UNL     1     -40.373   7.366  -0.229  1.00 20.00     0.046 C 
ENDROOT
BRANCH   8  10
HETATM   10  O10 UNL     1     -40.579   5.122  -0.985  1.00 20.00    -0.390 OA
HETATM   11  H26 UNL     1     -39.666   5.423  -1.101  1.00 20.00     0.210 HD
ENDBRANCH   8  10
TORSDOF 1
ENDMDL
MODEL 2
REMARK VINA RESULT:      -3.7     12.582     13.672
REMARK  1 active torsions:
REMARK  status: ('A' for Active; 'I' for Inactive)
REMARK    1  A    between atoms: C8_8  and  O10_10 
ROOT
HETATM    1  C1  UNL     1     -36.784  16.096  -5.174  1.00 20.00     0.005 C 
HETATM    2  C2  UNL     1     -35.612  15.013  -7.104  1.00 20.00     0.005 C 
HETATM    3  C3  UNL     1     -35.750  17.230  -5.199  1.00 20.00     0.008 C 
HETATM    4  C4  UNL     1     -34.582  16.151  -7.106  1.00 20.00     0.008 C 
HETATM    5  C5  UNL     1     -34.984  14.405  -4.757  1.00 20.00     0.042 C 
HETATM    6  C6  UNL     1     -36.155  14.786  -5.684  1.00 20.00    -0.012 C 
HETATM    7  C7  UNL     1     -34.388  16.689  -5.670  1.00 20.00     0.019 C 
HETATM    8  C8  UNL     1     -33.920  15.528  -4.750  1.00 20.00     0.058 C 
HETATM    9  C9  UNL     1     -33.614  15.990  -3.321  1.00 20.00     0.046 C 
ENDROOT
BRANCH   8  10
HETATM   10  O10 UNL     1     -32.702  14.983  -5.272  1.00 20.00    -0.390 OA
HETATM   11  H26 UNL     1     -32.300  14.482  -4.548  1.00 20.00     0.210 HD
ENDBRANCH   8  10
TORSDOF 1
ENDMDL
MODEL 3
REMARK VINA RESULT:      -3.5     11.479     13.804
REMARK  1 active torsions:
REMARK  status: ('A' for Active; 'I' for Inactive)
REMARK    1  A    between atoms: C8_8  and  O10_10 
ROOT
HETATM    1  C1  UNL     1     -34.592  17.020  -4.399  1.00 20.00     0.005 C 
HETATM    2  C2  UNL     1     -34.816  17.180  -6.888  1.00 20.00     0.005 C 
HETATM    3  C3  UNL     1     -33.720  15.769  -4.570  1.00 20.00     0.008 C 
HETATM    4  C4  UNL     1     -33.951  15.920  -7.037  1.00 20.00     0.008 C 
HETATM    5  C5  UNL     1     -36.508  15.899  -5.558  1.00 20.00     0.042 C 
HETATM    6  C6  UNL     1     -35.593  17.140  -5.562  1.00 20.00    -0.012 C 
HETATM    7  C7  UNL     1     -34.162  14.989  -5.822  1.00 20.00     0.019 C 
HETATM    8  C8  UNL     1     -35.665  14.612  -5.722  1.00 20.00     0.058 C 
HETATM    9  C9  UNL     1     -35.954  13.615  -4.596  1.00 20.00     0.046 C 
ENDROOT
BRANCH   8  10
HETATM   10  O10 UNL     1     -36.067  13.976  -6.942  1.00 20.00    -0.390 OA
HETATM   11  H26 UNL     1     -35.620  13.118  -6.958  1.00 20.00     0.210 HD
ENDBRANCH   8  10
TORSDOF 1
ENDMDL
MODEL 4
REMARK VINA RESULT:      -3.5      9.554     10.583
REMARK  1 active torsions:
REMARK  status: ('A' for Active; 'I' for Inactive)
REMARK    1  A    between atoms: C8_8  and  O10_10 
ROOT
HETATM    1  C1  UNL     1     -43.417  14.392   6.185  1.00 20.00     0.005 C 
HETATM    2  C2  UNL     1     -42.666  12.150   7.010  1.00 20.00     0.005 C 
HETATM    3  C3  UNL     1     -42.088  14.547   5.436  1.00 20.00     0.008 C 
HETATM    4  C4  UNL     1     -41.338  12.330   6.262  1.00 20.00     0.008 C 
HETATM    5  C5  UNL     1     -42.213  14.202   8.373  1.00 20.00     0.042 C 
HETATM    6  C6  UNL     1     -43.228  13.516   7.437  1.00 20.00    -0.012 C 
HETATM    7  C7  UNL     1     -40.964  13.828   6.204  1.00 20.00     0.019 C 
HETATM    8  C8  UNL     1     -40.857  14.384   7.651  1.00 20.00     0.058 C 
HETATM    9  C9  UNL     1     -40.401  15.845   7.693  1.00 20.00     0.046 C 
ENDROOT
BRANCH   8  10
HETATM   10  O10 UNL     1     -39.873  13.628   8.368  1.00 20.00    -0.390 OA
HETATM   11  H26 UNL     1     -39.955  12.716   8.055  1.00 20.00     0.210 HD
ENDBRANCH   8  10
TORSDOF 1
ENDMDL
MODEL 5
REMARK VINA RESULT:      -3.5      1.418      2.827
REMARK  1 active torsions:
REMARK  status: ('A' for Active; 'I' for Inactive)
REMARK    1  A    between atoms: C8_8  and  O10_10 
ROOT
HETATM    1  C1  UNL     1     -41.845   8.142  -0.848  1.00 20.00     0.005 C 
HETATM    2  C2  UNL     1     -40.936   7.464   1.385  1.00 20.00     0.005 C 
HETATM    3  C3  UNL     1     -43.245   7.707  -0.396  1.00 20.00     0.008 C 
HETATM    4  C4  UNL     1     -42.343   7.025   1.814  1.00 20.00     0.008 C 
HETATM    5  C5  UNL     1     -40.965   5.822  -0.506  1.00 20.00     0.042 C 
HETATM    6  C6  UNL     1     -40.767   7.305  -0.135  1.00 20.00    -0.012 C 
HETATM    7  C7  UNL     1     -43.137   6.526   0.586  1.00 20.00     0.019 C 
HETATM    8  C8  UNL     1     -42.372   5.345  -0.072  1.00 20.00     0.058 C 
HETATM    9  C9  UNL     1     -43.133   4.726  -1.248  1.00 20.00     0.046 C 
ENDROOT
BRANCH   8  10
HETATM   10  O10 UNL     1     -42.203   4.304   0.898  1.00 20.00    -0.390 OA
HETATM   11  H26 UNL     1     -42.133   4.745   1.757  1.00 20.00     0.210 HD
ENDBRANCH   8  10
TORSDOF 1
ENDMDL
MODEL 6
REMARK VINA RESULT:      -3.4      0.966      2.919
REMARK  1 active torsions:
REMARK  status: ('A' for Active; 'I' for Inactive)
REMARK    1  A    between atoms: C8_8  and  O10_10 
ROOT
HETATM    1  C1  UNL     1     -43.417   7.994   0.766  1.00 20.00     0.005 C 
HETATM    2  C2  UNL     1     -41.018   8.326   0.130  1.00 20.00     0.005 C 
HETATM    3  C3  UNL     1     -42.992   6.893   1.746  1.00 20.00     0.008 C 
HETATM    4  C4  UNL     1     -40.615   7.213   1.108  1.00 20.00     0.008 C 
HETATM    5  C5  UNL     1     -42.445   6.720  -1.158  1.00 20.00     0.042 C 
HETATM    6  C6  UNL     1     -42.433   8.070  -0.415  1.00 20.00    -0.012 C 
HETATM    7  C7  UNL     1     -41.746   6.165   1.210  1.00 20.00     0.019 C 
HETATM    8  C8  UNL     1     -42.027   5.579  -0.200  1.00 20.00     0.058 C 
HETATM    9  C9  UNL     1     -43.076   4.462  -0.181  1.00 20.00     0.046 C 
ENDROOT
BRANCH   8  10
HETATM   10  O10 UNL     1     -40.821   4.996  -0.710  1.00 20.00    -0.390 OA
HETATM   11  H26 UNL     1     -40.544   4.337  -0.057  1.00 20.00     0.210 HD
ENDBRANCH   8  10
TORSDOF 1
ENDMDL
MODEL 7
REMARK VINA RESULT:      -3.3     18.756     19.946
REMARK  1 active torsions:
REMARK  status: ('A' for Active; 'I' for Inactive)
REMARK    1  A    between atoms: C8_8  and  O10_10 
ROOT
HETATM    1  C1  UNL     1     -25.766  -2.323  11.501  1.00 20.00     0.005 C 
HETATM    2  C2  UNL     1     -27.176  -0.260  11.677  1.00 20.00     0.005 C 
HETATM    3  C3  UNL     1     -26.234  -2.503  10.051  1.00 20.00     0.008 C 
HETATM    4  C4  UNL     1     -27.640  -0.465  10.228  1.00 20.00     0.008 C 
HETATM    5  C5  UNL     1     -28.124  -2.485  12.329  1.00 20.00     0.042 C 
HETATM    6  C6  UNL     1     -26.852  -1.614  12.331  1.00 20.00    -0.012 C 
HETATM    7  C7  UNL     1     -27.670  -1.974   9.893  1.00 20.00     0.019 C 
HETATM    8  C8  UNL     1     -28.625  -2.697  10.881  1.00 20.00     0.058 C 
HETATM    9  C9  UNL     1     -28.788  -4.187  10.566  1.00 20.00     0.046 C 
ENDROOT
BRANCH   8  10
HETATM   10  O10 UNL     1     -29.930  -2.114  10.778  1.00 20.00    -0.390 OA
HETATM   11  H26 UNL     1     -29.894  -1.286  11.278  1.00 20.00     0.210 HD
ENDBRANCH   8  10
TORSDOF 1
ENDMDL
MODEL 8
REMARK VINA RESULT:      -3.3     12.013     13.763
REMARK  1 active torsions:
REMARK  status: ('A' for Active; 'I' for Inactive)
REMARK    1  A    between atoms: C8_8  and  O10_10 
ROOT
HETATM    1  C1  UNL     1     -35.519  15.129  -7.133  1.00 20.00     0.005 C 
HETATM    2  C2  UNL     1     -35.947  14.129  -4.877  1.00 20.00     0.005 C 
HETATM    3  C3  UNL     1     -34.052  15.351  -6.742  1.00 20.00     0.008 C 
HETATM    4  C4  UNL     1     -34.478  14.370  -4.502  1.00 20.00     0.008 C 
HETATM    5  C5  UNL     1     -36.288  16.584  -5.244  1.00 20.00     0.042 C 
HETATM    6  C6  UNL     1     -36.421  15.189  -5.886  1.00 20.00    -0.012 C 
HETATM    7  C7  UNL     1     -33.946  15.624  -5.231  1.00 20.00     0.019 C 
HETATM    8  C8  UNL     1     -34.818  16.849  -4.841  1.00 20.00     0.058 C 
HETATM    9  C9  UNL     1     -34.306  18.159  -5.448  1.00 20.00     0.046 C 
ENDROOT
BRANCH   8  10
HETATM   10  O10 UNL     1     -34.775  17.015  -3.418  1.00 20.00    -0.390 OA
HETATM   11  H26 UNL     1     -34.382  17.886  -3.261  1.00 20.00     0.210 HD
ENDBRANCH   8  10
TORSDOF 1
ENDMDL
MODEL 9
REMARK VINA RESULT:      -3.2      9.781     10.889
REMARK  1 active torsions:
REMARK  status: ('A' for Active; 'I' for Inactive)
REMARK    1  A    between atoms: C8_8  and  O10_10 
ROOT
HETATM    1  C1  UNL     1     -42.577  12.467   6.960  1.00 20.00     0.005 C 
HETATM    2  C2  UNL     1     -41.793  13.976   5.121  1.00 20.00     0.005 C 
HETATM    3  C3  UNL     1     -43.073  13.693   7.737  1.00 20.00     0.008 C 
HETATM    4  C4  UNL     1     -42.286  15.191   5.921  1.00 20.00     0.008 C 
HETATM    5  C5  UNL     1     -40.233  13.348   6.978  1.00 20.00     0.042 C 
HETATM    6  C6  UNL     1     -41.375  12.844   6.074  1.00 20.00    -0.012 C 
HETATM    7  C7  UNL     1     -42.174  14.906   7.435  1.00 20.00     0.019 C 
HETATM    8  C8  UNL     1     -40.696  14.583   7.786  1.00 20.00     0.058 C 
HETATM    9  C9  UNL     1     -40.473  14.376   9.287  1.00 20.00     0.046 C 
ENDROOT
BRANCH   8  10
HETATM   10  O10 UNL     1     -39.874  15.693   7.402  1.00 20.00    -0.390 OA
HETATM   11  H26 UNL     1     -39.838  16.280   8.171  1.00 20.00     0.210 HD
ENDBRANCH   8  10
TORSDOF 1
ENDMDL
