MODEL 1
REMARK VINA RESULT:      -3.6      0.000      0.000
REMARK  1 active torsions:
REMARK  status: ('A' for Active; 'I' for Inactive)
REMARK    1  A    between atoms: C1_1  and  C3_3 
ROOT
HETATM    1  C1  UNL     1     -34.777   6.029   5.667  1.00 20.00     0.181 A 
HETATM    2  C2  UNL     1     -34.690   5.257   4.379  1.00 20.00     0.247 A 
HETATM    3  O4  UNL     1     -34.471   4.629   5.648  1.00 20.00    -0.358 OA
HETATM    4 CL5  UNL     1     -33.352   5.442   3.282  1.00 20.00    -0.092 Cl
ENDROOT
BRANCH   1   5
HETATM    5  C3  UNL     1     -33.679   6.887   6.186  1.00 20.00     0.150 C 
HETATM    6 CL6  UNL     1     -33.539   8.402   5.249  1.00 20.00    -0.128 Cl
ENDBRANCH   1   5
TORSDOF 1
ENDMDL
MODEL 2
REMARK VINA RESULT:      -3.5      2.654      3.065
REMARK  1 active torsions:
REMARK  status: ('A' for Active; 'I' for Inactive)
REMARK    1  A    between atoms: C1_1  and  C3_3 
ROOT
HETATM    1  C1  UNL     1     -33.405   7.446   5.491  1.00 20.00     0.181 A 
HETATM    2  C2  UNL     1     -32.416   8.113   4.575  1.00 20.00     0.247 A 
HETATM    3  O4  UNL     1     -33.645   8.751   4.947  1.00 20.00    -0.358 OA
HETATM    4 CL5  UNL     1     -32.192   7.598   2.928  1.00 20.00    -0.092 Cl
ENDROOT
BRANCH   1   5
HETATM    5  C3  UNL     1     -34.372   6.409   5.040  1.00 20.00     0.150 C 
HETATM    6 CL6  UNL     1     -34.609   5.155   6.289  1.00 20.00    -0.128 Cl
ENDBRANCH   1   5
TORSDOF 1
ENDMDL
MODEL 3
REMARK VINA RESULT:      -3.5      2.896      3.090
REMARK  1 active torsions:
REMARK  status: ('A' for Active; 'I' for Inactive)
REMARK    1  A    between atoms: C1_1  and  C3_3 
ROOT
HETATM    1  C1  UNL     1     -32.592   8.240   4.500  1.00 20.00     0.181 A 
HETATM    2  C2  UNL     1     -32.046   7.438   3.351  1.00 20.00     0.247 A 
HETATM    3  O4  UNL     1     -32.674   8.709   3.148  1.00 20.00    -0.358 OA
HETATM    4 CL5  UNL     1     -32.836   5.999   2.773  1.00 20.00    -0.092 Cl
ENDROOT
BRANCH   1   5
HETATM    5  C3  UNL     1     -33.910   7.972   5.135  1.00 20.00     0.150 C 
HETATM    6 CL6  UNL     1     -33.769   6.762   6.441  1.00 20.00    -0.128 Cl
ENDBRANCH   1   5
TORSDOF 1
ENDMDL
MODEL 4
REMARK VINA RESULT:      -3.4      1.626      1.810
REMARK  1 active torsions:
REMARK  status: ('A' for Active; 'I' for Inactive)
REMARK    1  A    between atoms: C1_1  and  C3_3 
ROOT
HETATM    1  C1  UNL     1     -34.128   7.324   5.558  1.00 20.00     0.181 A 
HETATM    2  C2  UNL     1     -34.697   5.954   5.805  1.00 20.00     0.247 A 
HETATM    3  O4  UNL     1     -33.609   6.468   6.584  1.00 20.00    -0.358 OA
HETATM    4 CL5  UNL     1     -34.408   4.627   4.716  1.00 20.00    -0.092 Cl
ENDROOT
BRANCH   1   5
HETATM    5  C3  UNL     1     -33.161   7.629   4.469  1.00 20.00     0.150 C 
HETATM    6 CL6  UNL     1     -32.194   9.082   4.847  1.00 20.00    -0.128 Cl
ENDBRANCH   1   5
TORSDOF 1
ENDMDL
MODEL 5
REMARK VINA RESULT:      -3.4      1.433      2.927
REMARK  1 active torsions:
REMARK  status: ('A' for Active; 'I' for Inactive)
REMARK    1  A    between atoms: C1_1  and  C3_3 
ROOT
HETATM    1  C1  UNL     1     -34.349   5.180   4.493  1.00 20.00     0.181 A 
HETATM    2  C2  UNL     1     -34.816   5.662   5.839  1.00 20.00     0.247 A 
HETATM    3  O4  UNL     1     -35.631   5.798   4.668  1.00 20.00    -0.358 OA
HETATM    4 CL5  UNL     1     -34.158   7.091   6.586  1.00 20.00    -0.092 Cl
ENDROOT
BRANCH   1   5
HETATM    5  C3  UNL     1     -33.415   5.946   3.625  1.00 20.00     0.150 C 
HETATM    6 CL6  UNL     1     -32.790   4.935   2.292  1.00 20.00    -0.128 Cl
ENDBRANCH   1   5
TORSDOF 1
ENDMDL
MODEL 6
REMARK VINA RESULT:      -3.3      0.921      2.738
REMARK  1 active torsions:
REMARK  status: ('A' for Active; 'I' for Inactive)
REMARK    1  A    between atoms: C1_1  and  C3_3 
ROOT
HETATM    1  C1  UNL     1     -34.169   5.537   5.838  1.00 20.00     0.181 A 
HETATM    2  C2  UNL     1     -33.694   6.879   6.326  1.00 20.00     0.247 A 
HETATM    3  O4  UNL     1     -34.981   6.360   6.686  1.00 20.00    -0.358 OA
HETATM    4 CL5  UNL     1     -33.602   8.262   5.274  1.00 20.00    -0.092 Cl
ENDROOT
BRANCH   1   5
HETATM    5  C3  UNL     1     -34.736   5.310   4.482  1.00 20.00     0.150 C 
HETATM    6 CL6  UNL     1     -33.450   5.226   3.245  1.00 20.00    -0.128 Cl
ENDBRANCH   1   5
TORSDOF 1
ENDMDL
MODEL 7
REMARK VINA RESULT:      -3.3      2.064      2.114
REMARK  1 active torsions:
REMARK  status: ('A' for Active; 'I' for Inactive)
REMARK    1  A    between atoms: C1_1  and  C3_3 
ROOT
HETATM    1  C1  UNL     1     -34.073   6.294   4.184  1.00 20.00     0.181 A 
HETATM    2  C2  UNL     1     -34.508   5.117   5.013  1.00 20.00     0.247 A 
HETATM    3  O4  UNL     1     -35.457   5.959   4.349  1.00 20.00    -0.358 OA
HETATM    4 CL5  UNL     1     -34.428   5.133   6.751  1.00 20.00    -0.092 Cl
ENDROOT
BRANCH   1   5
HETATM    5  C3  UNL     1     -33.690   7.609   4.764  1.00 20.00     0.150 C 
HETATM    6 CL6  UNL     1     -32.100   8.150   4.154  1.00 20.00    -0.128 Cl
ENDBRANCH   1   5
TORSDOF 1
ENDMDL
MODEL 8
REMARK VINA RESULT:      -3.2      2.877      3.682
REMARK  1 active torsions:
REMARK  status: ('A' for Active; 'I' for Inactive)
REMARK    1  A    between atoms: C1_1  and  C3_3 
ROOT
HETATM    1  C1  UNL     1     -32.918   8.305   3.841  1.00 20.00     0.181 A 
HETATM    2  C2  UNL     1     -33.582   8.269   5.190  1.00 20.00     0.247 A 
HETATM    3  O4  UNL     1     -32.370   9.001   4.968  1.00 20.00    -0.358 OA
HETATM    4 CL5  UNL     1     -33.545   6.852   6.199  1.00 20.00    -0.092 Cl
ENDROOT
BRANCH   1   5
HETATM    5  C3  UNL     1     -32.056   7.209   3.322  1.00 20.00     0.150 C 
HETATM    6 CL6  UNL     1     -33.029   5.797   2.822  1.00 20.00    -0.128 Cl
ENDBRANCH   1   5
TORSDOF 1
ENDMDL
MODEL 9
REMARK VINA RESULT:      -3.2      2.369      3.053
REMARK  1 active torsions:
REMARK  status: ('A' for Active; 'I' for Inactive)
REMARK    1  A    between atoms: C1_1  and  C3_3 
ROOT
HETATM    1  C1  UNL     1     -34.041   7.215   4.681  1.00 20.00     0.181 A 
HETATM    2  C2  UNL     1     -33.131   8.221   4.032  1.00 20.00     0.247 A 
HETATM    3  O4  UNL     1     -32.888   6.812   3.931  1.00 20.00    -0.358 OA
HETATM    4 CL5  UNL     1     -32.036   9.206   4.959  1.00 20.00    -0.092 Cl
ENDROOT
BRANCH   1   5
HETATM    5  C3  UNL     1     -33.983   6.867   6.126  1.00 20.00     0.150 C 
HETATM    6 CL6  UNL     1     -34.486   5.176   6.408  1.00 20.00    -0.128 Cl
ENDBRANCH   1   5
TORSDOF 1
ENDMDL
