MODEL 1
REMARK VINA RESULT:      -5.0      0.000      0.000
REMARK  0 active torsions:
REMARK  status: ('A' for Active; 'I' for Inactive)
ROOT
HETATM    1  C1  UNL     1     -33.633   5.691   3.605  1.00 20.00     0.229 C 
HETATM    2  C2  UNL     1     -34.764   5.108   4.426  1.00 20.00     0.104 C 
HETATM    3  C3  UNL     1     -34.387   4.963   5.897  1.00 20.00     0.009 C 
HETATM    4  C4  UNL     1     -34.610   6.234   6.713  1.00 20.00     0.002 C 
HETATM    5  C5  UNL     1     -33.738   7.418   6.296  1.00 20.00     0.021 C 
HETATM    6  C6  UNL     1     -33.973   7.863   4.855  1.00 20.00     0.140 C 
HETATM    7  N7  UNL     1     -33.288   7.004   3.893  1.00 20.00    -0.284 N 
HETATM    8  O8  UNL     1     -33.079   4.998   2.749  1.00 20.00    -0.273 OA
HETATM    9 BR9  UNL     1     -31.802   7.769   2.977  1.00 20.00     0.052 Br
ENDROOT
TORSDOF 0
ENDMDL
MODEL 2
REMARK VINA RESULT:      -4.3      1.743      2.661
REMARK  0 active torsions:
REMARK  status: ('A' for Active; 'I' for Inactive)
ROOT
HETATM    1  C1  UNL     1     -32.841   7.887   4.922  1.00 20.00     0.229 C 
HETATM    2  C2  UNL     1     -33.198   7.089   6.160  1.00 20.00     0.104 C 
HETATM    3  C3  UNL     1     -34.626   6.557   6.104  1.00 20.00     0.009 C 
HETATM    4  C4  UNL     1     -34.756   5.231   5.358  1.00 20.00     0.002 C 
HETATM    5  C5  UNL     1     -34.404   5.301   3.872  1.00 20.00     0.021 C 
HETATM    6  C6  UNL     1     -32.963   5.727   3.612  1.00 20.00     0.140 C 
HETATM    7  N7  UNL     1     -32.783   7.171   3.735  1.00 20.00    -0.284 N 
HETATM    8  O8  UNL     1     -32.630   9.098   5.016  1.00 20.00    -0.273 OA
HETATM    9 BR9  UNL     1     -32.447   8.127   2.120  1.00 20.00     0.052 Br
ENDROOT
TORSDOF 0
ENDMDL
MODEL 3
REMARK VINA RESULT:      -4.3      1.433      1.770
REMARK  0 active torsions:
REMARK  status: ('A' for Active; 'I' for Inactive)
ROOT
HETATM    1  C1  UNL     1     -34.299   5.139   4.617  1.00 20.00     0.229 C 
HETATM    2  C2  UNL     1     -35.019   5.745   5.804  1.00 20.00     0.104 C 
HETATM    3  C3  UNL     1     -34.057   6.432   6.767  1.00 20.00     0.009 C 
HETATM    4  C4  UNL     1     -33.732   7.874   6.380  1.00 20.00     0.002 C 
HETATM    5  C5  UNL     1     -32.987   8.024   5.054  1.00 20.00     0.021 C 
HETATM    6  C6  UNL     1     -33.771   7.493   3.858  1.00 20.00     0.140 C 
HETATM    7  N7  UNL     1     -33.696   6.039   3.750  1.00 20.00    -0.284 N 
HETATM    8  O8  UNL     1     -34.273   3.914   4.479  1.00 20.00    -0.273 OA
HETATM    9 BR9  UNL     1     -32.678   5.345   2.294  1.00 20.00     0.052 Br
ENDROOT
TORSDOF 0
ENDMDL
MODEL 4
REMARK VINA RESULT:      -4.1      2.713      3.912
REMARK  0 active torsions:
REMARK  status: ('A' for Active; 'I' for Inactive)
ROOT
HETATM    1  C1  UNL     1     -33.751   7.543   5.376  1.00 20.00     0.229 C 
HETATM    2  C2  UNL     1     -33.270   8.473   4.280  1.00 20.00     0.104 C 
HETATM    3  C3  UNL     1     -31.971   7.985   3.647  1.00 20.00     0.009 C 
HETATM    4  C4  UNL     1     -32.182   6.968   2.527  1.00 20.00     0.002 C 
HETATM    5  C5  UNL     1     -32.810   5.649   2.976  1.00 20.00     0.021 C 
HETATM    6  C6  UNL     1     -34.199   5.818   3.583  1.00 20.00     0.140 C 
HETATM    7  N7  UNL     1     -34.145   6.278   4.968  1.00 20.00    -0.284 N 
HETATM    8  O8  UNL     1     -33.766   7.934   6.545  1.00 20.00    -0.273 OA
HETATM    9 BR9  UNL     1     -34.659   5.017   6.303  1.00 20.00     0.052 Br
ENDROOT
TORSDOF 0
ENDMDL
MODEL 5
REMARK VINA RESULT:      -3.8      2.598      3.695
REMARK  0 active torsions:
REMARK  status: ('A' for Active; 'I' for Inactive)
ROOT
HETATM    1  C1  UNL     1     -33.074   7.905   4.500  1.00 20.00     0.229 C 
HETATM    2  C2  UNL     1     -32.795   7.843   3.013  1.00 20.00     0.104 C 
HETATM    3  C3  UNL     1     -32.023   6.585   2.628  1.00 20.00     0.009 C 
HETATM    4  C4  UNL     1     -32.916   5.369   2.390  1.00 20.00     0.002 C 
HETATM    5  C5  UNL     1     -33.676   4.888   3.625  1.00 20.00     0.021 C 
HETATM    6  C6  UNL     1     -34.629   5.935   4.194  1.00 20.00     0.140 C 
HETATM    7  N7  UNL     1     -33.934   6.936   4.997  1.00 20.00    -0.284 N 
HETATM    8  O8  UNL     1     -32.540   8.780   5.186  1.00 20.00    -0.273 OA
HETATM    9 BR9  UNL     1     -34.245   6.884   6.878  1.00 20.00     0.052 Br
ENDROOT
TORSDOF 0
ENDMDL
MODEL 6
REMARK VINA RESULT:      -3.8      2.155      3.113
REMARK  0 active torsions:
REMARK  status: ('A' for Active; 'I' for Inactive)
ROOT
HETATM    1  C1  UNL     1     -33.030   6.151   3.381  1.00 20.00     0.229 C 
HETATM    2  C2  UNL     1     -31.943   7.152   3.048  1.00 20.00     0.104 C 
HETATM    3  C3  UNL     1     -32.487   8.571   2.935  1.00 20.00     0.009 C 
HETATM    4  C4  UNL     1     -32.581   9.299   4.275  1.00 20.00     0.002 C 
HETATM    5  C5  UNL     1     -33.564   8.679   5.267  1.00 20.00     0.021 C 
HETATM    6  C6  UNL     1     -33.210   7.246   5.654  1.00 20.00     0.140 C 
HETATM    7  N7  UNL     1     -33.614   6.283   4.633  1.00 20.00    -0.284 N 
HETATM    8  O8  UNL     1     -33.346   5.294   2.552  1.00 20.00    -0.273 OA
HETATM    9 BR9  UNL     1     -35.064   5.129   5.079  1.00 20.00     0.052 Br
ENDROOT
TORSDOF 0
ENDMDL
MODEL 7
REMARK VINA RESULT:      -3.7     13.497     14.094
REMARK  0 active torsions:
REMARK  status: ('A' for Active; 'I' for Inactive)
ROOT
HETATM    1  C1  UNL     1     -34.300  15.510  -6.174  1.00 20.00     0.229 C 
HETATM    2  C2  UNL     1     -34.235  14.700  -4.895  1.00 20.00     0.104 C 
HETATM    3  C3  UNL     1     -33.057  15.111  -4.018  1.00 20.00     0.009 C 
HETATM    4  C4  UNL     1     -33.358  16.300  -3.108  1.00 20.00     0.002 C 
HETATM    5  C5  UNL     1     -33.652  17.606  -3.846  1.00 20.00     0.021 C 
HETATM    6  C6  UNL     1     -34.874  17.524  -4.756  1.00 20.00     0.140 C 
HETATM    7  N7  UNL     1     -34.575  16.861  -6.023  1.00 20.00    -0.284 N 
HETATM    8  O8  UNL     1     -34.106  14.956  -7.258  1.00 20.00    -0.273 OA
HETATM    9 BR9  UNL     1     -34.565  17.964  -7.578  1.00 20.00     0.052 Br
ENDROOT
TORSDOF 0
ENDMDL
MODEL 8
REMARK VINA RESULT:      -3.6     12.819     13.642
REMARK  0 active torsions:
REMARK  status: ('A' for Active; 'I' for Inactive)
ROOT
HETATM    1  C1  UNL     1     -33.640  16.660  -3.033  1.00 20.00     0.229 C 
HETATM    2  C2  UNL     1     -33.034  15.534  -3.845  1.00 20.00     0.104 C 
HETATM    3  C3  UNL     1     -34.083  14.519  -4.287  1.00 20.00     0.009 C 
HETATM    4  C4  UNL     1     -34.801  14.906  -5.578  1.00 20.00     0.002 C 
HETATM    5  C5  UNL     1     -35.638  16.180  -5.483  1.00 20.00     0.021 C 
HETATM    6  C6  UNL     1     -34.816  17.419  -5.138  1.00 20.00     0.140 C 
HETATM    7  N7  UNL     1     -34.511  17.499  -3.713  1.00 20.00    -0.284 N 
HETATM    8  O8  UNL     1     -33.349  16.777  -1.840  1.00 20.00    -0.273 OA
HETATM    9 BR9  UNL     1     -35.396  18.871  -2.729  1.00 20.00     0.052 Br
ENDROOT
TORSDOF 0
ENDMDL
MODEL 9
REMARK VINA RESULT:      -3.6     12.981     13.863
REMARK  0 active torsions:
REMARK  status: ('A' for Active; 'I' for Inactive)
ROOT
HETATM    1  C1  UNL     1     -33.812  15.161  -4.843  1.00 20.00     0.229 C 
HETATM    2  C2  UNL     1     -34.392  14.971  -6.229  1.00 20.00     0.104 C 
HETATM    3  C3  UNL     1     -35.915  15.046  -6.226  1.00 20.00     0.009 C 
HETATM    4  C4  UNL     1     -36.456  16.471  -6.325  1.00 20.00     0.002 C 
HETATM    5  C5  UNL     1     -36.110  17.366  -5.137  1.00 20.00     0.021 C 
HETATM    6  C6  UNL     1     -34.609  17.559  -4.943  1.00 20.00     0.140 C 
HETATM    7  N7  UNL     1     -33.987  16.417  -4.279  1.00 20.00    -0.284 N 
HETATM    8  O8  UNL     1     -33.233  14.224  -4.289  1.00 20.00    -0.273 OA
HETATM    9 BR9  UNL     1     -33.380  16.697  -2.493  1.00 20.00     0.052 Br
ENDROOT
TORSDOF 0
ENDMDL
