MODEL 1
REMARK VINA RESULT:      -4.8      0.000      0.000
REMARK  2 active torsions:
REMARK  status: ('A' for Active; 'I' for Inactive)
REMARK    1  A    between atoms: C2_2  and  C5_5 
REMARK    2  A    between atoms: C3_3  and  C5_5 
ROOT
HETATM    1  C5  UNL     1     -34.444   5.875   6.335  1.00 20.00     0.123 C 
ENDROOT
BRANCH   1   2
HETATM    2  C2  UNL     1     -33.794   7.208   6.120  1.00 20.00    -0.022 C 
HETATM    3  C1  UNL     1     -33.075   7.520   5.033  1.00 20.00    -0.034 C 
HETATM    4  C4  UNL     1     -32.423   8.846   4.820  1.00 20.00     0.036 C 
ENDBRANCH   1   2
BRANCH   1   5
HETATM    5  C3  UNL     1     -34.744   5.198   5.007  1.00 20.00     0.222 C 
HETATM    6  O6  UNL     1     -34.171   4.184   4.620  1.00 20.00    -0.280 OA
HETATM    7 CL7  UNL     1     -36.011   6.029   4.143  1.00 20.00    -0.043 Cl
ENDBRANCH   1   5
TORSDOF 2
ENDMDL
MODEL 2
REMARK VINA RESULT:      -4.3      1.293      1.563
REMARK  2 active torsions:
REMARK  status: ('A' for Active; 'I' for Inactive)
REMARK    1  A    between atoms: C2_2  and  C5_5 
REMARK    2  A    between atoms: C3_3  and  C5_5 
ROOT
HETATM    1  C5  UNL     1     -33.948   7.344   6.132  1.00 20.00     0.123 C 
ENDROOT
BRANCH   1   2
HETATM    2  C2  UNL     1     -33.620   8.010   4.830  1.00 20.00    -0.022 C 
HETATM    3  C1  UNL     1     -32.595   7.648   4.045  1.00 20.00    -0.034 C 
HETATM    4  C4  UNL     1     -32.265   8.315   2.750  1.00 20.00     0.036 C 
ENDBRANCH   1   2
BRANCH   1   5
HETATM    5  C3  UNL     1     -34.469   5.934   5.903  1.00 20.00     0.222 C 
HETATM    6  O6  UNL     1     -34.191   4.984   6.629  1.00 20.00    -0.280 OA
HETATM    7 CL7  UNL     1     -35.518   5.863   4.511  1.00 20.00    -0.043 Cl
ENDBRANCH   1   5
TORSDOF 2
ENDMDL
MODEL 3
REMARK VINA RESULT:      -4.2      1.481      1.574
REMARK  2 active torsions:
REMARK  status: ('A' for Active; 'I' for Inactive)
REMARK    1  A    between atoms: C2_2  and  C5_5 
REMARK    2  A    between atoms: C3_3  and  C5_5 
ROOT
HETATM    1  C5  UNL     1     -34.824   6.333   4.283  1.00 20.00     0.123 C 
ENDROOT
BRANCH   1   2
HETATM    2  C2  UNL     1     -34.046   7.488   4.834  1.00 20.00    -0.022 C 
HETATM    3  C1  UNL     1     -32.901   7.938   4.302  1.00 20.00    -0.034 C 
HETATM    4  C4  UNL     1     -32.122   9.087   4.853  1.00 20.00     0.036 C 
ENDBRANCH   1   2
BRANCH   1   5
HETATM    5  C3  UNL     1     -34.426   5.034   4.967  1.00 20.00     0.222 C 
HETATM    6  O6  UNL     1     -34.159   4.003   4.359  1.00 20.00    -0.280 OA
HETATM    7 CL7  UNL     1     -34.375   5.222   6.700  1.00 20.00    -0.043 Cl
ENDBRANCH   1   5
TORSDOF 2
ENDMDL
MODEL 4
REMARK VINA RESULT:      -4.1      2.532      3.600
REMARK  2 active torsions:
REMARK  status: ('A' for Active; 'I' for Inactive)
REMARK    1  A    between atoms: C2_2  and  C5_5 
REMARK    2  A    between atoms: C3_3  and  C5_5 
ROOT
HETATM    1  C5  UNL     1     -32.916   8.561   4.816  1.00 20.00     0.123 C 
ENDROOT
BRANCH   1   2
HETATM    2  C2  UNL     1     -33.255   7.358   5.642  1.00 20.00    -0.022 C 
HETATM    3  C1  UNL     1     -34.354   6.612   5.458  1.00 20.00    -0.034 C 
HETATM    4  C4  UNL     1     -34.695   5.415   6.283  1.00 20.00     0.036 C 
ENDBRANCH   1   2
BRANCH   1   5
HETATM    5  C3  UNL     1     -32.505   8.156   3.410  1.00 20.00     0.222 C 
HETATM    6  O6  UNL     1     -32.022   7.062   3.135  1.00 20.00    -0.280 OA
HETATM    7 CL7  UNL     1     -32.837   9.426   2.262  1.00 20.00    -0.043 Cl
ENDBRANCH   1   5
TORSDOF 2
ENDMDL
MODEL 5
REMARK VINA RESULT:      -4.0      2.852      3.889
REMARK  2 active torsions:
REMARK  status: ('A' for Active; 'I' for Inactive)
REMARK    1  A    between atoms: C2_2  and  C5_5 
REMARK    2  A    between atoms: C3_3  and  C5_5 
ROOT
HETATM    1  C5  UNL     1     -33.009   8.410   4.722  1.00 20.00     0.123 C 
ENDROOT
BRANCH   1   2
HETATM    2  C2  UNL     1     -33.791   7.171   5.035  1.00 20.00    -0.022 C 
HETATM    3  C1  UNL     1     -33.951   6.684   6.274  1.00 20.00    -0.034 C 
HETATM    4  C4  UNL     1     -34.727   5.447   6.587  1.00 20.00     0.036 C 
ENDBRANCH   1   2
BRANCH   1   5
HETATM    5  C3  UNL     1     -32.642   8.462   3.247  1.00 20.00     0.222 C 
HETATM    6  O6  UNL     1     -32.677   9.489   2.577  1.00 20.00    -0.280 OA
HETATM    7 CL7  UNL     1     -32.147   6.895   2.662  1.00 20.00    -0.043 Cl
ENDBRANCH   1   5
TORSDOF 2
ENDMDL
MODEL 6
REMARK VINA RESULT:      -3.9      2.055      2.289
REMARK  2 active torsions:
REMARK  status: ('A' for Active; 'I' for Inactive)
REMARK    1  A    between atoms: C2_2  and  C5_5 
REMARK    2  A    between atoms: C3_3  and  C5_5 
ROOT
HETATM    1  C5  UNL     1     -33.654   7.441   5.583  1.00 20.00     0.123 C 
ENDROOT
BRANCH   1   2
HETATM    2  C2  UNL     1     -33.302   8.008   4.241  1.00 20.00    -0.022 C 
HETATM    3  C1  UNL     1     -32.423   7.444   3.400  1.00 20.00    -0.034 C 
HETATM    4  C4  UNL     1     -32.068   8.011   2.065  1.00 20.00     0.036 C 
ENDBRANCH   1   2
BRANCH   1   5
HETATM    5  C3  UNL     1     -34.569   6.235   5.439  1.00 20.00     0.222 C 
HETATM    6  O6  UNL     1     -35.416   6.130   4.557  1.00 20.00    -0.280 OA
HETATM    7 CL7  UNL     1     -34.233   5.035   6.659  1.00 20.00    -0.043 Cl
ENDBRANCH   1   5
TORSDOF 2
ENDMDL
MODEL 7
REMARK VINA RESULT:      -3.7     13.096     13.468
REMARK  2 active torsions:
REMARK  status: ('A' for Active; 'I' for Inactive)
REMARK    1  A    between atoms: C2_2  and  C5_5 
REMARK    2  A    between atoms: C3_3  and  C5_5 
ROOT
HETATM    1  C5  UNL     1     -32.887  18.295  -0.313  1.00 20.00     0.123 C 
ENDROOT
BRANCH   1   2
HETATM    2  C2  UNL     1     -32.848  17.754  -1.710  1.00 20.00    -0.022 C 
HETATM    3  C1  UNL     1     -33.497  16.647  -2.100  1.00 20.00    -0.034 C 
HETATM    4  C4  UNL     1     -33.454  16.104  -3.490  1.00 20.00     0.036 C 
ENDBRANCH   1   2
BRANCH   1   5
HETATM    5  C3  UNL     1     -31.482  18.484   0.235  1.00 20.00     0.222 C 
HETATM    6  O6  UNL     1     -30.500  18.684  -0.474  1.00 20.00    -0.280 OA
HETATM    7 CL7  UNL     1     -31.466  18.409   1.977  1.00 20.00    -0.043 Cl
ENDBRANCH   1   5
TORSDOF 2
ENDMDL
MODEL 8
REMARK VINA RESULT:      -3.7      2.226      2.783
REMARK  2 active torsions:
REMARK  status: ('A' for Active; 'I' for Inactive)
REMARK    1  A    between atoms: C2_2  and  C5_5 
REMARK    2  A    between atoms: C3_3  and  C5_5 
ROOT
HETATM    1  C5  UNL     1     -32.955   8.006   5.145  1.00 20.00     0.123 C 
ENDROOT
BRANCH   1   2
HETATM    2  C2  UNL     1     -32.514   7.706   3.745  1.00 20.00    -0.022 C 
HETATM    3  C1  UNL     1     -32.561   8.594   2.741  1.00 20.00    -0.034 C 
HETATM    4  C4  UNL     1     -32.127   8.294   1.345  1.00 20.00     0.036 C 
ENDBRANCH   1   2
BRANCH   1   5
HETATM    5  C3  UNL     1     -33.946   6.964   5.638  1.00 20.00     0.222 C 
HETATM    6  O6  UNL     1     -34.405   6.952   6.776  1.00 20.00    -0.280 OA
HETATM    7 CL7  UNL     1     -34.351   5.829   4.377  1.00 20.00    -0.043 Cl
ENDBRANCH   1   5
TORSDOF 2
ENDMDL
MODEL 9
REMARK VINA RESULT:      -3.6      2.430      3.113
REMARK  2 active torsions:
REMARK  status: ('A' for Active; 'I' for Inactive)
REMARK    1  A    between atoms: C2_2  and  C5_5 
REMARK    2  A    between atoms: C3_3  and  C5_5 
ROOT
HETATM    1  C5  UNL     1     -34.972   6.071   5.270  1.00 20.00     0.123 C 
ENDROOT
BRANCH   1   2
HETATM    2  C2  UNL     1     -34.351   5.187   4.231  1.00 20.00    -0.022 C 
HETATM    3  C1  UNL     1     -33.439   5.606   3.342  1.00 20.00    -0.034 C 
HETATM    4  C4  UNL     1     -32.824   4.727   2.305  1.00 20.00     0.036 C 
ENDBRANCH   1   2
BRANCH   1   5
HETATM    5  C3  UNL     1     -33.920   6.942   5.940  1.00 20.00     0.222 C 
HETATM    6  O6  UNL     1     -33.231   6.565   6.882  1.00 20.00    -0.280 OA
HETATM    7 CL7  UNL     1     -33.812   8.506   5.177  1.00 20.00    -0.043 Cl
ENDBRANCH   1   5
TORSDOF 2
ENDMDL
