MODEL 1
REMARK VINA RESULT:      -2.8      0.000      0.000
REMARK  0 active torsions:
REMARK  status: ('A' for Active; 'I' for Inactive)
ROOT
HETATM    1  C1  UNL     1     -34.860   5.203   4.708  1.00 20.00     0.178 C 
HETATM    2  C2  UNL     1     -34.531   5.366   6.181  1.00 20.00     0.102 C 
HETATM    3  C3  UNL     1     -33.575   7.114   4.516  1.00 20.00     0.241 C 
HETATM    4  O4  UNL     1     -33.814   5.823   3.951  1.00 20.00    -0.381 OA
HETATM    5  S5  UNL     1     -33.960   7.070   6.278  1.00 20.00    -0.141 SA
ENDROOT
TORSDOF 0
ENDMDL
MODEL 2
REMARK VINA RESULT:      -2.8      0.965      1.899
REMARK  0 active torsions:
REMARK  status: ('A' for Active; 'I' for Inactive)
ROOT
HETATM    1  C1  UNL     1     -33.979   5.481   4.049  1.00 20.00     0.178 C 
HETATM    2  C2  UNL     1     -33.936   6.949   4.434  1.00 20.00     0.102 C 
HETATM    3  C3  UNL     1     -34.618   5.229   6.256  1.00 20.00     0.241 C 
HETATM    4  O4  UNL     1     -34.913   4.824   4.916  1.00 20.00    -0.381 OA
HETATM    5  S5  UNL     1     -33.919   6.891   6.233  1.00 20.00    -0.141 SA
ENDROOT
TORSDOF 0
ENDMDL
MODEL 3
REMARK VINA RESULT:      -2.7      1.880      2.647
REMARK  0 active torsions:
REMARK  status: ('A' for Active; 'I' for Inactive)
ROOT
HETATM    1  C1  UNL     1     -33.538   7.709   5.311  1.00 20.00     0.178 C 
HETATM    2  C2  UNL     1     -33.496   6.747   4.138  1.00 20.00     0.102 C 
HETATM    3  C3  UNL     1     -34.524   5.906   6.369  1.00 20.00     0.241 C 
HETATM    4  O4  UNL     1     -33.541   6.935   6.517  1.00 20.00    -0.381 OA
HETATM    5  S5  UNL     1     -34.667   5.469   4.625  1.00 20.00    -0.141 SA
ENDROOT
TORSDOF 0
ENDMDL
MODEL 4
REMARK VINA RESULT:      -2.7      1.399      1.652
REMARK  0 active torsions:
REMARK  status: ('A' for Active; 'I' for Inactive)
ROOT
HETATM    1  C1  UNL     1     -34.794   5.587   6.274  1.00 20.00     0.178 C 
HETATM    2  C2  UNL     1     -33.886   6.800   6.360  1.00 20.00     0.102 C 
HETATM    3  C3  UNL     1     -34.121   5.611   4.064  1.00 20.00     0.241 C 
HETATM    4  O4  UNL     1     -34.331   4.764   5.197  1.00 20.00    -0.381 OA
HETATM    5  S5  UNL     1     -33.670   7.262   4.633  1.00 20.00    -0.141 SA
ENDROOT
TORSDOF 0
ENDMDL
MODEL 5
REMARK VINA RESULT:      -2.7      1.770      1.972
REMARK  0 active torsions:
REMARK  status: ('A' for Active; 'I' for Inactive)
ROOT
HETATM    1  C1  UNL     1     -34.530   5.032   5.653  1.00 20.00     0.178 C 
HETATM    2  C2  UNL     1     -34.501   5.698   4.290  1.00 20.00     0.102 C 
HETATM    3  C3  UNL     1     -33.904   7.139   6.365  1.00 20.00     0.241 C 
HETATM    4  O4  UNL     1     -34.784   6.044   6.635  1.00 20.00    -0.381 OA
HETATM    5  S5  UNL     1     -33.555   7.199   4.597  1.00 20.00    -0.141 SA
ENDROOT
TORSDOF 0
ENDMDL
MODEL 6
REMARK VINA RESULT:      -2.6      1.384      1.934
REMARK  0 active torsions:
REMARK  status: ('A' for Active; 'I' for Inactive)
ROOT
HETATM    1  C1  UNL     1     -33.193   7.462   5.323  1.00 20.00     0.178 C 
HETATM    2  C2  UNL     1     -34.127   7.091   6.459  1.00 20.00     0.102 C 
HETATM    3  C3  UNL     1     -34.180   5.634   4.310  1.00 20.00     0.241 C 
HETATM    4  O4  UNL     1     -33.773   6.990   4.101  1.00 20.00    -0.381 OA
HETATM    5  S5  UNL     1     -34.611   5.406   6.047  1.00 20.00    -0.141 SA
ENDROOT
TORSDOF 0
ENDMDL
MODEL 7
REMARK VINA RESULT:      -2.5      1.791      1.999
REMARK  0 active torsions:
REMARK  status: ('A' for Active; 'I' for Inactive)
ROOT
HETATM    1  C1  UNL     1     -33.970   6.845   6.452  1.00 20.00     0.178 C 
HETATM    2  C2  UNL     1     -34.833   5.752   5.850  1.00 20.00     0.102 C 
HETATM    3  C3  UNL     1     -33.369   7.172   4.244  1.00 20.00     0.241 C 
HETATM    4  O4  UNL     1     -33.757   7.844   5.446  1.00 20.00    -0.381 OA
HETATM    5  S5  UNL     1     -34.119   5.533   4.212  1.00 20.00    -0.141 SA
ENDROOT
TORSDOF 0
ENDMDL
MODEL 8
REMARK VINA RESULT:      -2.4     16.559     17.079
REMARK  0 active torsions:
REMARK  status: ('A' for Active; 'I' for Inactive)
ROOT
HETATM    1  C1  UNL     1     -23.921  17.044  10.451  1.00 20.00     0.178 C 
HETATM    2  C2  UNL     1     -23.739  16.963  11.956  1.00 20.00     0.102 C 
HETATM    3  C3  UNL     1     -22.089  18.444  10.604  1.00 20.00     0.241 C 
HETATM    4  O4  UNL     1     -22.650  17.353   9.868  1.00 20.00    -0.381 OA
HETATM    5  S5  UNL     1     -22.678  18.375  12.307  1.00 20.00    -0.141 SA
ENDROOT
TORSDOF 0
ENDMDL
MODEL 9
REMARK VINA RESULT:      -2.4     13.638     13.723
REMARK  0 active torsions:
REMARK  status: ('A' for Active; 'I' for Inactive)
ROOT
HETATM    1  C1  UNL     1     -30.814  18.475   1.066  1.00 20.00     0.178 C 
HETATM    2  C2  UNL     1     -32.154  18.982   1.564  1.00 20.00     0.102 C 
HETATM    3  C3  UNL     1     -31.934  18.387  -0.953  1.00 20.00     0.241 C 
HETATM    4  O4  UNL     1     -30.713  18.791  -0.328  1.00 20.00    -0.381 OA
HETATM    5  S5  UNL     1     -33.280  18.507   0.242  1.00 20.00    -0.141 SA
ENDROOT
TORSDOF 0
ENDMDL
