MODEL 1
REMARK VINA RESULT:      -4.5      0.000      0.000
REMARK  2 active torsions:
REMARK  status: ('A' for Active; 'I' for Inactive)
REMARK    1  A    between atoms: C4_4  and  C7_7 
REMARK    2  A    between atoms: C8_8  and  O11_11 
ROOT
HETATM    1  C1  UNL     1     -34.237  17.565  -4.922  1.00 20.00    -0.019 C 
HETATM    2  C2  UNL     1     -34.776  16.593  -5.672  1.00 20.00     0.007 C 
HETATM    3  C5  UNL     1     -32.903  15.848  -3.649  1.00 20.00     0.016 C 
HETATM    4  C6  UNL     1     -34.036  14.868  -3.966  1.00 20.00     0.042 C 
HETATM    5  C7  UNL     1     -33.381  17.312  -3.709  1.00 20.00     0.036 C 
HETATM    6  C8  UNL     1     -34.626  15.124  -5.367  1.00 20.00     0.072 C 
HETATM    7  C10 UNL     1     -35.969  14.403  -5.512  1.00 20.00     0.050 C 
ENDROOT
BRANCH   5   8
HETATM    8  C4  UNL     1     -34.106  17.711  -2.456  1.00 20.00    -0.085 C 
HETATM    9  C3  UNL     1     -33.682  17.336  -1.240  1.00 20.00     0.014 C 
HETATM   10  C9  UNL     1     -35.333  18.554  -2.642  1.00 20.00     0.043 C 
ENDBRANCH   5   8
BRANCH   6  11
HETATM   11  O11 UNL     1     -33.733  14.591  -6.350  1.00 20.00    -0.386 OA
HETATM   12  H27 UNL     1     -34.172  13.810  -6.718  1.00 20.00     0.211 HD
ENDBRANCH   6  11
TORSDOF 2
ENDMDL
MODEL 2
REMARK VINA RESULT:      -4.0     11.161     12.378
REMARK  2 active torsions:
REMARK  status: ('A' for Active; 'I' for Inactive)
REMARK    1  A    between atoms: C4_4  and  C7_7 
REMARK    2  A    between atoms: C8_8  and  O11_11 
ROOT
HETATM    1  C1  UNL     1     -32.488   6.219   2.839  1.00 20.00    -0.019 C 
HETATM    2  C2  UNL     1     -33.471   5.587   3.497  1.00 20.00     0.007 C 
HETATM    3  C5  UNL     1     -32.528   8.066   4.552  1.00 20.00     0.016 C 
HETATM    4  C6  UNL     1     -34.006   7.724   4.753  1.00 20.00     0.042 C 
HETATM    5  C7  UNL     1     -32.018   7.611   3.171  1.00 20.00     0.036 C 
HETATM    6  C8  UNL     1     -34.255   6.207   4.625  1.00 20.00     0.072 C 
HETATM    7  C10 UNL     1     -35.752   5.932   4.456  1.00 20.00     0.050 C 
ENDROOT
BRANCH   5   8
HETATM    8  C4  UNL     1     -32.411   8.575   2.088  1.00 20.00    -0.085 C 
HETATM    9  C3  UNL     1     -33.010   9.744   2.362  1.00 20.00     0.014 C 
HETATM   10  C9  UNL     1     -32.095   8.157   0.683  1.00 20.00     0.043 C 
ENDBRANCH   5   8
BRANCH   6  11
HETATM   11  O11 UNL     1     -33.823   5.564   5.827  1.00 20.00    -0.386 OA
HETATM   12  H27 UNL     1     -34.439   5.844   6.520  1.00 20.00     0.211 HD
ENDBRANCH   6  11
TORSDOF 2
ENDMDL
MODEL 3
REMARK VINA RESULT:      -3.8      2.425      3.776
REMARK  2 active torsions:
REMARK  status: ('A' for Active; 'I' for Inactive)
REMARK    1  A    between atoms: C4_4  and  C7_7 
REMARK    2  A    between atoms: C8_8  and  O11_11 
ROOT
HETATM    1  C1  UNL     1     -33.342  16.815  -1.878  1.00 20.00    -0.019 C 
HETATM    2  C2  UNL     1     -33.641  17.021  -3.169  1.00 20.00     0.007 C 
HETATM    3  C5  UNL     1     -34.958  18.629  -1.211  1.00 20.00     0.016 C 
HETATM    4  C6  UNL     1     -34.666  19.263  -2.573  1.00 20.00     0.042 C 
HETATM    5  C7  UNL     1     -33.815  17.700  -0.756  1.00 20.00     0.036 C 
HETATM    6  C8  UNL     1     -34.456  18.189  -3.660  1.00 20.00     0.072 C 
HETATM    7  C10 UNL     1     -33.809  18.815  -4.900  1.00 20.00     0.050 C 
ENDROOT
BRANCH   5   8
HETATM    8  C4  UNL     1     -32.668  18.476  -0.173  1.00 20.00    -0.085 C 
HETATM    9  C3  UNL     1     -31.448  18.466  -0.731  1.00 20.00     0.014 C 
HETATM   10  C9  UNL     1     -32.966  19.263   1.068  1.00 20.00     0.043 C 
ENDBRANCH   5   8
BRANCH   6  11
HETATM   11  O11 UNL     1     -35.731  17.667  -4.047  1.00 20.00    -0.386 OA
HETATM   12  H27 UNL     1     -36.371  18.018  -3.411  1.00 20.00     0.211 HD
ENDBRANCH   6  11
TORSDOF 2
ENDMDL
MODEL 4
REMARK VINA RESULT:      -3.7      1.640      3.877
REMARK  2 active torsions:
REMARK  status: ('A' for Active; 'I' for Inactive)
REMARK    1  A    between atoms: C4_4  and  C7_7 
REMARK    2  A    between atoms: C8_8  and  O11_11 
ROOT
HETATM    1  C1  UNL     1     -35.559  14.230  -5.074  1.00 20.00    -0.019 C 
HETATM    2  C2  UNL     1     -34.583  14.422  -4.174  1.00 20.00     0.007 C 
HETATM    3  C5  UNL     1     -34.504  15.946  -6.587  1.00 20.00     0.016 C 
HETATM    4  C6  UNL     1     -33.959  16.599  -5.314  1.00 20.00     0.042 C 
HETATM    5  C7  UNL     1     -35.749  15.085  -6.299  1.00 20.00     0.036 C 
HETATM    6  C8  UNL     1     -33.578  15.542  -4.258  1.00 20.00     0.072 C 
HETATM    7  C10 UNL     1     -33.397  16.207  -2.890  1.00 20.00     0.050 C 
ENDROOT
BRANCH   5   8
HETATM    8  C4  UNL     1     -36.988  15.925  -6.174  1.00 20.00    -0.085 C 
HETATM    9  C3  UNL     1     -37.765  15.883  -5.082  1.00 20.00     0.014 C 
HETATM   10  C9  UNL     1     -37.306  16.812  -7.340  1.00 20.00     0.043 C 
ENDBRANCH   5   8
BRANCH   6  11
HETATM   11  O11 UNL     1     -32.330  14.947  -4.626  1.00 20.00    -0.386 OA
HETATM   12  H27 UNL     1     -31.846  15.622  -5.123  1.00 20.00     0.211 HD
ENDBRANCH   6  11
TORSDOF 2
ENDMDL
MODEL 5
REMARK VINA RESULT:      -3.5      1.784      4.087
REMARK  2 active torsions:
REMARK  status: ('A' for Active; 'I' for Inactive)
REMARK    1  A    between atoms: C4_4  and  C7_7 
REMARK    2  A    between atoms: C8_8  and  O11_11 
ROOT
HETATM    1  C1  UNL     1     -33.636  15.448  -4.409  1.00 20.00    -0.019 C 
HETATM    2  C2  UNL     1     -33.204  16.106  -3.323  1.00 20.00     0.007 C 
HETATM    3  C5  UNL     1     -34.749  17.549  -5.243  1.00 20.00     0.016 C 
HETATM    4  C6  UNL     1     -34.886  17.950  -3.772  1.00 20.00     0.042 C 
HETATM    5  C7  UNL     1     -34.605  16.024  -5.408  1.00 20.00     0.036 C 
HETATM    6  C8  UNL     1     -33.667  17.490  -2.947  1.00 20.00     0.072 C 
HETATM    7  C10 UNL     1     -33.987  17.563  -1.450  1.00 20.00     0.050 C 
ENDROOT
BRANCH   5   8
HETATM    8  C4  UNL     1     -35.933  15.328  -5.320  1.00 20.00    -0.085 C 
HETATM    9  C3  UNL     1     -37.077  15.935  -5.670  1.00 20.00     0.014 C 
HETATM   10  C9  UNL     1     -35.907  13.915  -4.818  1.00 20.00     0.043 C 
ENDBRANCH   5   8
BRANCH   6  11
HETATM   11  O11 UNL     1     -32.572  18.374  -3.205  1.00 20.00    -0.386 OA
HETATM   12  H27 UNL     1     -31.978  17.899  -3.804  1.00 20.00     0.211 HD
ENDBRANCH   6  11
TORSDOF 2
ENDMDL
MODEL 6
REMARK VINA RESULT:      -3.4     24.648     25.872
REMARK  2 active torsions:
REMARK  status: ('A' for Active; 'I' for Inactive)
REMARK    1  A    between atoms: C4_4  and  C7_7 
REMARK    2  A    between atoms: C8_8  and  O11_11 
ROOT
HETATM    1  C1  UNL     1     -25.547  -1.347  11.948  1.00 20.00    -0.019 C 
HETATM    2  C2  UNL     1     -24.282  -1.682  11.656  1.00 20.00     0.007 C 
HETATM    3  C5  UNL     1     -26.281  -3.714  11.494  1.00 20.00     0.016 C 
HETATM    4  C6  UNL     1     -25.103  -3.795  10.519  1.00 20.00     0.042 C 
HETATM    5  C7  UNL     1     -26.726  -2.258  11.732  1.00 20.00     0.036 C 
HETATM    6  C8  UNL     1     -23.888  -2.999  11.038  1.00 20.00     0.072 C 
HETATM    7  C10 UNL     1     -22.879  -2.783   9.906  1.00 20.00     0.050 C 
ENDROOT
BRANCH   5   8
HETATM    8  C4  UNL     1     -27.590  -1.752  10.613  1.00 20.00    -0.085 C 
HETATM    9  C3  UNL     1     -27.592  -0.462  10.246  1.00 20.00     0.014 C 
HETATM   10  C9  UNL     1     -28.451  -2.772   9.929  1.00 20.00     0.043 C 
ENDBRANCH   5   8
BRANCH   6  11
HETATM   11  O11 UNL     1     -23.241  -3.757  12.064  1.00 20.00    -0.386 OA
HETATM   12  H27 UNL     1     -22.395  -4.048  11.692  1.00 20.00     0.211 HD
ENDBRANCH   6  11
TORSDOF 2
ENDMDL
MODEL 7
REMARK VINA RESULT:      -3.3     12.166     13.302
REMARK  2 active torsions:
REMARK  status: ('A' for Active; 'I' for Inactive)
REMARK    1  A    between atoms: C4_4  and  C7_7 
REMARK    2  A    between atoms: C8_8  and  O11_11 
ROOT
HETATM    1  C1  UNL     1     -41.112  14.962   7.985  1.00 20.00    -0.019 C 
HETATM    2  C2  UNL     1     -40.551  13.813   7.581  1.00 20.00     0.007 C 
HETATM    3  C5  UNL     1     -42.939  14.677   6.273  1.00 20.00     0.016 C 
HETATM    4  C6  UNL     1     -41.912  13.902   5.442  1.00 20.00     0.042 C 
HETATM    5  C7  UNL     1     -42.259  15.631   7.275  1.00 20.00     0.036 C 
HETATM    6  C8  UNL     1     -40.975  13.069   6.340  1.00 20.00     0.072 C 
HETATM    7  C10 UNL     1     -39.751  12.612   5.541  1.00 20.00     0.050 C 
ENDROOT
BRANCH   5   8
HETATM    8  C4  UNL     1     -41.805  16.900   6.613  1.00 20.00    -0.085 C 
HETATM    9  C3  UNL     1     -42.416  17.390   5.524  1.00 20.00     0.014 C 
HETATM   10  C9  UNL     1     -40.629  17.588   7.239  1.00 20.00     0.043 C 
ENDBRANCH   5   8
BRANCH   6  11
HETATM   11  O11 UNL     1     -41.673  11.900   6.780  1.00 20.00    -0.386 OA
HETATM   12  H27 UNL     1     -41.037  11.385   7.297  1.00 20.00     0.211 HD
ENDBRANCH   6  11
TORSDOF 2
ENDMDL
MODEL 8
REMARK VINA RESULT:      -3.3      1.893      3.300
REMARK  2 active torsions:
REMARK  status: ('A' for Active; 'I' for Inactive)
REMARK    1  A    between atoms: C4_4  and  C7_7 
REMARK    2  A    between atoms: C8_8  and  O11_11 
ROOT
HETATM    1  C1  UNL     1     -36.468  15.678  -6.471  1.00 20.00    -0.019 C 
HETATM    2  C2  UNL     1     -35.519  14.829  -6.050  1.00 20.00     0.007 C 
HETATM    3  C5  UNL     1     -34.939  17.624  -6.001  1.00 20.00     0.016 C 
HETATM    4  C6  UNL     1     -34.306  16.747  -4.918  1.00 20.00     0.042 C 
HETATM    5  C7  UNL     1     -36.375  17.174  -6.333  1.00 20.00     0.036 C 
HETATM    6  C8  UNL     1     -34.259  15.267  -5.349  1.00 20.00     0.072 C 
HETATM    7  C10 UNL     1     -33.978  14.374  -4.137  1.00 20.00     0.050 C 
ENDROOT
BRANCH   5   8
HETATM    8  C4  UNL     1     -37.363  17.676  -5.319  1.00 20.00    -0.085 C 
HETATM    9  C3  UNL     1     -37.304  18.922  -4.827  1.00 20.00     0.014 C 
HETATM   10  C9  UNL     1     -38.419  16.703  -4.888  1.00 20.00     0.043 C 
ENDBRANCH   5   8
BRANCH   6  11
HETATM   11  O11 UNL     1     -33.188  15.090  -6.282  1.00 20.00    -0.386 OA
HETATM   12  H27 UNL     1     -33.568  15.239  -7.160  1.00 20.00     0.211 HD
ENDBRANCH   6  11
TORSDOF 2
ENDMDL
MODEL 9
REMARK VINA RESULT:      -3.3      2.048      3.046
REMARK  2 active torsions:
REMARK  status: ('A' for Active; 'I' for Inactive)
REMARK    1  A    between atoms: C4_4  and  C7_7 
REMARK    2  A    between atoms: C8_8  and  O11_11 
ROOT
HETATM    1  C1  UNL     1     -35.366  17.588  -5.050  1.00 20.00    -0.019 C 
HETATM    2  C2  UNL     1     -36.697  17.462  -5.152  1.00 20.00     0.007 C 
HETATM    3  C5  UNL     1     -35.066  15.357  -6.183  1.00 20.00     0.016 C 
HETATM    4  C6  UNL     1     -36.429  14.979  -5.596  1.00 20.00     0.042 C 
HETATM    5  C7  UNL     1     -34.392  16.488  -5.380  1.00 20.00     0.036 C 
HETATM    6  C8  UNL     1     -37.385  16.189  -5.572  1.00 20.00     0.072 C 
HETATM    7  C10 UNL     1     -38.580  15.896  -4.660  1.00 20.00     0.050 C 
ENDROOT
BRANCH   5   8
HETATM    8  C4  UNL     1     -33.735  15.968  -4.133  1.00 20.00    -0.085 C 
HETATM    9  C3  UNL     1     -33.612  16.721  -3.030  1.00 20.00     0.014 C 
HETATM   10  C9  UNL     1     -33.226  14.559  -4.192  1.00 20.00     0.043 C 
ENDBRANCH   5   8
BRANCH   6  11
HETATM   11  O11 UNL     1     -37.886  16.410  -6.894  1.00 20.00    -0.386 OA
HETATM   12  H27 UNL     1     -37.526  17.262  -7.180  1.00 20.00     0.211 HD
ENDBRANCH   6  11
TORSDOF 2
ENDMDL
