MODEL 1
REMARK VINA RESULT:      -5.5      0.000      0.000
REMARK  2 active torsions:
REMARK  status: ('A' for Active; 'I' for Inactive)
REMARK    1  A    between atoms: C1_1  and  C2_2 
REMARK    2  A    between atoms: C2_2  and  C3_3 
ROOT
HETATM    1  C2  UNL     1     -34.626   6.239   4.737  1.00 20.00     0.428 C 
HETATM    2  F6  UNL     1     -35.950   6.152   4.443  1.00 20.00    -0.184 F 
HETATM    3  F7  UNL     1     -34.241   7.503   4.420  1.00 20.00    -0.184 F 
ENDROOT
BRANCH   1   4
HETATM    4  C1  UNL     1     -33.846   5.226   3.955  1.00 20.00     0.379 C 
HETATM    5  O4  UNL     1     -33.098   5.480   3.024  1.00 20.00    -0.253 OA
HETATM    6  F5  UNL     1     -33.950   3.943   4.327  1.00 20.00    -0.157 F 
ENDBRANCH   1   4
BRANCH   1   7
HETATM    7  C3  UNL     1     -34.442   6.027   6.216  1.00 20.00     0.465 C 
HETATM    8  F8  UNL     1     -34.642   7.180   6.891  1.00 20.00    -0.165 F 
HETATM    9  F9  UNL     1     -33.195   5.597   6.502  1.00 20.00    -0.165 F 
HETATM   10  F10 UNL     1     -35.316   5.115   6.695  1.00 20.00    -0.165 F 
ENDBRANCH   1   7
TORSDOF 2
ENDMDL
MODEL 2
REMARK VINA RESULT:      -5.5      1.001      2.012
REMARK  2 active torsions:
REMARK  status: ('A' for Active; 'I' for Inactive)
REMARK    1  A    between atoms: C1_1  and  C2_2 
REMARK    2  A    between atoms: C2_2  and  C3_3 
ROOT
HETATM    1  C2  UNL     1     -34.375   5.982   4.818  1.00 20.00     0.428 C 
HETATM    2  F6  UNL     1     -34.005   4.763   4.342  1.00 20.00    -0.184 F 
HETATM    3  F7  UNL     1     -35.697   6.121   4.540  1.00 20.00    -0.184 F 
ENDROOT
BRANCH   1   4
HETATM    4  C1  UNL     1     -33.571   7.067   4.168  1.00 20.00     0.379 C 
HETATM    5  O4  UNL     1     -32.618   6.888   3.427  1.00 20.00    -0.253 OA
HETATM    6  F5  UNL     1     -33.949   8.334   4.390  1.00 20.00    -0.157 F 
ENDBRANCH   1   4
BRANCH   1   7
HETATM    7  C3  UNL     1     -34.183   5.998   6.311  1.00 20.00     0.465 C 
HETATM    8  F8  UNL     1     -33.177   6.830   6.654  1.00 20.00    -0.165 F 
HETATM    9  F9  UNL     1     -33.876   4.770   6.781  1.00 20.00    -0.165 F 
HETATM   10  F10 UNL     1     -35.298   6.419   6.946  1.00 20.00    -0.165 F 
ENDBRANCH   1   7
TORSDOF 2
ENDMDL
MODEL 3
REMARK VINA RESULT:      -5.4      1.576      2.874
REMARK  2 active torsions:
REMARK  status: ('A' for Active; 'I' for Inactive)
REMARK    1  A    between atoms: C1_1  and  C2_2 
REMARK    2  A    between atoms: C2_2  and  C3_3 
ROOT
HETATM    1  C2  UNL     1     -33.990   6.600   5.784  1.00 20.00     0.428 C 
HETATM    2  F6  UNL     1     -33.040   5.966   6.521  1.00 20.00    -0.184 F 
HETATM    3  F7  UNL     1     -34.760   7.296   6.661  1.00 20.00    -0.184 F 
ENDROOT
BRANCH   1   4
HETATM    4  C1  UNL     1     -34.809   5.609   5.016  1.00 20.00     0.379 C 
HETATM    5  O4  UNL     1     -34.547   4.423   4.894  1.00 20.00    -0.253 OA
HETATM    6  F5  UNL     1     -35.940   6.050   4.445  1.00 20.00    -0.157 F 
ENDBRANCH   1   4
BRANCH   1   7
HETATM    7  C3  UNL     1     -33.312   7.569   4.851  1.00 20.00     0.465 C 
HETATM    8  F8  UNL     1     -32.763   6.917   3.803  1.00 20.00    -0.165 F 
HETATM    9  F9  UNL     1     -32.325   8.246   5.475  1.00 20.00    -0.165 F 
HETATM   10  F10 UNL     1     -34.188   8.472   4.358  1.00 20.00    -0.165 F 
ENDBRANCH   1   7
TORSDOF 2
ENDMDL
MODEL 4
REMARK VINA RESULT:      -5.4      1.576      2.834
REMARK  2 active torsions:
REMARK  status: ('A' for Active; 'I' for Inactive)
REMARK    1  A    between atoms: C1_1  and  C2_2 
REMARK    2  A    between atoms: C2_2  and  C3_3 
ROOT
HETATM    1  C2  UNL     1     -33.991   6.599   5.773  1.00 20.00     0.428 C 
HETATM    2  F6  UNL     1     -33.047   5.963   6.516  1.00 20.00    -0.184 F 
HETATM    3  F7  UNL     1     -34.761   7.302   6.644  1.00 20.00    -0.184 F 
ENDROOT
BRANCH   1   4
HETATM    4  C1  UNL     1     -34.813   5.608   5.007  1.00 20.00     0.379 C 
HETATM    5  O4  UNL     1     -34.552   4.421   4.886  1.00 20.00    -0.253 OA
HETATM    6  F5  UNL     1     -35.944   6.049   4.439  1.00 20.00    -0.157 F 
ENDBRANCH   1   4
BRANCH   1   7
HETATM    7  C3  UNL     1     -33.306   7.560   4.838  1.00 20.00     0.465 C 
HETATM    8  F8  UNL     1     -34.186   8.464   4.356  1.00 20.00    -0.165 F 
HETATM    9  F9  UNL     1     -32.761   6.917   3.784  1.00 20.00    -0.165 F 
HETATM   10  F10 UNL     1     -32.322   8.239   5.465  1.00 20.00    -0.165 F 
ENDBRANCH   1   7
TORSDOF 2
ENDMDL
MODEL 5
REMARK VINA RESULT:      -5.3      0.769      1.855
REMARK  2 active torsions:
REMARK  status: ('A' for Active; 'I' for Inactive)
REMARK    1  A    between atoms: C1_1  and  C2_2 
REMARK    2  A    between atoms: C2_2  and  C3_3 
ROOT
HETATM    1  C2  UNL     1     -34.797   5.864   5.056  1.00 20.00     0.428 C 
HETATM    2  F6  UNL     1     -35.101   5.145   6.168  1.00 20.00    -0.184 F 
HETATM    3  F7  UNL     1     -35.979   6.202   4.478  1.00 20.00    -0.184 F 
ENDROOT
BRANCH   1   4
HETATM    4  C1  UNL     1     -33.952   5.055   4.120  1.00 20.00     0.379 C 
HETATM    5  O4  UNL     1     -33.401   5.485   3.120  1.00 20.00    -0.253 OA
HETATM    6  F5  UNL     1     -33.757   3.764   4.423  1.00 20.00    -0.157 F 
ENDBRANCH   1   4
BRANCH   1   7
HETATM    7  C3  UNL     1     -34.078   7.121   5.472  1.00 20.00     0.465 C 
HETATM    8  F8  UNL     1     -34.510   7.537   6.682  1.00 20.00    -0.165 F 
HETATM    9  F9  UNL     1     -34.291   8.124   4.595  1.00 20.00    -0.165 F 
HETATM   10  F10 UNL     1     -32.746   6.920   5.559  1.00 20.00    -0.165 F 
ENDBRANCH   1   7
TORSDOF 2
ENDMDL
MODEL 6
REMARK VINA RESULT:      -5.2      1.603      2.879
REMARK  2 active torsions:
REMARK  status: ('A' for Active; 'I' for Inactive)
REMARK    1  A    between atoms: C1_1  and  C2_2 
REMARK    2  A    between atoms: C2_2  and  C3_3 
ROOT
HETATM    1  C2  UNL     1     -33.871   6.810   5.943  1.00 20.00     0.428 C 
HETATM    2  F6  UNL     1     -34.803   7.254   6.828  1.00 20.00    -0.184 F 
HETATM    3  F7  UNL     1     -32.857   6.285   6.680  1.00 20.00    -0.184 F 
ENDROOT
BRANCH   1   4
HETATM    4  C1  UNL     1     -33.385   7.934   5.081  1.00 20.00     0.379 C 
HETATM    5  O4  UNL     1     -32.250   8.383   5.085  1.00 20.00    -0.253 OA
HETATM    6  F5  UNL     1     -34.255   8.468   4.212  1.00 20.00    -0.157 F 
ENDBRANCH   1   4
BRANCH   1   7
HETATM    7  C3  UNL     1     -34.482   5.719   5.103  1.00 20.00     0.465 C 
HETATM    8  F8  UNL     1     -34.487   4.547   5.775  1.00 20.00    -0.165 F 
HETATM    9  F9  UNL     1     -33.790   5.532   3.959  1.00 20.00    -0.165 F 
HETATM   10  F10 UNL     1     -35.759   6.008   4.774  1.00 20.00    -0.165 F 
ENDBRANCH   1   7
TORSDOF 2
ENDMDL
MODEL 7
REMARK VINA RESULT:      -5.2      1.420      2.005
REMARK  2 active torsions:
REMARK  status: ('A' for Active; 'I' for Inactive)
REMARK    1  A    between atoms: C1_1  and  C2_2 
REMARK    2  A    between atoms: C2_2  and  C3_3 
ROOT
HETATM    1  C2  UNL     1     -33.776   6.972   4.907  1.00 20.00     0.428 C 
HETATM    2  F6  UNL     1     -34.498   8.117   4.784  1.00 20.00    -0.184 F 
HETATM    3  F7  UNL     1     -32.999   7.121   6.012  1.00 20.00    -0.184 F 
ENDROOT
BRANCH   1   4
HETATM    4  C1  UNL     1     -32.937   6.745   3.686  1.00 20.00     0.379 C 
HETATM    5  O4  UNL     1     -31.979   7.425   3.355  1.00 20.00    -0.253 OA
HETATM    6  F5  UNL     1     -33.241   5.692   2.914  1.00 20.00    -0.157 F 
ENDBRANCH   1   4
BRANCH   1   7
HETATM    7  C3  UNL     1     -34.723   5.822   5.125  1.00 20.00     0.465 C 
HETATM    8  F8  UNL     1     -35.141   5.787   6.409  1.00 20.00    -0.165 F 
HETATM    9  F9  UNL     1     -34.132   4.639   4.854  1.00 20.00    -0.165 F 
HETATM   10  F10 UNL     1     -35.817   5.930   4.340  1.00 20.00    -0.165 F 
ENDBRANCH   1   7
TORSDOF 2
ENDMDL
MODEL 8
REMARK VINA RESULT:      -5.2      1.412      2.110
REMARK  2 active torsions:
REMARK  status: ('A' for Active; 'I' for Inactive)
REMARK    1  A    between atoms: C1_1  and  C2_2 
REMARK    2  A    between atoms: C2_2  and  C3_3 
ROOT
HETATM    1  C2  UNL     1     -33.779   6.975   4.897  1.00 20.00     0.428 C 
HETATM    2  F6  UNL     1     -34.507   8.114   4.760  1.00 20.00    -0.184 F 
HETATM    3  F7  UNL     1     -32.996   7.145   5.994  1.00 20.00    -0.184 F 
ENDROOT
BRANCH   1   4
HETATM    4  C1  UNL     1     -32.948   6.730   3.675  1.00 20.00     0.379 C 
HETATM    5  O4  UNL     1     -31.989   7.402   3.331  1.00 20.00    -0.253 OA
HETATM    6  F5  UNL     1     -33.260   5.669   2.917  1.00 20.00    -0.157 F 
ENDBRANCH   1   4
BRANCH   1   7
HETATM    7  C3  UNL     1     -34.721   5.825   5.141  1.00 20.00     0.465 C 
HETATM    8  F8  UNL     1     -35.815   5.931   4.356  1.00 20.00    -0.165 F 
HETATM    9  F9  UNL     1     -35.140   5.795   6.424  1.00 20.00    -0.165 F 
HETATM   10  F10 UNL     1     -34.133   4.640   4.867  1.00 20.00    -0.165 F 
ENDBRANCH   1   7
TORSDOF 2
ENDMDL
MODEL 9
REMARK VINA RESULT:      -5.2      1.693      2.984
REMARK  2 active torsions:
REMARK  status: ('A' for Active; 'I' for Inactive)
REMARK    1  A    between atoms: C1_1  and  C2_2 
REMARK    2  A    between atoms: C2_2  and  C3_3 
ROOT
HETATM    1  C2  UNL     1     -34.330   6.196   4.727  1.00 20.00     0.428 C 
HETATM    2  F6  UNL     1     -35.572   6.467   4.245  1.00 20.00    -0.184 F 
HETATM    3  F7  UNL     1     -33.903   5.076   4.086  1.00 20.00    -0.184 F 
ENDROOT
BRANCH   1   4
HETATM    4  C1  UNL     1     -34.375   5.985   6.209  1.00 20.00     0.379 C 
HETATM    5  O4  UNL     1     -34.101   4.940   6.779  1.00 20.00    -0.253 OA
HETATM    6  F5  UNL     1     -34.707   7.034   6.974  1.00 20.00    -0.157 F 
ENDBRANCH   1   4
BRANCH   1   7
HETATM    7  C3  UNL     1     -33.415   7.339   4.377  1.00 20.00     0.465 C 
HETATM    8  F8  UNL     1     -34.125   8.465   4.147  1.00 20.00    -0.165 F 
HETATM    9  F9  UNL     1     -32.697   7.074   3.265  1.00 20.00    -0.165 F 
HETATM   10  F10 UNL     1     -32.548   7.599   5.379  1.00 20.00    -0.165 F 
ENDBRANCH   1   7
TORSDOF 2
ENDMDL
