MODEL 1
REMARK VINA RESULT:      -4.8      0.000      0.000
REMARK  0 active torsions:
REMARK  status: ('A' for Active; 'I' for Inactive)
ROOT
HETATM    1  C1  UNL     1     -32.833   7.002   3.834  1.00 20.00     0.127 C 
HETATM    2  C2  UNL     1     -33.808   7.834   4.645  1.00 20.00     0.082 C 
HETATM    3  C3  UNL     1     -33.323   5.671   3.293  1.00 20.00     0.082 C 
HETATM    4  C4  UNL     1     -34.034   6.037   6.422  1.00 20.00     0.005 C 
HETATM    5  C5  UNL     1     -33.746   4.759   5.623  1.00 20.00     0.005 C 
HETATM    6  C6  UNL     1     -35.482   5.979   4.520  1.00 20.00     0.010 C 
HETATM    7  C7  UNL     1     -34.781   6.964   5.451  1.00 20.00    -0.007 C 
HETATM    8  C8  UNL     1     -34.341   5.008   4.229  1.00 20.00    -0.007 C 
HETATM    9  O9  UNL     1     -31.721   7.438   3.533  1.00 20.00    -0.298 OA
ENDROOT
TORSDOF 0
ENDMDL
MODEL 2
REMARK VINA RESULT:      -4.1      8.776      9.943
REMARK  0 active torsions:
REMARK  status: ('A' for Active; 'I' for Inactive)
ROOT
HETATM    1  C1  UNL     1     -42.213   5.466  -0.932  1.00 20.00     0.127 C 
HETATM    2  C2  UNL     1     -43.417   5.960  -0.153  1.00 20.00     0.082 C 
HETATM    3  C3  UNL     1     -40.837   5.755  -0.361  1.00 20.00     0.082 C 
HETATM    4  C4  UNL     1     -42.710   8.385  -0.383  1.00 20.00     0.005 C 
HETATM    5  C5  UNL     1     -41.185   8.264  -0.508  1.00 20.00     0.005 C 
HETATM    6  C6  UNL     1     -41.889   7.107   1.463  1.00 20.00     0.010 C 
HETATM    7  C7  UNL     1     -43.129   7.272   0.588  1.00 20.00    -0.007 C 
HETATM    8  C8  UNL     1     -40.795   7.087   0.399  1.00 20.00    -0.007 C 
HETATM    9  O9  UNL     1     -42.348   4.764  -1.935  1.00 20.00    -0.298 OA
ENDROOT
TORSDOF 0
ENDMDL
MODEL 3
REMARK VINA RESULT:      -3.8      8.490      9.397
REMARK  0 active torsions:
REMARK  status: ('A' for Active; 'I' for Inactive)
ROOT
HETATM    1  C1  UNL     1     -41.132   7.887  -0.046  1.00 20.00     0.127 C 
HETATM    2  C2  UNL     1     -42.611   8.071  -0.331  1.00 20.00     0.082 C 
HETATM    3  C3  UNL     1     -40.534   6.511  -0.277  1.00 20.00     0.082 C 
HETATM    4  C4  UNL     1     -43.273   6.366   1.427  1.00 20.00     0.005 C 
HETATM    5  C5  UNL     1     -42.046   5.445   1.460  1.00 20.00     0.005 C 
HETATM    6  C6  UNL     1     -42.814   5.621  -0.798  1.00 20.00     0.010 C 
HETATM    7  C7  UNL     1     -43.417   6.800  -0.040  1.00 20.00    -0.007 C 
HETATM    8  C8  UNL     1     -41.540   5.390   0.010  1.00 20.00    -0.007 C 
HETATM    9  O9  UNL     1     -40.419   8.845   0.259  1.00 20.00    -0.298 OA
ENDROOT
TORSDOF 0
ENDMDL
MODEL 4
REMARK VINA RESULT:      -3.8     15.554     16.558
REMARK  0 active torsions:
REMARK  status: ('A' for Active; 'I' for Inactive)
ROOT
HETATM    1  C1  UNL     1     -25.007  19.031   9.754  1.00 20.00     0.127 C 
HETATM    2  C2  UNL     1     -23.527  18.696   9.780  1.00 20.00     0.082 C 
HETATM    3  C3  UNL     1     -25.701  19.263  11.083  1.00 20.00     0.082 C 
HETATM    4  C4  UNL     1     -23.920  16.569  11.106  1.00 20.00     0.005 C 
HETATM    5  C5  UNL     1     -25.206  16.904  11.875  1.00 20.00     0.005 C 
HETATM    6  C6  UNL     1     -23.598  18.626  12.280  1.00 20.00     0.010 C 
HETATM    7  C7  UNL     1     -23.139  17.889  11.025  1.00 20.00    -0.007 C 
HETATM    8  C8  UNL     1     -25.105  18.401  12.203  1.00 20.00    -0.007 C 
HETATM    9  O9  UNL     1     -25.598  19.214   8.689  1.00 20.00    -0.298 OA
ENDROOT
TORSDOF 0
ENDMDL
MODEL 5
REMARK VINA RESULT:      -3.8      8.713     10.071
REMARK  0 active torsions:
REMARK  status: ('A' for Active; 'I' for Inactive)
ROOT
HETATM    1  C1  UNL     1     -43.115   4.877   0.933  1.00 20.00     0.127 C 
HETATM    2  C2  UNL     1     -43.022   5.127  -0.561  1.00 20.00     0.082 C 
HETATM    3  C3  UNL     1     -43.210   6.087   1.845  1.00 20.00     0.082 C 
HETATM    4  C4  UNL     1     -40.838   6.395  -0.324  1.00 20.00     0.005 C 
HETATM    5  C5  UNL     1     -40.948   6.961   1.098  1.00 20.00     0.005 C 
HETATM    6  C6  UNL     1     -42.900   7.589  -0.132  1.00 20.00     0.010 C 
HETATM    7  C7  UNL     1     -42.268   6.422  -0.885  1.00 20.00    -0.007 C 
HETATM    8  C8  UNL     1     -42.437   7.289   1.291  1.00 20.00    -0.007 C 
HETATM    9  O9  UNL     1     -43.218   3.735   1.381  1.00 20.00    -0.298 OA
ENDROOT
TORSDOF 0
ENDMDL
MODEL 6
REMARK VINA RESULT:      -3.8     15.623     16.765
REMARK  0 active torsions:
REMARK  status: ('A' for Active; 'I' for Inactive)
ROOT
HETATM    1  C1  UNL     1     -23.377  18.401   9.537  1.00 20.00     0.127 C 
HETATM    2  C2  UNL     1     -22.322  18.266  10.619  1.00 20.00     0.082 C 
HETATM    3  C3  UNL     1     -24.730  18.959   9.937  1.00 20.00     0.082 C 
HETATM    4  C4  UNL     1     -23.739  16.635  11.949  1.00 20.00     0.005 C 
HETATM    5  C5  UNL     1     -25.162  17.044  11.545  1.00 20.00     0.005 C 
HETATM    6  C6  UNL     1     -24.001  18.981  12.331  1.00 20.00     0.010 C 
HETATM    7  C7  UNL     1     -22.936  17.944  11.987  1.00 20.00    -0.007 C 
HETATM    8  C8  UNL     1     -25.113  18.569  11.370  1.00 20.00    -0.007 C 
HETATM    9  O9  UNL     1     -23.110  18.169   8.357  1.00 20.00    -0.298 OA
ENDROOT
TORSDOF 0
ENDMDL
MODEL 7
REMARK VINA RESULT:      -3.8      1.475      2.402
REMARK  0 active torsions:
REMARK  status: ('A' for Active; 'I' for Inactive)
ROOT
HETATM    1  C1  UNL     1     -33.662   6.924   6.116  1.00 20.00     0.127 C 
HETATM    2  C2  UNL     1     -34.614   5.795   6.464  1.00 20.00     0.082 C 
HETATM    3  C3  UNL     1     -33.855   7.624   4.783  1.00 20.00     0.082 C 
HETATM    4  C4  UNL     1     -33.871   4.410   4.472  1.00 20.00     0.005 C 
HETATM    5  C5  UNL     1     -33.422   5.491   3.480  1.00 20.00     0.005 C 
HETATM    6  C6  UNL     1     -35.650   5.983   4.194  1.00 20.00     0.010 C 
HETATM    7  C7  UNL     1     -35.066   5.018   5.222  1.00 20.00    -0.007 C 
HETATM    8  C8  UNL     1     -34.379   6.671   3.702  1.00 20.00    -0.007 C 
HETATM    9  O9  UNL     1     -32.832   7.330   6.931  1.00 20.00    -0.298 OA
ENDROOT
TORSDOF 0
ENDMDL
MODEL 8
REMARK VINA RESULT:      -3.7      8.923     10.116
REMARK  0 active torsions:
REMARK  status: ('A' for Active; 'I' for Inactive)
ROOT
HETATM    1  C1  UNL     1     -42.820   8.007  -0.003  1.00 20.00     0.127 C 
HETATM    2  C2  UNL     1     -41.481   7.579  -0.573  1.00 20.00     0.082 C 
HETATM    3  C3  UNL     1     -43.334   7.270   1.220  1.00 20.00     0.082 C 
HETATM    4  C4  UNL     1     -42.321   5.238  -1.076  1.00 20.00     0.005 C 
HETATM    5  C5  UNL     1     -43.417   5.056  -0.017  1.00 20.00     0.005 C 
HETATM    6  C6  UNL     1     -41.391   5.700   1.078  1.00 20.00     0.010 C 
HETATM    7  C7  UNL     1     -41.230   6.076  -0.392  1.00 20.00    -0.007 C 
HETATM    8  C8  UNL     1     -42.906   5.798   1.228  1.00 20.00    -0.007 C 
HETATM    9  O9  UNL     1     -43.417   8.988  -0.450  1.00 20.00    -0.298 OA
ENDROOT
TORSDOF 0
ENDMDL
MODEL 9
REMARK VINA RESULT:      -3.7     15.812     16.670
REMARK  0 active torsions:
REMARK  status: ('A' for Active; 'I' for Inactive)
ROOT
HETATM    1  C1  UNL     1     -25.643  18.529  11.344  1.00 20.00     0.127 C 
HETATM    2  C2  UNL     1     -25.319  17.202  12.005  1.00 20.00     0.082 C 
HETATM    3  C3  UNL     1     -24.939  18.859  10.041  1.00 20.00     0.082 C 
HETATM    4  C4  UNL     1     -22.876  17.821  12.298  1.00 20.00     0.005 C 
HETATM    5  C5  UNL     1     -22.652  18.801  11.138  1.00 20.00     0.005 C 
HETATM    6  C6  UNL     1     -23.572  16.774  10.264  1.00 20.00     0.010 C 
HETATM    7  C7  UNL     1     -23.866  16.776  11.762  1.00 20.00    -0.007 C 
HETATM    8  C8  UNL     1     -23.522  18.274   9.987  1.00 20.00    -0.007 C 
HETATM    9  O9  UNL     1     -26.525  19.263  11.792  1.00 20.00    -0.298 OA
ENDROOT
TORSDOF 0
ENDMDL
