MODEL 1
REMARK VINA RESULT:      -4.0      0.000      0.000
REMARK  2 active torsions:
REMARK  status: ('A' for Active; 'I' for Inactive)
REMARK    1  A    between atoms: C8_8  and  C9_9 
REMARK    2  A    between atoms: C8_8  and  O10_10 
ROOT
HETATM    1  C1  UNL     1     -32.196   7.999   1.652  1.00 20.00     0.012 C 
HETATM    2  C2  UNL     1     -32.278   7.693   2.810  1.00 20.00    -0.115 C 
HETATM    3  C9  UNL     1     -32.364   7.318   4.222  1.00 20.00     0.130 C 
ENDROOT
BRANCH   3   4
HETATM    4  C8  UNL     1     -33.796   7.476   4.745  1.00 20.00     0.068 C 
HETATM    5  C6  UNL     1     -33.854   7.347   6.276  1.00 20.00     0.038 C 
HETATM    6  C4  UNL     1     -33.651   5.916   6.763  1.00 20.00     0.003 C 
HETATM    7  C3  UNL     1     -34.618   4.949   6.087  1.00 20.00     0.000 C 
HETATM    8  C5  UNL     1     -34.549   5.041   4.565  1.00 20.00     0.003 C 
HETATM    9  C7  UNL     1     -34.754   6.474   4.080  1.00 20.00     0.038 C 
BRANCH   4  10
HETATM   10  O10 UNL     1     -34.207   8.800   4.387  1.00 20.00    -0.389 OA
HETATM   11  H24 UNL     1     -34.974   9.005   4.942  1.00 20.00     0.210 HD
ENDBRANCH   4  10
ENDBRANCH   3   4
TORSDOF 2
ENDMDL
MODEL 2
REMARK VINA RESULT:      -3.8      9.990     10.940
REMARK  2 active torsions:
REMARK  status: ('A' for Active; 'I' for Inactive)
REMARK    1  A    between atoms: C8_8  and  C9_9 
REMARK    2  A    between atoms: C8_8  and  O10_10 
ROOT
HETATM    1  C1  UNL     1     -39.055  11.776   4.981  1.00 20.00     0.012 C 
HETATM    2  C2  UNL     1     -40.006  12.500   5.100  1.00 20.00    -0.115 C 
HETATM    3  C9  UNL     1     -41.164  13.385   5.231  1.00 20.00     0.130 C 
ENDROOT
BRANCH   3   4
HETATM    4  C8  UNL     1     -41.690  13.389   6.670  1.00 20.00     0.068 C 
HETATM    5  C6  UNL     1     -42.991  14.200   6.793  1.00 20.00     0.038 C 
HETATM    6  C4  UNL     1     -42.768  15.706   6.687  1.00 20.00     0.003 C 
HETATM    7  C3  UNL     1     -41.717  16.190   7.681  1.00 20.00     0.000 C 
HETATM    8  C5  UNL     1     -40.407  15.416   7.551  1.00 20.00     0.003 C 
HETATM    9  C7  UNL     1     -40.632  13.909   7.657  1.00 20.00     0.038 C 
BRANCH   4  10
HETATM   10  O10 UNL     1     -41.977  12.024   6.994  1.00 20.00    -0.389 OA
HETATM   11  H24 UNL     1     -41.309  11.753   7.642  1.00 20.00     0.210 HD
ENDBRANCH   4  10
ENDBRANCH   3   4
TORSDOF 2
ENDMDL
MODEL 3
REMARK VINA RESULT:      -3.8     12.025     13.285
REMARK  2 active torsions:
REMARK  status: ('A' for Active; 'I' for Inactive)
REMARK    1  A    between atoms: C8_8  and  C9_9 
REMARK    2  A    between atoms: C8_8  and  O10_10 
ROOT
HETATM    1  C1  UNL     1     -31.040  18.521   0.187  1.00 20.00     0.012 C 
HETATM    2  C2  UNL     1     -31.708  18.716  -0.791  1.00 20.00    -0.115 C 
HETATM    3  C9  UNL     1     -32.511  18.962  -1.990  1.00 20.00     0.130 C 
ENDROOT
BRANCH   3   4
HETATM    4  C8  UNL     1     -33.841  18.203  -1.924  1.00 20.00     0.068 C 
HETATM    5  C6  UNL     1     -33.624  16.682  -1.971  1.00 20.00     0.038 C 
HETATM    6  C4  UNL     1     -33.209  16.180  -3.351  1.00 20.00     0.003 C 
HETATM    7  C3  UNL     1     -34.185  16.636  -4.432  1.00 20.00     0.000 C 
HETATM    8  C5  UNL     1     -34.386  18.149  -4.420  1.00 20.00     0.003 C 
HETATM    9  C7  UNL     1     -34.802  18.649  -3.038  1.00 20.00     0.038 C 
BRANCH   4  10
HETATM   10  O10 UNL     1     -34.428  18.538  -0.662  1.00 20.00    -0.389 OA
HETATM   11  H24 UNL     1     -35.370  18.327  -0.737  1.00 20.00     0.210 HD
ENDBRANCH   4  10
ENDBRANCH   3   4
TORSDOF 2
ENDMDL
MODEL 4
REMARK VINA RESULT:      -3.8      1.444      2.196
REMARK  2 active torsions:
REMARK  status: ('A' for Active; 'I' for Inactive)
REMARK    1  A    between atoms: C8_8  and  C9_9 
REMARK    2  A    between atoms: C8_8  and  O10_10 
ROOT
HETATM    1  C1  UNL     1     -32.736   9.502   1.554  1.00 20.00     0.012 C 
HETATM    2  C2  UNL     1     -33.199   9.128   2.596  1.00 20.00    -0.115 C 
HETATM    3  C9  UNL     1     -33.774   8.680   3.866  1.00 20.00     0.130 C 
ENDROOT
BRANCH   3   4
HETATM    4  C8  UNL     1     -32.886   7.621   4.527  1.00 20.00     0.068 C 
HETATM    5  C6  UNL     1     -32.647   6.423   3.592  1.00 20.00     0.038 C 
HETATM    6  C4  UNL     1     -33.879   5.537   3.431  1.00 20.00     0.003 C 
HETATM    7  C3  UNL     1     -34.430   5.088   4.782  1.00 20.00     0.000 C 
HETATM    8  C5  UNL     1     -34.702   6.268   5.710  1.00 20.00     0.003 C 
HETATM    9  C7  UNL     1     -33.468   7.153   5.870  1.00 20.00     0.038 C 
BRANCH   4  10
HETATM   10  O10 UNL     1     -31.627   8.256   4.777  1.00 20.00    -0.389 OA
HETATM   11  H24 UNL     1     -31.740   9.186   4.533  1.00 20.00     0.210 HD
ENDBRANCH   4  10
ENDBRANCH   3   4
TORSDOF 2
ENDMDL
MODEL 5
REMARK VINA RESULT:      -3.8     11.986     13.280
REMARK  2 active torsions:
REMARK  status: ('A' for Active; 'I' for Inactive)
REMARK    1  A    between atoms: C8_8  and  C9_9 
REMARK    2  A    between atoms: C8_8  and  O10_10 
ROOT
HETATM    1  C1  UNL     1     -33.331  16.853  -1.955  1.00 20.00     0.012 C 
HETATM    2  C2  UNL     1     -33.612  16.791  -3.121  1.00 20.00    -0.115 C 
HETATM    3  C9  UNL     1     -33.958  16.728  -4.542  1.00 20.00     0.130 C 
ENDROOT
BRANCH   3   4
HETATM    4  C8  UNL     1     -33.721  15.322  -5.102  1.00 20.00     0.068 C 
HETATM    5  C6  UNL     1     -33.703  15.324  -6.640  1.00 20.00     0.038 C 
HETATM    6  C4  UNL     1     -35.086  15.522  -7.254  1.00 20.00     0.003 C 
HETATM    7  C3  UNL     1     -36.092  14.511  -6.712  1.00 20.00     0.000 C 
HETATM    8  C5  UNL     1     -36.146  14.519  -5.186  1.00 20.00     0.003 C 
HETATM    9  C7  UNL     1     -34.762  14.320  -4.574  1.00 20.00     0.038 C 
BRANCH   4  10
HETATM   10  O10 UNL     1     -32.429  14.919  -4.636  1.00 20.00    -0.389 OA
HETATM   11  H24 UNL     1     -32.262  14.046  -5.020  1.00 20.00     0.210 HD
ENDBRANCH   4  10
ENDBRANCH   3   4
TORSDOF 2
ENDMDL
MODEL 6
REMARK VINA RESULT:      -3.8      9.318     10.087
REMARK  2 active torsions:
REMARK  status: ('A' for Active; 'I' for Inactive)
REMARK    1  A    between atoms: C8_8  and  C9_9 
REMARK    2  A    between atoms: C8_8  and  O10_10 
ROOT
HETATM    1  C1  UNL     1     -38.846  11.710   4.016  1.00 20.00     0.012 C 
HETATM    2  C2  UNL     1     -39.601  11.844   4.940  1.00 20.00    -0.115 C 
HETATM    3  C9  UNL     1     -40.518  11.995   6.071  1.00 20.00     0.130 C 
ENDROOT
BRANCH   3   4
HETATM    4  C8  UNL     1     -41.263  13.332   5.997  1.00 20.00     0.068 C 
HETATM    5  C6  UNL     1     -40.519  14.435   6.768  1.00 20.00     0.038 C 
HETATM    6  C4  UNL     1     -40.611  14.271   8.282  1.00 20.00     0.003 C 
HETATM    7  C3  UNL     1     -42.058  14.148   8.749  1.00 20.00     0.000 C 
HETATM    8  C5  UNL     1     -42.802  13.034   8.016  1.00 20.00     0.003 C 
HETATM    9  C7  UNL     1     -42.710  13.200   6.501  1.00 20.00     0.038 C 
BRANCH   4  10
HETATM   10  O10 UNL     1     -41.298  13.692   4.613  1.00 20.00    -0.389 OA
HETATM   11  H24 UNL     1     -40.435  13.450   4.247  1.00 20.00     0.210 HD
ENDBRANCH   4  10
ENDBRANCH   3   4
TORSDOF 2
ENDMDL
MODEL 7
REMARK VINA RESULT:      -3.7     15.581     16.589
REMARK  2 active torsions:
REMARK  status: ('A' for Active; 'I' for Inactive)
REMARK    1  A    between atoms: C8_8  and  C9_9 
REMARK    2  A    between atoms: C8_8  and  O10_10 
ROOT
HETATM    1  C1  UNL     1     -25.375  19.217   7.595  1.00 20.00     0.012 C 
HETATM    2  C2  UNL     1     -24.288  19.232   8.104  1.00 20.00    -0.115 C 
HETATM    3  C9  UNL     1     -22.961  19.263   8.721  1.00 20.00     0.130 C 
ENDROOT
BRANCH   3   4
HETATM    4  C8  UNL     1     -22.618  17.909   9.351  1.00 20.00     0.068 C 
HETATM    5  C6  UNL     1     -23.793  17.356  10.174  1.00 20.00     0.038 C 
HETATM    6  C4  UNL     1     -24.008  18.106  11.486  1.00 20.00     0.003 C 
HETATM    7  C3  UNL     1     -22.729  18.167  12.315  1.00 20.00     0.000 C 
HETATM    8  C5  UNL     1     -21.559  18.744  11.522  1.00 20.00     0.003 C 
HETATM    9  C7  UNL     1     -21.345  17.992  10.210  1.00 20.00     0.038 C 
BRANCH   4  10
HETATM   10  O10 UNL     1     -22.369  17.014   8.262  1.00 20.00    -0.389 OA
HETATM   11  H24 UNL     1     -22.846  16.197   8.467  1.00 20.00     0.210 HD
ENDBRANCH   4  10
ENDBRANCH   3   4
TORSDOF 2
ENDMDL
MODEL 8
REMARK VINA RESULT:      -3.7      1.792      2.925
REMARK  2 active torsions:
REMARK  status: ('A' for Active; 'I' for Inactive)
REMARK    1  A    between atoms: C8_8  and  C9_9 
REMARK    2  A    between atoms: C8_8  and  O10_10 
ROOT
HETATM    1  C1  UNL     1     -32.870   5.020   1.970  1.00 20.00     0.012 C 
HETATM    2  C2  UNL     1     -33.367   4.886   3.054  1.00 20.00    -0.115 C 
HETATM    3  C9  UNL     1     -33.967   4.709   4.378  1.00 20.00     0.130 C 
ENDROOT
BRANCH   3   4
HETATM    4  C8  UNL     1     -34.837   5.913   4.750  1.00 20.00     0.068 C 
HETATM    5  C6  UNL     1     -34.410   7.176   3.984  1.00 20.00     0.038 C 
HETATM    6  C4  UNL     1     -33.090   7.758   4.482  1.00 20.00     0.003 C 
HETATM    7  C3  UNL     1     -33.116   8.004   5.988  1.00 20.00     0.000 C 
HETATM    8  C5  UNL     1     -33.507   6.750   6.765  1.00 20.00     0.003 C 
HETATM    9  C7  UNL     1     -34.828   6.169   6.267  1.00 20.00     0.038 C 
BRANCH   4  10
HETATM   10  O10 UNL     1     -36.172   5.577   4.358  1.00 20.00    -0.389 OA
HETATM   11  H24 UNL     1     -36.651   5.372   5.174  1.00 20.00     0.210 HD
ENDBRANCH   4  10
ENDBRANCH   3   4
TORSDOF 2
ENDMDL
MODEL 9
REMARK VINA RESULT:      -3.6     12.155     14.076
REMARK  2 active torsions:
REMARK  status: ('A' for Active; 'I' for Inactive)
REMARK    1  A    between atoms: C8_8  and  C9_9 
REMARK    2  A    between atoms: C8_8  and  O10_10 
ROOT
HETATM    1  C1  UNL     1     -33.419  16.673  -2.276  1.00 20.00     0.012 C 
HETATM    2  C2  UNL     1     -33.470  16.070  -3.313  1.00 20.00    -0.115 C 
HETATM    3  C9  UNL     1     -33.520  15.330  -4.575  1.00 20.00     0.130 C 
ENDROOT
BRANCH   3   4
HETATM    4  C8  UNL     1     -34.874  15.515  -5.266  1.00 20.00     0.068 C 
HETATM    5  C6  UNL     1     -34.844  14.998  -6.714  1.00 20.00     0.038 C 
HETATM    6  C4  UNL     1     -34.048  15.900  -7.653  1.00 20.00     0.003 C 
HETATM    7  C3  UNL     1     -34.532  17.346  -7.589  1.00 20.00     0.000 C 
HETATM    8  C5  UNL     1     -34.538  17.885  -6.161  1.00 20.00     0.003 C 
HETATM    9  C7  UNL     1     -35.335  16.981  -5.223  1.00 20.00     0.038 C 
BRANCH   4  10
HETATM   10  O10 UNL     1     -35.811  14.726  -4.525  1.00 20.00    -0.389 OA
HETATM   11  H24 UNL     1     -36.466  15.345  -4.170  1.00 20.00     0.210 HD
ENDBRANCH   4  10
ENDBRANCH   3   4
TORSDOF 2
ENDMDL
