MODEL 1
REMARK VINA RESULT:      -4.4      0.000      0.000
REMARK  0 active torsions:
REMARK  status: ('A' for Active; 'I' for Inactive)
ROOT
HETATM    1  C1  UNL     1     -34.834   5.918   6.129  1.00 20.00     0.029 C 
HETATM    2  C2  UNL     1     -33.649   6.870   6.278  1.00 20.00     0.044 C 
HETATM    3  C3  UNL     1     -34.554   4.878   5.048  1.00 20.00     0.167 C 
HETATM    4  C4  UNL     1     -33.091   6.326   3.861  1.00 20.00     0.207 C 
HETATM    5  C5  UNL     1     -32.489   8.677   4.804  1.00 20.00     0.209 A 
HETATM    6  C6  UNL     1     -33.226   7.366   4.929  1.00 20.00     0.103 A 
HETATM    7  O7  UNL     1     -34.271   5.519   3.801  1.00 20.00    -0.388 OA
HETATM    8  O8  UNL     1     -33.890   8.564   4.505  1.00 20.00    -0.373 OA
ENDROOT
TORSDOF 0
ENDMDL
MODEL 2
REMARK VINA RESULT:      -4.0      0.960      3.325
REMARK  0 active torsions:
REMARK  status: ('A' for Active; 'I' for Inactive)
ROOT
HETATM    1  C1  UNL     1     -32.703   7.930   3.434  1.00 20.00     0.029 C 
HETATM    2  C2  UNL     1     -32.909   6.443   3.713  1.00 20.00     0.044 C 
HETATM    3  C3  UNL     1     -32.495   8.697   4.736  1.00 20.00     0.167 C 
HETATM    4  C4  UNL     1     -33.766   7.137   6.001  1.00 20.00     0.207 C 
HETATM    5  C5  UNL     1     -34.714   4.982   4.891  1.00 20.00     0.209 A 
HETATM    6  C6  UNL     1     -33.933   6.269   4.793  1.00 20.00     0.103 A 
HETATM    7  O7  UNL     1     -33.610   8.506   5.611  1.00 20.00    -0.388 OA
HETATM    8  O8  UNL     1     -35.282   6.171   4.319  1.00 20.00    -0.373 OA
ENDROOT
TORSDOF 0
ENDMDL
MODEL 3
REMARK VINA RESULT:      -3.9      1.492      2.825
REMARK  0 active torsions:
REMARK  status: ('A' for Active; 'I' for Inactive)
ROOT
HETATM    1  C1  UNL     1     -32.305   8.366   4.466  1.00 20.00     0.029 C 
HETATM    2  C2  UNL     1     -33.596   8.173   5.257  1.00 20.00     0.044 C 
HETATM    3  C3  UNL     1     -32.386   7.644   3.124  1.00 20.00     0.167 C 
HETATM    4  C4  UNL     1     -33.908   6.018   3.951  1.00 20.00     0.207 C 
HETATM    5  C5  UNL     1     -34.838   6.176   6.377  1.00 20.00     0.209 A 
HETATM    6  C6  UNL     1     -33.970   6.722   5.270  1.00 20.00     0.103 A 
HETATM    7  O7  UNL     1     -32.644   6.251   3.322  1.00 20.00    -0.388 OA
HETATM    8  O8  UNL     1     -33.415   5.978   6.362  1.00 20.00    -0.373 OA
ENDROOT
TORSDOF 0
ENDMDL
MODEL 4
REMARK VINA RESULT:      -3.7      1.540      2.047
REMARK  0 active torsions:
REMARK  status: ('A' for Active; 'I' for Inactive)
ROOT
HETATM    1  C1  UNL     1     -34.469   5.040   4.772  1.00 20.00     0.029 C 
HETATM    2  C2  UNL     1     -34.465   6.292   3.898  1.00 20.00     0.044 C 
HETATM    3  C3  UNL     1     -34.682   5.409   6.237  1.00 20.00     0.167 C 
HETATM    4  C4  UNL     1     -33.708   7.559   5.964  1.00 20.00     0.207 C 
HETATM    5  C5  UNL     1     -32.944   8.387   3.617  1.00 20.00     0.209 A 
HETATM    6  C6  UNL     1     -33.555   7.322   4.494  1.00 20.00     0.103 A 
HETATM    7  O7  UNL     1     -33.667   6.318   6.675  1.00 20.00    -0.388 OA
HETATM    8  O8  UNL     1     -32.195   7.239   4.049  1.00 20.00    -0.373 OA
ENDROOT
TORSDOF 0
ENDMDL
MODEL 5
REMARK VINA RESULT:      -3.6      1.440      2.582
REMARK  0 active torsions:
REMARK  status: ('A' for Active; 'I' for Inactive)
ROOT
HETATM    1  C1  UNL     1     -32.262   7.285   3.356  1.00 20.00     0.029 C 
HETATM    2  C2  UNL     1     -33.241   7.888   4.361  1.00 20.00     0.044 C 
HETATM    3  C3  UNL     1     -32.914   6.132   2.598  1.00 20.00     0.167 C 
HETATM    4  C4  UNL     1     -34.384   5.621   4.394  1.00 20.00     0.207 C 
HETATM    5  C5  UNL     1     -34.431   7.096   6.538  1.00 20.00     0.209 A 
HETATM    6  C6  UNL     1     -33.875   6.796   5.168  1.00 20.00     0.103 A 
HETATM    7  O7  UNL     1     -33.370   5.130   3.511  1.00 20.00    -0.388 OA
HETATM    8  O8  UNL     1     -33.160   6.451   6.361  1.00 20.00    -0.373 OA
ENDROOT
TORSDOF 0
ENDMDL
MODEL 6
REMARK VINA RESULT:      -3.6      1.192      2.676
REMARK  0 active torsions:
REMARK  status: ('A' for Active; 'I' for Inactive)
ROOT
HETATM    1  C1  UNL     1     -34.624   5.506   6.143  1.00 20.00     0.029 C 
HETATM    2  C2  UNL     1     -34.854   5.342   4.642  1.00 20.00     0.044 C 
HETATM    3  C3  UNL     1     -34.244   6.946   6.473  1.00 20.00     0.167 C 
HETATM    4  C4  UNL     1     -33.285   7.314   4.330  1.00 20.00     0.207 C 
HETATM    5  C5  UNL     1     -33.396   5.478   2.488  1.00 20.00     0.209 A 
HETATM    6  C6  UNL     1     -33.712   5.950   3.886  1.00 20.00     0.103 A 
HETATM    7  O7  UNL     1     -33.074   7.332   5.746  1.00 20.00    -0.388 OA
HETATM    8  O8  UNL     1     -32.629   5.048   3.625  1.00 20.00    -0.373 OA
ENDROOT
TORSDOF 0
ENDMDL
MODEL 7
REMARK VINA RESULT:      -3.5     15.908     16.760
REMARK  0 active torsions:
REMARK  status: ('A' for Active; 'I' for Inactive)
ROOT
HETATM    1  C1  UNL     1     -24.288  18.507   9.642  1.00 20.00     0.029 C 
HETATM    2  C2  UNL     1     -23.448  18.962   8.451  1.00 20.00     0.044 C 
HETATM    3  C3  UNL     1     -23.495  18.635  10.939  1.00 20.00     0.167 C 
HETATM    4  C4  UNL     1     -21.410  18.346   9.836  1.00 20.00     0.207 C 
HETATM    5  C5  UNL     1     -21.293  18.138   7.244  1.00 20.00     0.209 A 
HETATM    6  C6  UNL     1     -22.098  18.313   8.507  1.00 20.00     0.103 A 
HETATM    7  O7  UNL     1     -22.287  17.871  10.862  1.00 20.00    -0.388 OA
HETATM    8  O8  UNL     1     -22.021  17.050   7.834  1.00 20.00    -0.373 OA
ENDROOT
TORSDOF 0
ENDMDL
MODEL 8
REMARK VINA RESULT:      -3.4     15.840     16.800
REMARK  0 active torsions:
REMARK  status: ('A' for Active; 'I' for Inactive)
ROOT
HETATM    1  C1  UNL     1     -23.219  19.058   9.614  1.00 20.00     0.029 C 
HETATM    2  C2  UNL     1     -24.426  18.215  10.020  1.00 20.00     0.044 C 
HETATM    3  C3  UNL     1     -21.949  18.528  10.271  1.00 20.00     0.167 C 
HETATM    4  C4  UNL     1     -23.135  17.639  12.129  1.00 20.00     0.207 C 
HETATM    5  C5  UNL     1     -25.735  17.738  12.220  1.00 20.00     0.209 A 
HETATM    6  C6  UNL     1     -24.438  18.032  11.507  1.00 20.00     0.103 A 
HETATM    7  O7  UNL     1     -22.092  18.517  11.695  1.00 20.00    -0.388 OA
HETATM    8  O8  UNL     1     -25.150  19.050  12.222  1.00 20.00    -0.373 OA
ENDROOT
TORSDOF 0
ENDMDL
MODEL 9
REMARK VINA RESULT:      -3.4     15.487     16.039
REMARK  0 active torsions:
REMARK  status: ('A' for Active; 'I' for Inactive)
ROOT
HETATM    1  C1  UNL     1     -24.198  16.595  11.797  1.00 20.00     0.029 C 
HETATM    2  C2  UNL     1     -23.850  16.871  10.336  1.00 20.00     0.044 C 
HETATM    3  C3  UNL     1     -25.494  17.302  12.182  1.00 20.00     0.167 C 
HETATM    4  C4  UNL     1     -25.178  19.022  10.574  1.00 20.00     0.207 C 
HETATM    5  C5  UNL     1     -23.166  18.949   8.924  1.00 20.00     0.209 A 
HETATM    6  C6  UNL     1     -23.948  18.340  10.061  1.00 20.00     0.103 A 
HETATM    7  O7  UNL     1     -25.380  18.710  11.956  1.00 20.00    -0.388 OA
HETATM    8  O8  UNL     1     -22.733  19.067  10.289  1.00 20.00    -0.373 OA
ENDROOT
TORSDOF 0
ENDMDL
