MODEL 1
REMARK VINA RESULT:      -3.3      0.000      0.000
REMARK  1 active torsions:
REMARK  status: ('A' for Active; 'I' for Inactive)
REMARK    1  A    between atoms: N5_5  and  N6_6 
ROOT
HETATM    1  C1  UNL     1     -33.962   6.802   5.747  1.00 20.00     0.101 C 
HETATM    2  C2  UNL     1     -34.643   5.686   6.475  1.00 20.00     0.058 C 
HETATM    3  N5  UNL     1     -33.747   6.721   4.476  1.00 20.00    -0.217 NA
ENDROOT
BRANCH   3   4
HETATM    4  N6  UNL     1     -33.114   7.817   3.981  1.00 20.00    -0.217 NA
HETATM    5  C3  UNL     1     -32.150   7.508   2.923  1.00 20.00     0.138 C 
HETATM    6  C4  UNL     1     -32.460   8.665   4.987  1.00 20.00     0.138 C 
ENDBRANCH   3   4
TORSDOF 1
ENDMDL
MODEL 2
REMARK VINA RESULT:      -3.3      1.157      3.327
REMARK  1 active torsions:
REMARK  status: ('A' for Active; 'I' for Inactive)
REMARK    1  A    between atoms: N5_5  and  N6_6 
ROOT
HETATM    1  C1  UNL     1     -33.199   7.842   5.197  1.00 20.00     0.101 C 
HETATM    2  C2  UNL     1     -32.258   8.901   4.712  1.00 20.00     0.058 C 
HETATM    3  N5  UNL     1     -33.679   6.966   4.378  1.00 20.00    -0.217 NA
ENDROOT
BRANCH   3   4
HETATM    4  N6  UNL     1     -34.519   6.088   4.986  1.00 20.00    -0.217 NA
HETATM    5  C3  UNL     1     -34.492   6.169   6.448  1.00 20.00     0.138 C 
HETATM    6  C4  UNL     1     -34.349   4.685   4.584  1.00 20.00     0.138 C 
ENDBRANCH   3   4
TORSDOF 1
ENDMDL
MODEL 3
REMARK VINA RESULT:      -3.0      9.025      9.465
REMARK  1 active torsions:
REMARK  status: ('A' for Active; 'I' for Inactive)
REMARK    1  A    between atoms: N5_5  and  N6_6 
ROOT
HETATM    1  C1  UNL     1     -39.980  12.359   5.168  1.00 20.00     0.101 C 
HETATM    2  C2  UNL     1     -39.085  11.649   4.201  1.00 20.00     0.058 C 
HETATM    3  N5  UNL     1     -39.975  12.041   6.420  1.00 20.00    -0.217 NA
ENDROOT
BRANCH   3   4
HETATM    4  N6  UNL     1     -40.852  12.780   7.150  1.00 20.00    -0.217 NA
HETATM    5  C3  UNL     1     -42.252  12.562   6.778  1.00 20.00     0.138 C 
HETATM    6  C4  UNL     1     -40.585  14.224   7.168  1.00 20.00     0.138 C 
ENDBRANCH   3   4
TORSDOF 1
ENDMDL
MODEL 4
REMARK VINA RESULT:      -3.0      0.397      1.433
REMARK  1 active torsions:
REMARK  status: ('A' for Active; 'I' for Inactive)
REMARK    1  A    between atoms: N5_5  and  N6_6 
ROOT
HETATM    1  C1  UNL     1     -33.682   6.702   5.798  1.00 20.00     0.101 C 
HETATM    2  C2  UNL     1     -34.832   5.935   6.371  1.00 20.00     0.058 C 
HETATM    3  N5  UNL     1     -33.597   6.902   4.524  1.00 20.00    -0.217 NA
ENDROOT
BRANCH   3   4
HETATM    4  N6  UNL     1     -32.489   7.608   4.178  1.00 20.00    -0.217 NA
HETATM    5  C3  UNL     1     -32.430   8.939   4.788  1.00 20.00     0.138 C 
HETATM    6  C4  UNL     1     -32.258   7.737   2.734  1.00 20.00     0.138 C 
ENDBRANCH   3   4
TORSDOF 1
ENDMDL
MODEL 5
REMARK VINA RESULT:      -2.8      1.402      2.657
REMARK  1 active torsions:
REMARK  status: ('A' for Active; 'I' for Inactive)
REMARK    1  A    between atoms: N5_5  and  N6_6 
ROOT
HETATM    1  C1  UNL     1     -33.036   6.172   3.431  1.00 20.00     0.101 C 
HETATM    2  C2  UNL     1     -32.895   5.081   2.417  1.00 20.00     0.058 C 
HETATM    3  N5  UNL     1     -34.038   6.183   4.247  1.00 20.00    -0.217 NA
ENDROOT
BRANCH   3   4
HETATM    4  N6  UNL     1     -34.011   7.247   5.093  1.00 20.00    -0.217 NA
HETATM    5  C3  UNL     1     -32.838   8.106   4.916  1.00 20.00     0.138 C 
HETATM    6  C4  UNL     1     -34.146   6.913   6.517  1.00 20.00     0.138 C 
ENDBRANCH   3   4
TORSDOF 1
ENDMDL
MODEL 6
REMARK VINA RESULT:      -2.6     15.639     16.484
REMARK  1 active torsions:
REMARK  status: ('A' for Active; 'I' for Inactive)
REMARK    1  A    between atoms: N5_5  and  N6_6 
ROOT
HETATM    1  C1  UNL     1     -22.425  17.702   9.143  1.00 20.00     0.101 C 
HETATM    2  C2  UNL     1     -21.653  17.796   7.864  1.00 20.00     0.058 C 
HETATM    3  N5  UNL     1     -22.437  18.690   9.976  1.00 20.00    -0.217 NA
ENDROOT
BRANCH   3   4
HETATM    4  N6  UNL     1     -23.180  18.430  11.083  1.00 20.00    -0.217 NA
HETATM    5  C3  UNL     1     -22.418  18.513  12.332  1.00 20.00     0.138 C 
HETATM    6  C4  UNL     1     -23.912  17.157  11.058  1.00 20.00     0.138 C 
ENDBRANCH   3   4
TORSDOF 1
ENDMDL
MODEL 7
REMARK VINA RESULT:      -2.6      9.636      9.979
REMARK  1 active torsions:
REMARK  status: ('A' for Active; 'I' for Inactive)
REMARK    1  A    between atoms: N5_5  and  N6_6 
ROOT
HETATM    1  C1  UNL     1     -40.552  14.484   7.742  1.00 20.00     0.101 C 
HETATM    2  C2  UNL     1     -40.253  15.380   8.904  1.00 20.00     0.058 C 
HETATM    3  N5  UNL     1     -40.189  13.244   7.760  1.00 20.00    -0.217 NA
ENDROOT
BRANCH   3   4
HETATM    4  N6  UNL     1     -40.534  12.582   6.624  1.00 20.00    -0.217 NA
HETATM    5  C3  UNL     1     -39.423  11.844   6.017  1.00 20.00     0.138 C 
HETATM    6  C4  UNL     1     -41.175  13.408   5.593  1.00 20.00     0.138 C 
ENDBRANCH   3   4
TORSDOF 1
ENDMDL
MODEL 8
REMARK VINA RESULT:      -2.6     15.132     15.932
REMARK  1 active torsions:
REMARK  status: ('A' for Active; 'I' for Inactive)
REMARK    1  A    between atoms: N5_5  and  N6_6 
ROOT
HETATM    1  C1  UNL     1     -23.962  17.189  10.870  1.00 20.00     0.101 C 
HETATM    2  C2  UNL     1     -24.497  16.124  11.776  1.00 20.00     0.058 C 
HETATM    3  N5  UNL     1     -22.943  17.899  11.225  1.00 20.00    -0.217 NA
ENDROOT
BRANCH   3   4
HETATM    4  N6  UNL     1     -22.597  18.821  10.288  1.00 20.00    -0.217 NA
HETATM    5  C3  UNL     1     -23.610  19.002   9.244  1.00 20.00     0.138 C 
HETATM    6  C4  UNL     1     -21.293  18.601   9.651  1.00 20.00     0.138 C 
ENDBRANCH   3   4
TORSDOF 1
ENDMDL
MODEL 9
REMARK VINA RESULT:      -2.6     12.377     12.969
REMARK  1 active torsions:
REMARK  status: ('A' for Active; 'I' for Inactive)
REMARK    1  A    between atoms: N5_5  and  N6_6 
ROOT
HETATM    1  C1  UNL     1     -33.601  15.671  -3.679  1.00 20.00     0.101 C 
HETATM    2  C2  UNL     1     -33.295  16.637  -2.577  1.00 20.00     0.058 C 
HETATM    3  N5  UNL     1     -34.316  16.036  -4.691  1.00 20.00    -0.217 NA
ENDROOT
BRANCH   3   4
HETATM    4  N6  UNL     1     -34.500  15.034  -5.590  1.00 20.00    -0.217 NA
HETATM    5  C3  UNL     1     -34.109  15.394  -6.955  1.00 20.00     0.138 C 
HETATM    6  C4  UNL     1     -35.852  14.462  -5.618  1.00 20.00     0.138 C 
ENDBRANCH   3   4
TORSDOF 1
ENDMDL
