MODEL 1
REMARK VINA RESULT:      -4.2      0.000      0.000
REMARK  0 active torsions:
REMARK  status: ('A' for Active; 'I' for Inactive)
ROOT
HETATM    1  C1  UNL     1     -34.911   5.411   4.573  1.00 20.00     0.029 C 
HETATM    2  C2  UNL     1     -33.637   6.026   3.996  1.00 20.00     0.044 C 
HETATM    3  C3  UNL     1     -34.816   5.308   6.093  1.00 20.00     0.167 C 
HETATM    4  C4  UNL     1     -33.330   7.156   6.247  1.00 20.00     0.207 C 
HETATM    5  C5  UNL     1     -32.444   8.337   4.103  1.00 20.00     0.209 A 
HETATM    6  C6  UNL     1     -33.283   7.266   4.756  1.00 20.00     0.103 A 
HETATM    7  O7  UNL     1     -34.580   6.596   6.665  1.00 20.00    -0.388 OA
HETATM    8  O8  UNL     1     -33.869   8.466   4.234  1.00 20.00    -0.373 OA
ENDROOT
TORSDOF 0
ENDMDL
MODEL 2
REMARK VINA RESULT:      -4.0      1.311      3.297
REMARK  0 active torsions:
REMARK  status: ('A' for Active; 'I' for Inactive)
ROOT
HETATM    1  C1  UNL     1     -33.426   8.464   5.449  1.00 20.00     0.029 C 
HETATM    2  C2  UNL     1     -33.736   7.046   5.924  1.00 20.00     0.044 C 
HETATM    3  C3  UNL     1     -32.364   8.444   4.354  1.00 20.00     0.167 C 
HETATM    4  C4  UNL     1     -32.976   6.265   3.631  1.00 20.00     0.207 C 
HETATM    5  C5  UNL     1     -34.802   4.906   4.894  1.00 20.00     0.209 A 
HETATM    6  C6  UNL     1     -33.972   6.157   4.742  1.00 20.00     0.103 A 
HETATM    7  O7  UNL     1     -32.794   7.634   3.258  1.00 20.00    -0.388 OA
HETATM    8  O8  UNL     1     -35.337   6.103   4.307  1.00 20.00    -0.373 OA
ENDROOT
TORSDOF 0
ENDMDL
MODEL 3
REMARK VINA RESULT:      -3.8      1.342      2.002
REMARK  0 active torsions:
REMARK  status: ('A' for Active; 'I' for Inactive)
ROOT
HETATM    1  C1  UNL     1     -34.103   6.801   6.529  1.00 20.00     0.029 C 
HETATM    2  C2  UNL     1     -34.000   7.965   5.546  1.00 20.00     0.044 C 
HETATM    3  C3  UNL     1     -34.685   5.569   5.843  1.00 20.00     0.167 C 
HETATM    4  C4  UNL     1     -33.863   6.217   3.710  1.00 20.00     0.207 C 
HETATM    5  C5  UNL     1     -32.642   8.494   3.388  1.00 20.00     0.209 A 
HETATM    6  C6  UNL     1     -33.349   7.502   4.279  1.00 20.00     0.103 A 
HETATM    7  O7  UNL     1     -33.884   5.201   4.717  1.00 20.00    -0.388 OA
HETATM    8  O8  UNL     1     -31.920   7.621   4.272  1.00 20.00    -0.373 OA
ENDROOT
TORSDOF 0
ENDMDL
MODEL 4
REMARK VINA RESULT:      -3.7      1.246      2.932
REMARK  0 active torsions:
REMARK  status: ('A' for Active; 'I' for Inactive)
ROOT
HETATM    1  C1  UNL     1     -32.901   5.756   3.146  1.00 20.00     0.029 C 
HETATM    2  C2  UNL     1     -34.161   5.738   4.009  1.00 20.00     0.044 C 
HETATM    3  C3  UNL     1     -32.436   7.189   2.905  1.00 20.00     0.167 C 
HETATM    4  C4  UNL     1     -33.385   7.969   4.939  1.00 20.00     0.207 C 
HETATM    5  C5  UNL     1     -34.777   6.376   6.457  1.00 20.00     0.209 A 
HETATM    6  C6  UNL     1     -33.967   6.617   5.206  1.00 20.00     0.103 A 
HETATM    7  O7  UNL     1     -32.197   7.851   4.149  1.00 20.00    -0.388 OA
HETATM    8  O8  UNL     1     -33.409   5.949   6.345  1.00 20.00    -0.373 OA
ENDROOT
TORSDOF 0
ENDMDL
MODEL 5
REMARK VINA RESULT:      -3.5     15.276     16.595
REMARK  0 active torsions:
REMARK  status: ('A' for Active; 'I' for Inactive)
ROOT
HETATM    1  C1  UNL     1     -22.529  17.572   9.642  1.00 20.00     0.029 C 
HETATM    2  C2  UNL     1     -23.982  17.566  10.110  1.00 20.00     0.044 C 
HETATM    3  C3  UNL     1     -21.719  18.605  10.420  1.00 20.00     0.167 C 
HETATM    4  C4  UNL     1     -23.123  18.447  12.330  1.00 20.00     0.207 C 
HETATM    5  C5  UNL     1     -25.254  16.952  12.298  1.00 20.00     0.209 A 
HETATM    6  C6  UNL     1     -24.032  17.506  11.606  1.00 20.00     0.103 A 
HETATM    7  O7  UNL     1     -21.789  18.340  11.823  1.00 20.00    -0.388 OA
HETATM    8  O8  UNL     1     -24.055  16.177  12.143  1.00 20.00    -0.373 OA
ENDROOT
TORSDOF 0
ENDMDL
MODEL 6
REMARK VINA RESULT:      -3.4     15.766     16.521
REMARK  0 active torsions:
REMARK  status: ('A' for Active; 'I' for Inactive)
ROOT
HETATM    1  C1  UNL     1     -22.678  18.039  11.988  1.00 20.00     0.029 C 
HETATM    2  C2  UNL     1     -21.924  18.513  10.747  1.00 20.00     0.044 C 
HETATM    3  C3  UNL     1     -24.149  18.437  11.906  1.00 20.00     0.167 C 
HETATM    4  C4  UNL     1     -24.149  18.415   9.529  1.00 20.00     0.207 C 
HETATM    5  C5  UNL     1     -21.955  17.969   8.201  1.00 20.00     0.209 A 
HETATM    6  C6  UNL     1     -22.681  18.125   9.515  1.00 20.00     0.103 A 
HETATM    7  O7  UNL     1     -24.745  17.898  10.723  1.00 20.00    -0.388 OA
HETATM    8  O8  UNL     1     -22.340  16.834   8.993  1.00 20.00    -0.373 OA
ENDROOT
TORSDOF 0
ENDMDL
MODEL 7
REMARK VINA RESULT:      -3.3      8.981     10.189
REMARK  0 active torsions:
REMARK  status: ('A' for Active; 'I' for Inactive)
ROOT
HETATM    1  C1  UNL     1     -41.014   7.857   0.468  1.00 20.00     0.029 C 
HETATM    2  C2  UNL     1     -41.053   6.337   0.616  1.00 20.00     0.044 C 
HETATM    3  C3  UNL     1     -41.980   8.314  -0.620  1.00 20.00     0.167 C 
HETATM    4  C4  UNL     1     -43.417   6.449  -0.300  1.00 20.00     0.207 C 
HETATM    5  C5  UNL     1     -42.797   4.562   1.383  1.00 20.00     0.209 A 
HETATM    6  C6  UNL     1     -42.473   5.873   0.708  1.00 20.00     0.103 A 
HETATM    7  O7  UNL     1     -43.308   7.876  -0.323  1.00 20.00    -0.388 OA
HETATM    8  O8  UNL     1     -42.994   5.823   2.043  1.00 20.00    -0.373 OA
ENDROOT
TORSDOF 0
ENDMDL
MODEL 8
REMARK VINA RESULT:      -3.3      9.199     10.368
REMARK  0 active torsions:
REMARK  status: ('A' for Active; 'I' for Inactive)
ROOT
HETATM    1  C1  UNL     1     -42.319   8.338  -0.417  1.00 20.00     0.029 C 
HETATM    2  C2  UNL     1     -43.137   7.201   0.193  1.00 20.00     0.044 C 
HETATM    3  C3  UNL     1     -40.830   8.119  -0.171  1.00 20.00     0.167 C 
HETATM    4  C4  UNL     1     -41.067   5.757  -0.077  1.00 20.00     0.207 C 
HETATM    5  C5  UNL     1     -43.417   4.647  -0.226  1.00 20.00     0.209 A 
HETATM    6  C6  UNL     1     -42.552   5.883  -0.211  1.00 20.00     0.103 A 
HETATM    7  O7  UNL     1     -40.415   6.862  -0.711  1.00 20.00    -0.388 OA
HETATM    8  O8  UNL     1     -43.081   5.351  -1.433  1.00 20.00    -0.373 OA
ENDROOT
TORSDOF 0
ENDMDL
MODEL 9
REMARK VINA RESULT:      -3.2     15.870     16.754
REMARK  0 active torsions:
REMARK  status: ('A' for Active; 'I' for Inactive)
ROOT
HETATM    1  C1  UNL     1     -24.646  17.449  10.898  1.00 20.00     0.029 C 
HETATM    2  C2  UNL     1     -23.418  17.086  10.065  1.00 20.00     0.044 C 
HETATM    3  C3  UNL     1     -24.240  17.796  12.327  1.00 20.00     0.167 C 
HETATM    4  C4  UNL     1     -22.078  18.529  11.666  1.00 20.00     0.207 C 
HETATM    5  C5  UNL     1     -21.301  18.323   9.190  1.00 20.00     0.209 A 
HETATM    6  C6  UNL     1     -22.353  18.121  10.253  1.00 20.00     0.103 A 
HETATM    7  O7  UNL     1     -23.299  18.872  12.330  1.00 20.00    -0.388 OA
HETATM    8  O8  UNL     1     -22.421  19.213   9.326  1.00 20.00    -0.373 OA
ENDROOT
TORSDOF 0
ENDMDL
