MODEL 1
REMARK VINA RESULT:      -3.5      0.000      0.000
REMARK  1 active torsions:
REMARK  status: ('A' for Active; 'I' for Inactive)
REMARK    1  A    between atoms: C1_1  and  C3_3 
ROOT
HETATM    1  C1  UNL     1     -33.725   7.630   4.918  1.00 20.00     0.181 A 
HETATM    2  C2  UNL     1     -32.370   7.743   4.280  1.00 20.00     0.247 A 
HETATM    3  O4  UNL     1     -32.996   8.864   4.916  1.00 20.00    -0.358 OA
HETATM    4 CL5  UNL     1     -32.225   7.732   2.544  1.00 20.00    -0.092 Cl
ENDROOT
BRANCH   1   5
HETATM    5  C3  UNL     1     -33.889   7.015   6.262  1.00 20.00     0.150 C 
HETATM    6 CL6  UNL     1     -34.734   5.444   6.159  1.00 20.00    -0.128 Cl
ENDBRANCH   1   5
TORSDOF 1
ENDMDL
MODEL 2
REMARK VINA RESULT:      -3.3      1.018      3.287
REMARK  1 active torsions:
REMARK  status: ('A' for Active; 'I' for Inactive)
REMARK    1  A    between atoms: C1_1  and  C3_3 
ROOT
HETATM    1  C1  UNL     1     -33.056   7.461   5.321  1.00 20.00     0.181 A 
HETATM    2  C2  UNL     1     -34.351   6.703   5.370  1.00 20.00     0.247 A 
HETATM    3  O4  UNL     1     -34.168   7.924   6.097  1.00 20.00    -0.358 OA
HETATM    4 CL5  UNL     1     -34.446   5.204   6.252  1.00 20.00    -0.092 Cl
ENDROOT
BRANCH   1   5
HETATM    5  C3  UNL     1     -32.716   8.322   4.158  1.00 20.00     0.150 C 
HETATM    6 CL6  UNL     1     -32.150   7.347   2.770  1.00 20.00    -0.128 Cl
ENDBRANCH   1   5
TORSDOF 1
ENDMDL
MODEL 3
REMARK VINA RESULT:      -3.3      1.634      3.270
REMARK  1 active torsions:
REMARK  status: ('A' for Active; 'I' for Inactive)
REMARK    1  A    between atoms: C1_1  and  C3_3 
ROOT
HETATM    1  C1  UNL     1     -33.343   7.139   5.558  1.00 20.00     0.181 A 
HETATM    2  C2  UNL     1     -34.592   6.379   5.215  1.00 20.00     0.247 A 
HETATM    3  O4  UNL     1     -34.386   6.933   6.520  1.00 20.00    -0.358 OA
HETATM    4 CL5  UNL     1     -34.527   4.649   5.014  1.00 20.00    -0.092 Cl
ENDROOT
BRANCH   1   5
HETATM    5  C3  UNL     1     -33.168   8.553   5.135  1.00 20.00     0.150 C 
HETATM    6 CL6  UNL     1     -32.539   8.659   3.466  1.00 20.00    -0.128 Cl
ENDBRANCH   1   5
TORSDOF 1
ENDMDL
MODEL 4
REMARK VINA RESULT:      -3.1      2.703      2.985
REMARK  1 active torsions:
REMARK  status: ('A' for Active; 'I' for Inactive)
REMARK    1  A    between atoms: C1_1  and  C3_3 
ROOT
HETATM    1  C1  UNL     1     -34.622   6.174   4.928  1.00 20.00     0.181 A 
HETATM    2  C2  UNL     1     -33.629   7.000   5.694  1.00 20.00     0.247 A 
HETATM    3  O4  UNL     1     -34.637   6.231   6.360  1.00 20.00    -0.358 OA
HETATM    4 CL5  UNL     1     -33.760   8.738   5.690  1.00 20.00    -0.092 Cl
ENDROOT
BRANCH   1   5
HETATM    5  C3  UNL     1     -34.246   4.849   4.369  1.00 20.00     0.150 C 
HETATM    6 CL6  UNL     1     -33.242   5.024   2.901  1.00 20.00    -0.128 Cl
ENDBRANCH   1   5
TORSDOF 1
ENDMDL
MODEL 5
REMARK VINA RESULT:      -3.1      1.763      1.806
REMARK  1 active torsions:
REMARK  status: ('A' for Active; 'I' for Inactive)
REMARK    1  A    between atoms: C1_1  and  C3_3 
ROOT
HETATM    1  C1  UNL     1     -34.331   6.884   5.042  1.00 20.00     0.181 A 
HETATM    2  C2  UNL     1     -33.011   7.522   5.367  1.00 20.00     0.247 A 
HETATM    3  O4  UNL     1     -34.194   7.818   6.120  1.00 20.00    -0.358 OA
HETATM    4 CL5  UNL     1     -32.355   8.745   4.314  1.00 20.00    -0.092 Cl
ENDROOT
BRANCH   1   5
HETATM    5  C3  UNL     1     -34.634   5.493   5.467  1.00 20.00     0.150 C 
HETATM    6 CL6  UNL     1     -34.030   4.303   4.278  1.00 20.00    -0.128 Cl
ENDBRANCH   1   5
TORSDOF 1
ENDMDL
MODEL 6
REMARK VINA RESULT:      -3.1      2.563      2.671
REMARK  1 active torsions:
REMARK  status: ('A' for Active; 'I' for Inactive)
REMARK    1  A    between atoms: C1_1  and  C3_3 
ROOT
HETATM    1  C1  UNL     1     -34.466   4.968   5.036  1.00 20.00     0.181 A 
HETATM    2  C2  UNL     1     -33.822   5.841   3.998  1.00 20.00     0.247 A 
HETATM    3  O4  UNL     1     -35.246   5.757   4.129  1.00 20.00    -0.358 OA
HETATM    4 CL5  UNL     1     -33.060   5.119   2.608  1.00 20.00    -0.092 Cl
ENDROOT
BRANCH   1   5
HETATM    5  C3  UNL     1     -34.549   5.400   6.455  1.00 20.00     0.150 C 
HETATM    6 CL6  UNL     1     -34.232   7.151   6.622  1.00 20.00    -0.128 Cl
ENDBRANCH   1   5
TORSDOF 1
ENDMDL
MODEL 7
REMARK VINA RESULT:      -3.1      1.503      3.110
REMARK  1 active torsions:
REMARK  status: ('A' for Active; 'I' for Inactive)
REMARK    1  A    between atoms: C1_1  and  C3_3 
ROOT
HETATM    1  C1  UNL     1     -32.818   7.333   4.291  1.00 20.00     0.181 A 
HETATM    2  C2  UNL     1     -34.160   7.027   4.891  1.00 20.00     0.247 A 
HETATM    3  O4  UNL     1     -33.831   8.338   4.415  1.00 20.00    -0.358 OA
HETATM    4 CL5  UNL     1     -34.303   6.765   6.608  1.00 20.00    -0.092 Cl
ENDROOT
BRANCH   1   5
HETATM    5  C3  UNL     1     -32.501   6.949   2.890  1.00 20.00     0.150 C 
HETATM    6 CL6  UNL     1     -32.819   5.214   2.603  1.00 20.00    -0.128 Cl
ENDBRANCH   1   5
TORSDOF 1
ENDMDL
MODEL 8
REMARK VINA RESULT:      -3.0      2.579      4.039
REMARK  1 active torsions:
REMARK  status: ('A' for Active; 'I' for Inactive)
REMARK    1  A    between atoms: C1_1  and  C3_3 
ROOT
HETATM    1  C1  UNL     1     -34.182   5.594   3.991  1.00 20.00     0.181 A 
HETATM    2  C2  UNL     1     -33.926   5.343   5.449  1.00 20.00     0.247 A 
HETATM    3  O4  UNL     1     -34.520   4.346   4.608  1.00 20.00    -0.358 OA
HETATM    4 CL5  UNL     1     -34.914   6.128   6.651  1.00 20.00    -0.092 Cl
ENDROOT
BRANCH   1   5
HETATM    5  C3  UNL     1     -33.082   5.510   2.995  1.00 20.00     0.150 C 
HETATM    6 CL6  UNL     1     -32.245   7.079   2.816  1.00 20.00    -0.128 Cl
ENDBRANCH   1   5
TORSDOF 1
ENDMDL
MODEL 9
REMARK VINA RESULT:      -3.0      1.659      1.712
REMARK  1 active torsions:
REMARK  status: ('A' for Active; 'I' for Inactive)
REMARK    1  A    between atoms: C1_1  and  C3_3 
ROOT
HETATM    1  C1  UNL     1     -33.312   6.964   5.697  1.00 20.00     0.181 A 
HETATM    2  C2  UNL     1     -33.430   8.216   4.876  1.00 20.00     0.247 A 
HETATM    3  O4  UNL     1     -33.208   6.938   4.268  1.00 20.00    -0.358 OA
HETATM    4 CL5  UNL     1     -32.135   9.382   4.882  1.00 20.00    -0.092 Cl
ENDROOT
BRANCH   1   5
HETATM    5  C3  UNL     1     -34.519   6.288   6.239  1.00 20.00     0.150 C 
HETATM    6 CL6  UNL     1     -35.088   4.995   5.143  1.00 20.00    -0.128 Cl
ENDBRANCH   1   5
TORSDOF 1
ENDMDL
