MODEL 1
REMARK VINA RESULT:      -4.8      0.000      0.000
REMARK  0 active torsions:
REMARK  status: ('A' for Active; 'I' for Inactive)
ROOT
HETATM    1  C1  UNL     1     -32.620   8.725   4.923  1.00 20.00     0.064 C 
HETATM    2  C2  UNL     1     -33.546   6.945   6.366  1.00 20.00     0.022 C 
HETATM    3  C3  UNL     1     -34.665   5.914   6.524  1.00 20.00     0.036 C 
HETATM    4  C4  UNL     1     -33.353   6.615   3.873  1.00 20.00     0.053 C 
HETATM    5  C5  UNL     1     -33.606   7.633   4.995  1.00 20.00     0.095 C 
HETATM    6  C6  UNL     1     -34.763   4.996   5.349  1.00 20.00     0.151 A 
HETATM    7  C7  UNL     1     -34.148   5.358   4.023  1.00 20.00     0.152 A 
HETATM    8  N8  UNL     1     -31.843   9.585   4.866  1.00 20.00    -0.197 NA
HETATM    9  O9  UNL     1     -35.546   5.534   4.264  1.00 20.00    -0.375 OA
ENDROOT
TORSDOF 0
ENDMDL
MODEL 2
REMARK VINA RESULT:      -4.4      1.722      2.479
REMARK  0 active torsions:
REMARK  status: ('A' for Active; 'I' for Inactive)
ROOT
HETATM    1  C1  UNL     1     -32.433   7.417   2.812  1.00 20.00     0.064 C 
HETATM    2  C2  UNL     1     -34.037   5.728   3.638  1.00 20.00     0.022 C 
HETATM    3  C3  UNL     1     -34.460   4.883   4.840  1.00 20.00     0.036 C 
HETATM    4  C4  UNL     1     -33.452   7.744   5.036  1.00 20.00     0.053 C 
HETATM    5  C5  UNL     1     -32.931   6.724   4.013  1.00 20.00     0.095 C 
HETATM    6  C6  UNL     1     -34.729   5.713   6.054  1.00 20.00     0.151 A 
HETATM    7  C7  UNL     1     -34.198   7.118   6.170  1.00 20.00     0.152 A 
HETATM    8  N8  UNL     1     -32.041   7.963   1.866  1.00 20.00    -0.197 NA
HETATM    9  O9  UNL     1     -33.542   6.022   6.812  1.00 20.00    -0.375 OA
ENDROOT
TORSDOF 0
ENDMDL
MODEL 3
REMARK VINA RESULT:      -4.2      1.140      2.030
REMARK  0 active torsions:
REMARK  status: ('A' for Active; 'I' for Inactive)
ROOT
HETATM    1  C1  UNL     1     -32.576   8.482   4.343  1.00 20.00     0.064 C 
HETATM    2  C2  UNL     1     -33.778   6.402   3.763  1.00 20.00     0.022 C 
HETATM    3  C3  UNL     1     -34.156   4.998   4.238  1.00 20.00     0.036 C 
HETATM    4  C4  UNL     1     -34.012   7.432   6.053  1.00 20.00     0.053 C 
HETATM    5  C5  UNL     1     -33.066   7.195   4.867  1.00 20.00     0.095 C 
HETATM    6  C6  UNL     1     -34.845   5.011   5.565  1.00 20.00     0.151 A 
HETATM    7  C7  UNL     1     -34.744   6.201   6.483  1.00 20.00     0.152 A 
HETATM    8  N8  UNL     1     -32.190   9.495   3.930  1.00 20.00    -0.197 NA
HETATM    9  O9  UNL     1     -33.935   5.039   6.683  1.00 20.00    -0.375 OA
ENDROOT
TORSDOF 0
ENDMDL
MODEL 4
REMARK VINA RESULT:      -4.1      2.614      3.817
REMARK  0 active torsions:
REMARK  status: ('A' for Active; 'I' for Inactive)
ROOT
HETATM    1  C1  UNL     1     -34.617   5.946   5.826  1.00 20.00     0.064 C 
HETATM    2  C2  UNL     1     -33.257   5.743   3.773  1.00 20.00     0.022 C 
HETATM    3  C3  UNL     1     -32.735   6.477   2.537  1.00 20.00     0.036 C 
HETATM    4  C4  UNL     1     -33.024   7.750   5.283  1.00 20.00     0.053 C 
HETATM    5  C5  UNL     1     -33.993   6.697   4.724  1.00 20.00     0.095 C 
HETATM    6  C6  UNL     1     -31.997   7.729   2.888  1.00 20.00     0.151 A 
HETATM    7  C7  UNL     1     -32.167   8.383   4.234  1.00 20.00     0.152 A 
HETATM    8  N8  UNL     1     -35.110   5.354   6.695  1.00 20.00    -0.197 NA
HETATM    9  O9  UNL     1     -32.859   8.869   3.081  1.00 20.00    -0.375 OA
ENDROOT
TORSDOF 0
ENDMDL
MODEL 5
REMARK VINA RESULT:      -4.0     16.072     16.763
REMARK  0 active torsions:
REMARK  status: ('A' for Active; 'I' for Inactive)
ROOT
HETATM    1  C1  UNL     1     -22.139  18.019   8.096  1.00 20.00     0.064 C 
HETATM    2  C2  UNL     1     -24.070  18.640   9.507  1.00 20.00     0.022 C 
HETATM    3  C3  UNL     1     -24.797  18.372  10.826  1.00 20.00     0.036 C 
HETATM    4  C4  UNL     1     -21.773  18.363  10.512  1.00 20.00     0.053 C 
HETATM    5  C5  UNL     1     -22.745  17.869   9.430  1.00 20.00     0.095 C 
HETATM    6  C6  UNL     1     -23.898  18.520  12.012  1.00 20.00     0.151 A 
HETATM    7  C7  UNL     1     -22.400  18.478  11.864  1.00 20.00     0.152 A 
HETATM    8  N8  UNL     1     -21.661  18.136   7.045  1.00 20.00    -0.197 NA
HETATM    9  O9  UNL     1     -23.134  17.333  12.305  1.00 20.00    -0.375 OA
ENDROOT
TORSDOF 0
ENDMDL
MODEL 6
REMARK VINA RESULT:      -4.0     15.329     15.941
REMARK  0 active torsions:
REMARK  status: ('A' for Active; 'I' for Inactive)
ROOT
HETATM    1  C1  UNL     1     -22.475  17.355   9.310  1.00 20.00     0.064 C 
HETATM    2  C2  UNL     1     -24.203  16.497  10.854  1.00 20.00     0.022 C 
HETATM    3  C3  UNL     1     -25.032  16.802  12.103  1.00 20.00     0.036 C 
HETATM    4  C4  UNL     1     -24.304  18.865   9.993  1.00 20.00     0.053 C 
HETATM    5  C5  UNL     1     -23.378  17.715  10.416  1.00 20.00     0.095 C 
HETATM    6  C6  UNL     1     -25.793  18.083  11.983  1.00 20.00     0.151 A 
HETATM    7  C7  UNL     1     -25.411  19.123  10.963  1.00 20.00     0.152 A 
HETATM    8  N8  UNL     1     -21.764  17.072   8.438  1.00 20.00    -0.197 NA
HETATM    9  O9  UNL     1     -25.017  19.247  12.332  1.00 20.00    -0.375 OA
ENDROOT
TORSDOF 0
ENDMDL
MODEL 7
REMARK VINA RESULT:      -3.9     12.674     13.793
REMARK  0 active torsions:
REMARK  status: ('A' for Active; 'I' for Inactive)
ROOT
HETATM    1  C1  UNL     1     -33.766  15.153  -3.870  1.00 20.00     0.064 C 
HETATM    2  C2  UNL     1     -33.471  16.703  -1.968  1.00 20.00     0.022 C 
HETATM    3  C3  UNL     1     -32.808  17.999  -1.498  1.00 20.00     0.036 C 
HETATM    4  C4  UNL     1     -33.944  17.579  -4.286  1.00 20.00     0.053 C 
HETATM    5  C5  UNL     1     -33.254  16.475  -3.471  1.00 20.00     0.095 C 
HETATM    6  C6  UNL     1     -33.140  19.161  -2.379  1.00 20.00     0.151 A 
HETATM    7  C7  UNL     1     -33.666  18.955  -3.774  1.00 20.00     0.152 A 
HETATM    8  N8  UNL     1     -34.170  14.111  -4.185  1.00 20.00    -0.197 NA
HETATM    9  O9  UNL     1     -32.290  19.262  -3.539  1.00 20.00    -0.375 OA
ENDROOT
TORSDOF 0
ENDMDL
MODEL 8
REMARK VINA RESULT:      -3.8      2.475      3.210
REMARK  0 active torsions:
REMARK  status: ('A' for Active; 'I' for Inactive)
ROOT
HETATM    1  C1  UNL     1     -33.106   5.154   2.738  1.00 20.00     0.064 C 
HETATM    2  C2  UNL     1     -34.591   5.100   4.713  1.00 20.00     0.022 C 
HETATM    3  C3  UNL     1     -34.724   5.462   6.193  1.00 20.00     0.036 C 
HETATM    4  C4  UNL     1     -33.285   7.179   4.138  1.00 20.00     0.053 C 
HETATM    5  C5  UNL     1     -33.286   5.643   4.116  1.00 20.00     0.095 C 
HETATM    6  C6  UNL     1     -34.454   6.910   6.451  1.00 20.00     0.151 A 
HETATM    7  C7  UNL     1     -33.707   7.754   5.451  1.00 20.00     0.152 A 
HETATM    8  N8  UNL     1     -32.964   4.769   1.653  1.00 20.00    -0.197 NA
HETATM    9  O9  UNL     1     -33.052   7.215   6.602  1.00 20.00    -0.375 OA
ENDROOT
TORSDOF 0
ENDMDL
MODEL 9
REMARK VINA RESULT:      -3.7     13.195     14.141
REMARK  0 active torsions:
REMARK  status: ('A' for Active; 'I' for Inactive)
ROOT
HETATM    1  C1  UNL     1     -35.406  15.027  -6.489  1.00 20.00     0.064 C 
HETATM    2  C2  UNL     1     -34.071  15.039  -4.409  1.00 20.00     0.022 C 
HETATM    3  C3  UNL     1     -33.109  15.851  -3.541  1.00 20.00     0.036 C 
HETATM    4  C4  UNL     1     -35.451  17.044  -5.068  1.00 20.00     0.053 C 
HETATM    5  C5  UNL     1     -34.606  15.870  -5.583  1.00 20.00     0.095 C 
HETATM    6  C6  UNL     1     -33.663  17.192  -3.178  1.00 20.00     0.151 A 
HETATM    7  C7  UNL     1     -34.798  17.803  -3.958  1.00 20.00     0.152 A 
HETATM    8  N8  UNL     1     -36.036  14.363  -7.202  1.00 20.00    -0.197 NA
HETATM    9  O9  UNL     1     -33.444  18.196  -4.190  1.00 20.00    -0.375 OA
ENDROOT
TORSDOF 0
ENDMDL
