MODEL 1
REMARK VINA RESULT:      -4.7      0.000      0.000
REMARK  1 active torsions:
REMARK  status: ('A' for Active; 'I' for Inactive)
REMARK    1  A    between atoms: C2_2  and  C3_3 
ROOT
HETATM    1  C1  UNL     1     -33.502   7.496   5.612  1.00 20.00    -0.012 C 
HETATM    2  C2  UNL     1     -33.277   7.043   4.372  1.00 20.00    -0.001 C 
HETATM    3  C4  UNL     1     -34.367   6.721   6.561  1.00 20.00     0.054 C 
HETATM    4  C5  UNL     1     -33.887   5.779   3.852  1.00 20.00     0.209 C 
HETATM    5  C6  UNL     1     -34.607   5.297   6.061  1.00 20.00     0.171 C 
HETATM    6  O8  UNL     1     -34.968   5.324   4.679  1.00 20.00    -0.386 OA
ENDROOT
BRANCH   2   7
HETATM    7  C3  UNL     1     -32.417   7.834   3.489  1.00 20.00     0.267 C 
HETATM    8  O7  UNL     1     -32.148   7.487   2.345  1.00 20.00    -0.302 OA
ENDBRANCH   2   7
TORSDOF 1
ENDMDL
MODEL 2
REMARK VINA RESULT:      -4.7      1.017      1.017
REMARK  1 active torsions:
REMARK  status: ('A' for Active; 'I' for Inactive)
REMARK    1  A    between atoms: C2_2  and  C3_3 
ROOT
HETATM    1  C1  UNL     1     -33.743   7.364   5.808  1.00 20.00    -0.012 C 
HETATM    2  C2  UNL     1     -33.353   7.145   4.547  1.00 20.00    -0.001 C 
HETATM    3  C4  UNL     1     -34.560   6.342   6.542  1.00 20.00     0.054 C 
HETATM    4  C5  UNL     1     -33.725   5.907   3.791  1.00 20.00     0.209 C 
HETATM    5  C6  UNL     1     -34.545   4.995   5.822  1.00 20.00     0.171 C 
HETATM    6  O8  UNL     1     -34.791   5.188   4.429  1.00 20.00    -0.386 OA
ENDROOT
BRANCH   2   7
HETATM    7  C3  UNL     1     -32.549   8.170   3.879  1.00 20.00     0.267 C 
HETATM    8  O7  UNL     1     -32.213   9.210   4.434  1.00 20.00    -0.302 OA
ENDBRANCH   2   7
TORSDOF 1
ENDMDL
MODEL 3
REMARK VINA RESULT:      -4.5      0.973      3.240
REMARK  1 active torsions:
REMARK  status: ('A' for Active; 'I' for Inactive)
REMARK    1  A    between atoms: C2_2  and  C3_3 
ROOT
HETATM    1  C1  UNL     1     -33.645   7.679   5.478  1.00 20.00    -0.012 C 
HETATM    2  C2  UNL     1     -33.888   6.606   4.716  1.00 20.00    -0.001 C 
HETATM    3  C4  UNL     1     -32.689   8.740   5.017  1.00 20.00     0.054 C 
HETATM    4  C5  UNL     1     -33.213   6.383   3.398  1.00 20.00     0.209 C 
HETATM    5  C6  UNL     1     -32.372   8.597   3.530  1.00 20.00     0.171 C 
HETATM    6  O8  UNL     1     -32.071   7.234   3.228  1.00 20.00    -0.386 OA
ENDROOT
BRANCH   2   7
HETATM    7  C3  UNL     1     -34.837   5.605   5.208  1.00 20.00     0.267 C 
HETATM    8  O7  UNL     1     -34.788   4.428   4.872  1.00 20.00    -0.302 OA
ENDBRANCH   2   7
TORSDOF 1
ENDMDL
MODEL 4
REMARK VINA RESULT:      -4.4      1.635      3.418
REMARK  1 active torsions:
REMARK  status: ('A' for Active; 'I' for Inactive)
REMARK    1  A    between atoms: C2_2  and  C3_3 
ROOT
HETATM    1  C1  UNL     1     -33.192   6.592   3.624  1.00 20.00    -0.012 C 
HETATM    2  C2  UNL     1     -33.931   6.371   4.719  1.00 20.00    -0.001 C 
HETATM    3  C4  UNL     1     -32.413   7.866   3.475  1.00 20.00     0.054 C 
HETATM    4  C5  UNL     1     -34.051   7.373   5.826  1.00 20.00     0.209 C 
HETATM    5  C6  UNL     1     -32.308   8.615   4.802  1.00 20.00     0.171 C 
HETATM    6  O8  UNL     1     -33.590   8.672   5.428  1.00 20.00    -0.386 OA
ENDROOT
BRANCH   2   7
HETATM    7  C3  UNL     1     -34.664   5.108   4.819  1.00 20.00     0.267 C 
HETATM    8  O7  UNL     1     -34.172   4.032   4.503  1.00 20.00    -0.302 OA
ENDBRANCH   2   7
TORSDOF 1
ENDMDL
MODEL 5
REMARK VINA RESULT:      -4.3      1.472      2.104
REMARK  1 active torsions:
REMARK  status: ('A' for Active; 'I' for Inactive)
REMARK    1  A    between atoms: C2_2  and  C3_3 
ROOT
HETATM    1  C1  UNL     1     -33.581   6.153   3.891  1.00 20.00    -0.012 C 
HETATM    2  C2  UNL     1     -33.366   7.195   4.704  1.00 20.00    -0.001 C 
HETATM    3  C4  UNL     1     -34.318   4.942   4.382  1.00 20.00     0.054 C 
HETATM    4  C5  UNL     1     -33.809   7.205   6.135  1.00 20.00     0.209 C 
HETATM    5  C6  UNL     1     -35.038   5.223   5.699  1.00 20.00     0.171 C 
HETATM    6  O8  UNL     1     -34.155   5.893   6.600  1.00 20.00    -0.386 OA
ENDROOT
BRANCH   2   7
HETATM    7  C3  UNL     1     -32.650   8.356   4.173  1.00 20.00     0.267 C 
HETATM    8  O7  UNL     1     -32.197   9.238   4.892  1.00 20.00    -0.302 OA
ENDBRANCH   2   7
TORSDOF 1
ENDMDL
MODEL 6
REMARK VINA RESULT:      -4.1      1.178      3.699
REMARK  1 active torsions:
REMARK  status: ('A' for Active; 'I' for Inactive)
REMARK    1  A    between atoms: C2_2  and  C3_3 
ROOT
HETATM    1  C1  UNL     1     -33.687   5.877   4.076  1.00 20.00    -0.012 C 
HETATM    2  C2  UNL     1     -33.752   6.787   5.056  1.00 20.00    -0.001 C 
HETATM    3  C4  UNL     1     -32.942   6.174   2.808  1.00 20.00     0.054 C 
HETATM    4  C5  UNL     1     -33.127   8.142   4.940  1.00 20.00     0.209 C 
HETATM    5  C6  UNL     1     -32.045   7.401   2.963  1.00 20.00     0.171 C 
HETATM    6  O8  UNL     1     -32.776   8.459   3.585  1.00 20.00    -0.386 OA
ENDROOT
BRANCH   2   7
HETATM    7  C3  UNL     1     -34.484   6.443   6.276  1.00 20.00     0.267 C 
HETATM    8  O7  UNL     1     -34.843   5.299   6.531  1.00 20.00    -0.302 OA
ENDBRANCH   2   7
TORSDOF 1
ENDMDL
MODEL 7
REMARK VINA RESULT:      -4.0      1.613      2.217
REMARK  1 active torsions:
REMARK  status: ('A' for Active; 'I' for Inactive)
REMARK    1  A    between atoms: C2_2  and  C3_3 
ROOT
HETATM    1  C1  UNL     1     -34.297   5.142   4.713  1.00 20.00    -0.012 C 
HETATM    2  C2  UNL     1     -33.567   6.046   4.046  1.00 20.00    -0.001 C 
HETATM    3  C4  UNL     1     -34.698   5.389   6.137  1.00 20.00     0.054 C 
HETATM    4  C5  UNL     1     -33.088   7.317   4.674  1.00 20.00     0.209 C 
HETATM    5  C6  UNL     1     -34.489   6.850   6.531  1.00 20.00     0.171 C 
HETATM    6  O8  UNL     1     -33.197   7.286   6.104  1.00 20.00    -0.386 OA
ENDROOT
BRANCH   2   7
HETATM    7  C3  UNL     1     -33.209   5.760   2.655  1.00 20.00     0.267 C 
HETATM    8  O7  UNL     1     -32.715   4.695   2.306  1.00 20.00    -0.302 OA
ENDBRANCH   2   7
TORSDOF 1
ENDMDL
MODEL 8
REMARK VINA RESULT:      -4.0      1.303      1.627
REMARK  1 active torsions:
REMARK  status: ('A' for Active; 'I' for Inactive)
REMARK    1  A    between atoms: C2_2  and  C3_3 
ROOT
HETATM    1  C1  UNL     1     -33.237   7.380   4.481  1.00 20.00    -0.012 C 
HETATM    2  C2  UNL     1     -33.482   6.181   3.938  1.00 20.00    -0.001 C 
HETATM    3  C4  UNL     1     -33.843   7.756   5.801  1.00 20.00     0.054 C 
HETATM    4  C5  UNL     1     -34.383   5.173   4.581  1.00 20.00     0.209 C 
HETATM    5  C6  UNL     1     -34.410   6.536   6.523  1.00 20.00     0.171 C 
HETATM    6  O8  UNL     1     -35.189   5.755   5.615  1.00 20.00    -0.386 OA
ENDROOT
BRANCH   2   7
HETATM    7  C3  UNL     1     -32.858   5.860   2.653  1.00 20.00     0.267 C 
HETATM    8  O7  UNL     1     -32.787   4.716   2.221  1.00 20.00    -0.302 OA
ENDBRANCH   2   7
TORSDOF 1
ENDMDL
MODEL 9
REMARK VINA RESULT:      -3.6     15.673     16.703
REMARK  1 active torsions:
REMARK  status: ('A' for Active; 'I' for Inactive)
REMARK    1  A    between atoms: C2_2  and  C3_3 
ROOT
HETATM    1  C1  UNL     1     -23.509  17.040  10.047  1.00 20.00    -0.012 C 
HETATM    2  C2  UNL     1     -22.375  17.745   9.954  1.00 20.00    -0.001 C 
HETATM    3  C4  UNL     1     -24.325  17.073  11.306  1.00 20.00     0.054 C 
HETATM    4  C5  UNL     1     -21.842  18.569  11.084  1.00 20.00     0.209 C 
HETATM    5  C6  UNL     1     -23.897  18.220  12.218  1.00 20.00     0.171 C 
HETATM    6  O8  UNL     1     -22.473  18.244  12.331  1.00 20.00    -0.386 OA
ENDROOT
BRANCH   2   7
HETATM    7  C3  UNL     1     -21.621  17.685   8.700  1.00 20.00     0.267 C 
HETATM    8  O7  UNL     1     -21.970  16.993   7.752  1.00 20.00    -0.302 OA
ENDBRANCH   2   7
TORSDOF 1
ENDMDL
