MODEL 1
REMARK VINA RESULT:      -2.8      0.000      0.000
REMARK  1 active torsions:
REMARK  status: ('A' for Active; 'I' for Inactive)
REMARK    1  A    between atoms: C1_1  and  S5_5 
ROOT
HETATM    1  C1  UNL     1     -33.719   6.880   5.019  1.00 20.00     0.041 C 
HETATM    2  C2  UNL     1     -34.158   7.018   6.454  1.00 20.00     0.069 C 
HETATM    3  S4  UNL     1     -32.787   8.056   4.278  1.00 20.00    -0.078 SA
ENDROOT
BRANCH   1   4
HETATM    4  S5  UNL     1     -34.260   5.435   4.173  1.00 20.00    -0.128 SA
HETATM    5  C3  UNL     1     -33.032   5.371   2.848  1.00 20.00     0.096 C 
ENDBRANCH   1   4
TORSDOF 1
ENDMDL
MODEL 2
REMARK VINA RESULT:      -2.8      0.765      2.691
REMARK  1 active torsions:
REMARK  status: ('A' for Active; 'I' for Inactive)
REMARK    1  A    between atoms: C1_1  and  S5_5 
ROOT
HETATM    1  C1  UNL     1     -33.392   6.370   3.823  1.00 20.00     0.041 C 
HETATM    2  C2  UNL     1     -32.945   5.418   2.744  1.00 20.00     0.069 C 
HETATM    3  S4  UNL     1     -32.641   7.849   4.044  1.00 20.00    -0.078 SA
ENDROOT
BRANCH   1   4
HETATM    4  S5  UNL     1     -34.723   5.828   4.839  1.00 20.00    -0.128 SA
HETATM    5  C3  UNL     1     -34.264   6.617   6.399  1.00 20.00     0.096 C 
ENDBRANCH   1   4
TORSDOF 1
ENDMDL
MODEL 3
REMARK VINA RESULT:      -2.8      0.972      2.133
REMARK  1 active torsions:
REMARK  status: ('A' for Active; 'I' for Inactive)
REMARK    1  A    between atoms: C1_1  and  S5_5 
ROOT
HETATM    1  C1  UNL     1     -33.936   6.719   5.169  1.00 20.00     0.041 C 
HETATM    2  C2  UNL     1     -34.326   6.789   6.623  1.00 20.00     0.069 C 
HETATM    3  S4  UNL     1     -34.358   5.409   4.216  1.00 20.00    -0.078 SA
ENDROOT
BRANCH   1   4
HETATM    4  S5  UNL     1     -32.999   8.073   4.547  1.00 20.00    -0.128 SA
HETATM    5  C3  UNL     1     -32.230   7.287   3.114  1.00 20.00     0.096 C 
ENDBRANCH   1   4
TORSDOF 1
ENDMDL
MODEL 4
REMARK VINA RESULT:      -2.7      1.457      1.939
REMARK  1 active torsions:
REMARK  status: ('A' for Active; 'I' for Inactive)
REMARK    1  A    between atoms: C1_1  and  S5_5 
ROOT
HETATM    1  C1  UNL     1     -33.465   7.167   4.474  1.00 20.00     0.041 C 
HETATM    2  C2  UNL     1     -33.661   8.152   5.598  1.00 20.00     0.069 C 
HETATM    3  S4  UNL     1     -32.349   7.445   3.258  1.00 20.00    -0.078 SA
ENDROOT
BRANCH   1   4
HETATM    4  S5  UNL     1     -34.487   5.735   4.505  1.00 20.00    -0.128 SA
HETATM    5  C3  UNL     1     -34.580   5.456   6.288  1.00 20.00     0.096 C 
ENDBRANCH   1   4
TORSDOF 1
ENDMDL
MODEL 5
REMARK VINA RESULT:      -2.6      1.599      2.751
REMARK  1 active torsions:
REMARK  status: ('A' for Active; 'I' for Inactive)
REMARK    1  A    between atoms: C1_1  and  S5_5 
ROOT
HETATM    1  C1  UNL     1     -33.947   6.293   4.892  1.00 20.00     0.041 C 
HETATM    2  C2  UNL     1     -33.849   5.441   3.654  1.00 20.00     0.069 C 
HETATM    3  S4  UNL     1     -34.639   5.707   6.299  1.00 20.00    -0.078 SA
ENDROOT
BRANCH   1   4
HETATM    4  S5  UNL     1     -33.318   7.931   4.764  1.00 20.00    -0.128 SA
HETATM    5  C3  UNL     1     -32.193   7.725   3.365  1.00 20.00     0.096 C 
ENDBRANCH   1   4
TORSDOF 1
ENDMDL
MODEL 6
REMARK VINA RESULT:      -2.6      2.064      2.271
REMARK  1 active torsions:
REMARK  status: ('A' for Active; 'I' for Inactive)
REMARK    1  A    between atoms: C1_1  and  S5_5 
ROOT
HETATM    1  C1  UNL     1     -33.038   7.473   4.598  1.00 20.00     0.041 C 
HETATM    2  C2  UNL     1     -32.428   8.829   4.842  1.00 20.00     0.069 C 
HETATM    3  S4  UNL     1     -32.753   6.633   3.178  1.00 20.00    -0.078 SA
ENDROOT
BRANCH   1   4
HETATM    4  S5  UNL     1     -34.075   6.843   5.872  1.00 20.00    -0.128 SA
HETATM    5  C3  UNL     1     -34.775   5.409   5.025  1.00 20.00     0.096 C 
ENDBRANCH   1   4
TORSDOF 1
ENDMDL
MODEL 7
REMARK VINA RESULT:      -2.5      1.119      1.923
REMARK  1 active torsions:
REMARK  status: ('A' for Active; 'I' for Inactive)
REMARK    1  A    between atoms: C1_1  and  S5_5 
ROOT
HETATM    1  C1  UNL     1     -33.706   7.001   4.614  1.00 20.00     0.041 C 
HETATM    2  C2  UNL     1     -33.623   8.227   5.486  1.00 20.00     0.069 C 
HETATM    3  S4  UNL     1     -34.780   5.763   4.954  1.00 20.00    -0.078 SA
ENDROOT
BRANCH   1   4
HETATM    4  S5  UNL     1     -32.602   6.940   3.245  1.00 20.00    -0.128 SA
HETATM    5  C3  UNL     1     -32.920   5.259   2.662  1.00 20.00     0.096 C 
ENDBRANCH   1   4
TORSDOF 1
ENDMDL
MODEL 8
REMARK VINA RESULT:      -2.4     15.785     16.785
REMARK  1 active torsions:
REMARK  status: ('A' for Active; 'I' for Inactive)
REMARK    1  A    between atoms: C1_1  and  S5_5 
ROOT
HETATM    1  C1  UNL     1     -24.337  17.731  12.157  1.00 20.00     0.041 C 
HETATM    2  C2  UNL     1     -24.456  16.264  11.835  1.00 20.00     0.069 C 
HETATM    3  S4  UNL     1     -25.693  18.700  12.318  1.00 20.00    -0.078 SA
ENDROOT
BRANCH   1   4
HETATM    4  S5  UNL     1     -22.703  18.362  12.328  1.00 20.00    -0.128 SA
HETATM    5  C3  UNL     1     -22.221  18.456  10.590  1.00 20.00     0.096 C 
ENDBRANCH   1   4
TORSDOF 1
ENDMDL
MODEL 9
REMARK VINA RESULT:      -2.4      1.865      2.109
REMARK  1 active torsions:
REMARK  status: ('A' for Active; 'I' for Inactive)
REMARK    1  A    between atoms: C1_1  and  S5_5 
ROOT
HETATM    1  C1  UNL     1     -33.321   7.231   4.764  1.00 20.00     0.041 C 
HETATM    2  C2  UNL     1     -32.519   8.434   4.337  1.00 20.00     0.069 C 
HETATM    3  S4  UNL     1     -33.970   7.120   6.303  1.00 20.00    -0.078 SA
ENDROOT
BRANCH   1   4
HETATM    4  S5  UNL     1     -33.511   5.956   3.567  1.00 20.00    -0.128 SA
HETATM    5  C3  UNL     1     -34.353   4.710   4.570  1.00 20.00     0.096 C 
ENDBRANCH   1   4
TORSDOF 1
ENDMDL
