MODEL 1
REMARK VINA RESULT:      -4.7      0.000      0.000
REMARK  2 active torsions:
REMARK  status: ('A' for Active; 'I' for Inactive)
REMARK    1  A    between atoms: C2_2  and  C6_6 
REMARK    2  A    between atoms: C6_6  and  O7_7 
ROOT
HETATM    1  C4  UNL     1     -34.032   4.388   4.205  1.00 20.00     0.050 C 
HETATM    2  C5  UNL     1     -34.563   5.515   6.391  1.00 20.00     0.050 C 
HETATM    3  C6  UNL     1     -34.557   5.664   4.868  1.00 20.00     0.068 C 
ENDROOT
BRANCH   3   4
HETATM    4  C2  UNL     1     -33.692   6.841   4.472  1.00 20.00     0.005 C 
HETATM    5  C1  UNL     1     -33.267   7.826   5.277  1.00 20.00    -0.032 C 
HETATM    6  C3  UNL     1     -32.413   8.962   4.818  1.00 20.00     0.036 C 
ENDBRANCH   3   4
BRANCH   3   7
HETATM    7  O7  UNL     1     -35.906   5.861   4.439  1.00 20.00    -0.387 OA
HETATM    8  H19 UNL     1     -36.333   6.401   5.120  1.00 20.00     0.211 HD
ENDBRANCH   3   7
TORSDOF 2
ENDMDL
MODEL 2
REMARK VINA RESULT:      -4.3      1.065      1.631
REMARK  2 active torsions:
REMARK  status: ('A' for Active; 'I' for Inactive)
REMARK    1  A    between atoms: C2_2  and  C6_6 
REMARK    2  A    between atoms: C6_6  and  O7_7 
ROOT
HETATM    1  C4  UNL     1     -34.621   5.518   6.411  1.00 20.00     0.050 C 
HETATM    2  C5  UNL     1     -35.895   5.920   4.279  1.00 20.00     0.050 C 
HETATM    3  C6  UNL     1     -34.529   5.591   4.885  1.00 20.00     0.068 C 
ENDROOT
BRANCH   3   4
HETATM    4  C2  UNL     1     -33.522   6.648   4.483  1.00 20.00     0.005 C 
HETATM    5  C1  UNL     1     -33.287   7.807   5.115  1.00 20.00    -0.032 C 
HETATM    6  C3  UNL     1     -32.275   8.809   4.661  1.00 20.00     0.036 C 
ENDBRANCH   3   4
BRANCH   3   7
HETATM    7  O7  UNL     1     -34.131   4.305   4.405  1.00 20.00    -0.387 OA
HETATM    8  H19 UNL     1     -33.493   4.466   3.694  1.00 20.00     0.211 HD
ENDBRANCH   3   7
TORSDOF 2
ENDMDL
MODEL 3
REMARK VINA RESULT:      -3.7     12.486     13.060
REMARK  2 active torsions:
REMARK  status: ('A' for Active; 'I' for Inactive)
REMARK    1  A    between atoms: C2_2  and  C6_6 
REMARK    2  A    between atoms: C6_6  and  O7_7 
ROOT
HETATM    1  C4  UNL     1     -35.474  14.117  -4.809  1.00 20.00     0.050 C 
HETATM    2  C5  UNL     1     -33.996  15.186  -6.543  1.00 20.00     0.050 C 
HETATM    3  C6  UNL     1     -34.125  14.793  -5.070  1.00 20.00     0.068 C 
ENDROOT
BRANCH   3   4
HETATM    4  C2  UNL     1     -33.991  16.023  -4.197  1.00 20.00     0.005 C 
HETATM    5  C1  UNL     1     -33.409  16.085  -2.990  1.00 20.00    -0.032 C 
HETATM    6  C3  UNL     1     -33.313  17.337  -2.180  1.00 20.00     0.036 C 
ENDBRANCH   3   4
BRANCH   3   7
HETATM    7  O7  UNL     1     -33.094  13.849  -4.773  1.00 20.00    -0.387 OA
HETATM    8  H19 UNL     1     -33.512  12.975  -4.792  1.00 20.00     0.211 HD
ENDBRANCH   3   7
TORSDOF 2
ENDMDL
MODEL 4
REMARK VINA RESULT:      -3.5      9.179      9.756
REMARK  2 active torsions:
REMARK  status: ('A' for Active; 'I' for Inactive)
REMARK    1  A    between atoms: C2_2  and  C6_6 
REMARK    2  A    between atoms: C6_6  and  O7_7 
ROOT
HETATM    1  C4  UNL     1     -40.689  13.909   7.499  1.00 20.00     0.050 C 
HETATM    2  C5  UNL     1     -42.694  14.041   5.985  1.00 20.00     0.050 C 
HETATM    3  C6  UNL     1     -41.509  13.181   6.432  1.00 20.00     0.068 C 
ENDROOT
BRANCH   3   4
HETATM    4  C2  UNL     1     -40.631  12.861   5.241  1.00 20.00     0.005 C 
HETATM    5  C1  UNL     1     -39.709  11.889   5.169  1.00 20.00    -0.032 C 
HETATM    6  C3  UNL     1     -38.872  11.628   3.959  1.00 20.00     0.036 C 
ENDBRANCH   3   4
BRANCH   3   7
HETATM    7  O7  UNL     1     -42.027  11.984   7.014  1.00 20.00    -0.387 OA
HETATM    8  H19 UNL     1     -41.314  11.612   7.554  1.00 20.00     0.211 HD
ENDBRANCH   3   7
TORSDOF 2
ENDMDL
MODEL 5
REMARK VINA RESULT:      -3.4      1.654      3.654
REMARK  2 active torsions:
REMARK  status: ('A' for Active; 'I' for Inactive)
REMARK    1  A    between atoms: C2_2  and  C6_6 
REMARK    2  A    between atoms: C6_6  and  O7_7 
ROOT
HETATM    1  C4  UNL     1     -32.083   9.187   4.950  1.00 20.00     0.050 C 
HETATM    2  C5  UNL     1     -32.223   7.368   3.217  1.00 20.00     0.050 C 
HETATM    3  C6  UNL     1     -32.968   8.100   4.335  1.00 20.00     0.068 C 
ENDROOT
BRANCH   3   4
HETATM    4  C2  UNL     1     -33.386   7.114   5.404  1.00 20.00     0.005 C 
HETATM    5  C1  UNL     1     -34.397   6.235   5.328  1.00 20.00    -0.032 C 
HETATM    6  C3  UNL     1     -34.757   5.288   6.426  1.00 20.00     0.036 C 
ENDBRANCH   3   4
BRANCH   3   7
HETATM    7  O7  UNL     1     -34.112   8.736   3.760  1.00 20.00    -0.387 OA
HETATM    8  H19 UNL     1     -33.775   9.461   3.213  1.00 20.00     0.211 HD
ENDBRANCH   3   7
TORSDOF 2
ENDMDL
MODEL 6
REMARK VINA RESULT:      -3.4     15.994     17.074
REMARK  2 active torsions:
REMARK  status: ('A' for Active; 'I' for Inactive)
REMARK    1  A    between atoms: C2_2  and  C6_6 
REMARK    2  A    between atoms: C6_6  and  O7_7 
ROOT
HETATM    1  C4  UNL     1     -24.143  16.864  11.056  1.00 20.00     0.050 C 
HETATM    2  C5  UNL     1     -22.518  18.324  12.304  1.00 20.00     0.050 C 
HETATM    3  C6  UNL     1     -23.458  18.231  11.100  1.00 20.00     0.068 C 
ENDROOT
BRANCH   3   4
HETATM    4  C2  UNL     1     -22.677  18.454   9.822  1.00 20.00     0.005 C 
HETATM    5  C1  UNL     1     -22.239  17.507   8.980  1.00 20.00    -0.032 C 
HETATM    6  C3  UNL     1     -21.470  17.798   7.732  1.00 20.00     0.036 C 
ENDBRANCH   3   4
BRANCH   3   7
HETATM    7  O7  UNL     1     -24.471  19.228  11.253  1.00 20.00    -0.387 OA
HETATM    8  H19 UNL     1     -24.255  19.713  12.063  1.00 20.00     0.211 HD
ENDBRANCH   3   7
TORSDOF 2
ENDMDL
MODEL 7
REMARK VINA RESULT:      -3.4      1.286      2.846
REMARK  2 active torsions:
REMARK  status: ('A' for Active; 'I' for Inactive)
REMARK    1  A    between atoms: C2_2  and  C6_6 
REMARK    2  A    between atoms: C6_6  and  O7_7 
ROOT
HETATM    1  C4  UNL     1     -34.558   5.343   6.377  1.00 20.00     0.050 C 
HETATM    2  C5  UNL     1     -33.964   7.309   4.923  1.00 20.00     0.050 C 
HETATM    3  C6  UNL     1     -34.595   5.916   4.958  1.00 20.00     0.068 C 
ENDROOT
BRANCH   3   4
HETATM    4  C2  UNL     1     -33.852   4.994   4.014  1.00 20.00     0.005 C 
HETATM    5  C1  UNL     1     -33.276   5.337   2.853  1.00 20.00    -0.032 C 
HETATM    6  C3  UNL     1     -32.558   4.372   1.966  1.00 20.00     0.036 C 
ENDBRANCH   3   4
BRANCH   3   7
HETATM    7  O7  UNL     1     -35.964   6.041   4.568  1.00 20.00    -0.387 OA
HETATM    8  H19 UNL     1     -36.478   5.533   5.213  1.00 20.00     0.211 HD
ENDBRANCH   3   7
TORSDOF 2
ENDMDL
MODEL 8
REMARK VINA RESULT:      -3.3      2.262      3.665
REMARK  2 active torsions:
REMARK  status: ('A' for Active; 'I' for Inactive)
REMARK    1  A    between atoms: C2_2  and  C6_6 
REMARK    2  A    between atoms: C6_6  and  O7_7 
ROOT
HETATM    1  C4  UNL     1     -32.167   7.368   3.314  1.00 20.00     0.050 C 
HETATM    2  C5  UNL     1     -33.872   9.023   4.144  1.00 20.00     0.050 C 
HETATM    3  C6  UNL     1     -32.749   8.064   4.547  1.00 20.00     0.068 C 
ENDROOT
BRANCH   3   4
HETATM    4  C2  UNL     1     -33.281   7.030   5.516  1.00 20.00     0.005 C 
HETATM    5  C1  UNL     1     -34.364   6.258   5.343  1.00 20.00    -0.032 C 
HETATM    6  C3  UNL     1     -34.836   5.254   6.345  1.00 20.00     0.036 C 
ENDBRANCH   3   4
BRANCH   3   7
HETATM    7  O7  UNL     1     -31.707   8.833   5.151  1.00 20.00    -0.387 OA
HETATM    8  H19 UNL     1     -31.528   8.422   6.010  1.00 20.00     0.211 HD
ENDBRANCH   3   7
TORSDOF 2
ENDMDL
MODEL 9
REMARK VINA RESULT:      -3.2     12.934     13.553
REMARK  2 active torsions:
REMARK  status: ('A' for Active; 'I' for Inactive)
REMARK    1  A    between atoms: C2_2  and  C6_6 
REMARK    2  A    between atoms: C6_6  and  O7_7 
ROOT
HETATM    1  C4  UNL     1     -33.025  18.750  -3.457  1.00 20.00     0.050 C 
HETATM    2  C5  UNL     1     -33.380  16.294  -3.041  1.00 20.00     0.050 C 
HETATM    3  C6  UNL     1     -33.591  17.707  -2.491  1.00 20.00     0.068 C 
ENDROOT
BRANCH   3   4
HETATM    4  C2  UNL     1     -32.916  17.838  -1.142  1.00 20.00     0.005 C 
HETATM    5  C1  UNL     1     -31.780  18.501  -0.880  1.00 20.00    -0.032 C 
HETATM    6  C3  UNL     1     -31.166  18.589   0.480  1.00 20.00     0.036 C 
ENDBRANCH   3   4
BRANCH   3   7
HETATM    7  O7  UNL     1     -34.998  17.930  -2.375  1.00 20.00    -0.387 OA
HETATM    8  H19 UNL     1     -35.147  18.271  -1.481  1.00 20.00     0.211 HD
ENDBRANCH   3   7
TORSDOF 2
ENDMDL
