MODEL 1
REMARK VINA RESULT:      -3.6      0.000      0.000
REMARK  0 active torsions:
REMARK  status: ('A' for Active; 'I' for Inactive)
ROOT
HETATM    1  C1  UNL     1     -33.275   7.420   4.401  1.00 20.00     0.223 C 
HETATM    2  C2  UNL     1     -34.079   6.678   5.112  1.00 20.00    -0.033 C 
HETATM    3  C3  UNL     1     -34.915   5.591   4.502  1.00 20.00     0.047 C 
HETATM    4  C4  UNL     1     -34.229   6.854   6.595  1.00 20.00     0.047 C 
HETATM    5  O5  UNL     1     -32.549   8.089   3.760  1.00 20.00    -0.284 OA
ENDROOT
TORSDOF 0
ENDMDL
MODEL 2
REMARK VINA RESULT:      -3.6      0.315      1.628
REMARK  0 active torsions:
REMARK  status: ('A' for Active; 'I' for Inactive)
ROOT
HETATM    1  C1  UNL     1     -33.214   7.186   4.218  1.00 20.00     0.223 C 
HETATM    2  C2  UNL     1     -34.093   6.671   5.034  1.00 20.00    -0.033 C 
HETATM    3  C3  UNL     1     -34.130   7.016   6.494  1.00 20.00     0.047 C 
HETATM    4  C4  UNL     1     -35.136   5.693   4.574  1.00 20.00     0.047 C 
HETATM    5  O5  UNL     1     -32.422   7.650   3.483  1.00 20.00    -0.284 OA
ENDROOT
TORSDOF 0
ENDMDL
MODEL 3
REMARK VINA RESULT:      -3.5      0.877      1.725
REMARK  0 active torsions:
REMARK  status: ('A' for Active; 'I' for Inactive)
ROOT
HETATM    1  C1  UNL     1     -33.299   7.673   5.097  1.00 20.00     0.223 C 
HETATM    2  C2  UNL     1     -33.978   6.564   5.205  1.00 20.00    -0.033 C 
HETATM    3  C3  UNL     1     -34.563   6.107   6.509  1.00 20.00     0.047 C 
HETATM    4  C4  UNL     1     -34.226   5.659   4.033  1.00 20.00     0.047 C 
HETATM    5  O5  UNL     1     -32.686   8.673   4.998  1.00 20.00    -0.284 OA
ENDROOT
TORSDOF 0
ENDMDL
MODEL 4
REMARK VINA RESULT:      -3.4      1.673      1.868
REMARK  0 active torsions:
REMARK  status: ('A' for Active; 'I' for Inactive)
ROOT
HETATM    1  C1  UNL     1     -33.652   5.851   3.956  1.00 20.00     0.223 C 
HETATM    2  C2  UNL     1     -34.002   6.431   5.071  1.00 20.00    -0.033 C 
HETATM    3  C3  UNL     1     -34.729   5.700   6.161  1.00 20.00     0.047 C 
HETATM    4  C4  UNL     1     -33.704   7.877   5.349  1.00 20.00     0.047 C 
HETATM    5  O5  UNL     1     -33.336   5.327   2.951  1.00 20.00    -0.284 OA
ENDROOT
TORSDOF 0
ENDMDL
MODEL 5
REMARK VINA RESULT:      -3.4      1.673      2.047
REMARK  0 active torsions:
REMARK  status: ('A' for Active; 'I' for Inactive)
ROOT
HETATM    1  C1  UNL     1     -33.651   5.851   3.956  1.00 20.00     0.223 C 
HETATM    2  C2  UNL     1     -34.001   6.432   5.070  1.00 20.00    -0.033 C 
HETATM    3  C3  UNL     1     -33.705   7.877   5.348  1.00 20.00     0.047 C 
HETATM    4  C4  UNL     1     -34.727   5.700   6.162  1.00 20.00     0.047 C 
HETATM    5  O5  UNL     1     -33.336   5.327   2.951  1.00 20.00    -0.284 OA
ENDROOT
TORSDOF 0
ENDMDL
MODEL 6
REMARK VINA RESULT:      -3.4      1.943      2.449
REMARK  0 active torsions:
REMARK  status: ('A' for Active; 'I' for Inactive)
ROOT
HETATM    1  C1  UNL     1     -34.250   5.422   4.800  1.00 20.00     0.223 C 
HETATM    2  C2  UNL     1     -34.006   6.624   5.246  1.00 20.00    -0.033 C 
HETATM    3  C3  UNL     1     -33.431   7.701   4.374  1.00 20.00     0.047 C 
HETATM    4  C4  UNL     1     -34.283   7.022   6.667  1.00 20.00     0.047 C 
HETATM    5  O5  UNL     1     -34.470   4.339   4.398  1.00 20.00    -0.284 OA
ENDROOT
TORSDOF 0
ENDMDL
MODEL 7
REMARK VINA RESULT:      -3.3      2.112      2.960
REMARK  0 active torsions:
REMARK  status: ('A' for Active; 'I' for Inactive)
ROOT
HETATM    1  C1  UNL     1     -34.252   5.747   4.600  1.00 20.00     0.223 C 
HETATM    2  C2  UNL     1     -33.552   6.835   4.431  1.00 20.00    -0.033 C 
HETATM    3  C3  UNL     1     -33.658   8.008   5.361  1.00 20.00     0.047 C 
HETATM    4  C4  UNL     1     -32.587   6.998   3.293  1.00 20.00     0.047 C 
HETATM    5  O5  UNL     1     -34.882   4.765   4.752  1.00 20.00    -0.284 OA
ENDROOT
TORSDOF 0
ENDMDL
MODEL 8
REMARK VINA RESULT:      -3.3      1.382      1.749
REMARK  0 active torsions:
REMARK  status: ('A' for Active; 'I' for Inactive)
ROOT
HETATM    1  C1  UNL     1     -33.572   7.287   4.671  1.00 20.00     0.223 C 
HETATM    2  C2  UNL     1     -33.824   6.089   4.220  1.00 20.00    -0.033 C 
HETATM    3  C3  UNL     1     -33.150   5.535   2.998  1.00 20.00     0.047 C 
HETATM    4  C4  UNL     1     -34.806   5.171   4.889  1.00 20.00     0.047 C 
HETATM    5  O5  UNL     1     -33.345   8.367   5.079  1.00 20.00    -0.284 OA
ENDROOT
TORSDOF 0
ENDMDL
MODEL 9
REMARK VINA RESULT:      -3.2      1.988      2.701
REMARK  0 active torsions:
REMARK  status: ('A' for Active; 'I' for Inactive)
ROOT
HETATM    1  C1  UNL     1     -33.722   7.187   5.582  1.00 20.00     0.223 C 
HETATM    2  C2  UNL     1     -32.949   7.689   4.658  1.00 20.00    -0.033 C 
HETATM    3  C3  UNL     1     -32.658   6.963   3.377  1.00 20.00     0.047 C 
HETATM    4  C4  UNL     1     -32.292   9.031   4.804  1.00 20.00     0.047 C 
HETATM    5  O5  UNL     1     -34.418   6.736   6.416  1.00 20.00    -0.284 OA
ENDROOT
TORSDOF 0
ENDMDL
