MODEL 1
REMARK VINA RESULT:      -4.1      0.000      0.000
REMARK  0 active torsions:
REMARK  status: ('A' for Active; 'I' for Inactive)
ROOT
HETATM    1  C1  UNL     1     -33.681   6.976   5.749  1.00 20.00     0.066 C 
HETATM    2  C2  UNL     1     -33.091   5.852   3.566  1.00 20.00     0.066 C 
HETATM    3  C3  UNL     1     -33.114   8.260   5.152  1.00 20.00     0.170 C 
HETATM    4  C4  UNL     1     -32.561   7.205   3.102  1.00 20.00     0.170 C 
HETATM    5  C5  UNL     1     -35.582   5.828   4.367  1.00 20.00     0.207 A 
HETATM    6  C6  UNL     1     -34.116   6.071   4.637  1.00 20.00     0.086 A 
HETATM    7  O7  UNL     1     -32.072   7.960   4.217  1.00 20.00    -0.391 OA
HETATM    8  O8  UNL     1     -34.775   4.875   5.075  1.00 20.00    -0.375 OA
ENDROOT
TORSDOF 0
ENDMDL
MODEL 2
REMARK VINA RESULT:      -4.0      1.251      3.019
REMARK  0 active torsions:
REMARK  status: ('A' for Active; 'I' for Inactive)
ROOT
HETATM    1  C1  UNL     1     -34.340   6.845   6.187  1.00 20.00     0.066 C 
HETATM    2  C2  UNL     1     -34.228   6.196   3.749  1.00 20.00     0.066 C 
HETATM    3  C3  UNL     1     -34.154   5.365   6.509  1.00 20.00     0.170 C 
HETATM    4  C4  UNL     1     -34.048   4.756   4.220  1.00 20.00     0.170 C 
HETATM    5  C5  UNL     1     -32.490   7.916   4.679  1.00 20.00     0.207 A 
HETATM    6  C6  UNL     1     -33.767   7.124   4.831  1.00 20.00     0.086 A 
HETATM    7  O7  UNL     1     -34.714   4.552   5.473  1.00 20.00    -0.391 OA
HETATM    8  O8  UNL     1     -33.778   8.510   4.461  1.00 20.00    -0.375 OA
ENDROOT
TORSDOF 0
ENDMDL
MODEL 3
REMARK VINA RESULT:      -3.9      1.141      2.076
REMARK  0 active torsions:
REMARK  status: ('A' for Active; 'I' for Inactive)
ROOT
HETATM    1  C1  UNL     1     -33.989   5.684   3.710  1.00 20.00     0.066 C 
HETATM    2  C2  UNL     1     -33.768   7.788   5.091  1.00 20.00     0.066 C 
HETATM    3  C3  UNL     1     -32.642   6.043   3.090  1.00 20.00     0.170 C 
HETATM    4  C4  UNL     1     -32.434   8.017   4.387  1.00 20.00     0.170 C 
HETATM    5  C5  UNL     1     -34.019   5.492   6.319  1.00 20.00     0.207 A 
HETATM    6  C6  UNL     1     -34.090   6.325   5.062  1.00 20.00     0.086 A 
HETATM    7  O7  UNL     1     -32.463   7.463   3.066  1.00 20.00    -0.391 OA
HETATM    8  O8  UNL     1     -35.268   5.966   5.796  1.00 20.00    -0.375 OA
ENDROOT
TORSDOF 0
ENDMDL
MODEL 4
REMARK VINA RESULT:      -3.8      0.960      3.380
REMARK  0 active torsions:
REMARK  status: ('A' for Active; 'I' for Inactive)
ROOT
HETATM    1  C1  UNL     1     -33.217   6.168   3.907  1.00 20.00     0.066 C 
HETATM    2  C2  UNL     1     -33.622   6.738   6.333  1.00 20.00     0.066 C 
HETATM    3  C3  UNL     1     -34.417   5.232   4.006  1.00 20.00     0.170 C 
HETATM    4  C4  UNL     1     -34.799   5.768   6.285  1.00 20.00     0.170 C 
HETATM    5  C5  UNL     1     -33.668   8.661   4.560  1.00 20.00     0.207 A 
HETATM    6  C6  UNL     1     -33.344   7.238   4.949  1.00 20.00     0.086 A 
HETATM    7  O7  UNL     1     -34.546   4.722   5.338  1.00 20.00    -0.391 OA
HETATM    8  O8  UNL     1     -32.331   8.249   4.880  1.00 20.00    -0.375 OA
ENDROOT
TORSDOF 0
ENDMDL
MODEL 5
REMARK VINA RESULT:      -3.5     15.955     16.598
REMARK  0 active torsions:
REMARK  status: ('A' for Active; 'I' for Inactive)
ROOT
HETATM    1  C1  UNL     1     -22.159  17.418   9.381  1.00 20.00     0.066 C 
HETATM    2  C2  UNL     1     -24.477  18.328   9.797  1.00 20.00     0.066 C 
HETATM    3  C3  UNL     1     -22.063  18.407   8.223  1.00 20.00     0.170 C 
HETATM    4  C4  UNL     1     -24.239  19.263   8.614  1.00 20.00     0.170 C 
HETATM    5  C5  UNL     1     -22.705  18.460  11.717  1.00 20.00     0.207 A 
HETATM    6  C6  UNL     1     -23.155  17.929  10.377  1.00 20.00     0.086 A 
HETATM    7  O7  UNL     1     -23.358  18.652   7.664  1.00 20.00    -0.391 OA
HETATM    8  O8  UNL     1     -23.250  17.141  11.571  1.00 20.00    -0.375 OA
ENDROOT
TORSDOF 0
ENDMDL
MODEL 6
REMARK VINA RESULT:      -3.4     15.304     16.669
REMARK  0 active torsions:
REMARK  status: ('A' for Active; 'I' for Inactive)
ROOT
HETATM    1  C1  UNL     1     -23.840  17.704   9.979  1.00 20.00     0.066 C 
HETATM    2  C2  UNL     1     -23.301  18.447  12.332  1.00 20.00     0.066 C 
HETATM    3  C3  UNL     1     -22.340  17.744   9.705  1.00 20.00     0.170 C 
HETATM    4  C4  UNL     1     -21.833  18.441  11.914  1.00 20.00     0.170 C 
HETATM    5  C5  UNL     1     -24.585  16.195  11.982  1.00 20.00     0.207 A 
HETATM    6  C6  UNL     1     -24.063  17.507  11.448  1.00 20.00     0.086 A 
HETATM    7  O7  UNL     1     -21.709  18.740  10.518  1.00 20.00    -0.391 OA
HETATM    8  O8  UNL     1     -25.438  17.337  11.817  1.00 20.00    -0.375 OA
ENDROOT
TORSDOF 0
ENDMDL
MODEL 7
REMARK VINA RESULT:      -3.4      1.712      2.658
REMARK  0 active torsions:
REMARK  status: ('A' for Active; 'I' for Inactive)
ROOT
HETATM    1  C1  UNL     1     -33.559   7.360   4.392  1.00 20.00     0.066 C 
HETATM    2  C2  UNL     1     -34.827   5.206   4.747  1.00 20.00     0.066 C 
HETATM    3  C3  UNL     1     -33.361   7.403   5.904  1.00 20.00     0.170 C 
HETATM    4  C4  UNL     1     -34.551   5.379   6.238  1.00 20.00     0.170 C 
HETATM    5  C5  UNL     1     -32.716   5.188   3.201  1.00 20.00     0.207 A 
HETATM    6  C6  UNL     1     -33.778   5.939   3.968  1.00 20.00     0.086 A 
HETATM    7  O7  UNL     1     -34.459   6.770   6.571  1.00 20.00    -0.391 OA
HETATM    8  O8  UNL     1     -33.862   5.755   2.549  1.00 20.00    -0.375 OA
ENDROOT
TORSDOF 0
ENDMDL
MODEL 8
REMARK VINA RESULT:      -3.3     11.909     13.241
REMARK  0 active torsions:
REMARK  status: ('A' for Active; 'I' for Inactive)
ROOT
HETATM    1  C1  UNL     1     -33.790  15.198  -6.379  1.00 20.00     0.066 C 
HETATM    2  C2  UNL     1     -34.944  14.026  -4.463  1.00 20.00     0.066 C 
HETATM    3  C3  UNL     1     -35.169  15.350  -7.015  1.00 20.00     0.170 C 
HETATM    4  C4  UNL     1     -36.253  14.250  -5.215  1.00 20.00     0.170 C 
HETATM    5  C5  UNL     1     -33.542  16.178  -3.966  1.00 20.00     0.207 A 
HETATM    6  C6  UNL     1     -33.950  15.060  -4.895  1.00 20.00     0.086 A 
HETATM    7  O7  UNL     1     -36.021  14.265  -6.629  1.00 20.00    -0.391 OA
HETATM    8  O8  UNL     1     -32.713  15.026  -4.172  1.00 20.00    -0.375 OA
ENDROOT
TORSDOF 0
ENDMDL
MODEL 9
REMARK VINA RESULT:      -3.3     16.388     17.176
REMARK  0 active torsions:
REMARK  status: ('A' for Active; 'I' for Inactive)
ROOT
HETATM    1  C1  UNL     1     -21.978  18.509  11.280  1.00 20.00     0.066 C 
HETATM    2  C2  UNL     1     -23.862  18.995   9.671  1.00 20.00     0.066 C 
HETATM    3  C3  UNL     1     -23.042  18.020  12.258  1.00 20.00     0.170 C 
HETATM    4  C4  UNL     1     -24.812  18.475  10.747  1.00 20.00     0.170 C 
HETATM    5  C5  UNL     1     -21.971  17.344   8.938  1.00 20.00     0.207 A 
HETATM    6  C6  UNL     1     -22.508  18.392   9.883  1.00 20.00     0.086 A 
HETATM    7  O7  UNL     1     -24.272  18.722  12.051  1.00 20.00    -0.391 OA
HETATM    8  O8  UNL     1     -21.554  18.714   8.863  1.00 20.00    -0.375 OA
ENDROOT
TORSDOF 0
ENDMDL
