MODEL 1
REMARK VINA RESULT:      -4.7      0.000      0.000
REMARK  3 active torsions:
REMARK  status: ('A' for Active; 'I' for Inactive)
REMARK    1  A    between atoms: C1_1  and  C7_7 
REMARK    2  A    between atoms: C8_8  and  C10_10 
REMARK    3  A    between atoms: C9_9  and  C11_11 
ROOT
HETATM    1  C2  UNL     1     -31.827   8.072   3.463  1.00 20.00     0.012 C 
HETATM    2  C3  UNL     1     -32.127   8.806   4.813  1.00 20.00     0.006 C 
HETATM    3  C7  UNL     1     -33.003   7.058   3.232  1.00 20.00     0.052 C 
HETATM    4  C10 UNL     1     -33.595   8.513   4.939  1.00 20.00    -0.005 C 
HETATM    5  C11 UNL     1     -33.598   7.014   4.619  1.00 20.00     0.004 C 
ENDROOT
BRANCH   3   6
HETATM    6  C1  UNL     1     -32.486   5.727   2.794  1.00 20.00     0.236 C 
HETATM    7  O12 UNL     1     -33.142   4.931   2.129  1.00 20.00    -0.306 OA
ENDBRANCH   3   6
BRANCH   5   8
HETATM    8  C9  UNL     1     -34.989   6.589   5.118  1.00 20.00    -0.009 C 
HETATM    9  C5  UNL     1     -35.080   5.081   4.770  1.00 20.00     0.005 C 
HETATM   10  C4  UNL     1     -33.941   4.472   5.629  1.00 20.00     0.005 C 
HETATM   11  C8  UNL     1     -33.519   5.635   6.549  1.00 20.00    -0.010 C 
HETATM   12  C6  UNL     1     -34.845   6.435   6.644  1.00 20.00     0.010 C 
ENDBRANCH   5   8
TORSDOF 3
ENDMDL
MODEL 2
REMARK VINA RESULT:      -3.8     12.402     14.008
REMARK  3 active torsions:
REMARK  status: ('A' for Active; 'I' for Inactive)
REMARK    1  A    between atoms: C1_1  and  C7_7 
REMARK    2  A    between atoms: C8_8  and  C10_10 
REMARK    3  A    between atoms: C9_9  and  C11_11 
ROOT
HETATM    1  C2  UNL     1     -33.471  16.774  -2.120  1.00 20.00     0.012 C 
HETATM    2  C3  UNL     1     -34.129  18.195  -2.119  1.00 20.00     0.006 C 
HETATM    3  C7  UNL     1     -33.392  16.317  -3.620  1.00 20.00     0.052 C 
HETATM    4  C10 UNL     1     -33.904  18.579  -3.554  1.00 20.00    -0.005 C 
HETATM    5  C11 UNL     1     -34.358  17.292  -4.250  1.00 20.00     0.004 C 
ENDROOT
BRANCH   3   6
HETATM    6  C1  UNL     1     -33.836  14.900  -3.774  1.00 20.00     0.236 C 
HETATM    7  O12 UNL     1     -33.229  14.070  -4.443  1.00 20.00    -0.306 OA
ENDBRANCH   3   6
BRANCH   5   8
HETATM    8  C9  UNL     1     -34.526  17.764  -5.704  1.00 20.00    -0.009 C 
HETATM    9  C5  UNL     1     -35.057  16.517  -6.457  1.00 20.00     0.005 C 
HETATM   10  C4  UNL     1     -36.422  16.267  -5.763  1.00 20.00     0.005 C 
HETATM   11  C8  UNL     1     -36.628  17.529  -4.901  1.00 20.00    -0.010 C 
HETATM   12  C6  UNL     1     -35.833  18.580  -5.720  1.00 20.00     0.010 C 
ENDBRANCH   5   8
TORSDOF 3
ENDMDL
MODEL 3
REMARK VINA RESULT:      -3.8     12.787     14.332
REMARK  3 active torsions:
REMARK  status: ('A' for Active; 'I' for Inactive)
REMARK    1  A    between atoms: C1_1  and  C7_7 
REMARK    2  A    between atoms: C8_8  and  C10_10 
REMARK    3  A    between atoms: C9_9  and  C11_11 
ROOT
HETATM    1  C2  UNL     1     -33.841  14.862  -3.977  1.00 20.00     0.012 C 
HETATM    2  C3  UNL     1     -33.508  16.118  -3.103  1.00 20.00     0.006 C 
HETATM    3  C7  UNL     1     -34.468  15.398  -5.313  1.00 20.00     0.052 C 
HETATM    4  C10 UNL     1     -33.512  17.176  -4.170  1.00 20.00    -0.005 C 
HETATM    5  C11 UNL     1     -34.806  16.812  -4.904  1.00 20.00     0.004 C 
ENDROOT
BRANCH   3   6
HETATM    6  C1  UNL     1     -35.679  14.611  -5.692  1.00 20.00     0.236 C 
HETATM    7  O12 UNL     1     -35.950  14.301  -6.848  1.00 20.00    -0.306 OA
ENDBRANCH   3   6
BRANCH   5   8
HETATM    8  C9  UNL     1     -35.063  18.079  -5.736  1.00 20.00    -0.009 C 
HETATM    9  C5  UNL     1     -36.444  17.835  -6.397  1.00 20.00     0.005 C 
HETATM   10  C4  UNL     1     -37.388  17.742  -5.169  1.00 20.00     0.005 C 
HETATM   11  C8  UNL     1     -36.501  18.202  -3.994  1.00 20.00    -0.010 C 
HETATM   12  C6  UNL     1     -35.511  19.149  -4.723  1.00 20.00     0.010 C 
ENDBRANCH   5   8
TORSDOF 3
ENDMDL
MODEL 4
REMARK VINA RESULT:      -3.7      1.673      3.764
REMARK  3 active torsions:
REMARK  status: ('A' for Active; 'I' for Inactive)
REMARK    1  A    between atoms: C1_1  and  C7_7 
REMARK    2  A    between atoms: C8_8  and  C10_10 
REMARK    3  A    between atoms: C9_9  and  C11_11 
ROOT
HETATM    1  C2  UNL     1     -33.824   4.222   3.998  1.00 20.00     0.012 C 
HETATM    2  C3  UNL     1     -32.813   4.762   2.932  1.00 20.00     0.006 C 
HETATM    3  C7  UNL     1     -34.624   5.465   4.528  1.00 20.00     0.052 C 
HETATM    4  C10 UNL     1     -33.452   6.087   2.625  1.00 20.00    -0.005 C 
HETATM    5  C11 UNL     1     -33.733   6.585   4.046  1.00 20.00     0.004 C 
ENDROOT
BRANCH   3   6
HETATM    6  C1  UNL     1     -34.742   5.434   6.016  1.00 20.00     0.236 C 
HETATM    7  O12 UNL     1     -33.776   5.443   6.772  1.00 20.00    -0.306 OA
ENDBRANCH   3   6
BRANCH   5   8
HETATM    8  C9  UNL     1     -34.012   8.078   3.806  1.00 20.00    -0.009 C 
HETATM    9  C5  UNL     1     -33.821   8.736   5.197  1.00 20.00     0.005 C 
HETATM   10  C4  UNL     1     -32.322   8.463   5.490  1.00 20.00     0.005 C 
HETATM   11  C8  UNL     1     -31.780   7.931   4.148  1.00 20.00    -0.010 C 
HETATM   12  C6  UNL     1     -32.735   8.630   3.145  1.00 20.00     0.010 C 
ENDBRANCH   5   8
TORSDOF 3
ENDMDL
MODEL 5
REMARK VINA RESULT:      -3.7     12.359     13.862
REMARK  3 active torsions:
REMARK  status: ('A' for Active; 'I' for Inactive)
REMARK    1  A    between atoms: C1_1  and  C7_7 
REMARK    2  A    between atoms: C8_8  and  C10_10 
REMARK    3  A    between atoms: C9_9  and  C11_11 
ROOT
HETATM    1  C2  UNL     1     -34.959  15.180  -4.940  1.00 20.00     0.012 C 
HETATM    2  C3  UNL     1     -33.896  14.634  -3.928  1.00 20.00     0.006 C 
HETATM    3  C7  UNL     1     -34.764  16.737  -4.999  1.00 20.00     0.052 C 
HETATM    4  C10 UNL     1     -32.946  15.797  -3.906  1.00 20.00    -0.005 C 
HETATM    5  C11 UNL     1     -33.939  16.953  -3.752  1.00 20.00     0.004 C 
ENDROOT
BRANCH   3   6
HETATM    6  C1  UNL     1     -36.077  17.446  -4.940  1.00 20.00     0.236 C 
HETATM    7  O12 UNL     1     -36.301  18.506  -5.516  1.00 20.00    -0.306 OA
ENDBRANCH   3   6
BRANCH   5   8
HETATM    8  C9  UNL     1     -33.016  18.107  -3.329  1.00 20.00    -0.009 C 
HETATM    9  C5  UNL     1     -33.983  19.256  -2.945  1.00 20.00     0.005 C 
HETATM   10  C4  UNL     1     -34.752  18.654  -1.740  1.00 20.00     0.005 C 
HETATM   11  C8  UNL     1     -33.968  17.366  -1.415  1.00 20.00    -0.010 C 
HETATM   12  C6  UNL     1     -32.547  17.754  -1.905  1.00 20.00     0.010 C 
ENDBRANCH   5   8
TORSDOF 3
ENDMDL
MODEL 6
REMARK VINA RESULT:      -3.6     12.975     14.699
REMARK  3 active torsions:
REMARK  status: ('A' for Active; 'I' for Inactive)
REMARK    1  A    between atoms: C1_1  and  C7_7 
REMARK    2  A    between atoms: C8_8  and  C10_10 
REMARK    3  A    between atoms: C9_9  and  C11_11 
ROOT
HETATM    1  C2  UNL     1     -33.229  16.007  -3.512  1.00 20.00     0.012 C 
HETATM    2  C3  UNL     1     -33.312  14.633  -4.257  1.00 20.00     0.006 C 
HETATM    3  C7  UNL     1     -34.361  16.913  -4.114  1.00 20.00     0.052 C 
HETATM    4  C10 UNL     1     -34.707  14.726  -4.805  1.00 20.00    -0.005 C 
HETATM    5  C11 UNL     1     -34.677  16.147  -5.376  1.00 20.00     0.004 C 
ENDROOT
BRANCH   3   6
HETATM    6  C1  UNL     1     -33.855  18.289  -4.396  1.00 20.00     0.236 C 
HETATM    7  O12 UNL     1     -32.848  18.760  -3.878  1.00 20.00    -0.306 OA
ENDBRANCH   3   6
BRANCH   5   8
HETATM    8  C9  UNL     1     -35.917  16.147  -6.284  1.00 20.00    -0.009 C 
HETATM    9  C5  UNL     1     -35.854  17.508  -7.026  1.00 20.00     0.005 C 
HETATM   10  C4  UNL     1     -34.538  17.382  -7.837  1.00 20.00     0.005 C 
HETATM   11  C8  UNL     1     -34.152  15.898  -7.677  1.00 20.00    -0.010 C 
HETATM   12  C6  UNL     1     -35.548  15.249  -7.480  1.00 20.00     0.010 C 
ENDBRANCH   5   8
TORSDOF 3
ENDMDL
MODEL 7
REMARK VINA RESULT:      -3.4     12.773     14.227
REMARK  3 active torsions:
REMARK  status: ('A' for Active; 'I' for Inactive)
REMARK    1  A    between atoms: C1_1  and  C7_7 
REMARK    2  A    between atoms: C8_8  and  C10_10 
REMARK    3  A    between atoms: C9_9  and  C11_11 
ROOT
HETATM    1  C2  UNL     1     -35.057  18.539  -3.062  1.00 20.00     0.012 C 
HETATM    2  C3  UNL     1     -36.360  18.716  -3.912  1.00 20.00     0.006 C 
HETATM    3  C7  UNL     1     -34.064  17.690  -3.932  1.00 20.00     0.052 C 
HETATM    4  C10 UNL     1     -35.815  18.402  -5.277  1.00 20.00    -0.005 C 
HETATM    5  C11 UNL     1     -35.017  17.133  -4.962  1.00 20.00     0.004 C 
ENDROOT
BRANCH   3   6
HETATM    6  C1  UNL     1     -33.418  16.617  -3.118  1.00 20.00     0.236 C 
HETATM    7  O12 UNL     1     -33.566  16.507  -1.905  1.00 20.00    -0.306 OA
ENDBRANCH   3   6
BRANCH   5   8
HETATM    8  C9  UNL     1     -34.777  16.557  -6.367  1.00 20.00    -0.009 C 
HETATM    9  C5  UNL     1     -34.163  15.156  -6.112  1.00 20.00     0.005 C 
HETATM   10  C4  UNL     1     -35.310  14.422  -5.370  1.00 20.00     0.005 C 
HETATM   11  C8  UNL     1     -36.511  15.376  -5.523  1.00 20.00    -0.010 C 
HETATM   12  C6  UNL     1     -36.158  16.085  -6.857  1.00 20.00     0.010 C 
ENDBRANCH   5   8
TORSDOF 3
ENDMDL
MODEL 8
REMARK VINA RESULT:      -3.4     10.476     11.700
REMARK  3 active torsions:
REMARK  status: ('A' for Active; 'I' for Inactive)
REMARK    1  A    between atoms: C1_1  and  C7_7 
REMARK    2  A    between atoms: C8_8  and  C10_10 
REMARK    3  A    between atoms: C9_9  and  C11_11 
ROOT
HETATM    1  C2  UNL     1     -41.553  13.729   4.642  1.00 20.00     0.012 C 
HETATM    2  C3  UNL     1     -42.537  14.942   4.755  1.00 20.00     0.006 C 
HETATM    3  C7  UNL     1     -41.335  13.190   6.101  1.00 20.00     0.052 C 
HETATM    4  C10 UNL     1     -43.128  14.663   6.108  1.00 20.00    -0.005 C 
HETATM    5  C11 UNL     1     -41.852  14.362   6.901  1.00 20.00     0.004 C 
ENDROOT
BRANCH   3   6
HETATM    6  C1  UNL     1     -39.891  12.917   6.363  1.00 20.00     0.236 C 
HETATM    7  O12 UNL     1     -39.451  11.805   6.637  1.00 20.00    -0.306 OA
ENDBRANCH   3   6
BRANCH   5   8
HETATM    8  C9  UNL     1     -42.353  14.463   8.351  1.00 20.00    -0.009 C 
HETATM    9  C5  UNL     1     -41.077  14.285   9.215  1.00 20.00     0.005 C 
HETATM   10  C4  UNL     1     -40.225  15.514   8.805  1.00 20.00     0.005 C 
HETATM   11  C8  UNL     1     -41.202  16.374   7.978  1.00 20.00    -0.010 C 
HETATM   12  C6  UNL     1     -42.560  15.968   8.607  1.00 20.00     0.010 C 
ENDBRANCH   5   8
TORSDOF 3
ENDMDL
MODEL 9
REMARK VINA RESULT:      -3.3     10.962     12.174
REMARK  3 active torsions:
REMARK  status: ('A' for Active; 'I' for Inactive)
REMARK    1  A    between atoms: C1_1  and  C7_7 
REMARK    2  A    between atoms: C8_8  and  C10_10 
REMARK    3  A    between atoms: C9_9  and  C11_11 
ROOT
HETATM    1  C2  UNL     1     -41.129  16.669   8.727  1.00 20.00     0.012 C 
HETATM    2  C3  UNL     1     -42.323  17.055   7.791  1.00 20.00     0.006 C 
HETATM    3  C7  UNL     1     -40.412  15.443   8.057  1.00 20.00     0.052 C 
HETATM    4  C10 UNL     1     -41.882  16.377   6.525  1.00 20.00    -0.005 C 
HETATM    5  C11 UNL     1     -41.478  15.007   7.080  1.00 20.00     0.004 C 
ENDROOT
BRANCH   3   6
HETATM    6  C1  UNL     1     -40.100  14.386   9.065  1.00 20.00     0.236 C 
HETATM    7  O12 UNL     1     -40.945  13.878   9.795  1.00 20.00    -0.306 OA
ENDBRANCH   3   6
BRANCH   5   8
HETATM    8  C9  UNL     1     -41.402  14.160   5.800  1.00 20.00    -0.009 C 
HETATM    9  C5  UNL     1     -41.232  12.705   6.309  1.00 20.00     0.005 C 
HETATM   10  C4  UNL     1     -42.553  12.469   7.087  1.00 20.00     0.005 C 
HETATM   11  C8  UNL     1     -43.417  13.689   6.714  1.00 20.00    -0.010 C 
HETATM   12  C6  UNL     1     -42.856  14.032   5.308  1.00 20.00     0.010 C 
ENDBRANCH   5   8
TORSDOF 3
ENDMDL
