MODEL 1
REMARK VINA RESULT:      -3.9      0.000      0.000
REMARK  1 active torsions:
REMARK  status: ('A' for Active; 'I' for Inactive)
REMARK    1  A    between atoms: C1_1  and  C6_6 
ROOT
HETATM    1  C2  UNL     1     -32.699   5.577   3.361  1.00 20.00     0.002 C 
HETATM    2  C3  UNL     1     -34.170   5.401   3.728  1.00 20.00     0.012 C 
HETATM    3  C4  UNL     1     -32.440   6.931   2.707  1.00 20.00     0.009 C 
HETATM    4  C5  UNL     1     -34.371   7.932   4.014  1.00 20.00     0.021 C 
HETATM    5  C6  UNL     1     -34.726   6.548   4.569  1.00 20.00     0.055 C 
HETATM    6  C7  UNL     1     -32.899   8.125   3.571  1.00 20.00    -0.047 C 
HETATM    7  C9  UNL     1     -31.968   8.305   4.785  1.00 20.00     0.015 C 
HETATM    8  C10 UNL     1     -32.806   9.413   2.727  1.00 20.00     0.015 C 
ENDROOT
BRANCH   5   9
HETATM    9  C1  UNL     1     -34.336   6.418   6.012  1.00 20.00     0.127 C 
HETATM   10  C8  UNL     1     -34.119   5.022   6.531  1.00 20.00     0.091 C 
HETATM   11  O11 UNL     1     -34.199   7.404   6.735  1.00 20.00    -0.298 OA
ENDBRANCH   5   9
TORSDOF 1
ENDMDL
MODEL 2
REMARK VINA RESULT:      -3.9     11.803     13.435
REMARK  1 active torsions:
REMARK  status: ('A' for Active; 'I' for Inactive)
REMARK    1  A    between atoms: C1_1  and  C6_6 
ROOT
HETATM    1  C2  UNL     1     -33.637  15.838  -3.440  1.00 20.00     0.002 C 
HETATM    2  C3  UNL     1     -33.402  14.881  -4.605  1.00 20.00     0.012 C 
HETATM    3  C4  UNL     1     -33.540  17.296  -3.880  1.00 20.00     0.009 C 
HETATM    4  C5  UNL     1     -34.328  16.647  -6.203  1.00 20.00     0.021 C 
HETATM    5  C6  UNL     1     -34.294  15.165  -5.812  1.00 20.00     0.055 C 
HETATM    6  C7  UNL     1     -34.500  17.650  -5.036  1.00 20.00    -0.047 C 
HETATM    7  C9  UNL     1     -35.958  17.685  -4.538  1.00 20.00     0.015 C 
HETATM    8  C10 UNL     1     -34.158  19.064  -5.550  1.00 20.00     0.015 C 
ENDROOT
BRANCH   5   9
HETATM    9  C1  UNL     1     -35.677  14.615  -5.621  1.00 20.00     0.127 C 
HETATM   10  C8  UNL     1     -35.856  13.596  -4.528  1.00 20.00     0.091 C 
HETATM   11  O11 UNL     1     -36.620  14.981  -6.322  1.00 20.00    -0.298 OA
ENDBRANCH   5   9
TORSDOF 1
ENDMDL
MODEL 3
REMARK VINA RESULT:      -3.4     10.151     11.443
REMARK  1 active torsions:
REMARK  status: ('A' for Active; 'I' for Inactive)
REMARK    1  A    between atoms: C1_1  and  C6_6 
ROOT
HETATM    1  C2  UNL     1     -42.518  15.149   5.757  1.00 20.00     0.002 C 
HETATM    2  C3  UNL     1     -41.672  15.930   6.759  1.00 20.00     0.012 C 
HETATM    3  C4  UNL     1     -41.722  14.020   5.107  1.00 20.00     0.009 C 
HETATM    4  C5  UNL     1     -40.298  13.820   7.197  1.00 20.00     0.021 C 
HETATM    5  C6  UNL     1     -40.997  15.042   7.803  1.00 20.00     0.055 C 
HETATM    6  C7  UNL     1     -41.105  13.042   6.128  1.00 20.00    -0.047 C 
HETATM    7  C9  UNL     1     -42.199  12.171   6.776  1.00 20.00     0.015 C 
HETATM    8  C10 UNL     1     -40.143  12.090   5.384  1.00 20.00     0.015 C 
ENDROOT
BRANCH   5   9
HETATM    9  C1  UNL     1     -41.949  14.646   8.894  1.00 20.00     0.127 C 
HETATM   10  C8  UNL     1     -43.200  15.471   9.032  1.00 20.00     0.091 C 
HETATM   11  O11 UNL     1     -41.720  13.693   9.637  1.00 20.00    -0.298 OA
ENDBRANCH   5   9
TORSDOF 1
ENDMDL
MODEL 4
REMARK VINA RESULT:      -3.4     10.394     11.634
REMARK  1 active torsions:
REMARK  status: ('A' for Active; 'I' for Inactive)
REMARK    1  A    between atoms: C1_1  and  C6_6 
ROOT
HETATM    1  C2  UNL     1     -42.712  15.176   5.486  1.00 20.00     0.002 C 
HETATM    2  C3  UNL     1     -41.937  16.106   6.414  1.00 20.00     0.012 C 
HETATM    3  C4  UNL     1     -41.845  14.020   4.995  1.00 20.00     0.009 C 
HETATM    4  C5  UNL     1     -40.486  14.129   7.135  1.00 20.00     0.021 C 
HETATM    5  C6  UNL     1     -41.260  15.378   7.574  1.00 20.00     0.055 C 
HETATM    6  C7  UNL     1     -41.220  13.195   6.140  1.00 20.00    -0.047 C 
HETATM    7  C9  UNL     1     -42.297  12.353   6.852  1.00 20.00     0.015 C 
HETATM    8  C10 UNL     1     -40.192  12.213   5.540  1.00 20.00     0.015 C 
ENDROOT
BRANCH   5   9
HETATM    9  C1  UNL     1     -42.231  15.064   8.675  1.00 20.00     0.127 C 
HETATM   10  C8  UNL     1     -41.681  14.345   9.877  1.00 20.00     0.091 C 
HETATM   11  O11 UNL     1     -43.417  15.379   8.599  1.00 20.00    -0.298 OA
ENDBRANCH   5   9
TORSDOF 1
ENDMDL
MODEL 5
REMARK VINA RESULT:      -3.4     12.276     14.294
REMARK  1 active torsions:
REMARK  status: ('A' for Active; 'I' for Inactive)
REMARK    1  A    between atoms: C1_1  and  C6_6 
ROOT
HETATM    1  C2  UNL     1     -34.904  15.682  -7.772  1.00 20.00     0.002 C 
HETATM    2  C3  UNL     1     -35.384  17.107  -7.513  1.00 20.00     0.012 C 
HETATM    3  C4  UNL     1     -34.041  15.161  -6.626  1.00 20.00     0.009 C 
HETATM    4  C5  UNL     1     -35.302  16.645  -5.000  1.00 20.00     0.021 C 
HETATM    5  C6  UNL     1     -36.078  17.276  -6.163  1.00 20.00     0.055 C 
HETATM    6  C7  UNL     1     -34.744  15.222  -5.255  1.00 20.00    -0.047 C 
HETATM    7  C9  UNL     1     -35.858  14.160  -5.168  1.00 20.00     0.015 C 
HETATM    8  C10 UNL     1     -33.714  14.896  -4.153  1.00 20.00     0.015 C 
ENDROOT
BRANCH   5   9
HETATM    9  C1  UNL     1     -37.498  16.790  -6.204  1.00 20.00     0.127 C 
HETATM   10  C8  UNL     1     -38.298  16.933  -4.938  1.00 20.00     0.091 C 
HETATM   11  O11 UNL     1     -37.983  16.300  -7.222  1.00 20.00    -0.298 OA
ENDBRANCH   5   9
TORSDOF 1
ENDMDL
MODEL 6
REMARK VINA RESULT:      -3.4     12.276     13.998
REMARK  1 active torsions:
REMARK  status: ('A' for Active; 'I' for Inactive)
REMARK    1  A    between atoms: C1_1  and  C6_6 
ROOT
HETATM    1  C2  UNL     1     -33.115  15.994  -3.554  1.00 20.00     0.002 C 
HETATM    2  C3  UNL     1     -33.908  17.184  -3.022  1.00 20.00     0.012 C 
HETATM    3  C4  UNL     1     -34.026  14.951  -4.194  1.00 20.00     0.009 C 
HETATM    4  C5  UNL     1     -35.672  16.776  -4.825  1.00 20.00     0.021 C 
HETATM    5  C6  UNL     1     -34.834  17.809  -4.063  1.00 20.00     0.055 C 
HETATM    6  C7  UNL     1     -34.910  15.522  -5.322  1.00 20.00    -0.047 C 
HETATM    7  C9  UNL     1     -34.061  15.841  -6.568  1.00 20.00     0.015 C 
HETATM    8  C10 UNL     1     -35.943  14.452  -5.734  1.00 20.00     0.015 C 
ENDROOT
BRANCH   5   9
HETATM    9  C1  UNL     1     -34.085  18.709  -5.003  1.00 20.00     0.127 C 
HETATM   10  C8  UNL     1     -34.828  19.181  -6.223  1.00 20.00     0.091 C 
HETATM   11  O11 UNL     1     -32.922  19.045  -4.786  1.00 20.00    -0.298 OA
ENDBRANCH   5   9
TORSDOF 1
ENDMDL
MODEL 7
REMARK VINA RESULT:      -3.3     11.856     13.770
REMARK  1 active torsions:
REMARK  status: ('A' for Active; 'I' for Inactive)
REMARK    1  A    between atoms: C1_1  and  C6_6 
ROOT
HETATM    1  C2  UNL     1     -27.136  -4.067  12.332  1.00 20.00     0.002 C 
HETATM    2  C3  UNL     1     -27.843  -4.017  10.980  1.00 20.00     0.012 C 
HETATM    3  C4  UNL     1     -25.626  -3.901  12.184  1.00 20.00     0.009 C 
HETATM    4  C5  UNL     1     -25.983  -2.503  10.097  1.00 20.00     0.021 C 
HETATM    5  C6  UNL     1     -27.490  -2.780  10.157  1.00 20.00     0.055 C 
HETATM    6  C7  UNL     1     -25.223  -2.610  11.443  1.00 20.00    -0.047 C 
HETATM    7  C9  UNL     1     -25.476  -1.374  12.328  1.00 20.00     0.015 C 
HETATM    8  C10 UNL     1     -23.709  -2.659  11.148  1.00 20.00     0.015 C 
ENDROOT
BRANCH   5   9
HETATM    9  C1  UNL     1     -28.252  -1.572  10.617  1.00 20.00     0.127 C 
HETATM   10  C8  UNL     1     -27.794  -0.240  10.085  1.00 20.00     0.091 C 
HETATM   11  O11 UNL     1     -29.206  -1.664  11.388  1.00 20.00    -0.298 OA
ENDBRANCH   5   9
TORSDOF 1
ENDMDL
MODEL 8
REMARK VINA RESULT:      -3.3     10.117     11.391
REMARK  1 active torsions:
REMARK  status: ('A' for Active; 'I' for Inactive)
REMARK    1  A    between atoms: C1_1  and  C6_6 
ROOT
HETATM    1  C2  UNL     1     -42.311  15.180   5.390  1.00 20.00     0.002 C 
HETATM    2  C3  UNL     1     -42.645  13.695   5.497  1.00 20.00     0.012 C 
HETATM    3  C4  UNL     1     -42.574  15.912   6.703  1.00 20.00     0.009 C 
HETATM    4  C5  UNL     1     -42.089  13.781   7.990  1.00 20.00     0.021 C 
HETATM    5  C6  UNL     1     -41.960  13.004   6.674  1.00 20.00     0.055 C 
HETATM    6  C7  UNL     1     -41.820  15.304   7.903  1.00 20.00    -0.047 C 
HETATM    7  C9  UNL     1     -40.311  15.601   7.803  1.00 20.00     0.015 C 
HETATM    8  C10 UNL     1     -42.333  15.966   9.199  1.00 20.00     0.015 C 
ENDROOT
BRANCH   5   9
HETATM    9  C1  UNL     1     -40.528  12.674   6.368  1.00 20.00     0.127 C 
HETATM   10  C8  UNL     1     -40.156  12.563   4.914  1.00 20.00     0.091 C 
HETATM   11  O11 UNL     1     -39.699  12.506   7.261  1.00 20.00    -0.298 OA
ENDBRANCH   5   9
TORSDOF 1
ENDMDL
MODEL 9
REMARK VINA RESULT:      -3.2     12.228     13.540
REMARK  1 active torsions:
REMARK  status: ('A' for Active; 'I' for Inactive)
REMARK    1  A    between atoms: C1_1  and  C6_6 
ROOT
HETATM    1  C2  UNL     1     -26.542  -0.191  11.581  1.00 20.00     0.002 C 
HETATM    2  C3  UNL     1     -27.800  -0.618  12.332  1.00 20.00     0.012 C 
HETATM    3  C4  UNL     1     -25.360  -1.102  11.898  1.00 20.00     0.009 C 
HETATM    4  C5  UNL     1     -26.956  -3.031  12.311  1.00 20.00     0.021 C 
HETATM    5  C6  UNL     1     -28.154  -2.091  12.132  1.00 20.00     0.055 C 
HETATM    6  C7  UNL     1     -25.644  -2.592  11.615  1.00 20.00    -0.047 C 
HETATM    7  C9  UNL     1     -25.700  -2.855  10.097  1.00 20.00     0.015 C 
HETATM    8  C10 UNL     1     -24.482  -3.436  12.182  1.00 20.00     0.015 C 
ENDROOT
BRANCH   5   9
HETATM    9  C1  UNL     1     -28.842  -2.322  10.818  1.00 20.00     0.127 C 
HETATM   10  C8  UNL     1     -29.102  -3.754  10.434  1.00 20.00     0.091 C 
HETATM   11  O11 UNL     1     -29.178  -1.388  10.091  1.00 20.00    -0.298 OA
ENDBRANCH   5   9
TORSDOF 1
ENDMDL
