MODEL 1
REMARK VINA RESULT:      -5.2      0.000      0.000
REMARK  1 active torsions:
REMARK  status: ('A' for Active; 'I' for Inactive)
REMARK    1  A    between atoms: C9_9  and  O11_11 
ROOT
HETATM    1  C1  UNL     1     -34.483   5.422   6.228  1.00 20.00    -0.025 C 
HETATM    2  C2  UNL     1     -33.992   4.599   5.282  1.00 20.00    -0.025 C 
HETATM    3  C3  UNL     1     -32.817   8.480   5.282  1.00 20.00    -0.022 C 
HETATM    4  C4  UNL     1     -31.916   8.467   4.271  1.00 20.00     0.001 C 
HETATM    5  C5  UNL     1     -35.421   5.979   4.205  1.00 20.00     0.018 C 
HETATM    6  C6  UNL     1     -34.990   6.667   5.539  1.00 20.00     0.017 C 
HETATM    7  C7  UNL     1     -34.043   5.349   3.951  1.00 20.00     0.016 C 
HETATM    8  C8  UNL     1     -33.905   7.550   4.901  1.00 20.00     0.023 C 
HETATM    9  C9  UNL     1     -32.209   7.358   3.254  1.00 20.00     0.146 C 
HETATM   10  C10 UNL     1     -33.029   6.486   4.180  1.00 20.00     0.034 C 
ENDROOT
BRANCH   9  11
HETATM   11  O11 UNL     1     -32.931   7.858   2.149  1.00 20.00    -0.391 OA
HETATM   12  H23 UNL     1     -33.160   8.783   2.347  1.00 20.00     0.210 HD
ENDBRANCH   9  11
TORSDOF 1
ENDMDL
MODEL 2
REMARK VINA RESULT:      -4.8     15.411     16.482
REMARK  1 active torsions:
REMARK  status: ('A' for Active; 'I' for Inactive)
REMARK    1  A    between atoms: C9_9  and  O11_11 
ROOT
HETATM    1  C1  UNL     1     -24.899  18.894  11.587  1.00 20.00    -0.025 C 
HETATM    2  C2  UNL     1     -23.814  18.609  12.332  1.00 20.00    -0.025 C 
HETATM    3  C3  UNL     1     -23.380  18.957   8.315  1.00 20.00    -0.022 C 
HETATM    4  C4  UNL     1     -22.039  18.806   8.196  1.00 20.00     0.001 C 
HETATM    5  C5  UNL     1     -24.290  16.711  11.201  1.00 20.00     0.018 C 
HETATM    6  C6  UNL     1     -24.945  17.910  10.443  1.00 20.00     0.017 C 
HETATM    7  C7  UNL     1     -23.041  17.505  11.610  1.00 20.00     0.016 C 
HETATM    8  C8  UNL     1     -23.819  18.057   9.407  1.00 20.00     0.023 C 
HETATM    9  C9  UNL     1     -21.450  17.981   9.345  1.00 20.00     0.146 C 
HETATM   10  C10 UNL     1     -22.576  18.221  10.327  1.00 20.00     0.034 C 
ENDROOT
BRANCH   9  11
HETATM   11  O11 UNL     1     -21.293  16.628   8.974  1.00 20.00    -0.391 OA
HETATM   12  H23 UNL     1     -20.655  16.230   9.592  1.00 20.00     0.210 HD
ENDBRANCH   9  11
TORSDOF 1
ENDMDL
MODEL 3
REMARK VINA RESULT:      -4.5      1.602      3.634
REMARK  1 active torsions:
REMARK  status: ('A' for Active; 'I' for Inactive)
REMARK    1  A    between atoms: C9_9  and  O11_11 
ROOT
HETATM    1  C1  UNL     1     -31.553   8.083   4.058  1.00 20.00    -0.025 C 
HETATM    2  C2  UNL     1     -32.263   8.491   5.127  1.00 20.00    -0.025 C 
HETATM    3  C3  UNL     1     -33.144   4.898   3.466  1.00 20.00    -0.022 C 
HETATM    4  C4  UNL     1     -34.095   4.456   4.322  1.00 20.00     0.001 C 
HETATM    5  C5  UNL     1     -33.677   8.628   3.370  1.00 20.00     0.018 C 
HETATM    6  C6  UNL     1     -32.531   7.634   2.999  1.00 20.00     0.017 C 
HETATM    7  C7  UNL     1     -33.734   8.191   4.841  1.00 20.00     0.016 C 
HETATM    8  C8  UNL     1     -33.327   6.363   3.339  1.00 20.00     0.023 C 
HETATM    9  C9  UNL     1     -34.830   5.611   5.012  1.00 20.00     0.146 C 
HETATM   10  C10 UNL     1     -33.750   6.650   4.807  1.00 20.00     0.034 C 
ENDROOT
BRANCH   9  11
HETATM   11  O11 UNL     1     -36.043   5.909   4.353  1.00 20.00    -0.391 OA
HETATM   12  H23 UNL     1     -35.862   6.630   3.725  1.00 20.00     0.210 HD
ENDBRANCH   9  11
TORSDOF 1
ENDMDL
MODEL 4
REMARK VINA RESULT:      -4.2     12.270     13.543
REMARK  1 active torsions:
REMARK  status: ('A' for Active; 'I' for Inactive)
REMARK    1  A    between atoms: C9_9  and  O11_11 
ROOT
HETATM    1  C1  UNL     1     -33.943  17.707  -1.273  1.00 20.00    -0.025 C 
HETATM    2  C2  UNL     1     -34.795  18.552  -1.884  1.00 20.00    -0.025 C 
HETATM    3  C3  UNL     1     -33.662  15.184  -3.837  1.00 20.00    -0.022 C 
HETATM    4  C4  UNL     1     -34.416  15.281  -4.959  1.00 20.00     0.001 C 
HETATM    5  C5  UNL     1     -32.834  18.761  -2.989  1.00 20.00     0.018 C 
HETATM    6  C6  UNL     1     -32.833  17.387  -2.246  1.00 20.00     0.017 C 
HETATM    7  C7  UNL     1     -34.330  18.702  -3.333  1.00 20.00     0.016 C 
HETATM    8  C8  UNL     1     -33.254  16.560  -3.471  1.00 20.00     0.023 C 
HETATM    9  C9  UNL     1     -34.766  16.736  -5.291  1.00 20.00     0.146 C 
HETATM   10  C10 UNL     1     -34.562  17.286  -3.896  1.00 20.00     0.034 C 
ENDROOT
BRANCH   9  11
HETATM   11  O11 UNL     1     -33.877  17.268  -6.250  1.00 20.00    -0.391 OA
HETATM   12  H23 UNL     1     -33.883  18.236  -6.146  1.00 20.00     0.210 HD
ENDBRANCH   9  11
TORSDOF 1
ENDMDL
MODEL 5
REMARK VINA RESULT:      -4.1     12.448     13.773
REMARK  1 active torsions:
REMARK  status: ('A' for Active; 'I' for Inactive)
REMARK    1  A    between atoms: C9_9  and  O11_11 
ROOT
HETATM    1  C1  UNL     1     -36.452  16.957  -6.196  1.00 20.00    -0.025 C 
HETATM    2  C2  UNL     1     -36.434  15.618  -6.341  1.00 20.00    -0.025 C 
HETATM    3  C3  UNL     1     -33.986  17.308  -3.586  1.00 20.00    -0.022 C 
HETATM    4  C4  UNL     1     -33.441  16.202  -3.026  1.00 20.00     0.001 C 
HETATM    5  C5  UNL     1     -34.474  16.349  -7.197  1.00 20.00     0.018 C 
HETATM    6  C6  UNL     1     -35.023  17.444  -6.228  1.00 20.00     0.017 C 
HETATM    7  C7  UNL     1     -34.971  15.177  -6.337  1.00 20.00     0.016 C 
HETATM    8  C8  UNL     1     -34.160  17.020  -5.028  1.00 20.00     0.023 C 
HETATM    9  C9  UNL     1     -33.429  15.014  -3.995  1.00 20.00     0.146 C 
HETATM   10  C10 UNL     1     -34.535  15.516  -4.898  1.00 20.00     0.034 C 
ENDROOT
BRANCH   9  11
HETATM   11  O11 UNL     1     -32.178  14.892  -4.636  1.00 20.00    -0.391 OA
HETATM   12  H23 UNL     1     -31.857  13.986  -4.476  1.00 20.00     0.210 HD
ENDBRANCH   9  11
TORSDOF 1
ENDMDL
MODEL 6
REMARK VINA RESULT:      -4.0     12.635     14.029
REMARK  1 active torsions:
REMARK  status: ('A' for Active; 'I' for Inactive)
REMARK    1  A    between atoms: C9_9  and  O11_11 
ROOT
HETATM    1  C1  UNL     1     -35.834  18.420  -3.861  1.00 20.00    -0.025 C 
HETATM    2  C2  UNL     1     -36.529  17.952  -4.915  1.00 20.00    -0.025 C 
HETATM    3  C3  UNL     1     -33.463  15.728  -3.466  1.00 20.00    -0.022 C 
HETATM    4  C4  UNL     1     -33.564  14.627  -4.248  1.00 20.00     0.001 C 
HETATM    5  C5  UNL     1     -34.510  18.549  -5.736  1.00 20.00     0.018 C 
HETATM    6  C6  UNL     1     -34.365  18.322  -4.197  1.00 20.00     0.017 C 
HETATM    7  C7  UNL     1     -35.519  17.406  -5.924  1.00 20.00     0.016 C 
HETATM    8  C8  UNL     1     -33.814  16.892  -4.314  1.00 20.00     0.023 C 
HETATM    9  C9  UNL     1     -34.214  14.940  -5.601  1.00 20.00     0.146 C 
HETATM   10  C10 UNL     1     -34.919  16.206  -5.165  1.00 20.00     0.034 C 
ENDROOT
BRANCH   9  11
HETATM   11  O11 UNL     1     -33.238  15.144  -6.600  1.00 20.00    -0.391 OA
HETATM   12  H23 UNL     1     -33.611  15.769  -7.246  1.00 20.00     0.210 HD
ENDBRANCH   9  11
TORSDOF 1
ENDMDL
MODEL 7
REMARK VINA RESULT:      -4.0      1.602      3.499
REMARK  1 active torsions:
REMARK  status: ('A' for Active; 'I' for Inactive)
REMARK    1  A    between atoms: C9_9  and  O11_11 
ROOT
HETATM    1  C1  UNL     1     -32.832   9.332   3.998  1.00 20.00    -0.025 C 
HETATM    2  C2  UNL     1     -33.126   8.717   2.837  1.00 20.00    -0.025 C 
HETATM    3  C3  UNL     1     -34.285   6.973   6.310  1.00 20.00    -0.022 C 
HETATM    4  C4  UNL     1     -34.970   5.906   5.835  1.00 20.00     0.001 C 
HETATM    5  C5  UNL     1     -31.515   7.458   3.801  1.00 20.00     0.018 C 
HETATM    6  C6  UNL     1     -32.202   8.311   4.915  1.00 20.00     0.017 C 
HETATM    7  C7  UNL     1     -32.815   7.231   3.015  1.00 20.00     0.016 C 
HETATM    8  C8  UNL     1     -33.141   7.193   5.393  1.00 20.00     0.023 C 
HETATM    9  C9  UNL     1     -34.481   5.480   4.446  1.00 20.00     0.146 C 
HETATM   10  C10 UNL     1     -33.857   6.806   4.068  1.00 20.00     0.034 C 
ENDROOT
BRANCH   9  11
HETATM   11  O11 UNL     1     -33.557   4.417   4.535  1.00 20.00    -0.391 OA
HETATM   12  H23 UNL     1     -33.393   4.254   5.480  1.00 20.00     0.210 HD
ENDBRANCH   9  11
TORSDOF 1
ENDMDL
MODEL 8
REMARK VINA RESULT:      -4.0     12.624     14.020
REMARK  1 active torsions:
REMARK  status: ('A' for Active; 'I' for Inactive)
REMARK    1  A    between atoms: C9_9  and  O11_11 
ROOT
HETATM    1  C1  UNL     1     -34.121  15.469  -7.247  1.00 20.00    -0.025 C 
HETATM    2  C2  UNL     1     -34.462  16.755  -7.455  1.00 20.00    -0.025 C 
HETATM    3  C3  UNL     1     -33.311  15.625  -3.734  1.00 20.00    -0.022 C 
HETATM    4  C4  UNL     1     -33.335  16.818  -3.094  1.00 20.00     0.001 C 
HETATM    5  C5  UNL     1     -36.135  15.875  -6.217  1.00 20.00     0.018 C 
HETATM    6  C6  UNL     1     -34.866  14.986  -6.026  1.00 20.00     0.017 C 
HETATM    7  C7  UNL     1     -35.343  17.190  -6.284  1.00 20.00     0.016 C 
HETATM    8  C8  UNL     1     -34.436  15.632  -4.699  1.00 20.00     0.023 C 
HETATM    9  C9  UNL     1     -34.320  17.799  -3.741  1.00 20.00     0.146 C 
HETATM   10  C10 UNL     1     -34.360  17.132  -5.099  1.00 20.00     0.034 C 
ENDROOT
BRANCH   9  11
HETATM   11  O11 UNL     1     -35.559  17.796  -3.065  1.00 20.00    -0.391 OA
HETATM   12  H23 UNL     1     -35.894  18.710  -3.070  1.00 20.00     0.210 HD
ENDBRANCH   9  11
TORSDOF 1
ENDMDL
MODEL 9
REMARK VINA RESULT:      -3.8      1.278      2.303
REMARK  1 active torsions:
REMARK  status: ('A' for Active; 'I' for Inactive)
REMARK    1  A    between atoms: C9_9  and  O11_11 
ROOT
HETATM    1  C1  UNL     1     -35.159   5.197   4.144  1.00 20.00    -0.025 C 
HETATM    2  C2  UNL     1     -35.646   6.149   4.962  1.00 20.00    -0.025 C 
HETATM    3  C3  UNL     1     -32.422   7.022   2.663  1.00 20.00    -0.022 C 
HETATM    4  C4  UNL     1     -32.248   8.331   2.966  1.00 20.00     0.001 C 
HETATM    5  C5  UNL     1     -33.682   5.510   5.877  1.00 20.00     0.018 C 
HETATM    6  C6  UNL     1     -33.668   5.118   4.365  1.00 20.00     0.017 C 
HETATM    7  C7  UNL     1     -34.455   6.817   5.647  1.00 20.00     0.016 C 
HETATM    8  C8  UNL     1     -32.872   6.349   3.904  1.00 20.00     0.023 C 
HETATM    9  C9  UNL     1     -32.791   8.676   4.357  1.00 20.00     0.146 C 
HETATM   10  C10 UNL     1     -33.745   7.506   4.466  1.00 20.00     0.034 C 
ENDROOT
BRANCH   9  11
HETATM   11  O11 UNL     1     -31.762   8.666   5.323  1.00 20.00    -0.391 OA
HETATM   12  H23 UNL     1     -30.931   8.880   4.863  1.00 20.00     0.210 HD
ENDBRANCH   9  11
TORSDOF 1
ENDMDL
