MODEL 1
REMARK VINA RESULT:      -5.2      0.000      0.000
REMARK  2 active torsions:
REMARK  status: ('A' for Active; 'I' for Inactive)
REMARK    1  A    between atoms: C5_5  and  C6_6 
REMARK    2  A    between atoms: C6_6  and  O7_7 
ROOT
HETATM    1  C1  UNL     1     -34.351   5.618   6.462  1.00 20.00    -0.004 A 
HETATM    2  C2  UNL     1     -34.672   5.005   5.201  1.00 20.00    -0.004 A 
HETATM    3  C3  UNL     1     -33.991   6.894   6.264  1.00 20.00    -0.016 A 
HETATM    4  C4  UNL     1     -34.513   5.898   4.214  1.00 20.00    -0.016 A 
HETATM    5  C5  UNL     1     -34.057   7.214   4.792  1.00 20.00     0.054 A 
ENDROOT
BRANCH   5   6
HETATM    6  C6  UNL     1     -32.709   7.652   4.235  1.00 20.00     0.176 C 
BRANCH   6   7
HETATM    7  O7  UNL     1     -32.104   8.539   5.160  1.00 20.00    -0.400 OA
HETATM    8  H15 UNL     1     -32.277   9.441   4.843  1.00 20.00     0.209 HD
ENDBRANCH   6   7
ENDBRANCH   5   6
TORSDOF 2
ENDMDL
MODEL 2
REMARK VINA RESULT:      -4.9      1.311      1.848
REMARK  2 active torsions:
REMARK  status: ('A' for Active; 'I' for Inactive)
REMARK    1  A    between atoms: C5_5  and  C6_6 
REMARK    2  A    between atoms: C6_6  and  O7_7 
ROOT
HETATM    1  C1  UNL     1     -33.960   6.871   6.315  1.00 20.00    -0.004 A 
HETATM    2  C2  UNL     1     -34.457   5.528   6.448  1.00 20.00    -0.004 A 
HETATM    3  C3  UNL     1     -33.866   7.190   5.016  1.00 20.00    -0.016 A 
HETATM    4  C4  UNL     1     -34.673   5.005   5.234  1.00 20.00    -0.016 A 
HETATM    5  C5  UNL     1     -34.316   6.020   4.177  1.00 20.00     0.054 A 
ENDROOT
BRANCH   5   6
HETATM    6  C6  UNL     1     -33.220   5.522   3.245  1.00 20.00     0.176 C 
BRANCH   6   7
HETATM    7  O7  UNL     1     -32.428   6.627   2.846  1.00 20.00    -0.400 OA
HETATM    8  H15 UNL     1     -33.006   7.221   2.337  1.00 20.00     0.209 HD
ENDBRANCH   6   7
ENDBRANCH   5   6
TORSDOF 2
ENDMDL
MODEL 3
REMARK VINA RESULT:      -4.6      2.029      3.368
REMARK  2 active torsions:
REMARK  status: ('A' for Active; 'I' for Inactive)
REMARK    1  A    between atoms: C5_5  and  C6_6 
REMARK    2  A    between atoms: C6_6  and  O7_7 
ROOT
HETATM    1  C1  UNL     1     -32.330   7.494   3.640  1.00 20.00    -0.004 A 
HETATM    2  C2  UNL     1     -32.497   8.453   4.700  1.00 20.00    -0.004 A 
HETATM    3  C3  UNL     1     -33.336   6.608   3.672  1.00 20.00    -0.016 A 
HETATM    4  C4  UNL     1     -33.607   8.167   5.395  1.00 20.00    -0.016 A 
HETATM    5  C5  UNL     1     -34.270   6.947   4.807  1.00 20.00     0.054 A 
ENDROOT
BRANCH   5   6
HETATM    6  C6  UNL     1     -34.387   5.812   5.816  1.00 20.00     0.176 C 
BRANCH   6   7
HETATM    7  O7  UNL     1     -35.168   4.777   5.245  1.00 20.00    -0.400 OA
HETATM    8  H15 UNL     1     -34.711   3.939   5.432  1.00 20.00     0.209 HD
ENDBRANCH   6   7
ENDBRANCH   5   6
TORSDOF 2
ENDMDL
MODEL 4
REMARK VINA RESULT:      -4.5      0.876      1.689
REMARK  2 active torsions:
REMARK  status: ('A' for Active; 'I' for Inactive)
REMARK    1  A    between atoms: C5_5  and  C6_6 
REMARK    2  A    between atoms: C6_6  and  O7_7 
ROOT
HETATM    1  C1  UNL     1     -34.830   5.190   4.897  1.00 20.00    -0.004 A 
HETATM    2  C2  UNL     1     -34.829   5.656   6.259  1.00 20.00    -0.004 A 
HETATM    3  C3  UNL     1     -33.968   5.917   4.172  1.00 20.00    -0.016 A 
HETATM    4  C4  UNL     1     -33.967   6.674   6.385  1.00 20.00    -0.016 A 
HETATM    5  C5  UNL     1     -33.316   6.953   5.054  1.00 20.00     0.054 A 
ENDROOT
BRANCH   5   6
HETATM    6  C6  UNL     1     -33.580   8.372   4.569  1.00 20.00     0.176 C 
BRANCH   6   7
HETATM    7  O7  UNL     1     -32.561   8.735   3.654  1.00 20.00    -0.400 OA
HETATM    8  H15 UNL     1     -32.153   9.550   3.991  1.00 20.00     0.209 HD
ENDBRANCH   6   7
ENDBRANCH   5   6
TORSDOF 2
ENDMDL
MODEL 5
REMARK VINA RESULT:      -4.4      2.196      3.137
REMARK  2 active torsions:
REMARK  status: ('A' for Active; 'I' for Inactive)
REMARK    1  A    between atoms: C5_5  and  C6_6 
REMARK    2  A    between atoms: C6_6  and  O7_7 
ROOT
HETATM    1  C1  UNL     1     -32.826   8.546   4.860  1.00 20.00    -0.004 A 
HETATM    2  C2  UNL     1     -32.447   7.883   3.641  1.00 20.00    -0.004 A 
HETATM    3  C3  UNL     1     -33.557   7.715   5.616  1.00 20.00    -0.016 A 
HETATM    4  C4  UNL     1     -32.942   6.638   3.633  1.00 20.00    -0.016 A 
HETATM    5  C5  UNL     1     -33.711   6.392   4.907  1.00 20.00     0.054 A 
ENDROOT
BRANCH   5   6
HETATM    6  C6  UNL     1     -35.171   6.046   4.642  1.00 20.00     0.176 C 
BRANCH   6   7
HETATM    7  O7  UNL     1     -35.412   4.726   5.095  1.00 20.00    -0.400 OA
HETATM    8  H15 UNL     1     -34.579   4.234   4.996  1.00 20.00     0.209 HD
ENDBRANCH   6   7
ENDBRANCH   5   6
TORSDOF 2
ENDMDL
MODEL 6
REMARK VINA RESULT:      -3.7     12.383     13.261
REMARK  2 active torsions:
REMARK  status: ('A' for Active; 'I' for Inactive)
REMARK    1  A    between atoms: C5_5  and  C6_6 
REMARK    2  A    between atoms: C6_6  and  O7_7 
ROOT
HETATM    1  C1  UNL     1     -33.373  15.816  -3.590  1.00 20.00    -0.004 A 
HETATM    2  C2  UNL     1     -34.068  16.883  -4.260  1.00 20.00    -0.004 A 
HETATM    3  C3  UNL     1     -33.684  14.645  -4.165  1.00 20.00    -0.016 A 
HETATM    4  C4  UNL     1     -34.815  16.380  -5.252  1.00 20.00    -0.016 A 
HETATM    5  C5  UNL     1     -34.648  14.882  -5.301  1.00 20.00     0.054 A 
ENDROOT
BRANCH   5   6
HETATM    6  C6  UNL     1     -35.968  14.148  -5.100  1.00 20.00     0.176 C 
BRANCH   6   7
HETATM    7  O7  UNL     1     -35.705  12.913  -4.457  1.00 20.00    -0.400 OA
HETATM    8  H15 UNL     1     -36.522  12.653  -3.997  1.00 20.00     0.209 HD
ENDBRANCH   6   7
ENDBRANCH   5   6
TORSDOF 2
ENDMDL
MODEL 7
REMARK VINA RESULT:      -3.6      1.777      2.629
REMARK  2 active torsions:
REMARK  status: ('A' for Active; 'I' for Inactive)
REMARK    1  A    between atoms: C5_5  and  C6_6 
REMARK    2  A    between atoms: C6_6  and  O7_7 
ROOT
HETATM    1  C1  UNL     1     -34.108   6.482   4.820  1.00 20.00    -0.004 A 
HETATM    2  C2  UNL     1     -33.892   7.618   5.676  1.00 20.00    -0.004 A 
HETATM    3  C3  UNL     1     -33.256   6.529   3.786  1.00 20.00    -0.016 A 
HETATM    4  C4  UNL     1     -32.907   8.376   5.176  1.00 20.00    -0.016 A 
HETATM    5  C5  UNL     1     -32.387   7.757   3.904  1.00 20.00     0.054 A 
ENDROOT
BRANCH   5   6
HETATM    6  C6  UNL     1     -32.536   8.686   2.706  1.00 20.00     0.176 C 
BRANCH   6   7
HETATM    7  O7  UNL     1     -32.166   7.979   1.536  1.00 20.00    -0.400 OA
HETATM    8  H15 UNL     1     -31.275   8.282   1.291  1.00 20.00     0.209 HD
ENDBRANCH   6   7
ENDBRANCH   5   6
TORSDOF 2
ENDMDL
MODEL 8
REMARK VINA RESULT:      -3.5     15.263     16.518
REMARK  2 active torsions:
REMARK  status: ('A' for Active; 'I' for Inactive)
REMARK    1  A    between atoms: C5_5  and  C6_6 
REMARK    2  A    between atoms: C6_6  and  O7_7 
ROOT
HETATM    1  C1  UNL     1     -23.565  19.128   9.124  1.00 20.00    -0.004 A 
HETATM    2  C2  UNL     1     -22.321  18.945   9.823  1.00 20.00    -0.004 A 
HETATM    3  C3  UNL     1     -24.578  18.694   9.888  1.00 20.00    -0.016 A 
HETATM    4  C4  UNL     1     -22.555  18.396  11.023  1.00 20.00    -0.016 A 
HETATM    5  C5  UNL     1     -24.037  18.175  11.197  1.00 20.00     0.054 A 
ENDROOT
BRANCH   5   6
HETATM    6  C6  UNL     1     -24.379  16.708  11.422  1.00 20.00     0.176 C 
BRANCH   6   7
HETATM    7  O7  UNL     1     -23.443  16.159  12.332  1.00 20.00    -0.400 OA
HETATM    8  H15 UNL     1     -22.723  16.806  12.424  1.00 20.00     0.209 HD
ENDBRANCH   6   7
ENDBRANCH   5   6
TORSDOF 2
ENDMDL
MODEL 9
REMARK VINA RESULT:      -3.4     12.274     13.306
REMARK  2 active torsions:
REMARK  status: ('A' for Active; 'I' for Inactive)
REMARK    1  A    between atoms: C5_5  and  C6_6 
REMARK    2  A    between atoms: C6_6  and  O7_7 
ROOT
HETATM    1  C1  UNL     1     -34.102  17.700  -2.324  1.00 20.00    -0.004 A 
HETATM    2  C2  UNL     1     -34.591  18.047  -3.632  1.00 20.00    -0.004 A 
HETATM    3  C3  UNL     1     -33.394  16.564  -2.395  1.00 20.00    -0.016 A 
HETATM    4  C4  UNL     1     -34.189  17.129  -4.521  1.00 20.00    -0.016 A 
HETATM    5  C5  UNL     1     -33.372  16.072  -3.821  1.00 20.00     0.054 A 
ENDROOT
BRANCH   5   6
HETATM    6  C6  UNL     1     -33.982  14.684  -3.962  1.00 20.00     0.176 C 
BRANCH   6   7
HETATM    7  O7  UNL     1     -33.059  13.851  -4.642  1.00 20.00    -0.400 OA
HETATM    8  H15 UNL     1     -32.777  14.330  -5.440  1.00 20.00     0.209 HD
ENDBRANCH   6   7
ENDBRANCH   5   6
TORSDOF 2
ENDMDL
