MODEL 1
REMARK VINA RESULT:      -4.2      0.000      0.000
REMARK  2 active torsions:
REMARK  status: ('A' for Active; 'I' for Inactive)
REMARK    1  A    between atoms: C3_3  and  C5_5 
REMARK    2  A    between atoms: C4_4  and  C10_10 
ROOT
HETATM    1  C1  UNL     1     -36.557  15.712  -5.304  1.00 20.00    -0.026 C 
HETATM    2  C2  UNL     1     -35.728  16.766  -5.298  1.00 20.00    -0.025 C 
HETATM    3  C6  UNL     1     -34.768  15.174  -6.667  1.00 20.00     0.017 C 
HETATM    4  C7  UNL     1     -34.794  14.177  -4.504  1.00 20.00     0.017 C 
HETATM    5  C8  UNL     1     -35.737  14.504  -5.686  1.00 20.00     0.009 C 
HETATM    6  C9  UNL     1     -34.351  16.258  -5.666  1.00 20.00     0.016 C 
HETATM    7  C10 UNL     1     -33.805  15.377  -4.516  1.00 20.00     0.017 C 
ENDROOT
BRANCH   7   8
HETATM    8  C4  UNL     1     -33.669  16.073  -3.201  1.00 20.00    -0.015 C 
HETATM    9  C3  UNL     1     -33.004  17.226  -3.040  1.00 20.00     0.081 C 
BRANCH   9  10
HETATM   10  C5  UNL     1     -32.888  17.910  -1.671  1.00 20.00     0.198 C 
HETATM   11  O11 UNL     1     -31.966  18.777  -1.605  1.00 20.00    -0.645 OA
HETATM   12  O12 UNL     1     -33.701  17.546  -0.776  1.00 20.00    -0.645 OA
ENDBRANCH   9  10
ENDBRANCH   7   8
TORSDOF 2
ENDMDL
MODEL 2
REMARK VINA RESULT:      -4.2      2.988      4.371
REMARK  2 active torsions:
REMARK  status: ('A' for Active; 'I' for Inactive)
REMARK    1  A    between atoms: C3_3  and  C5_5 
REMARK    2  A    between atoms: C4_4  and  C10_10 
ROOT
HETATM    1  C1  UNL     1     -33.054  16.803  -3.398  1.00 20.00    -0.026 C 
HETATM    2  C2  UNL     1     -33.423  16.740  -2.110  1.00 20.00    -0.025 C 
HETATM    3  C6  UNL     1     -34.922  18.146  -3.163  1.00 20.00     0.017 C 
HETATM    4  C7  UNL     1     -32.826  19.263  -3.329  1.00 20.00     0.017 C 
HETATM    5  C8  UNL     1     -33.613  18.089  -3.958  1.00 20.00     0.009 C 
HETATM    6  C9  UNL     1     -34.220  17.991  -1.808  1.00 20.00     0.016 C 
HETATM    7  C10 UNL     1     -33.280  19.219  -1.842  1.00 20.00     0.017 C 
ENDROOT
BRANCH   7   8
HETATM    8  C4  UNL     1     -32.156  19.178  -0.858  1.00 20.00    -0.015 C 
HETATM    9  C3  UNL     1     -32.325  18.918   0.446  1.00 20.00     0.081 C 
BRANCH   9  10
HETATM   10  C5  UNL     1     -31.143  18.885   1.425  1.00 20.00     0.198 C 
HETATM   11  O11 UNL     1     -31.446  18.475   2.585  1.00 20.00    -0.645 OA
HETATM   12  O12 UNL     1     -30.020  19.260   0.984  1.00 20.00    -0.645 OA
ENDBRANCH   9  10
ENDBRANCH   7   8
TORSDOF 2
ENDMDL
MODEL 3
REMARK VINA RESULT:      -4.2     12.353     13.365
REMARK  2 active torsions:
REMARK  status: ('A' for Active; 'I' for Inactive)
REMARK    1  A    between atoms: C3_3  and  C5_5 
REMARK    2  A    between atoms: C4_4  and  C10_10 
ROOT
HETATM    1  C1  UNL     1     -41.293  14.370   8.637  1.00 20.00    -0.026 C 
HETATM    2  C2  UNL     1     -41.042  15.191   7.607  1.00 20.00    -0.025 C 
HETATM    3  C6  UNL     1     -43.335  14.939   7.713  1.00 20.00     0.017 C 
HETATM    4  C7  UNL     1     -42.509  12.763   7.209  1.00 20.00     0.017 C 
HETATM    5  C8  UNL     1     -42.647  13.749   8.392  1.00 20.00     0.009 C 
HETATM    6  C9  UNL     1     -42.225  15.109   6.667  1.00 20.00     0.016 C 
HETATM    7  C10 UNL     1     -42.256  13.712   6.002  1.00 20.00     0.017 C 
ENDROOT
BRANCH   7   8
HETATM    8  C4  UNL     1     -41.045  13.372   5.197  1.00 20.00    -0.015 C 
HETATM    9  C3  UNL     1     -40.255  12.320   5.457  1.00 20.00     0.081 C 
BRANCH   9  10
HETATM   10  C5  UNL     1     -39.018  12.005   4.605  1.00 20.00     0.198 C 
HETATM   11  O11 UNL     1     -37.925  12.058   5.245  1.00 20.00    -0.645 OA
HETATM   12  O12 UNL     1     -39.213  11.735   3.387  1.00 20.00    -0.645 OA
ENDBRANCH   9  10
ENDBRANCH   7   8
TORSDOF 2
ENDMDL
MODEL 4
REMARK VINA RESULT:      -4.1      3.091      5.110
REMARK  2 active torsions:
REMARK  status: ('A' for Active; 'I' for Inactive)
REMARK    1  A    between atoms: C3_3  and  C5_5 
REMARK    2  A    between atoms: C4_4  and  C10_10 
ROOT
HETATM    1  C1  UNL     1     -33.721  17.242  -1.457  1.00 20.00    -0.026 C 
HETATM    2  C2  UNL     1     -33.270  16.628  -2.562  1.00 20.00    -0.025 C 
HETATM    3  C6  UNL     1     -32.854  18.883  -2.835  1.00 20.00     0.017 C 
HETATM    4  C7  UNL     1     -35.227  18.712  -2.752  1.00 20.00     0.017 C 
HETATM    5  C8  UNL     1     -33.989  18.681  -1.825  1.00 20.00     0.009 C 
HETATM    6  C9  UNL     1     -33.247  17.658  -3.670  1.00 20.00     0.016 C 
HETATM    7  C10 UNL     1     -34.699  18.036  -4.050  1.00 20.00     0.017 C 
ENDROOT
BRANCH   7   8
HETATM    8  C4  UNL     1     -35.538  16.900  -4.536  1.00 20.00    -0.015 C 
HETATM    9  C3  UNL     1     -35.233  16.164  -5.614  1.00 20.00     0.081 C 
BRANCH   9  10
HETATM   10  C5  UNL     1     -36.122  15.003  -6.081  1.00 20.00     0.198 C 
HETATM   11  O11 UNL     1     -37.078  14.738  -5.292  1.00 20.00    -0.645 OA
HETATM   12  O12 UNL     1     -35.816  14.448  -7.173  1.00 20.00    -0.645 OA
ENDBRANCH   9  10
ENDBRANCH   7   8
TORSDOF 2
ENDMDL
MODEL 5
REMARK VINA RESULT:      -3.9     11.501     12.757
REMARK  2 active torsions:
REMARK  status: ('A' for Active; 'I' for Inactive)
REMARK    1  A    between atoms: C3_3  and  C5_5 
REMARK    2  A    between atoms: C4_4  and  C10_10 
ROOT
HETATM    1  C1  UNL     1     -35.534   5.782   4.946  1.00 20.00    -0.026 C 
HETATM    2  C2  UNL     1     -34.544   5.510   4.084  1.00 20.00    -0.025 C 
HETATM    3  C6  UNL     1     -33.672   5.240   6.205  1.00 20.00     0.017 C 
HETATM    4  C7  UNL     1     -34.226   7.552   6.068  1.00 20.00     0.017 C 
HETATM    5  C8  UNL     1     -34.891   6.168   6.256  1.00 20.00     0.009 C 
HETATM    6  C9  UNL     1     -33.237   5.726   4.817  1.00 20.00     0.016 C 
HETATM    7  C10 UNL     1     -33.050   7.236   5.099  1.00 20.00     0.017 C 
ENDROOT
BRANCH   7   8
HETATM    8  C4  UNL     1     -33.008   8.102   3.882  1.00 20.00    -0.015 C 
HETATM    9  C3  UNL     1     -32.365   7.764   2.756  1.00 20.00     0.081 C 
BRANCH   9  10
HETATM   10  C5  UNL     1     -32.346   8.683   1.526  1.00 20.00     0.198 C 
HETATM   11  O11 UNL     1     -31.732   8.198   0.530  1.00 20.00    -0.645 OA
HETATM   12  O12 UNL     1     -32.930   9.798   1.634  1.00 20.00    -0.645 OA
ENDBRANCH   9  10
ENDBRANCH   7   8
TORSDOF 2
ENDMDL
MODEL 6
REMARK VINA RESULT:      -3.8     24.203     25.320
REMARK  2 active torsions:
REMARK  status: ('A' for Active; 'I' for Inactive)
REMARK    1  A    between atoms: C3_3  and  C5_5 
REMARK    2  A    between atoms: C4_4  and  C10_10 
ROOT
HETATM    1  C1  UNL     1     -27.653  -0.543  10.243  1.00 20.00    -0.026 C 
HETATM    2  C2  UNL     1     -27.983  -1.818   9.991  1.00 20.00    -0.025 C 
HETATM    3  C6  UNL     1     -28.106  -1.540  12.280  1.00 20.00     0.017 C 
HETATM    4  C7  UNL     1     -25.809  -1.200  11.751  1.00 20.00     0.017 C 
HETATM    5  C8  UNL     1     -27.176  -0.482  11.674  1.00 20.00     0.009 C 
HETATM    6  C9  UNL     1     -27.717  -2.610  11.253  1.00 20.00     0.016 C 
HETATM    7  C10 UNL     1     -26.191  -2.687  11.498  1.00 20.00     0.017 C 
ENDROOT
BRANCH   7   8
HETATM    8  C4  UNL     1     -25.411  -3.344  10.406  1.00 20.00    -0.015 C 
HETATM    9  C3  UNL     1     -24.269  -2.846   9.910  1.00 20.00     0.081 C 
BRANCH   9  10
HETATM   10  C5  UNL     1     -23.498  -3.552   8.787  1.00 20.00     0.198 C 
HETATM   11  O11 UNL     1     -23.098  -4.717   9.089  1.00 20.00    -0.645 OA
HETATM   12  O12 UNL     1     -23.344  -2.915   7.707  1.00 20.00    -0.645 OA
ENDBRANCH   9  10
ENDBRANCH   7   8
TORSDOF 2
ENDMDL
MODEL 7
REMARK VINA RESULT:      -3.8     13.383     14.988
REMARK  2 active torsions:
REMARK  status: ('A' for Active; 'I' for Inactive)
REMARK    1  A    between atoms: C3_3  and  C5_5 
REMARK    2  A    between atoms: C4_4  and  C10_10 
ROOT
HETATM    1  C1  UNL     1     -41.265   7.642   0.256  1.00 20.00    -0.026 C 
HETATM    2  C2  UNL     1     -42.256   7.653  -0.648  1.00 20.00    -0.025 C 
HETATM    3  C6  UNL     1     -43.239   7.306   1.413  1.00 20.00     0.017 C 
HETATM    4  C7  UNL     1     -41.873   5.387   1.063  1.00 20.00     0.017 C 
HETATM    5  C8  UNL     1     -41.767   6.879   1.458  1.00 20.00     0.009 C 
HETATM    6  C9  UNL     1     -43.417   6.887  -0.052  1.00 20.00     0.016 C 
HETATM    7  C10 UNL     1     -43.048   5.387   0.043  1.00 20.00     0.017 C 
ENDROOT
BRANCH   7   8
HETATM    8  C4  UNL     1     -42.728   4.735  -1.262  1.00 20.00    -0.015 C 
HETATM    9  C3  UNL     1     -43.411   3.692  -1.755  1.00 20.00     0.081 C 
BRANCH   9  10
HETATM   10  C5  UNL     1     -43.049   3.050  -3.102  1.00 20.00     0.198 C 
HETATM   11  O11 UNL     1     -42.792   3.887  -4.019  1.00 20.00    -0.645 OA
HETATM   12  O12 UNL     1     -43.046   1.788  -3.155  1.00 20.00    -0.645 OA
ENDBRANCH   9  10
ENDBRANCH   7   8
TORSDOF 2
ENDMDL
MODEL 8
REMARK VINA RESULT:      -3.8     12.262     13.580
REMARK  2 active torsions:
REMARK  status: ('A' for Active; 'I' for Inactive)
REMARK    1  A    between atoms: C3_3  and  C5_5 
REMARK    2  A    between atoms: C4_4  and  C10_10 
ROOT
HETATM    1  C1  UNL     1     -40.849  16.733   8.031  1.00 20.00    -0.026 C 
HETATM    2  C2  UNL     1     -41.409  16.264   6.906  1.00 20.00    -0.025 C 
HETATM    3  C6  UNL     1     -42.646  15.423   8.666  1.00 20.00     0.017 C 
HETATM    4  C7  UNL     1     -40.484  14.462   8.932  1.00 20.00     0.017 C 
HETATM    5  C8  UNL     1     -41.239  15.794   9.148  1.00 20.00     0.009 C 
HETATM    6  C9  UNL     1     -42.164  15.004   7.271  1.00 20.00     0.016 C 
HETATM    7  C10 UNL     1     -41.156  13.892   7.650  1.00 20.00     0.017 C 
ENDROOT
BRANCH   7   8
HETATM    8  C4  UNL     1     -40.196  13.520   6.568  1.00 20.00    -0.015 C 
HETATM    9  C3  UNL     1     -40.146  12.302   6.010  1.00 20.00     0.081 C 
BRANCH   9  10
HETATM   10  C5  UNL     1     -39.144  11.959   4.899  1.00 20.00     0.198 C 
HETATM   11  O11 UNL     1     -37.932  12.118   5.233  1.00 20.00    -0.645 OA
HETATM   12  O12 UNL     1     -39.619  11.565   3.797  1.00 20.00    -0.645 OA
ENDBRANCH   9  10
ENDBRANCH   7   8
TORSDOF 2
ENDMDL
MODEL 9
REMARK VINA RESULT:      -3.6     24.558     25.702
REMARK  2 active torsions:
REMARK  status: ('A' for Active; 'I' for Inactive)
REMARK    1  A    between atoms: C3_3  and  C5_5 
REMARK    2  A    between atoms: C4_4  and  C10_10 
ROOT
HETATM    1  C1  UNL     1     -23.390  -3.658   8.700  1.00 20.00    -0.026 C 
HETATM    2  C2  UNL     1     -23.170  -2.508   9.353  1.00 20.00    -0.025 C 
HETATM    3  C6  UNL     1     -22.570  -4.213  10.789  1.00 20.00     0.017 C 
HETATM    4  C7  UNL     1     -24.911  -4.497  10.456  1.00 20.00     0.017 C 
HETATM    5  C8  UNL     1     -23.560  -4.737   9.742  1.00 20.00     0.009 C 
HETATM    6  C9  UNL     1     -23.205  -2.818  10.834  1.00 20.00     0.016 C 
HETATM    7  C10 UNL     1     -24.650  -3.184  11.248  1.00 20.00     0.017 C 
ENDROOT
BRANCH   7   8
HETATM    8  C4  UNL     1     -25.663  -2.112  11.010  1.00 20.00    -0.015 C 
HETATM    9  C3  UNL     1     -26.843  -2.330  10.413  1.00 20.00     0.081 C 
BRANCH   9  10
HETATM   10  C5  UNL     1     -27.857  -1.200  10.186  1.00 20.00     0.198 C 
HETATM   11  O11 UNL     1     -27.351  -0.141   9.708  1.00 20.00    -0.645 OA
HETATM   12  O12 UNL     1     -29.059  -1.436  10.493  1.00 20.00    -0.645 OA
ENDBRANCH   9  10
ENDBRANCH   7   8
TORSDOF 2
ENDMDL
