MODEL 1
REMARK VINA RESULT:      -4.3      0.000      0.000
REMARK  3 active torsions:
REMARK  status: ('A' for Active; 'I' for Inactive)
REMARK    1  A    between atoms: C1_1  and  C2_2 
REMARK    2  A    between atoms: C1_1  and  C3_3 
REMARK    3  A    between atoms: C2_2  and  S8_8 
ROOT
HETATM    1  C1  UNL     1     -34.025   6.776   5.366  1.00 20.00     0.241 C 
HETATM    2  O4  UNL     1     -34.079   7.308   6.474  1.00 20.00    -0.287 OA
ENDROOT
BRANCH   1   3
HETATM    3  C2  UNL     1     -33.179   7.292   4.221  1.00 20.00     0.158 C 
BRANCH   3   4
HETATM    4  S8  UNL     1     -32.308   8.815   4.656  1.00 20.00    -0.174 SA
HETATM    5  H11 UNL     1     -33.241   9.287   5.495  1.00 20.00     0.102 HD
ENDBRANCH   3   4
ENDBRANCH   1   3
BRANCH   1   6
HETATM    6  C3  UNL     1     -34.826   5.537   5.077  1.00 20.00     0.451 C 
HETATM    7  F5  UNL     1     -35.187   4.893   6.215  1.00 20.00    -0.163 F 
HETATM    8  F6  UNL     1     -35.968   5.821   4.403  1.00 20.00    -0.163 F 
HETATM    9  F7  UNL     1     -34.135   4.644   4.323  1.00 20.00    -0.163 F 
ENDBRANCH   1   6
TORSDOF 3
ENDMDL
MODEL 2
REMARK VINA RESULT:      -4.3      0.013      1.338
REMARK  3 active torsions:
REMARK  status: ('A' for Active; 'I' for Inactive)
REMARK    1  A    between atoms: C1_1  and  C2_2 
REMARK    2  A    between atoms: C1_1  and  C3_3 
REMARK    3  A    between atoms: C2_2  and  S8_8 
ROOT
HETATM    1  C1  UNL     1     -34.022   6.777   5.360  1.00 20.00     0.241 C 
HETATM    2  O4  UNL     1     -34.079   7.306   6.469  1.00 20.00    -0.287 OA
ENDROOT
BRANCH   1   3
HETATM    3  C2  UNL     1     -33.170   7.292   4.220  1.00 20.00     0.158 C 
BRANCH   3   4
HETATM    4  S8  UNL     1     -32.307   8.818   4.656  1.00 20.00    -0.174 SA
HETATM    5  H11 UNL     1     -32.882   8.978   5.857  1.00 20.00     0.102 HD
ENDBRANCH   3   4
ENDBRANCH   1   3
BRANCH   1   6
HETATM    6  C3  UNL     1     -34.827   5.541   5.065  1.00 20.00     0.451 C 
HETATM    7  F5  UNL     1     -34.134   4.659   4.302  1.00 20.00    -0.163 F 
HETATM    8  F6  UNL     1     -35.182   4.889   6.200  1.00 20.00    -0.163 F 
HETATM    9  F7  UNL     1     -35.974   5.823   4.398  1.00 20.00    -0.163 F 
ENDBRANCH   1   6
TORSDOF 3
ENDMDL
MODEL 3
REMARK VINA RESULT:      -4.3      1.328      1.820
REMARK  3 active torsions:
REMARK  status: ('A' for Active; 'I' for Inactive)
REMARK    1  A    between atoms: C1_1  and  C2_2 
REMARK    2  A    between atoms: C1_1  and  C3_3 
REMARK    3  A    between atoms: C2_2  and  S8_8 
ROOT
HETATM    1  C1  UNL     1     -33.774   6.536   4.467  1.00 20.00     0.241 C 
HETATM    2  O4  UNL     1     -33.087   6.284   3.478  1.00 20.00    -0.287 OA
ENDROOT
BRANCH   1   3
HETATM    3  C2  UNL     1     -33.597   7.770   5.327  1.00 20.00     0.158 C 
BRANCH   3   4
HETATM    4  S8  UNL     1     -32.298   8.856   4.693  1.00 20.00    -0.174 SA
HETATM    5  H11 UNL     1     -31.271   8.206   5.260  1.00 20.00     0.102 HD
ENDBRANCH   3   4
ENDBRANCH   1   3
BRANCH   1   6
HETATM    6  C3  UNL     1     -34.869   5.597   4.893  1.00 20.00     0.451 C 
HETATM    7  F5  UNL     1     -34.586   4.312   4.565  1.00 20.00    -0.163 F 
HETATM    8  F6  UNL     1     -35.066   5.630   6.235  1.00 20.00    -0.163 F 
HETATM    9  F7  UNL     1     -36.058   5.899   4.313  1.00 20.00    -0.163 F 
ENDBRANCH   1   6
TORSDOF 3
ENDMDL
MODEL 4
REMARK VINA RESULT:      -4.1      1.796      2.117
REMARK  3 active torsions:
REMARK  status: ('A' for Active; 'I' for Inactive)
REMARK    1  A    between atoms: C1_1  and  C2_2 
REMARK    2  A    between atoms: C1_1  and  C3_3 
REMARK    3  A    between atoms: C2_2  and  S8_8 
ROOT
HETATM    1  C1  UNL     1     -34.010   6.313   4.866  1.00 20.00     0.241 C 
HETATM    2  O4  UNL     1     -34.190   5.486   3.972  1.00 20.00    -0.287 OA
ENDROOT
BRANCH   1   3
HETATM    3  C2  UNL     1     -33.426   7.691   4.637  1.00 20.00     0.158 C 
BRANCH   3   4
HETATM    4  S8  UNL     1     -32.210   7.698   3.300  1.00 20.00    -0.174 SA
HETATM    5  H11 UNL     1     -33.004   8.259   2.378  1.00 20.00     0.102 HD
ENDBRANCH   3   4
ENDBRANCH   1   3
BRANCH   1   6
HETATM    6  C3  UNL     1     -34.373   5.987   6.288  1.00 20.00     0.451 C 
HETATM    7  F5  UNL     1     -33.369   5.337   6.928  1.00 20.00    -0.163 F 
HETATM    8  F6  UNL     1     -34.644   7.104   7.007  1.00 20.00    -0.163 F 
HETATM    9  F7  UNL     1     -35.470   5.191   6.368  1.00 20.00    -0.163 F 
ENDBRANCH   1   6
TORSDOF 3
ENDMDL
MODEL 5
REMARK VINA RESULT:      -4.1      1.788      2.049
REMARK  3 active torsions:
REMARK  status: ('A' for Active; 'I' for Inactive)
REMARK    1  A    between atoms: C1_1  and  C2_2 
REMARK    2  A    between atoms: C1_1  and  C3_3 
REMARK    3  A    between atoms: C2_2  and  S8_8 
ROOT
HETATM    1  C1  UNL     1     -34.005   6.350   4.865  1.00 20.00     0.241 C 
HETATM    2  O4  UNL     1     -34.218   5.542   3.961  1.00 20.00    -0.287 OA
ENDROOT
BRANCH   1   3
HETATM    3  C2  UNL     1     -33.403   7.722   4.647  1.00 20.00     0.158 C 
BRANCH   3   4
HETATM    4  S8  UNL     1     -32.191   7.724   3.307  1.00 20.00    -0.174 SA
HETATM    5  H11 UNL     1     -31.315   8.549   3.898  1.00 20.00     0.102 HD
ENDBRANCH   3   4
ENDBRANCH   1   3
BRANCH   1   6
HETATM    6  C3  UNL     1     -34.344   6.006   6.289  1.00 20.00     0.451 C 
HETATM    7  F5  UNL     1     -34.624   7.112   7.022  1.00 20.00    -0.163 F 
HETATM    8  F6  UNL     1     -35.429   5.195   6.366  1.00 20.00    -0.163 F 
HETATM    9  F7  UNL     1     -33.327   5.364   6.917  1.00 20.00    -0.163 F 
ENDBRANCH   1   6
TORSDOF 3
ENDMDL
MODEL 6
REMARK VINA RESULT:      -4.0      3.070      3.668
REMARK  3 active torsions:
REMARK  status: ('A' for Active; 'I' for Inactive)
REMARK    1  A    between atoms: C1_1  and  C2_2 
REMARK    2  A    between atoms: C1_1  and  C3_3 
REMARK    3  A    between atoms: C2_2  and  S8_8 
ROOT
HETATM    1  C1  UNL     1     -33.541   7.577   4.678  1.00 20.00     0.241 C 
HETATM    2  O4  UNL     1     -33.793   8.420   5.538  1.00 20.00    -0.287 OA
ENDROOT
BRANCH   1   3
HETATM    3  C2  UNL     1     -34.255   6.247   4.564  1.00 20.00     0.158 C 
BRANCH   3   4
HETATM    4  S8  UNL     1     -34.573   5.508   6.182  1.00 20.00    -0.174 SA
HETATM    5  H11 UNL     1     -33.429   5.907   6.756  1.00 20.00     0.102 HD
ENDBRANCH   3   4
ENDBRANCH   1   3
BRANCH   1   6
HETATM    6  C3  UNL     1     -32.469   7.831   3.655  1.00 20.00     0.451 C 
HETATM    7  F5  UNL     1     -32.756   8.909   2.883  1.00 20.00    -0.163 F 
HETATM    8  F6  UNL     1     -31.266   8.067   4.234  1.00 20.00    -0.163 F 
HETATM    9  F7  UNL     1     -32.302   6.779   2.814  1.00 20.00    -0.163 F 
ENDBRANCH   1   6
TORSDOF 3
ENDMDL
MODEL 7
REMARK VINA RESULT:      -4.0      3.073      3.637
REMARK  3 active torsions:
REMARK  status: ('A' for Active; 'I' for Inactive)
REMARK    1  A    between atoms: C1_1  and  C2_2 
REMARK    2  A    between atoms: C1_1  and  C3_3 
REMARK    3  A    between atoms: C2_2  and  S8_8 
ROOT
HETATM    1  C1  UNL     1     -33.511   7.535   4.671  1.00 20.00     0.241 C 
HETATM    2  O4  UNL     1     -33.747   8.357   5.555  1.00 20.00    -0.287 OA
ENDROOT
BRANCH   1   3
HETATM    3  C2  UNL     1     -34.224   6.206   4.541  1.00 20.00     0.158 C 
BRANCH   3   4
HETATM    4  S8  UNL     1     -34.588   5.473   6.152  1.00 20.00    -0.174 SA
HETATM    5  H11 UNL     1     -34.892   6.621   6.774  1.00 20.00     0.102 HD
ENDBRANCH   3   4
ENDBRANCH   1   3
BRANCH   1   6
HETATM    6  C3  UNL     1     -32.462   7.815   3.631  1.00 20.00     0.451 C 
HETATM    7  F5  UNL     1     -31.244   8.028   4.188  1.00 20.00    -0.163 F 
HETATM    8  F6  UNL     1     -32.325   6.783   2.762  1.00 20.00    -0.163 F 
HETATM    9  F7  UNL     1     -32.753   8.916   2.892  1.00 20.00    -0.163 F 
ENDBRANCH   1   6
TORSDOF 3
ENDMDL
MODEL 8
REMARK VINA RESULT:      -3.9      3.580      3.955
REMARK  3 active torsions:
REMARK  status: ('A' for Active; 'I' for Inactive)
REMARK    1  A    between atoms: C1_1  and  C2_2 
REMARK    2  A    between atoms: C1_1  and  C3_3 
REMARK    3  A    between atoms: C2_2  and  S8_8 
ROOT
HETATM    1  C1  UNL     1     -33.272   7.144   4.457  1.00 20.00     0.241 C 
HETATM    2  O4  UNL     1     -33.457   6.251   3.631  1.00 20.00    -0.287 OA
ENDROOT
BRANCH   1   3
HETATM    3  C2  UNL     1     -33.910   7.171   5.830  1.00 20.00     0.158 C 
BRANCH   3   4
HETATM    4  S8  UNL     1     -34.575   5.557   6.299  1.00 20.00    -0.174 SA
HETATM    5  H11 UNL     1     -34.109   4.888   5.235  1.00 20.00     0.102 HD
ENDBRANCH   3   4
ENDBRANCH   1   3
BRANCH   1   6
HETATM    6  C3  UNL     1     -32.366   8.301   4.137  1.00 20.00     0.451 C 
HETATM    7  F5  UNL     1     -31.096   7.893   3.891  1.00 20.00    -0.163 F 
HETATM    8  F6  UNL     1     -32.785   8.978   3.039  1.00 20.00    -0.163 F 
HETATM    9  F7  UNL     1     -32.302   9.198   5.152  1.00 20.00    -0.163 F 
ENDBRANCH   1   6
TORSDOF 3
ENDMDL
MODEL 9
REMARK VINA RESULT:      -3.9      3.581      3.958
REMARK  3 active torsions:
REMARK  status: ('A' for Active; 'I' for Inactive)
REMARK    1  A    between atoms: C1_1  and  C2_2 
REMARK    2  A    between atoms: C1_1  and  C3_3 
REMARK    3  A    between atoms: C2_2  and  S8_8 
ROOT
HETATM    1  C1  UNL     1     -33.264   7.144   4.458  1.00 20.00     0.241 C 
HETATM    2  O4  UNL     1     -33.445   6.246   3.637  1.00 20.00    -0.287 OA
ENDROOT
BRANCH   1   3
HETATM    3  C2  UNL     1     -33.902   7.175   5.831  1.00 20.00     0.158 C 
BRANCH   3   4
HETATM    4  S8  UNL     1     -34.583   5.568   6.297  1.00 20.00    -0.174 SA
HETATM    5  H11 UNL     1     -33.611   4.827   5.747  1.00 20.00     0.102 HD
ENDBRANCH   3   4
ENDBRANCH   1   3
BRANCH   1   6
HETATM    6  C3  UNL     1     -32.365   8.304   4.131  1.00 20.00     0.451 C 
HETATM    7  F5  UNL     1     -32.794   8.982   3.038  1.00 20.00    -0.163 F 
HETATM    8  F6  UNL     1     -32.302   9.196   5.151  1.00 20.00    -0.163 F 
HETATM    9  F7  UNL     1     -31.092   7.909   3.875  1.00 20.00    -0.163 F 
ENDBRANCH   1   6
TORSDOF 3
ENDMDL
