MODEL 1
REMARK VINA RESULT:      -5.6      0.000      0.000
REMARK  0 active torsions:
REMARK  status: ('A' for Active; 'I' for Inactive)
ROOT
HETATM    1  C1  UNL     1     -34.604   6.055   6.220  1.00 20.00     0.374 C 
HETATM    2  C2  UNL     1     -33.816   7.233   5.639  1.00 20.00     0.398 C 
HETATM    3  C3  UNL     1     -34.823   5.674   4.752  1.00 20.00     0.398 C 
HETATM    4  O4  UNL     1     -33.802   6.612   4.329  1.00 20.00    -0.252 OA
HETATM    5  F5  UNL     1     -33.890   5.176   6.955  1.00 20.00    -0.231 F 
HETATM    6  F6  UNL     1     -32.576   7.428   6.137  1.00 20.00    -0.172 F 
HETATM    7  F7  UNL     1     -34.444   8.429   5.638  1.00 20.00    -0.172 F 
HETATM    8  F8  UNL     1     -36.038   5.963   4.236  1.00 20.00    -0.172 F 
HETATM    9  F9  UNL     1     -34.535   4.399   4.416  1.00 20.00    -0.172 F 
ENDROOT
TORSDOF 0
ENDMDL
MODEL 2
REMARK VINA RESULT:      -5.3      1.376      2.482
REMARK  0 active torsions:
REMARK  status: ('A' for Active; 'I' for Inactive)
ROOT
HETATM    1  C1  UNL     1     -34.557   6.084   4.760  1.00 20.00     0.374 C 
HETATM    2  C2  UNL     1     -34.222   6.118   6.254  1.00 20.00     0.398 C 
HETATM    3  C3  UNL     1     -33.555   7.240   4.665  1.00 20.00     0.398 C 
HETATM    4  O4  UNL     1     -33.075   6.969   6.006  1.00 20.00    -0.252 OA
HETATM    5  F5  UNL     1     -34.215   4.954   4.107  1.00 20.00    -0.231 F 
HETATM    6  F6  UNL     1     -33.885   4.939   6.819  1.00 20.00    -0.172 F 
HETATM    7  F7  UNL     1     -35.137   6.704   7.058  1.00 20.00    -0.172 F 
HETATM    8  F8  UNL     1     -34.082   8.478   4.543  1.00 20.00    -0.172 F 
HETATM    9  F9  UNL     1     -32.590   7.118   3.729  1.00 20.00    -0.172 F 
ENDROOT
TORSDOF 0
ENDMDL
MODEL 3
REMARK VINA RESULT:      -5.1      1.249      2.310
REMARK  0 active torsions:
REMARK  status: ('A' for Active; 'I' for Inactive)
ROOT
HETATM    1  C1  UNL     1     -33.937   6.790   4.838  1.00 20.00     0.374 C 
HETATM    2  C2  UNL     1     -34.025   6.599   6.355  1.00 20.00     0.398 C 
HETATM    3  C3  UNL     1     -34.902   5.601   4.785  1.00 20.00     0.398 C 
HETATM    4  O4  UNL     1     -35.167   5.720   6.206  1.00 20.00    -0.252 OA
HETATM    5  F5  UNL     1     -34.419   7.959   4.364  1.00 20.00    -0.231 F 
HETATM    6  F6  UNL     1     -34.306   7.701   7.082  1.00 20.00    -0.172 F 
HETATM    7  F7  UNL     1     -32.973   5.987   6.941  1.00 20.00    -0.172 F 
HETATM    8  F8  UNL     1     -34.361   4.408   4.457  1.00 20.00    -0.172 F 
HETATM    9  F9  UNL     1     -36.010   5.763   4.031  1.00 20.00    -0.172 F 
ENDROOT
TORSDOF 0
ENDMDL
MODEL 4
REMARK VINA RESULT:      -5.1      1.331      2.970
REMARK  0 active torsions:
REMARK  status: ('A' for Active; 'I' for Inactive)
ROOT
HETATM    1  C1  UNL     1     -33.940   7.158   4.853  1.00 20.00     0.374 C 
HETATM    2  C2  UNL     1     -34.639   5.835   4.523  1.00 20.00     0.398 C 
HETATM    3  C3  UNL     1     -33.960   6.634   6.293  1.00 20.00     0.398 C 
HETATM    4  O4  UNL     1     -34.312   5.305   5.832  1.00 20.00    -0.252 OA
HETATM    5  F5  UNL     1     -32.717   7.329   4.306  1.00 20.00    -0.231 F 
HETATM    6  F6  UNL     1     -34.104   5.110   3.518  1.00 20.00    -0.172 F 
HETATM    7  F7  UNL     1     -35.971   5.901   4.309  1.00 20.00    -0.172 F 
HETATM    8  F8  UNL     1     -34.896   7.165   7.108  1.00 20.00    -0.172 F 
HETATM    9  F9  UNL     1     -32.784   6.663   6.955  1.00 20.00    -0.172 F 
ENDROOT
TORSDOF 0
ENDMDL
MODEL 5
REMARK VINA RESULT:      -5.1      1.132      3.111
REMARK  0 active torsions:
REMARK  status: ('A' for Active; 'I' for Inactive)
ROOT
HETATM    1  C1  UNL     1     -33.858   6.661   6.011  1.00 20.00     0.374 C 
HETATM    2  C2  UNL     1     -34.473   6.185   4.692  1.00 20.00     0.398 C 
HETATM    3  C3  UNL     1     -33.409   7.873   5.189  1.00 20.00     0.398 C 
HETATM    4  O4  UNL     1     -34.293   7.498   4.103  1.00 20.00    -0.252 OA
HETATM    5  F5  UNL     1     -34.732   6.918   7.008  1.00 20.00    -0.231 F 
HETATM    6  F6  UNL     1     -35.768   5.807   4.737  1.00 20.00    -0.172 F 
HETATM    7  F7  UNL     1     -33.795   5.223   4.029  1.00 20.00    -0.172 F 
HETATM    8  F8  UNL     1     -32.110   7.894   4.816  1.00 20.00    -0.172 F 
HETATM    9  F9  UNL     1     -33.700   9.086   5.704  1.00 20.00    -0.172 F 
ENDROOT
TORSDOF 0
ENDMDL
MODEL 6
REMARK VINA RESULT:      -5.1      1.246      2.531
REMARK  0 active torsions:
REMARK  status: ('A' for Active; 'I' for Inactive)
ROOT
HETATM    1  C1  UNL     1     -34.514   5.957   4.759  1.00 20.00     0.374 C 
HETATM    2  C2  UNL     1     -33.794   7.298   4.930  1.00 20.00     0.398 C 
HETATM    3  C3  UNL     1     -34.390   5.869   6.283  1.00 20.00     0.398 C 
HETATM    4  O4  UNL     1     -34.023   7.269   6.361  1.00 20.00    -0.252 OA
HETATM    5  F5  UNL     1     -35.773   6.024   4.274  1.00 20.00    -0.231 F 
HETATM    6  F6  UNL     1     -34.365   8.365   4.332  1.00 20.00    -0.172 F 
HETATM    7  F7  UNL     1     -32.480   7.314   4.616  1.00 20.00    -0.172 F 
HETATM    8  F8  UNL     1     -33.423   5.052   6.757  1.00 20.00    -0.172 F 
HETATM    9  F9  UNL     1     -35.523   5.587   6.960  1.00 20.00    -0.172 F 
ENDROOT
TORSDOF 0
ENDMDL
MODEL 7
REMARK VINA RESULT:      -4.9      2.096      2.839
REMARK  0 active torsions:
REMARK  status: ('A' for Active; 'I' for Inactive)
ROOT
HETATM    1  C1  UNL     1     -33.786   7.147   4.193  1.00 20.00     0.374 C 
HETATM    2  C2  UNL     1     -33.418   7.800   5.528  1.00 20.00     0.398 C 
HETATM    3  C3  UNL     1     -32.571   7.911   3.657  1.00 20.00     0.398 C 
HETATM    4  O4  UNL     1     -32.126   8.202   5.006  1.00 20.00    -0.252 OA
HETATM    5  F5  UNL     1     -33.698   5.800   4.153  1.00 20.00    -0.231 F 
HETATM    6  F6  UNL     1     -33.316   6.974   6.591  1.00 20.00    -0.172 F 
HETATM    7  F7  UNL     1     -34.174   8.853   5.906  1.00 20.00    -0.172 F 
HETATM    8  F8  UNL     1     -32.835   9.029   2.946  1.00 20.00    -0.172 F 
HETATM    9  F9  UNL     1     -31.672   7.189   2.955  1.00 20.00    -0.172 F 
ENDROOT
TORSDOF 0
ENDMDL
MODEL 8
REMARK VINA RESULT:      -4.8      2.062      2.788
REMARK  0 active torsions:
REMARK  status: ('A' for Active; 'I' for Inactive)
ROOT
HETATM    1  C1  UNL     1     -32.942   6.377   3.917  1.00 20.00     0.374 C 
HETATM    2  C2  UNL     1     -32.683   7.886   3.894  1.00 20.00     0.398 C 
HETATM    3  C3  UNL     1     -34.098   6.743   4.854  1.00 20.00     0.398 C 
HETATM    4  O4  UNL     1     -33.973   8.144   4.503  1.00 20.00    -0.252 OA
HETATM    5  F5  UNL     1     -33.294   5.823   2.737  1.00 20.00    -0.231 F 
HETATM    6  F6  UNL     1     -32.558   8.454   2.676  1.00 20.00    -0.172 F 
HETATM    7  F7  UNL     1     -31.656   8.327   4.652  1.00 20.00    -0.172 F 
HETATM    8  F8  UNL     1     -33.894   6.518   6.170  1.00 20.00    -0.172 F 
HETATM    9  F9  UNL     1     -35.307   6.231   4.539  1.00 20.00    -0.172 F 
ENDROOT
TORSDOF 0
ENDMDL
MODEL 9
REMARK VINA RESULT:      -4.5      2.246      3.441
REMARK  0 active torsions:
REMARK  status: ('A' for Active; 'I' for Inactive)
ROOT
HETATM    1  C1  UNL     1     -32.156   8.445   4.832  1.00 20.00     0.374 C 
HETATM    2  C2  UNL     1     -33.496   7.962   5.394  1.00 20.00     0.398 C 
HETATM    3  C3  UNL     1     -32.638   7.792   3.533  1.00 20.00     0.398 C 
HETATM    4  O4  UNL     1     -33.984   7.678   4.059  1.00 20.00    -0.252 OA
HETATM    5  F5  UNL     1     -31.984   9.784   4.789  1.00 20.00    -0.231 F 
HETATM    6  F6  UNL     1     -34.243   8.885   6.037  1.00 20.00    -0.172 F 
HETATM    7  F7  UNL     1     -33.453   6.861   6.175  1.00 20.00    -0.172 F 
HETATM    8  F8  UNL     1     -32.096   6.592   3.230  1.00 20.00    -0.172 F 
HETATM    9  F9  UNL     1     -32.575   8.556   2.421  1.00 20.00    -0.172 F 
ENDROOT
TORSDOF 0
ENDMDL
