MODEL 1
REMARK VINA RESULT:      -3.5      0.000      0.000
REMARK  3 active torsions:
REMARK  status: ('A' for Active; 'I' for Inactive)
REMARK    1  A    between atoms: C2_2  and  O8_8 
REMARK    2  A    between atoms: C4_4  and  C6_6 
REMARK    3  A    between atoms: C6_6  and  O8_8 
ROOT
HETATM    1  C6  UNL     1     -30.666  18.479   1.717  1.00 20.00     0.208 C 
ENDROOT
BRANCH   1   2
HETATM    2  C4  UNL     1     -31.218  19.159   0.483  1.00 20.00     0.169 A 
HETATM    3  C3  UNL     1     -32.093  18.418  -0.489  1.00 20.00     0.202 A 
HETATM    4  O7  UNL     1     -30.702  18.656  -0.754  1.00 20.00    -0.379 OA
ENDBRANCH   1   2
BRANCH   1   5
HETATM    5  O8  UNL     1     -29.517  19.176   2.151  1.00 20.00    -0.361 OA
BRANCH   5   6
HETATM    6  C2  UNL     1     -29.069  18.763   3.375  1.00 20.00     0.130 C 
HETATM    7  C1  UNL     1     -27.779  18.775   3.721  1.00 20.00    -0.007 C 
HETATM    8  C5  UNL     1     -27.273  18.326   5.051  1.00 20.00     0.038 C 
ENDBRANCH   5   6
ENDBRANCH   1   5
TORSDOF 3
ENDMDL
MODEL 2
REMARK VINA RESULT:      -3.4     12.617     13.117
REMARK  3 active torsions:
REMARK  status: ('A' for Active; 'I' for Inactive)
REMARK    1  A    between atoms: C2_2  and  O8_8 
REMARK    2  A    between atoms: C4_4  and  C6_6 
REMARK    3  A    between atoms: C6_6  and  O8_8 
ROOT
HETATM    1  C6  UNL     1     -33.959   7.484   5.785  1.00 20.00     0.208 C 
ENDROOT
BRANCH   1   2
HETATM    2  C4  UNL     1     -33.893   5.981   5.950  1.00 20.00     0.169 A 
HETATM    3  C3  UNL     1     -34.641   5.062   5.024  1.00 20.00     0.202 A 
HETATM    4  O7  UNL     1     -35.127   5.371   6.340  1.00 20.00    -0.379 OA
ENDBRANCH   1   2
BRANCH   1   5
HETATM    5  O8  UNL     1     -32.684   7.962   5.410  1.00 20.00    -0.361 OA
BRANCH   5   6
HETATM    6  C2  UNL     1     -32.623   8.362   4.105  1.00 20.00     0.130 C 
HETATM    7  C1  UNL     1     -32.223   7.559   3.116  1.00 20.00    -0.007 C 
HETATM    8  C5  UNL     1     -32.150   7.978   1.685  1.00 20.00     0.038 C 
ENDBRANCH   5   6
ENDBRANCH   1   5
TORSDOF 3
ENDMDL
MODEL 3
REMARK VINA RESULT:      -3.4      5.951      7.950
REMARK  3 active torsions:
REMARK  status: ('A' for Active; 'I' for Inactive)
REMARK    1  A    between atoms: C2_2  and  O8_8 
REMARK    2  A    between atoms: C4_4  and  C6_6 
REMARK    3  A    between atoms: C6_6  and  O8_8 
ROOT
HETATM    1  C6  UNL     1     -33.612  14.799  -4.501  1.00 20.00     0.208 C 
ENDROOT
BRANCH   1   2
HETATM    2  C4  UNL     1     -34.445  15.463  -5.576  1.00 20.00     0.169 A 
HETATM    3  C3  UNL     1     -35.602  14.748  -6.217  1.00 20.00     0.202 A 
HETATM    4  O7  UNL     1     -34.329  14.866  -6.871  1.00 20.00    -0.379 OA
ENDBRANCH   1   2
BRANCH   1   5
HETATM    5  O8  UNL     1     -32.880  15.789  -3.809  1.00 20.00    -0.361 OA
BRANCH   5   6
HETATM    6  C2  UNL     1     -33.535  16.271  -2.711  1.00 20.00     0.130 C 
HETATM    7  C1  UNL     1     -33.068  17.279  -1.969  1.00 20.00    -0.007 C 
HETATM    8  C5  UNL     1     -33.770  17.817  -0.766  1.00 20.00     0.038 C 
ENDBRANCH   5   6
ENDBRANCH   1   5
TORSDOF 3
ENDMDL
MODEL 4
REMARK VINA RESULT:      -3.4     12.871     13.793
REMARK  3 active torsions:
REMARK  status: ('A' for Active; 'I' for Inactive)
REMARK    1  A    between atoms: C2_2  and  O8_8 
REMARK    2  A    between atoms: C4_4  and  C6_6 
REMARK    3  A    between atoms: C6_6  and  O8_8 
ROOT
HETATM    1  C6  UNL     1     -41.990  13.773   7.389  1.00 20.00     0.208 C 
ENDROOT
BRANCH   1   2
HETATM    2  C4  UNL     1     -41.435  14.247   8.715  1.00 20.00     0.169 A 
HETATM    3  C3  UNL     1     -40.301  15.231   8.777  1.00 20.00     0.202 A 
HETATM    4  O7  UNL     1     -40.095  13.825   8.984  1.00 20.00    -0.379 OA
ENDBRANCH   1   2
BRANCH   1   5
HETATM    5  O8  UNL     1     -41.445  12.504   7.090  1.00 20.00    -0.361 OA
BRANCH   5   6
HETATM    6  C2  UNL     1     -40.812  12.466   5.879  1.00 20.00     0.130 C 
HETATM    7  C1  UNL     1     -39.718  11.734   5.653  1.00 20.00    -0.007 C 
HETATM    8  C5  UNL     1     -39.013  11.681   4.339  1.00 20.00     0.038 C 
ENDBRANCH   5   6
ENDBRANCH   1   5
TORSDOF 3
ENDMDL
MODEL 5
REMARK VINA RESULT:      -3.4     12.008     12.351
REMARK  3 active torsions:
REMARK  status: ('A' for Active; 'I' for Inactive)
REMARK    1  A    between atoms: C2_2  and  O8_8 
REMARK    2  A    between atoms: C4_4  and  C6_6 
REMARK    3  A    between atoms: C6_6  and  O8_8 
ROOT
HETATM    1  C6  UNL     1     -32.187   8.615   4.358  1.00 20.00     0.208 C 
ENDROOT
BRANCH   1   2
HETATM    2  C4  UNL     1     -32.834   7.907   3.187  1.00 20.00     0.169 A 
HETATM    3  C3  UNL     1     -32.291   6.604   2.669  1.00 20.00     0.202 A 
HETATM    4  O7  UNL     1     -32.027   7.851   2.006  1.00 20.00    -0.379 OA
ENDBRANCH   1   2
BRANCH   1   5
HETATM    5  O8  UNL     1     -33.112   8.681   5.424  1.00 20.00    -0.361 OA
BRANCH   5   6
HETATM    6  C2  UNL     1     -33.957   7.609   5.466  1.00 20.00     0.130 C 
HETATM    7  C1  UNL     1     -33.838   6.622   6.359  1.00 20.00    -0.007 C 
HETATM    8  C5  UNL     1     -34.752   5.444   6.419  1.00 20.00     0.038 C 
ENDBRANCH   5   6
ENDBRANCH   1   5
TORSDOF 3
ENDMDL
MODEL 6
REMARK VINA RESULT:      -3.2      5.381      7.345
REMARK  3 active torsions:
REMARK  status: ('A' for Active; 'I' for Inactive)
REMARK    1  A    between atoms: C2_2  and  O8_8 
REMARK    2  A    between atoms: C4_4  and  C6_6 
REMARK    3  A    between atoms: C6_6  and  O8_8 
ROOT
HETATM    1  C6  UNL     1     -34.039  16.305  -4.365  1.00 20.00     0.208 C 
ENDROOT
BRANCH   1   2
HETATM    2  C4  UNL     1     -34.154  14.925  -4.977  1.00 20.00     0.169 A 
HETATM    3  C3  UNL     1     -35.469  14.197  -5.015  1.00 20.00     0.202 A 
HETATM    4  O7  UNL     1     -34.459  13.884  -4.043  1.00 20.00    -0.379 OA
ENDBRANCH   1   2
BRANCH   1   5
HETATM    5  O8  UNL     1     -33.059  16.276  -3.348  1.00 20.00    -0.361 OA
BRANCH   5   6
HETATM    6  C2  UNL     1     -33.525  16.725  -2.144  1.00 20.00     0.130 C 
HETATM    7  C1  UNL     1     -32.928  17.697  -1.449  1.00 20.00    -0.007 C 
HETATM    8  C5  UNL     1     -33.422  18.199  -0.133  1.00 20.00     0.038 C 
ENDBRANCH   5   6
ENDBRANCH   1   5
TORSDOF 3
ENDMDL
MODEL 7
REMARK VINA RESULT:      -3.2      3.487      5.440
REMARK  3 active torsions:
REMARK  status: ('A' for Active; 'I' for Inactive)
REMARK    1  A    between atoms: C2_2  and  O8_8 
REMARK    2  A    between atoms: C4_4  and  C6_6 
REMARK    3  A    between atoms: C6_6  and  O8_8 
ROOT
HETATM    1  C6  UNL     1     -33.486  16.620  -2.284  1.00 20.00     0.208 C 
ENDROOT
BRANCH   1   2
HETATM    2  C4  UNL     1     -33.509  16.197  -3.737  1.00 20.00     0.169 A 
HETATM    3  C3  UNL     1     -33.955  14.819  -4.141  1.00 20.00     0.202 A 
HETATM    4  O7  UNL     1     -32.565  15.175  -4.074  1.00 20.00    -0.379 OA
ENDBRANCH   1   2
BRANCH   1   5
HETATM    5  O8  UNL     1     -32.736  17.810  -2.163  1.00 20.00    -0.361 OA
BRANCH   5   6
HETATM    6  C2  UNL     1     -32.487  18.157  -0.864  1.00 20.00     0.130 C 
HETATM    7  C1  UNL     1     -31.284  18.540  -0.431  1.00 20.00    -0.007 C 
HETATM    8  C5  UNL     1     -30.994  18.921   0.983  1.00 20.00     0.038 C 
ENDBRANCH   5   6
ENDBRANCH   1   5
TORSDOF 3
ENDMDL
MODEL 8
REMARK VINA RESULT:      -3.2      3.232      6.536
REMARK  3 active torsions:
REMARK  status: ('A' for Active; 'I' for Inactive)
REMARK    1  A    between atoms: C2_2  and  O8_8 
REMARK    2  A    between atoms: C4_4  and  C6_6 
REMARK    3  A    between atoms: C6_6  and  O8_8 
ROOT
HETATM    1  C6  UNL     1     -32.868  19.046  -1.544  1.00 20.00     0.208 C 
ENDROOT
BRANCH   1   2
HETATM    2  C4  UNL     1     -31.980  18.284  -0.585  1.00 20.00     0.169 A 
HETATM    3  C3  UNL     1     -31.455  18.927   0.669  1.00 20.00     0.202 A 
HETATM    4  O7  UNL     1     -30.637  18.773  -0.501  1.00 20.00    -0.379 OA
ENDBRANCH   1   2
BRANCH   1   5
HETATM    5  O8  UNL     1     -32.839  18.409  -2.804  1.00 20.00    -0.361 OA
BRANCH   5   6
HETATM    6  C2  UNL     1     -33.283  17.117  -2.761  1.00 20.00     0.130 C 
HETATM    7  C1  UNL     1     -33.341  16.331  -3.839  1.00 20.00    -0.007 C 
HETATM    8  C5  UNL     1     -33.824  14.919  -3.811  1.00 20.00     0.038 C 
ENDBRANCH   5   6
ENDBRANCH   1   5
TORSDOF 3
ENDMDL
MODEL 9
REMARK VINA RESULT:      -3.2     13.460     14.033
REMARK  3 active torsions:
REMARK  status: ('A' for Active; 'I' for Inactive)
REMARK    1  A    between atoms: C2_2  and  O8_8 
REMARK    2  A    between atoms: C4_4  and  C6_6 
REMARK    3  A    between atoms: C6_6  and  O8_8 
ROOT
HETATM    1  C6  UNL     1     -35.010   5.470   4.544  1.00 20.00     0.208 C 
ENDROOT
BRANCH   1   2
HETATM    2  C4  UNL     1     -34.874   5.680   6.037  1.00 20.00     0.169 A 
HETATM    3  C3  UNL     1     -34.263   6.935   6.595  1.00 20.00     0.202 A 
HETATM    4  O7  UNL     1     -33.525   5.705   6.514  1.00 20.00    -0.379 OA
ENDBRANCH   1   2
BRANCH   1   5
HETATM    5  O8  UNL     1     -33.845   4.832   4.062  1.00 20.00    -0.361 OA
BRANCH   5   6
HETATM    6  C2  UNL     1     -33.232   5.525   3.057  1.00 20.00     0.130 C 
HETATM    7  C1  UNL     1     -32.733   6.753   3.219  1.00 20.00    -0.007 C 
HETATM    8  C5  UNL     1     -32.061   7.525   2.132  1.00 20.00     0.038 C 
ENDBRANCH   5   6
ENDBRANCH   1   5
TORSDOF 3
ENDMDL
