MODEL 1
REMARK VINA RESULT:      -4.0      0.000      0.000
REMARK  1 active torsions:
REMARK  status: ('A' for Active; 'I' for Inactive)
REMARK    1  A    between atoms: C2_2  and  C4_4 
ROOT
HETATM    1  C3  UNL     1     -32.278   7.672   3.684  1.00 20.00     0.205 A 
HETATM    2  C4  UNL     1     -33.549   7.911   4.414  1.00 20.00     0.173 A 
HETATM    3  O6  UNL     1     -32.355   8.552   4.811  1.00 20.00    -0.377 OA
ENDROOT
BRANCH   2   4
HETATM    4  C2  UNL     1     -34.108   6.766   5.206  1.00 20.00    -0.062 C 
HETATM    5  C1  UNL     1     -34.071   6.746   6.547  1.00 20.00     0.016 C 
HETATM    6  C5  UNL     1     -34.712   5.645   4.413  1.00 20.00     0.045 C 
ENDBRANCH   2   4
TORSDOF 1
ENDMDL
MODEL 2
REMARK VINA RESULT:      -3.9      0.086      1.437
REMARK  1 active torsions:
REMARK  status: ('A' for Active; 'I' for Inactive)
REMARK    1  A    between atoms: C2_2  and  C4_4 
ROOT
HETATM    1  C3  UNL     1     -32.282   7.672   3.668  1.00 20.00     0.205 A 
HETATM    2  C4  UNL     1     -33.571   7.887   4.372  1.00 20.00     0.173 A 
HETATM    3  O6  UNL     1     -32.381   8.482   4.844  1.00 20.00    -0.377 OA
ENDROOT
BRANCH   2   4
HETATM    4  C2  UNL     1     -34.172   6.705   5.074  1.00 20.00    -0.062 C 
HETATM    5  C1  UNL     1     -34.695   5.670   4.401  1.00 20.00     0.016 C 
HETATM    6  C5  UNL     1     -34.155   6.748   6.574  1.00 20.00     0.045 C 
ENDBRANCH   2   4
TORSDOF 1
ENDMDL
MODEL 3
REMARK VINA RESULT:      -3.8      2.111      2.987
REMARK  1 active torsions:
REMARK  status: ('A' for Active; 'I' for Inactive)
REMARK    1  A    between atoms: C2_2  and  C4_4 
ROOT
HETATM    1  C3  UNL     1     -34.591   5.217   6.087  1.00 20.00     0.205 A 
HETATM    2  C4  UNL     1     -34.781   6.031   4.859  1.00 20.00     0.173 A 
HETATM    3  O6  UNL     1     -34.618   4.630   4.781  1.00 20.00    -0.377 OA
ENDROOT
BRANCH   2   4
HETATM    4  C2  UNL     1     -33.666   6.959   4.475  1.00 20.00    -0.062 C 
HETATM    5  C1  UNL     1     -33.447   8.111   5.125  1.00 20.00     0.016 C 
HETATM    6  C5  UNL     1     -32.812   6.524   3.322  1.00 20.00     0.045 C 
ENDBRANCH   2   4
TORSDOF 1
ENDMDL
MODEL 4
REMARK VINA RESULT:      -3.8      2.144      3.278
REMARK  1 active torsions:
REMARK  status: ('A' for Active; 'I' for Inactive)
REMARK    1  A    between atoms: C2_2  and  C4_4 
ROOT
HETATM    1  C3  UNL     1     -34.595   5.221   6.100  1.00 20.00     0.205 A 
HETATM    2  C4  UNL     1     -34.808   6.042   4.882  1.00 20.00     0.173 A 
HETATM    3  O6  UNL     1     -34.754   4.633   4.804  1.00 20.00    -0.377 OA
ENDROOT
BRANCH   2   4
HETATM    4  C2  UNL     1     -33.658   6.884   4.414  1.00 20.00    -0.062 C 
HETATM    5  C1  UNL     1     -32.879   6.513   3.387  1.00 20.00     0.016 C 
HETATM    6  C5  UNL     1     -33.428   8.164   5.162  1.00 20.00     0.045 C 
ENDBRANCH   2   4
TORSDOF 1
ENDMDL
MODEL 5
REMARK VINA RESULT:      -3.7      1.665      2.623
REMARK  1 active torsions:
REMARK  status: ('A' for Active; 'I' for Inactive)
REMARK    1  A    between atoms: C2_2  and  C4_4 
ROOT
HETATM    1  C3  UNL     1     -34.069   4.522   4.495  1.00 20.00     0.205 A 
HETATM    2  C4  UNL     1     -34.474   5.941   4.330  1.00 20.00     0.173 A 
HETATM    3  O6  UNL     1     -33.634   5.314   3.384  1.00 20.00    -0.377 OA
ENDROOT
BRANCH   2   4
HETATM    4  C2  UNL     1     -33.922   6.929   5.315  1.00 20.00    -0.062 C 
HETATM    5  C1  UNL     1     -34.263   6.903   6.612  1.00 20.00     0.016 C 
HETATM    6  C5  UNL     1     -32.967   7.948   4.766  1.00 20.00     0.045 C 
ENDBRANCH   2   4
TORSDOF 1
ENDMDL
MODEL 6
REMARK VINA RESULT:      -3.5      1.687      2.744
REMARK  1 active torsions:
REMARK  status: ('A' for Active; 'I' for Inactive)
REMARK    1  A    between atoms: C2_2  and  C4_4 
ROOT
HETATM    1  C3  UNL     1     -34.044   4.542   4.480  1.00 20.00     0.205 A 
HETATM    2  C4  UNL     1     -34.430   5.959   4.255  1.00 20.00     0.173 A 
HETATM    3  O6  UNL     1     -33.613   5.274   3.327  1.00 20.00    -0.377 OA
ENDROOT
BRANCH   2   4
HETATM    4  C2  UNL     1     -33.847   6.981   5.185  1.00 20.00    -0.062 C 
HETATM    5  C1  UNL     1     -32.991   7.922   4.759  1.00 20.00     0.016 C 
HETATM    6  C5  UNL     1     -34.277   6.892   6.620  1.00 20.00     0.045 C 
ENDBRANCH   2   4
TORSDOF 1
ENDMDL
MODEL 7
REMARK VINA RESULT:      -3.4      1.405      1.942
REMARK  1 active torsions:
REMARK  status: ('A' for Active; 'I' for Inactive)
REMARK    1  A    between atoms: C2_2  and  C4_4 
ROOT
HETATM    1  C3  UNL     1     -32.654   8.020   4.815  1.00 20.00     0.205 A 
HETATM    2  C4  UNL     1     -33.933   7.362   4.445  1.00 20.00     0.173 A 
HETATM    3  O6  UNL     1     -33.721   7.845   5.755  1.00 20.00    -0.377 OA
ENDROOT
BRANCH   2   4
HETATM    4  C2  UNL     1     -33.886   5.892   4.150  1.00 20.00    -0.062 C 
HETATM    5  C1  UNL     1     -33.240   5.403   3.080  1.00 20.00     0.016 C 
HETATM    6  C5  UNL     1     -34.601   4.999   5.120  1.00 20.00     0.045 C 
ENDBRANCH   2   4
TORSDOF 1
ENDMDL
MODEL 8
REMARK VINA RESULT:      -3.0      8.040      8.498
REMARK  1 active torsions:
REMARK  status: ('A' for Active; 'I' for Inactive)
REMARK    1  A    between atoms: C2_2  and  C4_4 
ROOT
HETATM    1  C3  UNL     1     -41.138  13.473   5.899  1.00 20.00     0.205 A 
HETATM    2  C4  UNL     1     -40.527  12.119   5.878  1.00 20.00     0.173 A 
HETATM    3  O6  UNL     1     -40.726  12.805   7.096  1.00 20.00    -0.377 OA
ENDROOT
BRANCH   2   4
HETATM    4  C2  UNL     1     -39.158  11.997   5.277  1.00 20.00    -0.062 C 
HETATM    5  C1  UNL     1     -38.046  12.178   6.005  1.00 20.00     0.016 C 
HETATM    6  C5  UNL     1     -39.103  11.661   3.816  1.00 20.00     0.045 C 
ENDBRANCH   2   4
TORSDOF 1
ENDMDL
MODEL 9
REMARK VINA RESULT:      -3.0      1.612      2.854
REMARK  1 active torsions:
REMARK  status: ('A' for Active; 'I' for Inactive)
REMARK    1  A    between atoms: C2_2  and  C4_4 
ROOT
HETATM    1  C3  UNL     1     -33.318   8.236   5.014  1.00 20.00     0.205 A 
HETATM    2  C4  UNL     1     -32.124   7.827   4.232  1.00 20.00     0.173 A 
HETATM    3  O6  UNL     1     -32.374   9.189   4.511  1.00 20.00    -0.377 OA
ENDROOT
BRANCH   2   4
HETATM    4  C2  UNL     1     -32.364   7.265   2.862  1.00 20.00    -0.062 C 
HETATM    5  C1  UNL     1     -32.195   8.001   1.753  1.00 20.00     0.016 C 
HETATM    6  C5  UNL     1     -32.804   5.832   2.802  1.00 20.00     0.045 C 
ENDBRANCH   2   4
TORSDOF 1
ENDMDL
