MODEL 1
REMARK VINA RESULT:      -4.5      0.000      0.000
REMARK  3 active torsions:
REMARK  status: ('A' for Active; 'I' for Inactive)
REMARK    1  A    between atoms: C2_2  and  C6_6 
REMARK    2  A    between atoms: C6_6  and  C7_7 
REMARK    3  A    between atoms: C6_6  and  O8_8 
ROOT
HETATM    1  C6  UNL     1     -32.975   7.953   4.150  1.00 20.00     0.144 C 
ENDROOT
BRANCH   1   2
HETATM    2  C2  UNL     1     -33.985   7.040   4.788  1.00 20.00     0.000 C 
HETATM    3  C1  UNL     1     -33.876   6.567   6.039  1.00 20.00    -0.033 C 
HETATM    4  C3  UNL     1     -34.879   5.664   6.676  1.00 20.00     0.036 C 
ENDBRANCH   1   2
BRANCH   1   5
HETATM    5  C7  UNL     1     -32.179   7.325   2.982  1.00 20.00     0.010 C 
HETATM    6  C4  UNL     1     -32.197   8.176   1.707  1.00 20.00     0.012 C 
HETATM    7  C5  UNL     1     -32.648   5.901   2.674  1.00 20.00     0.012 C 
ENDBRANCH   1   5
BRANCH   1   8
HETATM    8  O8  UNL     1     -32.068   8.366   5.174  1.00 20.00    -0.391 OA
HETATM    9  H22 UNL     1     -31.484   7.612   5.341  1.00 20.00     0.210 HD
ENDBRANCH   1   8
TORSDOF 3
ENDMDL
MODEL 2
REMARK VINA RESULT:      -4.3      1.104      3.866
REMARK  3 active torsions:
REMARK  status: ('A' for Active; 'I' for Inactive)
REMARK    1  A    between atoms: C2_2  and  C6_6 
REMARK    2  A    between atoms: C6_6  and  C7_7 
REMARK    3  A    between atoms: C6_6  and  O8_8 
ROOT
HETATM    1  C6  UNL     1     -32.622   7.647   4.366  1.00 20.00     0.144 C 
ENDROOT
BRANCH   1   2
HETATM    2  C2  UNL     1     -32.713   8.438   3.090  1.00 20.00     0.000 C 
HETATM    3  C1  UNL     1     -32.285   7.985   1.902  1.00 20.00    -0.033 C 
HETATM    4  C3  UNL     1     -32.379   8.766   0.633  1.00 20.00     0.036 C 
ENDBRANCH   1   2
BRANCH   1   5
HETATM    5  C7  UNL     1     -33.965   7.064   4.865  1.00 20.00     0.010 C 
HETATM    6  C4  UNL     1     -34.048   6.952   6.392  1.00 20.00     0.012 C 
HETATM    7  C5  UNL     1     -34.275   5.713   4.218  1.00 20.00     0.012 C 
ENDBRANCH   1   5
BRANCH   1   8
HETATM    8  O8  UNL     1     -32.080   8.513   5.366  1.00 20.00    -0.391 OA
HETATM    9  H22 UNL     1     -32.527   9.365   5.259  1.00 20.00     0.210 HD
ENDBRANCH   1   8
TORSDOF 3
ENDMDL
MODEL 3
REMARK VINA RESULT:      -4.0     11.625     12.324
REMARK  3 active torsions:
REMARK  status: ('A' for Active; 'I' for Inactive)
REMARK    1  A    between atoms: C2_2  and  C6_6 
REMARK    2  A    between atoms: C6_6  and  C7_7 
REMARK    3  A    between atoms: C6_6  and  O8_8 
ROOT
HETATM    1  C6  UNL     1     -33.382  14.995  -4.786  1.00 20.00     0.144 C 
ENDROOT
BRANCH   1   2
HETATM    2  C2  UNL     1     -33.777  15.564  -3.451  1.00 20.00     0.000 C 
HETATM    3  C1  UNL     1     -33.205  16.646  -2.904  1.00 20.00    -0.033 C 
HETATM    4  C3  UNL     1     -33.597  17.216  -1.582  1.00 20.00     0.036 C 
ENDBRANCH   1   2
BRANCH   1   5
HETATM    5  C7  UNL     1     -34.463  15.110  -5.886  1.00 20.00     0.010 C 
HETATM    6  C4  UNL     1     -34.674  16.545  -6.383  1.00 20.00     0.012 C 
HETATM    7  C5  UNL     1     -35.797  14.505  -5.440  1.00 20.00     0.012 C 
ENDBRANCH   1   5
BRANCH   1   8
HETATM    8  O8  UNL     1     -33.058  13.618  -4.583  1.00 20.00    -0.391 OA
HETATM    9  H22 UNL     1     -32.331  13.416  -5.190  1.00 20.00     0.210 HD
ENDBRANCH   1   8
TORSDOF 3
ENDMDL
MODEL 4
REMARK VINA RESULT:      -3.9      1.161      3.732
REMARK  3 active torsions:
REMARK  status: ('A' for Active; 'I' for Inactive)
REMARK    1  A    between atoms: C2_2  and  C6_6 
REMARK    2  A    between atoms: C6_6  and  C7_7 
REMARK    3  A    between atoms: C6_6  and  O8_8 
ROOT
HETATM    1  C6  UNL     1     -33.389   7.274   5.298  1.00 20.00     0.144 C 
ENDROOT
BRANCH   1   2
HETATM    2  C2  UNL     1     -33.072   7.940   3.987  1.00 20.00     0.000 C 
HETATM    3  C1  UNL     1     -32.331   7.373   3.024  1.00 20.00    -0.033 C 
HETATM    4  C3  UNL     1     -32.018   8.030   1.721  1.00 20.00     0.036 C 
ENDBRANCH   1   2
BRANCH   1   5
HETATM    5  C7  UNL     1     -34.171   5.945   5.178  1.00 20.00     0.010 C 
HETATM    6  C4  UNL     1     -35.469   6.074   4.373  1.00 20.00     0.012 C 
HETATM    7  C5  UNL     1     -34.459   5.327   6.548  1.00 20.00     0.012 C 
ENDBRANCH   1   5
BRANCH   1   8
HETATM    8  O8  UNL     1     -34.150   8.202   6.074  1.00 20.00    -0.391 OA
HETATM    9  H22 UNL     1     -33.509   8.746   6.555  1.00 20.00     0.210 HD
ENDBRANCH   1   8
TORSDOF 3
ENDMDL
MODEL 5
REMARK VINA RESULT:      -3.8      1.930      3.666
REMARK  3 active torsions:
REMARK  status: ('A' for Active; 'I' for Inactive)
REMARK    1  A    between atoms: C2_2  and  C6_6 
REMARK    2  A    between atoms: C6_6  and  C7_7 
REMARK    3  A    between atoms: C6_6  and  O8_8 
ROOT
HETATM    1  C6  UNL     1     -34.220   6.243   3.958  1.00 20.00     0.144 C 
ENDROOT
BRANCH   1   2
HETATM    2  C2  UNL     1     -33.706   7.481   4.640  1.00 20.00     0.000 C 
HETATM    3  C1  UNL     1     -32.558   8.089   4.311  1.00 20.00    -0.033 C 
HETATM    4  C3  UNL     1     -32.047   9.321   4.983  1.00 20.00     0.036 C 
ENDBRANCH   1   2
BRANCH   1   5
HETATM    5  C7  UNL     1     -34.618   5.093   4.914  1.00 20.00     0.010 C 
HETATM    6  C4  UNL     1     -34.606   5.500   6.391  1.00 20.00     0.012 C 
HETATM    7  C5  UNL     1     -33.752   3.849   4.700  1.00 20.00     0.012 C 
ENDBRANCH   1   5
BRANCH   1   8
HETATM    8  O8  UNL     1     -33.195   5.788   3.072  1.00 20.00    -0.391 OA
HETATM    9  H22 UNL     1     -33.165   4.824   3.161  1.00 20.00     0.210 HD
ENDBRANCH   1   8
TORSDOF 3
ENDMDL
MODEL 6
REMARK VINA RESULT:      -3.7     14.958     15.633
REMARK  3 active torsions:
REMARK  status: ('A' for Active; 'I' for Inactive)
REMARK    1  A    between atoms: C2_2  and  C6_6 
REMARK    2  A    between atoms: C6_6  and  C7_7 
REMARK    3  A    between atoms: C6_6  and  O8_8 
ROOT
HETATM    1  C6  UNL     1     -22.163  17.718   9.637  1.00 20.00     0.144 C 
ENDROOT
BRANCH   1   2
HETATM    2  C2  UNL     1     -23.306  17.847  10.606  1.00 20.00     0.000 C 
HETATM    3  C1  UNL     1     -24.066  16.816  11.004  1.00 20.00    -0.033 C 
HETATM    4  C3  UNL     1     -25.198  16.941  11.969  1.00 20.00     0.036 C 
ENDBRANCH   1   2
BRANCH   1   5
HETATM    5  C7  UNL     1     -22.173  18.745   8.481  1.00 20.00     0.010 C 
HETATM    6  C4  UNL     1     -23.582  19.189   8.075  1.00 20.00     0.012 C 
HETATM    7  C5  UNL     1     -21.407  18.234   7.258  1.00 20.00     0.012 C 
ENDBRANCH   1   5
BRANCH   1   8
HETATM    8  O8  UNL     1     -22.212  16.396   9.096  1.00 20.00    -0.391 OA
HETATM    9  H22 UNL     1     -22.287  15.794   9.852  1.00 20.00     0.210 HD
ENDBRANCH   1   8
TORSDOF 3
ENDMDL
MODEL 7
REMARK VINA RESULT:      -3.6      9.580     10.527
REMARK  3 active torsions:
REMARK  status: ('A' for Active; 'I' for Inactive)
REMARK    1  A    between atoms: C2_2  and  C6_6 
REMARK    2  A    between atoms: C6_6  and  C7_7 
REMARK    3  A    between atoms: C6_6  and  O8_8 
ROOT
HETATM    1  C6  UNL     1     -40.856  13.252   6.992  1.00 20.00     0.144 C 
ENDROOT
BRANCH   1   2
HETATM    2  C2  UNL     1     -40.443  12.840   5.605  1.00 20.00     0.000 C 
HETATM    3  C1  UNL     1     -39.373  12.075   5.344  1.00 20.00    -0.033 C 
HETATM    4  C3  UNL     1     -38.963  11.661   3.970  1.00 20.00     0.036 C 
ENDBRANCH   1   2
BRANCH   1   5
HETATM    5  C7  UNL     1     -41.492  14.658   7.088  1.00 20.00     0.010 C 
HETATM    6  C4  UNL     1     -42.156  15.115   5.784  1.00 20.00     0.012 C 
HETATM    7  C5  UNL     1     -40.484  15.707   7.564  1.00 20.00     0.012 C 
ENDBRANCH   1   5
BRANCH   1   8
HETATM    8  O8  UNL     1     -39.690  13.202   7.816  1.00 20.00    -0.391 OA
HETATM    9  H22 UNL     1     -39.811  13.876   8.500  1.00 20.00     0.210 HD
ENDBRANCH   1   8
TORSDOF 3
ENDMDL
MODEL 8
REMARK VINA RESULT:      -3.5     11.950     12.473
REMARK  3 active torsions:
REMARK  status: ('A' for Active; 'I' for Inactive)
REMARK    1  A    between atoms: C2_2  and  C6_6 
REMARK    2  A    between atoms: C6_6  and  C7_7 
REMARK    3  A    between atoms: C6_6  and  O8_8 
ROOT
HETATM    1  C6  UNL     1     -31.644  19.253  -0.064  1.00 20.00     0.144 C 
ENDROOT
BRANCH   1   2
HETATM    2  C2  UNL     1     -31.442  19.202   1.425  1.00 20.00     0.000 C 
HETATM    3  C1  UNL     1     -30.268  18.915   2.008  1.00 20.00    -0.033 C 
HETATM    4  C3  UNL     1     -30.064  18.867   3.486  1.00 20.00     0.036 C 
ENDBRANCH   1   2
BRANCH   1   5
HETATM    5  C7  UNL     1     -33.006  18.710  -0.554  1.00 20.00     0.010 C 
HETATM    6  C4  UNL     1     -33.891  18.180   0.580  1.00 20.00     0.012 C 
HETATM    7  C5  UNL     1     -32.838  17.642  -1.637  1.00 20.00     0.012 C 
ENDBRANCH   1   5
BRANCH   1   8
HETATM    8  O8  UNL     1     -30.590  18.496  -0.663  1.00 20.00    -0.391 OA
HETATM    9  H22 UNL     1     -29.765  18.823  -0.275  1.00 20.00     0.210 HD
ENDBRANCH   1   8
TORSDOF 3
ENDMDL
MODEL 9
REMARK VINA RESULT:      -3.5     11.735     12.937
REMARK  3 active torsions:
REMARK  status: ('A' for Active; 'I' for Inactive)
REMARK    1  A    between atoms: C2_2  and  C6_6 
REMARK    2  A    between atoms: C6_6  and  C7_7 
REMARK    3  A    between atoms: C6_6  and  O8_8 
ROOT
HETATM    1  C6  UNL     1     -33.473  15.465  -3.874  1.00 20.00     0.144 C 
ENDROOT
BRANCH   1   2
HETATM    2  C2  UNL     1     -34.609  15.509  -4.860  1.00 20.00     0.000 C 
HETATM    3  C1  UNL     1     -34.512  15.081  -6.127  1.00 20.00    -0.033 C 
HETATM    4  C3  UNL     1     -35.638  15.120  -7.105  1.00 20.00     0.036 C 
ENDBRANCH   1   2
BRANCH   1   5
HETATM    5  C7  UNL     1     -33.112  16.829  -3.239  1.00 20.00     0.010 C 
HETATM    6  C4  UNL     1     -33.550  16.952  -1.776  1.00 20.00     0.012 C 
HETATM    7  C5  UNL     1     -33.661  18.001  -4.057  1.00 20.00     0.012 C 
ENDBRANCH   1   5
BRANCH   1   8
HETATM    8  O8  UNL     1     -32.333  14.946  -4.562  1.00 20.00    -0.391 OA
HETATM    9  H22 UNL     1     -32.536  14.022  -4.768  1.00 20.00     0.210 HD
ENDBRANCH   1   8
TORSDOF 3
ENDMDL
