MODEL 1
REMARK VINA RESULT:      -4.2      0.000      0.000
REMARK  0 active torsions:
REMARK  status: ('A' for Active; 'I' for Inactive)
ROOT
HETATM    1  C1  UNL     1     -33.830   7.207   6.267  1.00 20.00    -0.025 A 
HETATM    2  C2  UNL     1     -34.396   6.024   6.560  1.00 20.00     0.003 A 
HETATM    3  C3  UNL     1     -33.676   7.341   4.770  1.00 20.00     0.061 A 
HETATM    4  C4  UNL     1     -34.717   5.225   5.367  1.00 20.00     0.173 A 
HETATM    5  C5  UNL     1     -34.161   6.027   4.205  1.00 20.00     0.158 A 
HETATM    6  O6  UNL     1     -35.553   5.730   4.313  1.00 20.00    -0.371 OA
ENDROOT
TORSDOF 0
ENDMDL
MODEL 2
REMARK VINA RESULT:      -4.1      1.444      2.142
REMARK  0 active torsions:
REMARK  status: ('A' for Active; 'I' for Inactive)
ROOT
HETATM    1  C1  UNL     1     -34.525   4.880   5.174  1.00 20.00    -0.025 A 
HETATM    2  C2  UNL     1     -34.587   5.485   6.372  1.00 20.00     0.003 A 
HETATM    3  C3  UNL     1     -34.122   5.882   4.118  1.00 20.00     0.061 A 
HETATM    4  C4  UNL     1     -34.231   6.911   6.319  1.00 20.00     0.173 A 
HETATM    5  C5  UNL     1     -34.026   7.203   4.845  1.00 20.00     0.158 A 
HETATM    6  O6  UNL     1     -32.972   7.364   5.794  1.00 20.00    -0.371 OA
ENDROOT
TORSDOF 0
ENDMDL
MODEL 3
REMARK VINA RESULT:      -4.1      1.128      1.942
REMARK  0 active torsions:
REMARK  status: ('A' for Active; 'I' for Inactive)
ROOT
HETATM    1  C1  UNL     1     -34.411   5.573   6.461  1.00 20.00    -0.025 A 
HETATM    2  C2  UNL     1     -34.053   6.862   6.331  1.00 20.00     0.003 A 
HETATM    3  C3  UNL     1     -34.626   4.964   5.096  1.00 20.00     0.061 A 
HETATM    4  C4  UNL     1     -33.954   7.296   4.930  1.00 20.00     0.173 A 
HETATM    5  C5  UNL     1     -34.423   6.101   4.122  1.00 20.00     0.158 A 
HETATM    6  O6  UNL     1     -33.104   6.629   3.982  1.00 20.00    -0.371 OA
ENDROOT
TORSDOF 0
ENDMDL
MODEL 4
REMARK VINA RESULT:      -4.1      0.878      1.797
REMARK  0 active torsions:
REMARK  status: ('A' for Active; 'I' for Inactive)
ROOT
HETATM    1  C1  UNL     1     -33.901   6.828   6.391  1.00 20.00    -0.025 A 
HETATM    2  C2  UNL     1     -33.720   7.259   5.131  1.00 20.00     0.003 A 
HETATM    3  C3  UNL     1     -34.629   5.505   6.377  1.00 20.00     0.061 A 
HETATM    4  C4  UNL     1     -34.251   6.332   4.121  1.00 20.00     0.173 A 
HETATM    5  C5  UNL     1     -34.933   5.239   4.922  1.00 20.00     0.158 A 
HETATM    6  O6  UNL     1     -33.835   4.957   4.054  1.00 20.00    -0.371 OA
ENDROOT
TORSDOF 0
ENDMDL
MODEL 5
REMARK VINA RESULT:      -4.0      1.265      2.390
REMARK  0 active torsions:
REMARK  status: ('A' for Active; 'I' for Inactive)
ROOT
HETATM    1  C1  UNL     1     -34.833   5.314   5.334  1.00 20.00    -0.025 A 
HETATM    2  C2  UNL     1     -34.242   5.677   4.183  1.00 20.00     0.003 A 
HETATM    3  C3  UNL     1     -34.444   6.275   6.432  1.00 20.00     0.061 A 
HETATM    4  C4  UNL     1     -33.420   6.890   4.313  1.00 20.00     0.173 A 
HETATM    5  C5  UNL     1     -33.462   7.228   5.791  1.00 20.00     0.158 A 
HETATM    6  O6  UNL     1     -33.961   8.129   4.802  1.00 20.00    -0.371 OA
ENDROOT
TORSDOF 0
ENDMDL
MODEL 6
REMARK VINA RESULT:      -3.6      1.828      2.693
REMARK  0 active torsions:
REMARK  status: ('A' for Active; 'I' for Inactive)
ROOT
HETATM    1  C1  UNL     1     -32.245   7.438   3.362  1.00 20.00    -0.025 A 
HETATM    2  C2  UNL     1     -33.160   6.488   3.620  1.00 20.00     0.003 A 
HETATM    3  C3  UNL     1     -32.371   8.554   4.373  1.00 20.00     0.061 A 
HETATM    4  C4  UNL     1     -33.988   6.788   4.797  1.00 20.00     0.173 A 
HETATM    5  C5  UNL     1     -33.553   8.174   5.233  1.00 20.00     0.158 A 
HETATM    6  O6  UNL     1     -33.415   7.041   6.090  1.00 20.00    -0.371 OA
ENDROOT
TORSDOF 0
ENDMDL
MODEL 7
REMARK VINA RESULT:      -3.6      2.201      3.065
REMARK  0 active torsions:
REMARK  status: ('A' for Active; 'I' for Inactive)
ROOT
HETATM    1  C1  UNL     1     -34.038   6.699   4.760  1.00 20.00    -0.025 A 
HETATM    2  C2  UNL     1     -33.290   6.425   3.677  1.00 20.00     0.003 A 
HETATM    3  C3  UNL     1     -33.577   7.996   5.382  1.00 20.00     0.061 A 
HETATM    4  C4  UNL     1     -32.275   7.453   3.401  1.00 20.00     0.173 A 
HETATM    5  C5  UNL     1     -32.385   8.425   4.560  1.00 20.00     0.158 A 
HETATM    6  O6  UNL     1     -32.619   8.835   3.214  1.00 20.00    -0.371 OA
ENDROOT
TORSDOF 0
ENDMDL
MODEL 8
REMARK VINA RESULT:      -3.0      9.052      9.635
REMARK  0 active torsions:
REMARK  status: ('A' for Active; 'I' for Inactive)
ROOT
HETATM    1  C1  UNL     1     -41.013   7.711  -0.362  1.00 20.00    -0.025 A 
HETATM    2  C2  UNL     1     -42.343   7.907  -0.378  1.00 20.00     0.003 A 
HETATM    3  C3  UNL     1     -40.718   6.236  -0.225  1.00 20.00     0.061 A 
HETATM    4  C4  UNL     1     -43.113   6.658  -0.282  1.00 20.00     0.173 A 
HETATM    5  C5  UNL     1     -42.069   5.576  -0.079  1.00 20.00     0.158 A 
HETATM    6  O6  UNL     1     -42.935   5.579  -1.214  1.00 20.00    -0.371 OA
ENDROOT
TORSDOF 0
ENDMDL
MODEL 9
REMARK VINA RESULT:      -3.0     16.726     17.013
REMARK  0 active torsions:
REMARK  status: ('A' for Active; 'I' for Inactive)
ROOT
HETATM    1  C1  UNL     1     -23.841  18.479   9.453  1.00 20.00    -0.025 A 
HETATM    2  C2  UNL     1     -22.969  17.581   9.942  1.00 20.00     0.003 A 
HETATM    3  C3  UNL     1     -23.322  19.034   8.148  1.00 20.00     0.061 A 
HETATM    4  C4  UNL     1     -21.796  17.384   9.077  1.00 20.00     0.173 A 
HETATM    5  C5  UNL     1     -21.965  18.397   7.961  1.00 20.00     0.158 A 
HETATM    6  O6  UNL     1     -21.920  16.994   7.700  1.00 20.00    -0.371 OA
ENDROOT
TORSDOF 0
ENDMDL
