MODEL 1
REMARK VINA RESULT:      -3.6      0.000      0.000
REMARK  3 active torsions:
REMARK  status: ('A' for Active; 'I' for Inactive)
REMARK    1  A    between atoms: C1_1  and  C2_2 
REMARK    2  A    between atoms: C3_3  and  C8_8 
REMARK    3  A    between atoms: C8_8  and  C9_9 
ROOT
HETATM    1  C1  UNL     1     -32.802   8.471   3.574  1.00 20.00     0.043 C 
HETATM    2  C3  UNL     1     -33.206   8.001   4.769  1.00 20.00    -0.080 C 
HETATM    3  C4  UNL     1     -33.871   8.845   5.821  1.00 20.00     0.043 C 
ENDROOT
BRANCH   2   4
HETATM    4  C8  UNL     1     -33.071   6.517   5.075  1.00 20.00     0.042 C 
BRANCH   4   5
HETATM    5  C9  UNL     1     -34.377   5.672   5.107  1.00 20.00    -0.048 C 
HETATM    6  C5  UNL     1     -34.851   5.436   6.551  1.00 20.00     0.015 C 
HETATM    7  C6  UNL     1     -35.511   6.335   4.307  1.00 20.00     0.015 C 
HETATM    8  C7  UNL     1     -34.073   4.303   4.463  1.00 20.00     0.015 C 
ENDBRANCH   4   5
ENDBRANCH   2   4
BRANCH   1   9
HETATM    9  C2  UNL     1     -32.147   7.642   2.539  1.00 20.00     0.259 C 
HETATM   10  O10 UNL     1     -32.090   8.000   1.368  1.00 20.00    -0.302 OA
ENDBRANCH   1   9
TORSDOF 3
ENDMDL
MODEL 2
REMARK VINA RESULT:      -3.5      0.088      1.359
REMARK  3 active torsions:
REMARK  status: ('A' for Active; 'I' for Inactive)
REMARK    1  A    between atoms: C1_1  and  C2_2 
REMARK    2  A    between atoms: C3_3  and  C8_8 
REMARK    3  A    between atoms: C8_8  and  C9_9 
ROOT
HETATM    1  C1  UNL     1     -32.808   8.454   3.631  1.00 20.00     0.043 C 
HETATM    2  C3  UNL     1     -33.228   8.027   4.836  1.00 20.00    -0.080 C 
HETATM    3  C4  UNL     1     -33.921   8.905   5.842  1.00 20.00     0.043 C 
ENDROOT
BRANCH   2   4
HETATM    4  C8  UNL     1     -33.081   6.559   5.203  1.00 20.00     0.042 C 
BRANCH   4   5
HETATM    5  C9  UNL     1     -34.354   5.668   5.110  1.00 20.00    -0.048 C 
HETATM    6  C5  UNL     1     -35.481   6.387   4.349  1.00 20.00     0.015 C 
HETATM    7  C6  UNL     1     -34.065   4.321   4.427  1.00 20.00     0.015 C 
HETATM    8  C7  UNL     1     -34.841   5.383   6.546  1.00 20.00     0.015 C 
ENDBRANCH   4   5
ENDBRANCH   2   4
BRANCH   1   9
HETATM    9  C2  UNL     1     -32.126   7.593   2.641  1.00 20.00     0.259 C 
HETATM   10  O10 UNL     1     -32.082   7.888   1.452  1.00 20.00    -0.302 OA
ENDBRANCH   1   9
TORSDOF 3
ENDMDL
MODEL 3
REMARK VINA RESULT:      -3.5      1.987      3.804
REMARK  3 active torsions:
REMARK  status: ('A' for Active; 'I' for Inactive)
REMARK    1  A    between atoms: C1_1  and  C2_2 
REMARK    2  A    between atoms: C3_3  and  C8_8 
REMARK    3  A    between atoms: C8_8  and  C9_9 
ROOT
HETATM    1  C1  UNL     1     -34.434   5.826   5.836  1.00 20.00     0.043 C 
HETATM    2  C3  UNL     1     -34.195   7.143   5.696  1.00 20.00    -0.080 C 
HETATM    3  C4  UNL     1     -33.841   8.057   6.837  1.00 20.00     0.043 C 
ENDROOT
BRANCH   2   4
HETATM    4  C8  UNL     1     -34.195   7.760   4.307  1.00 20.00     0.042 C 
BRANCH   4   5
HETATM    5  C9  UNL     1     -32.815   8.132   3.690  1.00 20.00    -0.048 C 
HETATM    6  C5  UNL     1     -32.962   9.223   2.616  1.00 20.00     0.015 C 
HETATM    7  C6  UNL     1     -31.816   8.607   4.758  1.00 20.00     0.015 C 
HETATM    8  C7  UNL     1     -32.237   6.866   3.022  1.00 20.00     0.015 C 
ENDBRANCH   4   5
ENDBRANCH   2   4
BRANCH   1   9
HETATM    9  C2  UNL     1     -34.783   4.925   4.716  1.00 20.00     0.259 C 
HETATM   10  O10 UNL     1     -34.025   4.036   4.345  1.00 20.00    -0.302 OA
ENDBRANCH   1   9
TORSDOF 3
ENDMDL
MODEL 4
REMARK VINA RESULT:      -3.5      2.006      3.820
REMARK  3 active torsions:
REMARK  status: ('A' for Active; 'I' for Inactive)
REMARK    1  A    between atoms: C1_1  and  C2_2 
REMARK    2  A    between atoms: C3_3  and  C8_8 
REMARK    3  A    between atoms: C8_8  and  C9_9 
ROOT
HETATM    1  C1  UNL     1     -34.377   5.821   5.768  1.00 20.00     0.043 C 
HETATM    2  C3  UNL     1     -34.184   7.151   5.691  1.00 20.00    -0.080 C 
HETATM    3  C4  UNL     1     -33.895   8.026   6.880  1.00 20.00     0.043 C 
ENDROOT
BRANCH   2   4
HETATM    4  C8  UNL     1     -34.172   7.828   4.330  1.00 20.00     0.042 C 
BRANCH   4   5
HETATM    5  C9  UNL     1     -32.785   8.195   3.727  1.00 20.00    -0.048 C 
HETATM    6  C5  UNL     1     -31.830   8.725   4.811  1.00 20.00     0.015 C 
HETATM    7  C6  UNL     1     -32.129   6.998   3.020  1.00 20.00     0.015 C 
HETATM    8  C7  UNL     1     -33.001   9.310   2.682  1.00 20.00     0.015 C 
ENDBRANCH   4   5
ENDBRANCH   2   4
BRANCH   1   9
HETATM    9  C2  UNL     1     -34.661   4.958   4.601  1.00 20.00     0.259 C 
HETATM   10  O10 UNL     1     -34.018   3.938   4.382  1.00 20.00    -0.302 OA
ENDBRANCH   1   9
TORSDOF 3
ENDMDL
MODEL 5
REMARK VINA RESULT:      -3.3      1.320      2.542
REMARK  3 active torsions:
REMARK  status: ('A' for Active; 'I' for Inactive)
REMARK    1  A    between atoms: C1_1  and  C2_2 
REMARK    2  A    between atoms: C3_3  and  C8_8 
REMARK    3  A    between atoms: C8_8  and  C9_9 
ROOT
HETATM    1  C1  UNL     1     -32.556   7.484   2.148  1.00 20.00     0.043 C 
HETATM    2  C3  UNL     1     -32.805   6.486   3.016  1.00 20.00    -0.080 C 
HETATM    3  C4  UNL     1     -32.816   5.030   2.638  1.00 20.00     0.043 C 
ENDROOT
BRANCH   2   4
HETATM    4  C8  UNL     1     -33.011   6.807   4.487  1.00 20.00     0.042 C 
BRANCH   4   5
HETATM    5  C9  UNL     1     -34.248   6.175   5.190  1.00 20.00    -0.048 C 
HETATM    6  C5  UNL     1     -35.516   6.338   4.335  1.00 20.00     0.015 C 
HETATM    7  C6  UNL     1     -34.036   4.684   5.498  1.00 20.00     0.015 C 
HETATM    8  C7  UNL     1     -34.463   6.915   6.527  1.00 20.00     0.015 C 
ENDBRANCH   4   5
ENDBRANCH   2   4
BRANCH   1   9
HETATM    9  C2  UNL     1     -32.544   8.916   2.517  1.00 20.00     0.259 C 
HETATM   10  O10 UNL     1     -32.905   9.786   1.733  1.00 20.00    -0.302 OA
ENDBRANCH   1   9
TORSDOF 3
ENDMDL
MODEL 6
REMARK VINA RESULT:      -3.2      1.262      2.381
REMARK  3 active torsions:
REMARK  status: ('A' for Active; 'I' for Inactive)
REMARK    1  A    between atoms: C1_1  and  C2_2 
REMARK    2  A    between atoms: C3_3  and  C8_8 
REMARK    3  A    between atoms: C8_8  and  C9_9 
ROOT
HETATM    1  C1  UNL     1     -32.540   7.492   2.152  1.00 20.00     0.043 C 
HETATM    2  C3  UNL     1     -32.812   6.488   3.006  1.00 20.00    -0.080 C 
HETATM    3  C4  UNL     1     -32.792   5.033   2.624  1.00 20.00     0.043 C 
ENDROOT
BRANCH   2   4
HETATM    4  C8  UNL     1     -33.081   6.802   4.469  1.00 20.00     0.042 C 
BRANCH   4   5
HETATM    5  C9  UNL     1     -34.293   6.094   5.141  1.00 20.00    -0.048 C 
HETATM    6  C5  UNL     1     -34.085   4.572   5.200  1.00 20.00     0.015 C 
HETATM    7  C6  UNL     1     -34.552   6.622   6.562  1.00 20.00     0.015 C 
HETATM    8  C7  UNL     1     -35.545   6.383   4.287  1.00 20.00     0.015 C 
ENDBRANCH   4   5
ENDBRANCH   2   4
BRANCH   1   9
HETATM    9  C2  UNL     1     -32.560   8.923   2.525  1.00 20.00     0.259 C 
HETATM   10  O10 UNL     1     -32.859   9.795   1.717  1.00 20.00    -0.302 OA
ENDBRANCH   1   9
TORSDOF 3
ENDMDL
MODEL 7
REMARK VINA RESULT:      -3.2      9.150     10.740
REMARK  3 active torsions:
REMARK  status: ('A' for Active; 'I' for Inactive)
REMARK    1  A    between atoms: C1_1  and  C2_2 
REMARK    2  A    between atoms: C3_3  and  C8_8 
REMARK    3  A    between atoms: C8_8  and  C9_9 
ROOT
HETATM    1  C1  UNL     1     -40.448  12.908   5.187  1.00 20.00     0.043 C 
HETATM    2  C3  UNL     1     -41.464  13.505   5.838  1.00 20.00    -0.080 C 
HETATM    3  C4  UNL     1     -42.596  14.218   5.151  1.00 20.00     0.043 C 
ENDROOT
BRANCH   2   4
HETATM    4  C8  UNL     1     -41.546  13.401   7.352  1.00 20.00     0.042 C 
BRANCH   4   5
HETATM    5  C9  UNL     1     -41.226  14.683   8.175  1.00 20.00    -0.048 C 
HETATM    6  C5  UNL     1     -40.501  14.335   9.486  1.00 20.00     0.015 C 
HETATM    7  C6  UNL     1     -40.371  15.681   7.376  1.00 20.00     0.015 C 
HETATM    8  C7  UNL     1     -42.563  15.369   8.525  1.00 20.00     0.015 C 
ENDBRANCH   4   5
ENDBRANCH   2   4
BRANCH   1   9
HETATM    9  C2  UNL     1     -39.334  12.206   5.861  1.00 20.00     0.259 C 
HETATM   10  O10 UNL     1     -38.201  12.197   5.391  1.00 20.00    -0.302 OA
ENDBRANCH   1   9
TORSDOF 3
ENDMDL
MODEL 8
REMARK VINA RESULT:      -3.2      9.170     10.766
REMARK  3 active torsions:
REMARK  status: ('A' for Active; 'I' for Inactive)
REMARK    1  A    between atoms: C1_1  and  C2_2 
REMARK    2  A    between atoms: C3_3  and  C8_8 
REMARK    3  A    between atoms: C8_8  and  C9_9 
ROOT
HETATM    1  C1  UNL     1     -40.456  12.910   5.198  1.00 20.00     0.043 C 
HETATM    2  C3  UNL     1     -41.466  13.503   5.861  1.00 20.00    -0.080 C 
HETATM    3  C4  UNL     1     -42.613  14.205   5.187  1.00 20.00     0.043 C 
ENDROOT
BRANCH   2   4
HETATM    4  C8  UNL     1     -41.524  13.409   7.377  1.00 20.00     0.042 C 
BRANCH   4   5
HETATM    5  C9  UNL     1     -41.278  14.716   8.185  1.00 20.00    -0.048 C 
HETATM    6  C5  UNL     1     -40.361  15.681   7.415  1.00 20.00     0.015 C 
HETATM    7  C6  UNL     1     -42.592  15.437   8.529  1.00 20.00     0.015 C 
HETATM    8  C7  UNL     1     -40.581  14.333   9.508  1.00 20.00     0.015 C 
ENDBRANCH   4   5
ENDBRANCH   2   4
BRANCH   1   9
HETATM    9  C2  UNL     1     -39.327  12.219   5.859  1.00 20.00     0.259 C 
HETATM   10  O10 UNL     1     -38.208  12.193   5.360  1.00 20.00    -0.302 OA
ENDBRANCH   1   9
TORSDOF 3
ENDMDL
MODEL 9
REMARK VINA RESULT:      -3.1      2.293      4.324
REMARK  3 active torsions:
REMARK  status: ('A' for Active; 'I' for Inactive)
REMARK    1  A    between atoms: C1_1  and  C2_2 
REMARK    2  A    between atoms: C3_3  and  C8_8 
REMARK    3  A    between atoms: C8_8  and  C9_9 
ROOT
HETATM    1  C1  UNL     1     -34.163   4.902   4.723  1.00 20.00     0.043 C 
HETATM    2  C3  UNL     1     -33.714   5.680   3.721  1.00 20.00    -0.080 C 
HETATM    3  C4  UNL     1     -33.009   5.154   2.501  1.00 20.00     0.043 C 
ENDROOT
BRANCH   2   4
HETATM    4  C8  UNL     1     -33.989   7.175   3.754  1.00 20.00     0.042 C 
BRANCH   4   5
HETATM    5  C9  UNL     1     -32.759   8.127   3.818  1.00 20.00    -0.048 C 
HETATM    6  C5  UNL     1     -32.666   8.821   5.188  1.00 20.00     0.015 C 
HETATM    7  C6  UNL     1     -31.442   7.386   3.538  1.00 20.00     0.015 C 
HETATM    8  C7  UNL     1     -32.940   9.211   2.735  1.00 20.00     0.015 C 
ENDBRANCH   4   5
ENDBRANCH   2   4
BRANCH   1   9
HETATM    9  C2  UNL     1     -34.856   5.418   5.923  1.00 20.00     0.259 C 
HETATM   10  O10 UNL     1     -34.283   6.128   6.742  1.00 20.00    -0.302 OA
ENDBRANCH   1   9
TORSDOF 3
ENDMDL
