MODEL 1
REMARK VINA RESULT:      -3.4      0.000      0.000
REMARK  4 active torsions:
REMARK  status: ('A' for Active; 'I' for Inactive)
REMARK    1  A    between atoms: C5_5  and  C7_7 
REMARK    2  A    between atoms: C5_5  and  C8_8 
REMARK    3  A    between atoms: C6_6  and  C7_7 
REMARK    4  A    between atoms: C6_6  and  S9_9 
ROOT
HETATM    1  C5  UNL     1     -34.064   7.446   4.455  1.00 20.00     0.013 C 
ENDROOT
BRANCH   1   2
HETATM    2  C7  UNL     1     -32.561   7.745   4.230  1.00 20.00    -0.009 C 
HETATM    3  C1  UNL     1     -32.084   9.048   4.873  1.00 20.00     0.011 C 
BRANCH   2   4
HETATM    4  C6  UNL     1     -32.198   7.702   2.726  1.00 20.00     0.075 C 
BRANCH   4   5
HETATM    5  S9  UNL     1     -32.756   9.127   1.738  1.00 20.00    -0.182 SA
HETATM    6  H27 UNL     1     -31.530   9.553   1.408  1.00 20.00     0.101 HD
ENDBRANCH   4   5
ENDBRANCH   2   4
ENDBRANCH   1   2
BRANCH   1   7
HETATM    7  C8  UNL     1     -34.514   5.986   4.763  1.00 20.00    -0.051 C 
HETATM    8  C2  UNL     1     -33.664   4.947   4.015  1.00 20.00     0.014 C 
HETATM    9  C3  UNL     1     -34.493   5.682   6.271  1.00 20.00     0.014 C 
HETATM   10  C4  UNL     1     -35.979   5.840   4.289  1.00 20.00     0.014 C 
ENDBRANCH   1   7
TORSDOF 4
ENDMDL
MODEL 2
REMARK VINA RESULT:      -3.1     11.801     12.815
REMARK  4 active torsions:
REMARK  status: ('A' for Active; 'I' for Inactive)
REMARK    1  A    between atoms: C5_5  and  C7_7 
REMARK    2  A    between atoms: C5_5  and  C8_8 
REMARK    3  A    between atoms: C6_6  and  C7_7 
REMARK    4  A    between atoms: C6_6  and  S9_9 
ROOT
HETATM    1  C5  UNL     1     -34.442  16.477  -4.221  1.00 20.00     0.013 C 
ENDROOT
BRANCH   1   2
HETATM    2  C7  UNL     1     -33.327  17.125  -3.362  1.00 20.00    -0.009 C 
HETATM    3  C1  UNL     1     -33.559  17.013  -1.856  1.00 20.00     0.011 C 
BRANCH   2   4
HETATM    4  C6  UNL     1     -33.078  18.595  -3.779  1.00 20.00     0.075 C 
BRANCH   4   5
HETATM    5  S9  UNL     1     -33.950  19.149  -5.279  1.00 20.00    -0.182 SA
HETATM    6  H27 UNL     1     -33.226  20.261  -5.455  1.00 20.00     0.101 HD
ENDBRANCH   4   5
ENDBRANCH   2   4
ENDBRANCH   1   2
BRANCH   1   7
HETATM    7  C8  UNL     1     -34.176  15.105  -4.910  1.00 20.00    -0.051 C 
HETATM    8  C2  UNL     1     -35.238  14.057  -4.544  1.00 20.00     0.014 C 
HETATM    9  C3  UNL     1     -34.084  15.236  -6.440  1.00 20.00     0.014 C 
HETATM   10  C4  UNL     1     -32.803  14.594  -4.413  1.00 20.00     0.014 C 
ENDBRANCH   1   7
TORSDOF 4
ENDMDL
MODEL 3
REMARK VINA RESULT:      -3.1     11.733     12.747
REMARK  4 active torsions:
REMARK  status: ('A' for Active; 'I' for Inactive)
REMARK    1  A    between atoms: C5_5  and  C7_7 
REMARK    2  A    between atoms: C5_5  and  C8_8 
REMARK    3  A    between atoms: C6_6  and  C7_7 
REMARK    4  A    between atoms: C6_6  and  S9_9 
ROOT
HETATM    1  C5  UNL     1     -33.689  17.064  -1.840  1.00 20.00     0.013 C 
ENDROOT
BRANCH   1   2
HETATM    2  C7  UNL     1     -33.347  17.011  -3.351  1.00 20.00    -0.009 C 
HETATM    3  C1  UNL     1     -34.394  17.671  -4.248  1.00 20.00     0.011 C 
BRANCH   2   4
HETATM    4  C6  UNL     1     -33.053  15.563  -3.811  1.00 20.00     0.075 C 
BRANCH   4   5
HETATM    5  S9  UNL     1     -34.262  14.841  -4.967  1.00 20.00    -0.182 SA
HETATM    6  H27 UNL     1     -35.340  15.102  -4.217  1.00 20.00     0.101 HD
ENDBRANCH   4   5
ENDBRANCH   2   4
ENDBRANCH   1   2
BRANCH   1   7
HETATM    7  C8  UNL     1     -33.555  18.414  -1.073  1.00 20.00    -0.051 C 
HETATM    8  C2  UNL     1     -32.370  19.252  -1.578  1.00 20.00     0.014 C 
HETATM    9  C3  UNL     1     -34.845  19.248  -1.145  1.00 20.00     0.014 C 
HETATM   10  C4  UNL     1     -33.309  18.080   0.417  1.00 20.00     0.014 C 
ENDBRANCH   1   7
TORSDOF 4
ENDMDL
MODEL 4
REMARK VINA RESULT:      -3.1     12.024     12.938
REMARK  4 active torsions:
REMARK  status: ('A' for Active; 'I' for Inactive)
REMARK    1  A    between atoms: C5_5  and  C7_7 
REMARK    2  A    between atoms: C5_5  and  C8_8 
REMARK    3  A    between atoms: C6_6  and  C7_7 
REMARK    4  A    between atoms: C6_6  and  S9_9 
ROOT
HETATM    1  C5  UNL     1     -32.757  18.939  -1.766  1.00 20.00     0.013 C 
ENDROOT
BRANCH   1   2
HETATM    2  C7  UNL     1     -32.438  18.228  -0.426  1.00 20.00    -0.009 C 
HETATM    3  C1  UNL     1     -33.478  18.471   0.668  1.00 20.00     0.011 C 
BRANCH   2   4
HETATM    4  C6  UNL     1     -31.015  18.579   0.072  1.00 20.00     0.075 C 
BRANCH   4   5
HETATM    5  S9  UNL     1     -30.763  18.486   1.873  1.00 20.00    -0.182 SA
HETATM    6  H27 UNL     1     -31.437  17.341   2.046  1.00 20.00     0.101 HD
ENDBRANCH   4   5
ENDBRANCH   2   4
ENDBRANCH   1   2
BRANCH   1   7
HETATM    7  C8  UNL     1     -33.564  18.178  -2.860  1.00 20.00    -0.051 C 
HETATM    8  C2  UNL     1     -33.216  18.659  -4.277  1.00 20.00     0.014 C 
HETATM    9  C3  UNL     1     -33.367  16.655  -2.768  1.00 20.00     0.014 C 
HETATM   10  C4  UNL     1     -35.065  18.459  -2.610  1.00 20.00     0.014 C 
ENDBRANCH   1   7
TORSDOF 4
ENDMDL
MODEL 5
REMARK VINA RESULT:      -3.1     12.063     12.841
REMARK  4 active torsions:
REMARK  status: ('A' for Active; 'I' for Inactive)
REMARK    1  A    between atoms: C5_5  and  C7_7 
REMARK    2  A    between atoms: C5_5  and  C8_8 
REMARK    3  A    between atoms: C6_6  and  C7_7 
REMARK    4  A    between atoms: C6_6  and  S9_9 
ROOT
HETATM    1  C5  UNL     1     -33.318  17.770  -0.650  1.00 20.00     0.013 C 
ENDROOT
BRANCH   1   2
HETATM    2  C7  UNL     1     -32.530  18.869   0.106  1.00 20.00    -0.009 C 
HETATM    3  C1  UNL     1     -31.047  18.553   0.294  1.00 20.00     0.011 C 
BRANCH   2   4
HETATM    4  C6  UNL     1     -33.201  19.212   1.458  1.00 20.00     0.075 C 
BRANCH   4   5
HETATM    5  S9  UNL     1     -35.022  19.263   1.447  1.00 20.00    -0.182 SA
HETATM    6  H27 UNL     1     -35.159  18.941   0.154  1.00 20.00     0.101 HD
ENDBRANCH   4   5
ENDBRANCH   2   4
ENDBRANCH   1   2
BRANCH   1   7
HETATM    7  C8  UNL     1     -33.708  18.000  -2.142  1.00 20.00    -0.051 C 
HETATM    8  C2  UNL     1     -35.149  18.510  -2.292  1.00 20.00     0.014 C 
HETATM    9  C3  UNL     1     -32.741  18.965  -2.848  1.00 20.00     0.014 C 
HETATM   10  C4  UNL     1     -33.601  16.637  -2.865  1.00 20.00     0.014 C 
ENDBRANCH   1   7
TORSDOF 4
ENDMDL
MODEL 6
REMARK VINA RESULT:      -3.1     11.587     13.065
REMARK  4 active torsions:
REMARK  status: ('A' for Active; 'I' for Inactive)
REMARK    1  A    between atoms: C5_5  and  C7_7 
REMARK    2  A    between atoms: C5_5  and  C8_8 
REMARK    3  A    between atoms: C6_6  and  C7_7 
REMARK    4  A    between atoms: C6_6  and  S9_9 
ROOT
HETATM    1  C5  UNL     1     -33.251  16.832  -3.621  1.00 20.00     0.013 C 
ENDROOT
BRANCH   1   2
HETATM    2  C7  UNL     1     -34.314  15.943  -4.314  1.00 20.00    -0.009 C 
HETATM    3  C1  UNL     1     -34.050  14.443  -4.184  1.00 20.00     0.011 C 
BRANCH   2   4
HETATM    4  C6  UNL     1     -34.505  16.347  -5.796  1.00 20.00     0.075 C 
BRANCH   4   5
HETATM    5  S9  UNL     1     -35.540  15.228  -6.793  1.00 20.00    -0.182 SA
HETATM    6  H27 UNL     1     -36.534  15.131  -5.901  1.00 20.00     0.101 HD
ENDBRANCH   4   5
ENDBRANCH   2   4
ENDBRANCH   1   2
BRANCH   1   7
HETATM    7  C8  UNL     1     -33.708  17.894  -2.577  1.00 20.00    -0.051 C 
HETATM    8  C2  UNL     1     -35.118  18.428  -2.871  1.00 20.00     0.014 C 
HETATM    9  C3  UNL     1     -33.650  17.351  -1.139  1.00 20.00     0.014 C 
HETATM   10  C4  UNL     1     -32.717  19.080  -2.656  1.00 20.00     0.014 C 
ENDBRANCH   1   7
TORSDOF 4
ENDMDL
MODEL 7
REMARK VINA RESULT:      -3.0     10.388     11.159
REMARK  4 active torsions:
REMARK  status: ('A' for Active; 'I' for Inactive)
REMARK    1  A    between atoms: C5_5  and  C7_7 
REMARK    2  A    between atoms: C5_5  and  C8_8 
REMARK    3  A    between atoms: C6_6  and  C7_7 
REMARK    4  A    between atoms: C6_6  and  S9_9 
ROOT
HETATM    1  C5  UNL     1     -40.179  14.076   7.077  1.00 20.00     0.013 C 
ENDROOT
BRANCH   1   2
HETATM    2  C7  UNL     1     -40.833  15.112   8.026  1.00 20.00    -0.009 C 
HETATM    3  C1  UNL     1     -40.828  16.541   7.483  1.00 20.00     0.011 C 
BRANCH   2   4
HETATM    4  C6  UNL     1     -40.207  15.052   9.440  1.00 20.00     0.075 C 
BRANCH   4   5
HETATM    5  S9  UNL     1     -41.207  14.216  10.712  1.00 20.00    -0.182 SA
HETATM    6  H27 UNL     1     -42.027  15.250  10.941  1.00 20.00     0.101 HD
ENDBRANCH   4   5
ENDBRANCH   2   4
ENDBRANCH   1   2
BRANCH   1   7
HETATM    7  C8  UNL     1     -41.089  13.145   6.220  1.00 20.00    -0.051 C 
HETATM    8  C2  UNL     1     -42.302  12.633   7.010  1.00 20.00     0.014 C 
HETATM    9  C3  UNL     1     -41.566  13.833   4.930  1.00 20.00     0.014 C 
HETATM   10  C4  UNL     1     -40.238  11.924   5.797  1.00 20.00     0.014 C 
ENDBRANCH   1   7
TORSDOF 4
ENDMDL
MODEL 8
REMARK VINA RESULT:      -3.0     11.554     12.753
REMARK  4 active torsions:
REMARK  status: ('A' for Active; 'I' for Inactive)
REMARK    1  A    between atoms: C5_5  and  C7_7 
REMARK    2  A    between atoms: C5_5  and  C8_8 
REMARK    3  A    between atoms: C6_6  and  C7_7 
REMARK    4  A    between atoms: C6_6  and  S9_9 
ROOT
HETATM    1  C5  UNL     1     -33.584  15.933  -4.002  1.00 20.00     0.013 C 
ENDROOT
BRANCH   1   2
HETATM    2  C7  UNL     1     -33.861  17.248  -3.229  1.00 20.00    -0.009 C 
HETATM    3  C1  UNL     1     -33.167  18.474  -3.822  1.00 20.00     0.011 C 
BRANCH   2   4
HETATM    4  C6  UNL     1     -33.531  17.095  -1.725  1.00 20.00     0.075 C 
BRANCH   4   5
HETATM    5  S9  UNL     1     -32.381  18.329  -1.039  1.00 20.00    -0.182 SA
HETATM    6  H27 UNL     1     -31.574  18.372  -2.106  1.00 20.00     0.101 HD
ENDBRANCH   4   5
ENDBRANCH   2   4
ENDBRANCH   1   2
BRANCH   1   7
HETATM    7  C8  UNL     1     -34.622  15.432  -5.051  1.00 20.00    -0.051 C 
HETATM    8  C2  UNL     1     -35.790  16.414  -5.227  1.00 20.00     0.014 C 
HETATM    9  C3  UNL     1     -33.972  15.152  -6.417  1.00 20.00     0.014 C 
HETATM   10  C4  UNL     1     -35.193  14.090  -4.535  1.00 20.00     0.014 C 
ENDBRANCH   1   7
TORSDOF 4
ENDMDL
MODEL 9
REMARK VINA RESULT:      -2.9      1.535      2.600
REMARK  4 active torsions:
REMARK  status: ('A' for Active; 'I' for Inactive)
REMARK    1  A    between atoms: C5_5  and  C7_7 
REMARK    2  A    between atoms: C5_5  and  C8_8 
REMARK    3  A    between atoms: C6_6  and  C7_7 
REMARK    4  A    between atoms: C6_6  and  S9_9 
ROOT
HETATM    1  C5  UNL     1     -33.097   5.881   4.535  1.00 20.00     0.013 C 
ENDROOT
BRANCH   1   2
HETATM    2  C7  UNL     1     -33.145   6.081   3.000  1.00 20.00    -0.009 C 
HETATM    3  C1  UNL     1     -32.843   4.815   2.198  1.00 20.00     0.011 C 
BRANCH   2   4
HETATM    4  C6  UNL     1     -32.231   7.250   2.556  1.00 20.00     0.075 C 
BRANCH   4   5
HETATM    5  S9  UNL     1     -32.346   8.766   3.559  1.00 20.00    -0.182 SA
HETATM    6  H27 UNL     1     -31.734   9.562   2.673  1.00 20.00     0.101 HD
ENDBRANCH   4   5
ENDBRANCH   2   4
ENDBRANCH   1   2
BRANCH   1   7
HETATM    7  C8  UNL     1     -34.393   6.096   5.374  1.00 20.00    -0.051 C 
HETATM    8  C2  UNL     1     -34.305   7.344   6.266  1.00 20.00     0.014 C 
HETATM    9  C3  UNL     1     -35.646   6.182   4.487  1.00 20.00     0.014 C 
HETATM   10  C4  UNL     1     -34.565   4.861   6.289  1.00 20.00     0.014 C 
ENDBRANCH   1   7
TORSDOF 4
ENDMDL
