MODEL 1
REMARK VINA RESULT:      -3.6      0.000      0.000
REMARK  1 active torsions:
REMARK  status: ('A' for Active; 'I' for Inactive)
REMARK    1  A    between atoms: C2_2  and  C4_4 
ROOT
HETATM    1  C3  UNL     1     -32.410   8.411   4.758  1.00 20.00     0.204 A 
HETATM    2  C4  UNL     1     -33.719   7.724   4.939  1.00 20.00     0.167 A 
HETATM    3  O5  UNL     1     -32.807   7.307   3.937  1.00 20.00    -0.377 OA
ENDROOT
BRANCH   2   4
HETATM    4  C2  UNL     1     -33.910   6.928   6.187  1.00 20.00    -0.003 C 
HETATM    5  C1  UNL     1     -34.567   5.765   6.240  1.00 20.00     0.009 C 
ENDBRANCH   2   4
TORSDOF 1
ENDMDL
MODEL 2
REMARK VINA RESULT:      -3.3      2.156      2.665
REMARK  1 active torsions:
REMARK  status: ('A' for Active; 'I' for Inactive)
REMARK    1  A    between atoms: C2_2  and  C4_4 
ROOT
HETATM    1  C3  UNL     1     -33.810   5.350   3.808  1.00 20.00     0.204 A 
HETATM    2  C4  UNL     1     -34.819   5.251   4.899  1.00 20.00     0.167 A 
HETATM    3  O5  UNL     1     -34.186   4.093   4.383  1.00 20.00    -0.377 OA
ENDROOT
BRANCH   2   4
HETATM    4  C2  UNL     1     -34.445   5.805   6.232  1.00 20.00    -0.003 C 
HETATM    5  C1  UNL     1     -34.171   7.095   6.457  1.00 20.00     0.009 C 
ENDBRANCH   2   4
TORSDOF 1
ENDMDL
MODEL 3
REMARK VINA RESULT:      -3.2      1.528      2.848
REMARK  1 active torsions:
REMARK  status: ('A' for Active; 'I' for Inactive)
REMARK    1  A    between atoms: C2_2  and  C4_4 
ROOT
HETATM    1  C3  UNL     1     -34.657   5.430   5.863  1.00 20.00     0.204 A 
HETATM    2  C4  UNL     1     -34.037   6.348   4.868  1.00 20.00     0.167 A 
HETATM    3  O5  UNL     1     -35.402   5.983   4.773  1.00 20.00    -0.377 OA
ENDROOT
BRANCH   2   4
HETATM    4  C2  UNL     1     -33.632   7.703   5.344  1.00 20.00    -0.003 C 
HETATM    5  C1  UNL     1     -32.638   8.419   4.807  1.00 20.00     0.009 C 
ENDBRANCH   2   4
TORSDOF 1
ENDMDL
MODEL 4
REMARK VINA RESULT:      -3.1      2.049      2.790
REMARK  1 active torsions:
REMARK  status: ('A' for Active; 'I' for Inactive)
REMARK    1  A    between atoms: C2_2  and  C4_4 
ROOT
HETATM    1  C3  UNL     1     -34.069   5.065   4.002  1.00 20.00     0.204 A 
HETATM    2  C4  UNL     1     -34.774   6.051   4.868  1.00 20.00     0.167 A 
HETATM    3  O5  UNL     1     -34.852   4.660   5.131  1.00 20.00    -0.377 OA
ENDROOT
BRANCH   2   4
HETATM    4  C2  UNL     1     -33.932   6.949   5.712  1.00 20.00    -0.003 C 
HETATM    5  C1  UNL     1     -33.548   8.176   5.345  1.00 20.00     0.009 C 
ENDBRANCH   2   4
TORSDOF 1
ENDMDL
MODEL 5
REMARK VINA RESULT:      -3.0      1.609      2.921
REMARK  1 active torsions:
REMARK  status: ('A' for Active; 'I' for Inactive)
REMARK    1  A    between atoms: C2_2  and  C4_4 
ROOT
HETATM    1  C3  UNL     1     -34.730   5.322   5.120  1.00 20.00     0.204 A 
HETATM    2  C4  UNL     1     -34.404   6.756   5.358  1.00 20.00     0.167 A 
HETATM    3  O5  UNL     1     -34.149   5.775   6.348  1.00 20.00    -0.377 OA
ENDROOT
BRANCH   2   4
HETATM    4  C2  UNL     1     -33.294   7.350   4.557  1.00 20.00    -0.003 C 
HETATM    5  C1  UNL     1     -32.650   8.474   4.889  1.00 20.00     0.009 C 
ENDBRANCH   2   4
TORSDOF 1
ENDMDL
MODEL 6
REMARK VINA RESULT:      -2.9      2.147      3.006
REMARK  1 active torsions:
REMARK  status: ('A' for Active; 'I' for Inactive)
REMARK    1  A    between atoms: C2_2  and  C4_4 
ROOT
HETATM    1  C3  UNL     1     -34.633   5.765   6.231  1.00 20.00     0.204 A 
HETATM    2  C4  UNL     1     -34.775   5.900   4.754  1.00 20.00     0.167 A 
HETATM    3  O5  UNL     1     -34.144   6.910   5.523  1.00 20.00    -0.377 OA
ENDROOT
BRANCH   2   4
HETATM    4  C2  UNL     1     -33.980   4.971   3.900  1.00 20.00    -0.003 C 
HETATM    5  C1  UNL     1     -33.134   5.371   2.944  1.00 20.00     0.009 C 
ENDBRANCH   2   4
TORSDOF 1
ENDMDL
MODEL 7
REMARK VINA RESULT:      -2.8      8.372      8.802
REMARK  1 active torsions:
REMARK  status: ('A' for Active; 'I' for Inactive)
REMARK    1  A    between atoms: C2_2  and  C4_4 
ROOT
HETATM    1  C3  UNL     1     -41.496  12.736   6.516  1.00 20.00     0.204 A 
HETATM    2  C4  UNL     1     -40.162  12.890   5.871  1.00 20.00     0.167 A 
HETATM    3  O5  UNL     1     -40.311  12.996   7.276  1.00 20.00    -0.377 OA
ENDROOT
BRANCH   2   4
HETATM    4  C2  UNL     1     -39.556  11.677   5.249  1.00 20.00    -0.003 C 
HETATM    5  C1  UNL     1     -38.944  11.672   4.059  1.00 20.00     0.009 C 
ENDBRANCH   2   4
TORSDOF 1
ENDMDL
MODEL 8
REMARK VINA RESULT:      -2.7     12.438     12.794
REMARK  1 active torsions:
REMARK  status: ('A' for Active; 'I' for Inactive)
REMARK    1  A    between atoms: C2_2  and  C4_4 
ROOT
HETATM    1  C3  UNL     1     -31.479  19.263   0.329  1.00 20.00     0.204 A 
HETATM    2  C4  UNL     1     -32.031  18.851  -0.991  1.00 20.00     0.167 A 
HETATM    3  O5  UNL     1     -30.701  18.530  -0.624  1.00 20.00    -0.377 OA
ENDROOT
BRANCH   2   4
HETATM    4  C2  UNL     1     -33.103  17.813  -0.994  1.00 20.00    -0.003 C 
HETATM    5  C1  UNL     1     -33.372  17.017  -2.034  1.00 20.00     0.009 C 
ENDBRANCH   2   4
TORSDOF 1
ENDMDL
MODEL 9
REMARK VINA RESULT:      -2.7      2.047      2.476
REMARK  1 active torsions:
REMARK  status: ('A' for Active; 'I' for Inactive)
REMARK    1  A    between atoms: C2_2  and  C4_4 
ROOT
HETATM    1  C3  UNL     1     -32.396   8.561   4.634  1.00 20.00     0.204 A 
HETATM    2  C4  UNL     1     -32.954   7.208   4.355  1.00 20.00     0.167 A 
HETATM    3  O5  UNL     1     -33.802   8.337   4.478  1.00 20.00    -0.377 OA
ENDROOT
BRANCH   2   4
HETATM    4  C2  UNL     1     -32.661   6.606   3.022  1.00 20.00    -0.003 C 
HETATM    5  C1  UNL     1     -32.933   5.337   2.698  1.00 20.00     0.009 C 
ENDBRANCH   2   4
TORSDOF 1
ENDMDL
