MODEL 1
REMARK VINA RESULT:      -4.5      0.000      0.000
REMARK  5 active torsions:
REMARK  status: ('A' for Active; 'I' for Inactive)
REMARK    1  A    between atoms: C1_1  and  C4_4 
REMARK    2  A    between atoms: C2_2  and  C7_7 
REMARK    3  A    between atoms: C7_7  and  C9_9 
REMARK    4  A    between atoms: C8_8  and  C9_9 
REMARK    5  A    between atoms: C9_9  and  O10_10 
ROOT
HETATM    1  C7  UNL     1     -33.496  14.770  -4.312  1.00 20.00     0.126 C 
ENDROOT
BRANCH   1   2
HETATM    2  C2  UNL     1     -33.394  15.866  -3.335  1.00 20.00    -0.099 C 
HETATM    3  C1  UNL     1     -33.312  16.760  -2.537  1.00 20.00    -0.072 C 
BRANCH   3   4
HETATM    4  C4  UNL     1     -33.208  17.823  -1.592  1.00 20.00    -0.018 C 
HETATM    5  C3  UNL     1     -33.808  17.701  -0.398  1.00 20.00     0.028 C 
HETATM    6  C5  UNL     1     -32.430  19.052  -1.963  1.00 20.00     0.057 C 
ENDBRANCH   3   4
ENDBRANCH   1   2
BRANCH   1   7
HETATM    7  C9  UNL     1     -34.106  15.212  -5.648  1.00 20.00     0.129 C 
BRANCH   7   8
HETATM    8  C8  UNL     1     -35.559  14.757  -5.833  1.00 20.00     0.028 C 
HETATM    9  C6  UNL     1     -35.989  13.764  -4.760  1.00 20.00     0.007 C 
ENDBRANCH   7   8
BRANCH   7  10
HETATM   10  O10 UNL     1     -33.315  14.719  -6.729  1.00 20.00    -0.395 OA
HETATM   11  H24 UNL     1     -33.927  14.277  -7.338  1.00 20.00     0.210 HD
ENDBRANCH   7  10
ENDBRANCH   1   7
TORSDOF 5
ENDMDL
MODEL 2
REMARK VINA RESULT:      -4.1      1.434      1.750
REMARK  5 active torsions:
REMARK  status: ('A' for Active; 'I' for Inactive)
REMARK    1  A    between atoms: C1_1  and  C4_4 
REMARK    2  A    between atoms: C2_2  and  C7_7 
REMARK    3  A    between atoms: C7_7  and  C9_9 
REMARK    4  A    between atoms: C8_8  and  C9_9 
REMARK    5  A    between atoms: C9_9  and  O10_10 
ROOT
HETATM    1  C7  UNL     1     -33.545  15.460  -3.937  1.00 20.00     0.126 C 
ENDROOT
BRANCH   1   2
HETATM    2  C2  UNL     1     -33.328  16.378  -2.806  1.00 20.00    -0.099 C 
HETATM    3  C1  UNL     1     -33.152  17.127  -1.884  1.00 20.00    -0.072 C 
BRANCH   3   4
HETATM    4  C4  UNL     1     -32.943  18.012  -0.785  1.00 20.00    -0.018 C 
HETATM    5  C3  UNL     1     -33.954  18.254   0.064  1.00 20.00     0.028 C 
HETATM    6  C5  UNL     1     -31.596  18.649  -0.611  1.00 20.00     0.057 C 
ENDBRANCH   3   4
ENDBRANCH   1   2
BRANCH   1   7
HETATM    7  C9  UNL     1     -34.471  16.042  -5.012  1.00 20.00     0.129 C 
BRANCH   7   8
HETATM    8  C8  UNL     1     -34.716  15.085  -6.186  1.00 20.00     0.028 C 
HETATM    9  C6  UNL     1     -33.942  15.499  -7.432  1.00 20.00     0.007 C 
ENDBRANCH   7   8
BRANCH   7  10
HETATM   10  O10 UNL     1     -33.932  17.267  -5.506  1.00 20.00    -0.395 OA
HETATM   11  H24 UNL     1     -33.006  17.296  -5.216  1.00 20.00     0.210 HD
ENDBRANCH   7  10
ENDBRANCH   1   7
TORSDOF 5
ENDMDL
MODEL 3
REMARK VINA RESULT:      -4.0      1.460      1.751
REMARK  5 active torsions:
REMARK  status: ('A' for Active; 'I' for Inactive)
REMARK    1  A    between atoms: C1_1  and  C4_4 
REMARK    2  A    between atoms: C2_2  and  C7_7 
REMARK    3  A    between atoms: C7_7  and  C9_9 
REMARK    4  A    between atoms: C8_8  and  C9_9 
REMARK    5  A    between atoms: C9_9  and  O10_10 
ROOT
HETATM    1  C7  UNL     1     -33.302  14.806  -4.284  1.00 20.00     0.126 C 
ENDROOT
BRANCH   1   2
HETATM    2  C2  UNL     1     -33.309  15.902  -3.302  1.00 20.00    -0.099 C 
HETATM    3  C1  UNL     1     -33.316  16.796  -2.499  1.00 20.00    -0.072 C 
BRANCH   3   4
HETATM    4  C4  UNL     1     -33.318  17.859  -1.548  1.00 20.00    -0.018 C 
HETATM    5  C3  UNL     1     -34.473  18.471  -1.251  1.00 20.00     0.028 C 
HETATM    6  C5  UNL     1     -32.022  18.262  -0.907  1.00 20.00     0.057 C 
ENDBRANCH   3   4
ENDBRANCH   1   2
BRANCH   1   7
HETATM    7  C9  UNL     1     -34.607  14.707  -5.083  1.00 20.00     0.129 C 
BRANCH   7   8
HETATM    8  C8  UNL     1     -35.312  16.057  -5.266  1.00 20.00     0.028 C 
HETATM    9  C6  UNL     1     -34.940  16.722  -6.585  1.00 20.00     0.007 C 
ENDBRANCH   7   8
BRANCH   7  10
HETATM   10  O10 UNL     1     -35.497  13.791  -4.445  1.00 20.00    -0.395 OA
HETATM   11  H24 UNL     1     -35.821  14.235  -3.646  1.00 20.00     0.210 HD
ENDBRANCH   7  10
ENDBRANCH   1   7
TORSDOF 5
ENDMDL
MODEL 4
REMARK VINA RESULT:      -4.0      3.804      6.503
REMARK  5 active torsions:
REMARK  status: ('A' for Active; 'I' for Inactive)
REMARK    1  A    between atoms: C1_1  and  C4_4 
REMARK    2  A    between atoms: C2_2  and  C7_7 
REMARK    3  A    between atoms: C7_7  and  C9_9 
REMARK    4  A    between atoms: C8_8  and  C9_9 
REMARK    5  A    between atoms: C9_9  and  O10_10 
ROOT
HETATM    1  C7  UNL     1     -33.866  18.055   0.671  1.00 20.00     0.126 C 
ENDROOT
BRANCH   1   2
HETATM    2  C2  UNL     1     -33.744  17.713  -0.755  1.00 20.00    -0.099 C 
HETATM    3  C1  UNL     1     -33.645  17.434  -1.920  1.00 20.00    -0.072 C 
BRANCH   3   4
HETATM    4  C4  UNL     1     -33.522  17.100  -3.301  1.00 20.00    -0.018 C 
HETATM    5  C3  UNL     1     -33.627  18.069  -4.222  1.00 20.00     0.028 C 
HETATM    6  C5  UNL     1     -33.278  15.670  -3.683  1.00 20.00     0.057 C 
ENDBRANCH   3   4
ENDBRANCH   1   2
BRANCH   1   7
HETATM    7  C9  UNL     1     -32.764  19.005   1.157  1.00 20.00     0.129 C 
BRANCH   7   8
HETATM    8  C8  UNL     1     -31.352  18.547   0.772  1.00 20.00     0.028 C 
HETATM    9  C6  UNL     1     -30.444  18.409   1.988  1.00 20.00     0.007 C 
ENDBRANCH   7   8
BRANCH   7  10
HETATM   10  O10 UNL     1     -32.843  19.155   2.574  1.00 20.00    -0.395 OA
HETATM   11  H24 UNL     1     -32.155  18.583   2.949  1.00 20.00     0.210 HD
ENDBRANCH   7  10
ENDBRANCH   1   7
TORSDOF 5
ENDMDL
MODEL 5
REMARK VINA RESULT:      -3.8     11.080     11.878
REMARK  5 active torsions:
REMARK  status: ('A' for Active; 'I' for Inactive)
REMARK    1  A    between atoms: C1_1  and  C4_4 
REMARK    2  A    between atoms: C2_2  and  C7_7 
REMARK    3  A    between atoms: C7_7  and  C9_9 
REMARK    4  A    between atoms: C8_8  and  C9_9 
REMARK    5  A    between atoms: C9_9  and  O10_10 
ROOT
HETATM    1  C7  UNL     1     -32.593   9.066   3.886  1.00 20.00     0.126 C 
ENDROOT
BRANCH   1   2
HETATM    2  C2  UNL     1     -33.240   7.878   4.466  1.00 20.00    -0.099 C 
HETATM    3  C1  UNL     1     -33.769   6.908   4.939  1.00 20.00    -0.072 C 
BRANCH   3   4
HETATM    4  C4  UNL     1     -34.393   5.754   5.497  1.00 20.00    -0.018 C 
HETATM    5  C3  UNL     1     -34.920   5.823   6.728  1.00 20.00     0.028 C 
HETATM    6  C5  UNL     1     -34.442   4.491   4.687  1.00 20.00     0.057 C 
ENDBRANCH   3   4
ENDBRANCH   1   2
BRANCH   1   7
HETATM    7  C9  UNL     1     -32.136   8.854   2.438  1.00 20.00     0.129 C 
BRANCH   7   8
HETATM    8  C8  UNL     1     -32.959   9.650   1.418  1.00 20.00     0.028 C 
HETATM    9  C6  UNL     1     -32.822   9.087   0.008  1.00 20.00     0.007 C 
ENDBRANCH   7   8
BRANCH   7  10
HETATM   10  O10 UNL     1     -32.190   7.466   2.110  1.00 20.00    -0.395 OA
HETATM   11  H24 UNL     1     -31.386   7.066   2.478  1.00 20.00     0.210 HD
ENDBRANCH   7  10
ENDBRANCH   1   7
TORSDOF 5
ENDMDL
MODEL 6
REMARK VINA RESULT:      -3.7     12.065     13.843
REMARK  5 active torsions:
REMARK  status: ('A' for Active; 'I' for Inactive)
REMARK    1  A    between atoms: C1_1  and  C4_4 
REMARK    2  A    between atoms: C2_2  and  C7_7 
REMARK    3  A    between atoms: C7_7  and  C9_9 
REMARK    4  A    between atoms: C8_8  and  C9_9 
REMARK    5  A    between atoms: C9_9  and  O10_10 
ROOT
HETATM    1  C7  UNL     1     -42.721  12.896   6.998  1.00 20.00     0.126 C 
ENDROOT
BRANCH   1   2
HETATM    2  C2  UNL     1     -41.432  12.581   6.361  1.00 20.00    -0.099 C 
HETATM    3  C1  UNL     1     -40.379  12.322   5.841  1.00 20.00    -0.072 C 
BRANCH   3   4
HETATM    4  C4  UNL     1     -39.131  12.021   5.221  1.00 20.00    -0.018 C 
HETATM    5  C3  UNL     1     -38.001  12.126   5.935  1.00 20.00     0.028 C 
HETATM    6  C5  UNL     1     -39.120  11.594   3.782  1.00 20.00     0.057 C 
ENDBRANCH   3   4
ENDBRANCH   1   2
BRANCH   1   7
HETATM    7  C9  UNL     1     -42.575  13.780   8.242  1.00 20.00     0.129 C 
BRANCH   7   8
HETATM    8  C8  UNL     1     -41.478  14.844   8.108  1.00 20.00     0.028 C 
HETATM    9  C6  UNL     1     -40.377  14.664   9.146  1.00 20.00     0.007 C 
ENDBRANCH   7   8
BRANCH   7  10
HETATM   10  O10 UNL     1     -42.308  12.968   9.386  1.00 20.00    -0.395 OA
HETATM   11  H24 UNL     1     -43.122  12.471   9.564  1.00 20.00     0.210 HD
ENDBRANCH   7  10
ENDBRANCH   1   7
TORSDOF 5
ENDMDL
MODEL 7
REMARK VINA RESULT:      -3.6      1.765      2.667
REMARK  5 active torsions:
REMARK  status: ('A' for Active; 'I' for Inactive)
REMARK    1  A    between atoms: C1_1  and  C4_4 
REMARK    2  A    between atoms: C2_2  and  C7_7 
REMARK    3  A    between atoms: C7_7  and  C9_9 
REMARK    4  A    between atoms: C8_8  and  C9_9 
REMARK    5  A    between atoms: C9_9  and  O10_10 
ROOT
HETATM    1  C7  UNL     1     -33.227  18.364  -3.851  1.00 20.00     0.126 C 
ENDROOT
BRANCH   1   2
HETATM    2  C2  UNL     1     -32.916  18.451  -2.415  1.00 20.00    -0.099 C 
HETATM    3  C1  UNL     1     -32.662  18.522  -1.243  1.00 20.00    -0.072 C 
BRANCH   3   4
HETATM    4  C4  UNL     1     -32.356  18.604   0.148  1.00 20.00    -0.018 C 
HETATM    5  C3  UNL     1     -33.350  18.792   1.029  1.00 20.00     0.028 C 
HETATM    6  C5  UNL     1     -30.926  18.477   0.585  1.00 20.00     0.057 C 
ENDBRANCH   3   4
ENDBRANCH   1   2
BRANCH   1   7
HETATM    7  C9  UNL     1     -33.964  17.073  -4.228  1.00 20.00     0.129 C 
BRANCH   7   8
HETATM    8  C8  UNL     1     -33.350  15.816  -3.600  1.00 20.00     0.028 C 
HETATM    9  C6  UNL     1     -33.954  14.538  -4.170  1.00 20.00     0.007 C 
ENDBRANCH   7   8
BRANCH   7  10
HETATM   10  O10 UNL     1     -33.993  16.927  -5.647  1.00 20.00    -0.395 OA
HETATM   11  H24 UNL     1     -33.085  16.723  -5.920  1.00 20.00     0.210 HD
ENDBRANCH   7  10
ENDBRANCH   1   7
TORSDOF 5
ENDMDL
MODEL 8
REMARK VINA RESULT:      -3.6     11.191     12.025
REMARK  5 active torsions:
REMARK  status: ('A' for Active; 'I' for Inactive)
REMARK    1  A    between atoms: C1_1  and  C4_4 
REMARK    2  A    between atoms: C2_2  and  C7_7 
REMARK    3  A    between atoms: C7_7  and  C9_9 
REMARK    4  A    between atoms: C8_8  and  C9_9 
REMARK    5  A    between atoms: C9_9  and  O10_10 
ROOT
HETATM    1  C7  UNL     1     -33.149   8.153   5.476  1.00 20.00     0.126 C 
ENDROOT
BRANCH   1   2
HETATM    2  C2  UNL     1     -32.907   8.342   4.037  1.00 20.00    -0.099 C 
HETATM    3  C1  UNL     1     -32.710   8.497   2.861  1.00 20.00    -0.072 C 
BRANCH   3   4
HETATM    4  C4  UNL     1     -32.470   8.681   1.468  1.00 20.00    -0.018 C 
HETATM    5  C3  UNL     1     -31.835   7.721   0.779  1.00 20.00     0.028 C 
HETATM    6  C5  UNL     1     -32.936   9.948   0.812  1.00 20.00     0.057 C 
ENDBRANCH   3   4
ENDBRANCH   1   2
BRANCH   1   7
HETATM    7  C9  UNL     1     -33.762   6.787   5.807  1.00 20.00     0.129 C 
BRANCH   7   8
HETATM    8  C8  UNL     1     -34.600   6.203   4.664  1.00 20.00     0.028 C 
HETATM    9  C6  UNL     1     -34.393   4.701   4.512  1.00 20.00     0.007 C 
ENDBRANCH   7   8
BRANCH   7  10
HETATM   10  O10 UNL     1     -34.568   6.889   6.981  1.00 20.00    -0.395 OA
HETATM   11  H24 UNL     1     -34.036   7.364   7.638  1.00 20.00     0.210 HD
ENDBRANCH   7  10
ENDBRANCH   1   7
TORSDOF 5
ENDMDL
MODEL 9
REMARK VINA RESULT:      -3.6     11.238     12.761
REMARK  5 active torsions:
REMARK  status: ('A' for Active; 'I' for Inactive)
REMARK    1  A    between atoms: C1_1  and  C4_4 
REMARK    2  A    between atoms: C2_2  and  C7_7 
REMARK    3  A    between atoms: C7_7  and  C9_9 
REMARK    4  A    between atoms: C8_8  and  C9_9 
REMARK    5  A    between atoms: C9_9  and  O10_10 
ROOT
HETATM    1  C7  UNL     1     -40.997  13.184   6.480  1.00 20.00     0.126 C 
ENDROOT
BRANCH   1   2
HETATM    2  C2  UNL     1     -40.973  14.536   7.063  1.00 20.00    -0.099 C 
HETATM    3  C1  UNL     1     -40.955  15.639   7.538  1.00 20.00    -0.072 C 
BRANCH   3   4
HETATM    4  C4  UNL     1     -40.929  16.947   8.106  1.00 20.00    -0.018 C 
HETATM    5  C3  UNL     1     -40.591  17.991   7.335  1.00 20.00     0.028 C 
HETATM    6  C5  UNL     1     -41.281  17.116   9.555  1.00 20.00     0.057 C 
ENDBRANCH   3   4
ENDBRANCH   1   2
BRANCH   1   7
HETATM    7  C9  UNL     1     -39.598  12.648   6.153  1.00 20.00     0.129 C 
BRANCH   7   8
HETATM    8  C8  UNL     1     -39.617  11.418   5.237  1.00 20.00     0.028 C 
HETATM    9  C6  UNL     1     -38.969  11.699   3.887  1.00 20.00     0.007 C 
ENDBRANCH   7   8
BRANCH   7  10
HETATM   10  O10 UNL     1     -38.906  12.329   7.359  1.00 20.00    -0.395 OA
HETATM   11  H24 UNL     1     -38.103  12.874   7.368  1.00 20.00     0.210 HD
ENDBRANCH   7  10
ENDBRANCH   1   7
TORSDOF 5
ENDMDL
