MODEL 1
REMARK VINA RESULT:      -4.5      0.000      0.000
REMARK  4 active torsions:
REMARK  status: ('A' for Active; 'I' for Inactive)
REMARK    1  A    between atoms: C1_1  and  C7_7 
REMARK    2  A    between atoms: C2_2  and  C9_9 
REMARK    3  A    between atoms: C9_9  and  C11_11 
REMARK    4  A    between atoms: C10_10  and  C11_11 
ROOT
HETATM    1  C3  UNL     1     -33.611  18.860   0.943  1.00 20.00     0.006 C 
HETATM    2  C4  UNL     1     -32.116  18.936   1.227  1.00 20.00     0.026 C 
HETATM    3  C5  UNL     1     -33.903  17.807  -0.121  1.00 20.00     0.045 C 
HETATM    4  C6  UNL     1     -31.328  19.086  -0.067  1.00 20.00     0.169 C 
HETATM    5  C7  UNL     1     -33.019  18.021  -1.352  1.00 20.00     0.200 C 
HETATM    6  O12 UNL     1     -31.639  18.027  -0.973  1.00 20.00    -0.374 OA
ENDROOT
BRANCH   5   7
HETATM    7  C1  UNL     1     -33.233  16.950  -2.334  1.00 20.00    -0.074 C 
HETATM    8  C2  UNL     1     -33.408  16.074  -3.136  1.00 20.00    -0.104 C 
BRANCH   8   9
HETATM    9  C9  UNL     1     -33.623  15.003  -4.118  1.00 20.00     0.094 C 
BRANCH   9  10
HETATM   10  C11 UNL     1     -34.270  15.546  -5.393  1.00 20.00     0.012 C 
BRANCH  10  11
HETATM   11  C10 UNL     1     -35.561  14.798  -5.723  1.00 20.00    -0.004 C 
HETATM   12  C8  UNL     1     -35.859  13.719  -4.694  1.00 20.00     0.005 C 
ENDBRANCH  10  11
ENDBRANCH   9  10
ENDBRANCH   8   9
ENDBRANCH   5   7
TORSDOF 4
ENDMDL
MODEL 2
REMARK VINA RESULT:      -4.5     10.778     11.792
REMARK  4 active torsions:
REMARK  status: ('A' for Active; 'I' for Inactive)
REMARK    1  A    between atoms: C1_1  and  C7_7 
REMARK    2  A    between atoms: C2_2  and  C9_9 
REMARK    3  A    between atoms: C9_9  and  C11_11 
REMARK    4  A    between atoms: C10_10  and  C11_11 
ROOT
HETATM    1  C3  UNL     1     -31.759   7.971   0.688  1.00 20.00     0.006 C 
HETATM    2  C4  UNL     1     -32.657   9.103   0.203  1.00 20.00     0.026 C 
HETATM    3  C5  UNL     1     -32.250   7.432   2.029  1.00 20.00     0.045 C 
HETATM    4  C6  UNL     1     -32.842  10.149   1.294  1.00 20.00     0.169 C 
HETATM    5  C7  UNL     1     -32.453   8.573   3.029  1.00 20.00     0.200 C 
HETATM    6  O12 UNL     1     -33.347   9.550   2.488  1.00 20.00    -0.374 OA
ENDROOT
BRANCH   5   7
HETATM    7  C1  UNL     1     -33.017   8.063   4.285  1.00 20.00    -0.074 C 
HETATM    8  C2  UNL     1     -33.477   7.646   5.313  1.00 20.00    -0.104 C 
BRANCH   8   9
HETATM    9  C9  UNL     1     -34.042   7.135   6.569  1.00 20.00     0.094 C 
BRANCH   9  10
HETATM   10  C11 UNL     1     -34.454   5.669   6.432  1.00 20.00     0.012 C 
BRANCH  10  11
HETATM   11  C10 UNL     1     -34.979   5.367   5.029  1.00 20.00    -0.004 C 
HETATM   12  C8  UNL     1     -34.054   4.425   4.278  1.00 20.00     0.005 C 
ENDBRANCH  10  11
ENDBRANCH   9  10
ENDBRANCH   8   9
ENDBRANCH   5   7
TORSDOF 4
ENDMDL
MODEL 3
REMARK VINA RESULT:      -4.4      1.631      6.431
REMARK  4 active torsions:
REMARK  status: ('A' for Active; 'I' for Inactive)
REMARK    1  A    between atoms: C1_1  and  C7_7 
REMARK    2  A    between atoms: C2_2  and  C9_9 
REMARK    3  A    between atoms: C9_9  and  C11_11 
REMARK    4  A    between atoms: C10_10  and  C11_11 
ROOT
HETATM    1  C3  UNL     1     -35.102  16.469  -5.206  1.00 20.00     0.006 C 
HETATM    2  C4  UNL     1     -34.169  15.371  -5.702  1.00 20.00     0.026 C 
HETATM    3  C5  UNL     1     -34.397  17.350  -4.179  1.00 20.00     0.045 C 
HETATM    4  C6  UNL     1     -33.543  14.627  -4.531  1.00 20.00     0.169 C 
HETATM    5  C7  UNL     1     -33.759  16.496  -3.081  1.00 20.00     0.200 C 
HETATM    6  O12 UNL     1     -32.870  15.535  -3.658  1.00 20.00    -0.374 OA
ENDROOT
BRANCH   5   7
HETATM    7  C1  UNL     1     -33.000  17.339  -2.147  1.00 20.00    -0.074 C 
HETATM    8  C2  UNL     1     -32.380  18.029  -1.385  1.00 20.00    -0.104 C 
BRANCH   8   9
HETATM    9  C9  UNL     1     -31.620  18.870  -0.451  1.00 20.00     0.094 C 
BRANCH   9  10
HETATM   10  C11 UNL     1     -32.003  18.572   0.998  1.00 20.00     0.012 C 
BRANCH  10  11
HETATM   11  C10 UNL     1     -30.768  18.297   1.855  1.00 20.00    -0.004 C 
HETATM   12  C8  UNL     1     -30.884  18.944   3.225  1.00 20.00     0.005 C 
ENDBRANCH  10  11
ENDBRANCH   9  10
ENDBRANCH   8   9
ENDBRANCH   5   7
TORSDOF 4
ENDMDL
MODEL 4
REMARK VINA RESULT:      -3.9      1.180      2.059
REMARK  4 active torsions:
REMARK  status: ('A' for Active; 'I' for Inactive)
REMARK    1  A    between atoms: C1_1  and  C7_7 
REMARK    2  A    between atoms: C2_2  and  C9_9 
REMARK    3  A    between atoms: C9_9  and  C11_11 
REMARK    4  A    between atoms: C10_10  and  C11_11 
ROOT
HETATM    1  C3  UNL     1     -32.116  19.081   2.561  1.00 20.00     0.006 C 
HETATM    2  C4  UNL     1     -30.613  18.828   2.548  1.00 20.00     0.026 C 
HETATM    3  C5  UNL     1     -32.774  18.478   1.324  1.00 20.00     0.045 C 
HETATM    4  C6  UNL     1     -30.007  19.255   1.218  1.00 20.00     0.169 C 
HETATM    5  C7  UNL     1     -32.052  18.929   0.052  1.00 20.00     0.200 C 
HETATM    6  O12 UNL     1     -30.662  18.599   0.131  1.00 20.00    -0.374 OA
ENDROOT
BRANCH   5   7
HETATM    7  C1  UNL     1     -32.626  18.271  -1.129  1.00 20.00    -0.074 C 
HETATM    8  C2  UNL     1     -33.095  17.732  -2.093  1.00 20.00    -0.104 C 
BRANCH   8   9
HETATM    9  C9  UNL     1     -33.670  17.075  -3.275  1.00 20.00     0.094 C 
BRANCH   9  10
HETATM   10  C11 UNL     1     -33.037  15.702  -3.505  1.00 20.00     0.012 C 
BRANCH  10  11
HETATM   11  C10 UNL     1     -33.991  14.767  -4.246  1.00 20.00    -0.004 C 
HETATM   12  C8  UNL     1     -34.039  15.082  -5.732  1.00 20.00     0.005 C 
ENDBRANCH  10  11
ENDBRANCH   9  10
ENDBRANCH   8   9
ENDBRANCH   5   7
TORSDOF 4
ENDMDL
MODEL 5
REMARK VINA RESULT:      -3.9     12.381     15.157
REMARK  4 active torsions:
REMARK  status: ('A' for Active; 'I' for Inactive)
REMARK    1  A    between atoms: C1_1  and  C7_7 
REMARK    2  A    between atoms: C2_2  and  C9_9 
REMARK    3  A    between atoms: C9_9  and  C11_11 
REMARK    4  A    between atoms: C10_10  and  C11_11 
ROOT
HETATM    1  C3  UNL     1     -40.571   7.092   0.594  1.00 20.00     0.006 C 
HETATM    2  C4  UNL     1     -41.213   8.352   0.024  1.00 20.00     0.026 C 
HETATM    3  C5  UNL     1     -40.878   5.886  -0.289  1.00 20.00     0.045 C 
HETATM    4  C6  UNL     1     -42.690   8.120  -0.266  1.00 20.00     0.169 C 
HETATM    5  C7  UNL     1     -42.381   5.783  -0.560  1.00 20.00     0.200 C 
HETATM    6  O12 UNL     1     -42.863   7.001  -1.136  1.00 20.00    -0.374 OA
ENDROOT
BRANCH   5   7
HETATM    7  C1  UNL     1     -42.663   4.680  -1.488  1.00 20.00    -0.074 C 
HETATM    8  C2  UNL     1     -42.893   3.778  -2.246  1.00 20.00    -0.104 C 
BRANCH   8   9
HETATM    9  C9  UNL     1     -43.176   2.675  -3.175  1.00 20.00     0.094 C 
BRANCH   9  10
HETATM   10  C11 UNL     1     -41.899   2.191  -3.862  1.00 20.00     0.012 C 
BRANCH  10  11
HETATM   11  C10 UNL     1     -41.856   0.666  -3.944  1.00 20.00    -0.004 C 
HETATM   12  C8  UNL     1     -42.940   0.030  -3.090  1.00 20.00     0.005 C 
ENDBRANCH  10  11
ENDBRANCH   9  10
ENDBRANCH   8   9
ENDBRANCH   5   7
TORSDOF 4
ENDMDL
MODEL 6
REMARK VINA RESULT:      -3.8      3.912      6.169
REMARK  4 active torsions:
REMARK  status: ('A' for Active; 'I' for Inactive)
REMARK    1  A    between atoms: C1_1  and  C7_7 
REMARK    2  A    between atoms: C2_2  and  C9_9 
REMARK    3  A    between atoms: C9_9  and  C11_11 
REMARK    4  A    between atoms: C10_10  and  C11_11 
ROOT
HETATM    1  C3  UNL     1     -28.656  19.263   5.944  1.00 20.00     0.006 C 
HETATM    2  C4  UNL     1     -27.443  18.397   5.626  1.00 20.00     0.026 C 
HETATM    3  C5  UNL     1     -29.748  19.064   4.897  1.00 20.00     0.045 C 
HETATM    4  C6  UNL     1     -27.002  18.597   4.183  1.00 20.00     0.169 C 
HETATM    5  C7  UNL     1     -29.182  19.235   3.486  1.00 20.00     0.200 C 
HETATM    6  O12 UNL     1     -28.082  18.341   3.285  1.00 20.00    -0.374 OA
ENDROOT
BRANCH   5   7
HETATM    7  C1  UNL     1     -30.212  18.948   2.479  1.00 20.00    -0.074 C 
HETATM    8  C2  UNL     1     -31.054  18.713   1.656  1.00 20.00    -0.104 C 
BRANCH   8   9
HETATM    9  C9  UNL     1     -32.083  18.427   0.648  1.00 20.00     0.094 C 
BRANCH   9  10
HETATM   10  C11 UNL     1     -31.590  18.771  -0.758  1.00 20.00     0.012 C 
BRANCH  10  11
HETATM   11  C10 UNL     1     -32.631  18.410  -1.817  1.00 20.00    -0.004 C 
HETATM   12  C8  UNL     1     -33.555  17.303  -1.336  1.00 20.00     0.005 C 
ENDBRANCH  10  11
ENDBRANCH   9  10
ENDBRANCH   8   9
ENDBRANCH   5   7
TORSDOF 4
ENDMDL
MODEL 7
REMARK VINA RESULT:      -3.8     11.819     13.231
REMARK  4 active torsions:
REMARK  status: ('A' for Active; 'I' for Inactive)
REMARK    1  A    between atoms: C1_1  and  C7_7 
REMARK    2  A    between atoms: C2_2  and  C9_9 
REMARK    3  A    between atoms: C9_9  and  C11_11 
REMARK    4  A    between atoms: C10_10  and  C11_11 
ROOT
HETATM    1  C3  UNL     1     -41.246  16.961  11.270  1.00 20.00     0.006 C 
HETATM    2  C4  UNL     1     -41.282  15.867  12.331  1.00 20.00     0.026 C 
HETATM    3  C5  UNL     1     -41.358  16.358   9.873  1.00 20.00     0.045 C 
HETATM    4  C6  UNL     1     -40.269  14.775  12.013  1.00 20.00     0.169 C 
HETATM    5  C7  UNL     1     -40.332  15.238   9.684  1.00 20.00     0.200 C 
HETATM    6  O12 UNL     1     -40.490  14.248  10.705  1.00 20.00    -0.374 OA
ENDROOT
BRANCH   5   7
HETATM    7  C1  UNL     1     -40.506  14.595   8.374  1.00 20.00    -0.074 C 
HETATM    8  C2  UNL     1     -40.647  14.070   7.304  1.00 20.00    -0.104 C 
BRANCH   8   9
HETATM    9  C9  UNL     1     -40.822  13.429   5.994  1.00 20.00     0.094 C 
BRANCH   9  10
HETATM   10  C11 UNL     1     -40.248  12.012   5.993  1.00 20.00     0.012 C 
BRANCH  10  11
HETATM   11  C10 UNL     1     -38.859  11.975   5.357  1.00 20.00    -0.004 C 
HETATM   12  C8  UNL     1     -38.934  11.674   3.869  1.00 20.00     0.005 C 
ENDBRANCH  10  11
ENDBRANCH   9  10
ENDBRANCH   8   9
ENDBRANCH   5   7
TORSDOF 4
ENDMDL
MODEL 8
REMARK VINA RESULT:      -3.7      1.144      1.789
REMARK  4 active torsions:
REMARK  status: ('A' for Active; 'I' for Inactive)
REMARK    1  A    between atoms: C1_1  and  C7_7 
REMARK    2  A    between atoms: C2_2  and  C9_9 
REMARK    3  A    between atoms: C9_9  and  C11_11 
REMARK    4  A    between atoms: C10_10  and  C11_11 
ROOT
HETATM    1  C3  UNL     1     -31.472  18.580   0.154  1.00 20.00     0.006 C 
HETATM    2  C4  UNL     1     -32.635  19.263   0.865  1.00 20.00     0.026 C 
HETATM    3  C5  UNL     1     -31.863  18.199  -1.271  1.00 20.00     0.045 C 
HETATM    4  C6  UNL     1     -33.905  18.432   0.740  1.00 20.00     0.169 C 
HETATM    5  C7  UNL     1     -33.178  17.417  -1.280  1.00 20.00     0.200 C 
HETATM    6  O12 UNL     1     -34.205  18.172  -0.631  1.00 20.00    -0.374 OA
ENDROOT
BRANCH   5   7
HETATM    7  C1  UNL     1     -33.601  17.135  -2.659  1.00 20.00    -0.074 C 
HETATM    8  C2  UNL     1     -33.946  16.905  -3.785  1.00 20.00    -0.104 C 
BRANCH   8   9
HETATM    9  C9  UNL     1     -34.368  16.623  -5.164  1.00 20.00     0.094 C 
BRANCH   9  10
HETATM   10  C11 UNL     1     -34.362  15.121  -5.446  1.00 20.00     0.012 C 
BRANCH  10  11
HETATM   11  C10 UNL     1     -35.759  14.616  -5.804  1.00 20.00    -0.004 C 
HETATM   12  C8  UNL     1     -36.794  15.725  -5.705  1.00 20.00     0.005 C 
ENDBRANCH  10  11
ENDBRANCH   9  10
ENDBRANCH   8   9
ENDBRANCH   5   7
TORSDOF 4
ENDMDL
MODEL 9
REMARK VINA RESULT:      -3.7     10.120     11.479
REMARK  4 active torsions:
REMARK  status: ('A' for Active; 'I' for Inactive)
REMARK    1  A    between atoms: C1_1  and  C7_7 
REMARK    2  A    between atoms: C2_2  and  C9_9 
REMARK    3  A    between atoms: C9_9  and  C11_11 
REMARK    4  A    between atoms: C10_10  and  C11_11 
ROOT
HETATM    1  C3  UNL     1     -43.123  17.534   2.456  1.00 20.00     0.006 C 
HETATM    2  C4  UNL     1     -42.533  16.994   1.159  1.00 20.00     0.026 C 
HETATM    3  C5  UNL     1     -42.634  16.719   3.649  1.00 20.00     0.045 C 
HETATM    4  C6  UNL     1     -42.753  15.492   1.051  1.00 20.00     0.169 C 
HETATM    5  C7  UNL     1     -42.855  15.223   3.409  1.00 20.00     0.200 C 
HETATM    6  O12 UNL     1     -42.218  14.820   2.193  1.00 20.00    -0.374 OA
ENDROOT
BRANCH   5   7
HETATM    7  C1  UNL     1     -42.296  14.435   4.516  1.00 20.00    -0.074 C 
HETATM    8  C2  UNL     1     -41.838  13.791   5.420  1.00 20.00    -0.104 C 
BRANCH   8   9
HETATM    9  C9  UNL     1     -41.281  13.003   6.527  1.00 20.00     0.094 C 
BRANCH   9  10
HETATM   10  C11 UNL     1     -39.815  12.651   6.271  1.00 20.00     0.012 C 
BRANCH  10  11
HETATM   11  C10 UNL     1     -39.688  11.412   5.385  1.00 20.00    -0.004 C 
HETATM   12  C8  UNL     1     -38.969  11.728   4.084  1.00 20.00     0.005 C 
ENDBRANCH  10  11
ENDBRANCH   9  10
ENDBRANCH   8   9
ENDBRANCH   5   7
TORSDOF 4
ENDMDL
