MODEL 1
REMARK VINA RESULT:      -4.3      0.000      0.000
REMARK  2 active torsions:
REMARK  status: ('A' for Active; 'I' for Inactive)
REMARK    1  A    between atoms: C6_6  and  C8_8 
REMARK    2  A    between atoms: C7_7  and  C8_8 
ROOT
HETATM    1  C1  UNL     1     -34.052  15.091  -6.626  1.00 20.00     0.075 C 
HETATM    2  C8  UNL     1     -34.299  14.802  -5.194  1.00 20.00     0.186 C 
HETATM    3  N9  UNL     1     -33.852  15.333  -7.743  1.00 20.00    -0.196 NA
ENDROOT
BRANCH   2   4
HETATM    4  C6  UNL     1     -34.194  16.018  -4.339  1.00 20.00    -0.031 A 
HETATM    5  C2  UNL     1     -33.383  16.011  -3.209  1.00 20.00     0.028 A 
HETATM    6  C4  UNL     1     -33.318  17.167  -2.449  1.00 20.00     0.116 A 
HETATM    7  N10 UNL     1     -33.995  18.301  -2.737  1.00 20.00    -0.273 NA
HETATM    8  C5  UNL     1     -34.774  18.271  -3.842  1.00 20.00     0.116 A 
HETATM    9  C3  UNL     1     -34.906  17.166  -4.668  1.00 20.00     0.028 A 
ENDBRANCH   2   4
BRANCH   2  10
HETATM   10  C7  UNL     1     -35.637  14.092  -5.004  1.00 20.00     0.255 C 
HETATM   11  O11 UNL     1     -35.811  13.070  -4.346  1.00 20.00    -0.305 OA
ENDBRANCH   2  10
TORSDOF 2
ENDMDL
MODEL 2
REMARK VINA RESULT:      -4.3      3.275      5.517
REMARK  2 active torsions:
REMARK  status: ('A' for Active; 'I' for Inactive)
REMARK    1  A    between atoms: C6_6  and  C8_8 
REMARK    2  A    between atoms: C7_7  and  C8_8 
ROOT
HETATM    1  C1  UNL     1     -33.957  18.480   0.321  1.00 20.00     0.075 C 
HETATM    2  C8  UNL     1     -32.993  17.940  -0.665  1.00 20.00     0.186 C 
HETATM    3  N9  UNL     1     -34.726  18.898   1.084  1.00 20.00    -0.196 NA
ENDROOT
BRANCH   2   4
HETATM    4  C6  UNL     1     -33.627  17.646  -1.982  1.00 20.00    -0.031 A 
HETATM    5  C2  UNL     1     -33.237  16.528  -2.712  1.00 20.00     0.028 A 
HETATM    6  C4  UNL     1     -33.858  16.298  -3.928  1.00 20.00     0.116 A 
HETATM    7  N10 UNL     1     -34.818  17.093  -4.450  1.00 20.00    -0.273 NA
HETATM    8  C5  UNL     1     -35.172  18.171  -3.713  1.00 20.00     0.116 A 
HETATM    9  C3  UNL     1     -34.612  18.488  -2.486  1.00 20.00     0.028 A 
ENDBRANCH   2   4
BRANCH   2  10
HETATM   10  C7  UNL     1     -31.788  18.864  -0.813  1.00 20.00     0.255 C 
HETATM   11  O11 UNL     1     -30.641  18.597  -0.468  1.00 20.00    -0.305 OA
ENDBRANCH   2  10
TORSDOF 2
ENDMDL
MODEL 3
REMARK VINA RESULT:      -4.2     12.333     13.211
REMARK  2 active torsions:
REMARK  status: ('A' for Active; 'I' for Inactive)
REMARK    1  A    between atoms: C6_6  and  C8_8 
REMARK    2  A    between atoms: C7_7  and  C8_8 
ROOT
HETATM    1  C1  UNL     1     -32.473   8.027   2.645  1.00 20.00     0.075 C 
HETATM    2  C8  UNL     1     -32.983   8.251   4.019  1.00 20.00     0.186 C 
HETATM    3  N9  UNL     1     -32.084   7.837   1.569  1.00 20.00    -0.196 NA
ENDROOT
BRANCH   2   4
HETATM    4  C6  UNL     1     -33.590   7.024   4.609  1.00 20.00    -0.031 A 
HETATM    5  C2  UNL     1     -33.983   7.011   5.943  1.00 20.00     0.028 A 
HETATM    6  C4  UNL     1     -34.543   5.848   6.444  1.00 20.00     0.116 A 
HETATM    7  N10 UNL     1     -34.730   4.724   5.716  1.00 20.00    -0.273 NA
HETATM    8  C5  UNL     1     -34.336   4.773   4.423  1.00 20.00     0.116 A 
HETATM    9  C3  UNL     1     -33.766   5.888   3.828  1.00 20.00     0.028 A 
ENDBRANCH   2   4
BRANCH   2  10
HETATM   10  C7  UNL     1     -31.894   8.831   4.916  1.00 20.00     0.255 C 
HETATM   11  O11 UNL     1     -31.982   9.874   5.557  1.00 20.00    -0.305 OA
ENDBRANCH   2  10
TORSDOF 2
ENDMDL
MODEL 4
REMARK VINA RESULT:      -4.1      3.205      5.410
REMARK  2 active torsions:
REMARK  status: ('A' for Active; 'I' for Inactive)
REMARK    1  A    between atoms: C6_6  and  C8_8 
REMARK    2  A    between atoms: C7_7  and  C8_8 
ROOT
HETATM    1  C1  UNL     1     -31.792  18.651  -0.561  1.00 20.00     0.075 C 
HETATM    2  C8  UNL     1     -33.260  18.685  -0.762  1.00 20.00     0.186 C 
HETATM    3  N9  UNL     1     -30.641  18.619  -0.421  1.00 20.00    -0.196 NA
ENDROOT
BRANCH   2   4
HETATM    4  C6  UNL     1     -33.681  17.998  -2.015  1.00 20.00    -0.031 A 
HETATM    5  C2  UNL     1     -34.612  18.593  -2.861  1.00 20.00     0.028 A 
HETATM    6  C4  UNL     1     -34.969  17.914  -4.013  1.00 20.00     0.116 A 
HETATM    7  N10 UNL     1     -34.471  16.709  -4.367  1.00 20.00    -0.273 NA
HETATM    8  C5  UNL     1     -33.569  16.160  -3.522  1.00 20.00     0.116 A 
HETATM    9  C3  UNL     1     -33.146  16.758  -2.345  1.00 20.00     0.028 A 
ENDBRANCH   2   4
BRANCH   2  10
HETATM   10  C7  UNL     1     -33.991  18.133   0.459  1.00 20.00     0.255 C 
HETATM   11  O11 UNL     1     -34.740  18.774   1.189  1.00 20.00    -0.305 OA
ENDBRANCH   2  10
TORSDOF 2
ENDMDL
MODEL 5
REMARK VINA RESULT:      -4.0      1.925      2.196
REMARK  2 active torsions:
REMARK  status: ('A' for Active; 'I' for Inactive)
REMARK    1  A    between atoms: C6_6  and  C8_8 
REMARK    2  A    between atoms: C7_7  and  C8_8 
ROOT
HETATM    1  C1  UNL     1     -35.451  14.130  -4.892  1.00 20.00     0.075 C 
HETATM    2  C8  UNL     1     -34.949  15.398  -5.473  1.00 20.00     0.186 C 
HETATM    3  N9  UNL     1     -35.844  13.145  -4.421  1.00 20.00    -0.196 NA
ENDROOT
BRANCH   2   4
HETATM    4  C6  UNL     1     -34.453  16.345  -4.434  1.00 20.00    -0.031 A 
HETATM    5  C2  UNL     1     -33.594  15.900  -3.435  1.00 20.00     0.028 A 
HETATM    6  C4  UNL     1     -33.161  16.819  -2.494  1.00 20.00     0.116 A 
HETATM    7  N10 UNL     1     -33.523  18.122  -2.487  1.00 20.00    -0.273 NA
HETATM    8  C5  UNL     1     -34.359  18.519  -3.473  1.00 20.00     0.116 A 
HETATM    9  C3  UNL     1     -34.848  17.678  -4.460  1.00 20.00     0.028 A 
ENDBRANCH   2   4
BRANCH   2  10
HETATM   10  C7  UNL     1     -33.894  15.128  -6.542  1.00 20.00     0.255 C 
HETATM   11  O11 UNL     1     -34.101  15.092  -7.751  1.00 20.00    -0.305 OA
ENDBRANCH   2  10
TORSDOF 2
ENDMDL
MODEL 6
REMARK VINA RESULT:      -4.0      1.927      2.593
REMARK  2 active torsions:
REMARK  status: ('A' for Active; 'I' for Inactive)
REMARK    1  A    between atoms: C6_6  and  C8_8 
REMARK    2  A    between atoms: C7_7  and  C8_8 
ROOT
HETATM    1  C1  UNL     1     -35.440  14.138  -4.894  1.00 20.00     0.075 C 
HETATM    2  C8  UNL     1     -34.942  15.404  -5.482  1.00 20.00     0.186 C 
HETATM    3  N9  UNL     1     -35.830  13.154  -4.419  1.00 20.00    -0.196 NA
ENDROOT
BRANCH   2   4
HETATM    4  C6  UNL     1     -34.434  16.351  -4.449  1.00 20.00    -0.031 A 
HETATM    5  C2  UNL     1     -34.791  17.695  -4.496  1.00 20.00     0.028 A 
HETATM    6  C4  UNL     1     -34.293  18.533  -3.513  1.00 20.00     0.116 A 
HETATM    7  N10 UNL     1     -33.480  18.127  -2.512  1.00 20.00    -0.273 NA
HETATM    8  C5  UNL     1     -33.154  16.815  -2.499  1.00 20.00     0.116 A 
HETATM    9  C3  UNL     1     -33.599  15.895  -3.435  1.00 20.00     0.028 A 
ENDBRANCH   2   4
BRANCH   2  10
HETATM   10  C7  UNL     1     -33.899  15.131  -6.561  1.00 20.00     0.255 C 
HETATM   11  O11 UNL     1     -34.119  15.093  -7.768  1.00 20.00    -0.305 OA
ENDBRANCH   2  10
TORSDOF 2
ENDMDL
MODEL 7
REMARK VINA RESULT:      -3.9      1.713      1.948
REMARK  2 active torsions:
REMARK  status: ('A' for Active; 'I' for Inactive)
REMARK    1  A    between atoms: C6_6  and  C8_8 
REMARK    2  A    between atoms: C7_7  and  C8_8 
ROOT
HETATM    1  C1  UNL     1     -35.355  16.261  -5.194  1.00 20.00     0.075 C 
HETATM    2  C8  UNL     1     -33.985  16.009  -4.688  1.00 20.00     0.186 C 
HETATM    3  N9  UNL     1     -36.427  16.475  -5.584  1.00 20.00    -0.196 NA
ENDROOT
BRANCH   2   4
HETATM    4  C6  UNL     1     -33.551  17.024  -3.686  1.00 20.00    -0.031 A 
HETATM    5  C2  UNL     1     -33.393  16.665  -2.351  1.00 20.00     0.028 A 
HETATM    6  C4  UNL     1     -32.988  17.645  -1.460  1.00 20.00     0.116 A 
HETATM    7  N10 UNL     1     -32.737  18.927  -1.807  1.00 20.00    -0.273 NA
HETATM    8  C5  UNL     1     -32.901  19.239  -3.112  1.00 20.00     0.116 A 
HETATM    9  C3  UNL     1     -33.303  18.333  -4.081  1.00 20.00     0.028 A 
ENDBRANCH   2   4
BRANCH   2  10
HETATM   10  C7  UNL     1     -33.857  14.588  -4.146  1.00 20.00     0.255 C 
HETATM   11  O11 UNL     1     -34.756  13.753  -4.125  1.00 20.00    -0.305 OA
ENDBRANCH   2  10
TORSDOF 2
ENDMDL
MODEL 8
REMARK VINA RESULT:      -3.8     11.900     13.000
REMARK  2 active torsions:
REMARK  status: ('A' for Active; 'I' for Inactive)
REMARK    1  A    between atoms: C6_6  and  C8_8 
REMARK    2  A    between atoms: C7_7  and  C8_8 
ROOT
HETATM    1  C1  UNL     1     -32.066   8.859   4.524  1.00 20.00     0.075 C 
HETATM    2  C8  UNL     1     -32.201   7.753   3.547  1.00 20.00     0.186 C 
HETATM    3  N9  UNL     1     -31.968   9.716   5.301  1.00 20.00    -0.196 NA
ENDROOT
BRANCH   2   4
HETATM    4  C6  UNL     1     -33.132   6.688   4.016  1.00 20.00    -0.031 A 
HETATM    5  C2  UNL     1     -33.958   6.914   5.112  1.00 20.00     0.028 A 
HETATM    6  C4  UNL     1     -34.805   5.892   5.508  1.00 20.00     0.116 A 
HETATM    7  N10 UNL     1     -34.878   4.689   4.895  1.00 20.00    -0.273 NA
HETATM    8  C5  UNL     1     -34.061   4.505   3.834  1.00 20.00     0.116 A 
HETATM    9  C3  UNL     1     -33.178   5.463   3.360  1.00 20.00     0.028 A 
ENDBRANCH   2   4
BRANCH   2  10
HETATM   10  C7  UNL     1     -32.596   8.284   2.172  1.00 20.00     0.255 C 
HETATM   11  O11 UNL     1     -32.830   9.459   1.905  1.00 20.00    -0.305 OA
ENDBRANCH   2  10
TORSDOF 2
ENDMDL
MODEL 9
REMARK VINA RESULT:      -3.8      1.994      2.218
REMARK  2 active torsions:
REMARK  status: ('A' for Active; 'I' for Inactive)
REMARK    1  A    between atoms: C6_6  and  C8_8 
REMARK    2  A    between atoms: C7_7  and  C8_8 
ROOT
HETATM    1  C1  UNL     1     -36.374  15.911  -5.708  1.00 20.00     0.075 C 
HETATM    2  C8  UNL     1     -34.953  16.329  -5.660  1.00 20.00     0.186 C 
HETATM    3  N9  UNL     1     -37.489  15.592  -5.731  1.00 20.00    -0.196 NA
ENDROOT
BRANCH   2   4
HETATM    4  C6  UNL     1     -34.560  16.864  -4.325  1.00 20.00    -0.031 A 
HETATM    5  C2  UNL     1     -33.592  16.213  -3.568  1.00 20.00     0.028 A 
HETATM    6  C4  UNL     1     -33.262  16.750  -2.335  1.00 20.00     0.116 A 
HETATM    7  N10 UNL     1     -33.824  17.867  -1.821  1.00 20.00    -0.273 NA
HETATM    8  C5  UNL     1     -34.761  18.473  -2.585  1.00 20.00     0.116 A 
HETATM    9  C3  UNL     1     -35.161  18.016  -3.830  1.00 20.00     0.028 A 
ENDBRANCH   2   4
BRANCH   2  10
HETATM   10  C7  UNL     1     -34.035  15.196  -6.107  1.00 20.00     0.255 C 
HETATM   11  O11 UNL     1     -33.720  14.953  -7.268  1.00 20.00    -0.305 OA
ENDBRANCH   2  10
TORSDOF 2
ENDMDL
