MODEL 1
REMARK VINA RESULT:      -4.0      0.000      0.000
REMARK  2 active torsions:
REMARK  status: ('A' for Active; 'I' for Inactive)
REMARK    1  A    between atoms: C6_6  and  O8_8 
REMARK    2  A    between atoms: N7_7  and  O8_8 
ROOT
HETATM    1  C1  UNL     1     -32.124   7.408   2.245  1.00 20.00     0.014 C 
HETATM    2  C2  UNL     1     -32.275   7.911   3.324  1.00 20.00    -0.089 C 
HETATM    3  C6  UNL     1     -32.457   8.526   4.639  1.00 20.00     0.296 C 
ENDROOT
BRANCH   3   4
HETATM    4  O8  UNL     1     -33.755   8.253   5.141  1.00 20.00    -0.244 OA
BRANCH   4   5
HETATM    5  N7  UNL     1     -33.648   7.241   6.103  1.00 20.00    -0.143 NA
HETATM    6  C3  UNL     1     -34.396   6.226   5.798  1.00 20.00     0.032 C 
HETATM    7  C4  UNL     1     -34.505   4.972   6.630  1.00 20.00     0.067 C 
HETATM    8  C5  UNL     1     -35.217   6.298   4.536  1.00 20.00     0.067 C 
ENDBRANCH   4   5
ENDBRANCH   3   4
TORSDOF 2
ENDMDL
MODEL 2
REMARK VINA RESULT:      -3.9      1.511      3.982
REMARK  2 active torsions:
REMARK  status: ('A' for Active; 'I' for Inactive)
REMARK    1  A    between atoms: C6_6  and  O8_8 
REMARK    2  A    between atoms: N7_7  and  O8_8 
ROOT
HETATM    1  C1  UNL     1     -34.684   5.544   6.259  1.00 20.00     0.014 C 
HETATM    2  C2  UNL     1     -34.256   6.616   5.929  1.00 20.00    -0.089 C 
HETATM    3  C6  UNL     1     -33.738   7.924   5.530  1.00 20.00     0.296 C 
ENDROOT
BRANCH   3   4
HETATM    4  O8  UNL     1     -32.498   7.782   4.855  1.00 20.00    -0.244 OA
BRANCH   4   5
HETATM    5  N7  UNL     1     -32.506   8.633   3.743  1.00 20.00    -0.143 NA
HETATM    6  C3  UNL     1     -32.418   7.958   2.638  1.00 20.00     0.032 C 
HETATM    7  C4  UNL     1     -32.402   8.579   1.263  1.00 20.00     0.067 C 
HETATM    8  C5  UNL     1     -32.321   6.457   2.725  1.00 20.00     0.067 C 
ENDBRANCH   4   5
ENDBRANCH   3   4
TORSDOF 2
ENDMDL
MODEL 3
REMARK VINA RESULT:      -3.9      1.486      4.001
REMARK  2 active torsions:
REMARK  status: ('A' for Active; 'I' for Inactive)
REMARK    1  A    between atoms: C6_6  and  O8_8 
REMARK    2  A    between atoms: N7_7  and  O8_8 
ROOT
HETATM    1  C1  UNL     1     -34.827   5.424   6.694  1.00 20.00     0.014 C 
HETATM    2  C2  UNL     1     -34.539   5.110   5.572  1.00 20.00    -0.089 C 
HETATM    3  C6  UNL     1     -34.189   4.725   4.205  1.00 20.00     0.296 C 
ENDROOT
BRANCH   3   4
HETATM    4  O8  UNL     1     -33.626   5.824   3.507  1.00 20.00    -0.244 OA
BRANCH   4   5
HETATM    5  N7  UNL     1     -33.456   6.877   4.415  1.00 20.00    -0.143 NA
HETATM    6  C3  UNL     1     -32.649   7.776   3.940  1.00 20.00     0.032 C 
HETATM    7  C4  UNL     1     -32.259   9.037   4.672  1.00 20.00     0.067 C 
HETATM    8  C5  UNL     1     -32.055   7.553   2.573  1.00 20.00     0.067 C 
ENDBRANCH   4   5
ENDBRANCH   3   4
TORSDOF 2
ENDMDL
MODEL 4
REMARK VINA RESULT:      -3.8      1.108      3.706
REMARK  2 active torsions:
REMARK  status: ('A' for Active; 'I' for Inactive)
REMARK    1  A    between atoms: C6_6  and  O8_8 
REMARK    2  A    between atoms: N7_7  and  O8_8 
ROOT
HETATM    1  C1  UNL     1     -34.472   4.468   4.841  1.00 20.00     0.014 C 
HETATM    2  C2  UNL     1     -34.453   5.412   5.583  1.00 20.00    -0.089 C 
HETATM    3  C6  UNL     1     -34.431   6.560   6.489  1.00 20.00     0.296 C 
ENDROOT
BRANCH   3   4
HETATM    4  O8  UNL     1     -33.900   7.701   5.834  1.00 20.00    -0.244 OA
BRANCH   4   5
HETATM    5  N7  UNL     1     -33.661   7.364   4.495  1.00 20.00    -0.143 NA
HETATM    6  C3  UNL     1     -32.703   8.084   3.998  1.00 20.00     0.032 C 
HETATM    7  C4  UNL     1     -32.202   7.965   2.579  1.00 20.00     0.067 C 
HETATM    8  C5  UNL     1     -32.046   9.110   4.884  1.00 20.00     0.067 C 
ENDBRANCH   4   5
ENDBRANCH   3   4
TORSDOF 2
ENDMDL
MODEL 5
REMARK VINA RESULT:      -3.7      1.893      2.119
REMARK  2 active torsions:
REMARK  status: ('A' for Active; 'I' for Inactive)
REMARK    1  A    between atoms: C6_6  and  O8_8 
REMARK    2  A    between atoms: N7_7  and  O8_8 
ROOT
HETATM    1  C1  UNL     1     -32.635   9.118   0.506  1.00 20.00     0.014 C 
HETATM    2  C2  UNL     1     -32.626   9.005   1.701  1.00 20.00    -0.089 C 
HETATM    3  C6  UNL     1     -32.617   8.871   3.158  1.00 20.00     0.296 C 
ENDROOT
BRANCH   3   4
HETATM    4  O8  UNL     1     -32.319   7.535   3.532  1.00 20.00    -0.244 OA
BRANCH   4   5
HETATM    5  N7  UNL     1     -33.322   7.092   4.405  1.00 20.00    -0.143 NA
HETATM    6  C3  UNL     1     -33.746   5.913   4.067  1.00 20.00     0.032 C 
HETATM    7  C4  UNL     1     -34.822   5.155   4.805  1.00 20.00     0.067 C 
HETATM    8  C5  UNL     1     -33.133   5.252   2.859  1.00 20.00     0.067 C 
ENDBRANCH   4   5
ENDBRANCH   3   4
TORSDOF 2
ENDMDL
MODEL 6
REMARK VINA RESULT:      -3.7      1.523      1.935
REMARK  2 active torsions:
REMARK  status: ('A' for Active; 'I' for Inactive)
REMARK    1  A    between atoms: C6_6  and  O8_8 
REMARK    2  A    between atoms: N7_7  and  O8_8 
ROOT
HETATM    1  C1  UNL     1     -32.547   9.130   0.697  1.00 20.00     0.014 C 
HETATM    2  C2  UNL     1     -32.363   8.314   1.559  1.00 20.00    -0.089 C 
HETATM    3  C6  UNL     1     -32.137   7.319   2.608  1.00 20.00     0.296 C 
ENDROOT
BRANCH   3   4
HETATM    4  O8  UNL     1     -32.961   7.585   3.732  1.00 20.00    -0.244 OA
BRANCH   4   5
HETATM    5  N7  UNL     1     -33.621   6.399   4.080  1.00 20.00    -0.143 NA
HETATM    6  C3  UNL     1     -34.037   6.441   5.308  1.00 20.00     0.032 C 
HETATM    7  C4  UNL     1     -34.786   5.321   5.988  1.00 20.00     0.067 C 
HETATM    8  C5  UNL     1     -33.755   7.681   6.116  1.00 20.00     0.067 C 
ENDBRANCH   4   5
ENDBRANCH   3   4
TORSDOF 2
ENDMDL
MODEL 7
REMARK VINA RESULT:      -3.6      1.537      2.016
REMARK  2 active torsions:
REMARK  status: ('A' for Active; 'I' for Inactive)
REMARK    1  A    between atoms: C6_6  and  O8_8 
REMARK    2  A    between atoms: N7_7  and  O8_8 
ROOT
HETATM    1  C1  UNL     1     -32.193   9.202   4.886  1.00 20.00     0.014 C 
HETATM    2  C2  UNL     1     -32.195   8.348   4.042  1.00 20.00    -0.089 C 
HETATM    3  C6  UNL     1     -32.194   7.309   3.011  1.00 20.00     0.296 C 
ENDROOT
BRANCH   3   4
HETATM    4  O8  UNL     1     -33.216   6.358   3.264  1.00 20.00    -0.244 OA
BRANCH   4   5
HETATM    5  N7  UNL     1     -33.810   6.671   4.493  1.00 20.00    -0.143 NA
HETATM    6  C3  UNL     1     -34.229   5.600   5.094  1.00 20.00     0.032 C 
HETATM    7  C4  UNL     1     -34.914   5.596   6.438  1.00 20.00     0.067 C 
HETATM    8  C5  UNL     1     -34.028   4.273   4.410  1.00 20.00     0.067 C 
ENDBRANCH   4   5
ENDBRANCH   3   4
TORSDOF 2
ENDMDL
MODEL 8
REMARK VINA RESULT:      -3.5      8.958      9.536
REMARK  2 active torsions:
REMARK  status: ('A' for Active; 'I' for Inactive)
REMARK    1  A    between atoms: C6_6  and  O8_8 
REMARK    2  A    between atoms: N7_7  and  O8_8 
ROOT
HETATM    1  C1  UNL     1     -39.040  11.753   3.690  1.00 20.00     0.014 C 
HETATM    2  C2  UNL     1     -39.130  11.799   4.887  1.00 20.00    -0.089 C 
HETATM    3  C6  UNL     1     -39.237  11.854   6.345  1.00 20.00     0.296 C 
ENDROOT
BRANCH   3   4
HETATM    4  O8  UNL     1     -40.502  12.367   6.732  1.00 20.00    -0.244 OA
BRANCH   4   5
HETATM    5  N7  UNL     1     -40.289  13.491   7.540  1.00 20.00    -0.143 NA
HETATM    6  C3  UNL     1     -40.935  14.521   7.086  1.00 20.00     0.032 C 
HETATM    7  C4  UNL     1     -40.915  15.886   7.730  1.00 20.00     0.067 C 
HETATM    8  C5  UNL     1     -41.756  14.354   5.834  1.00 20.00     0.067 C 
ENDBRANCH   4   5
ENDBRANCH   3   4
TORSDOF 2
ENDMDL
MODEL 9
REMARK VINA RESULT:      -3.5      9.416      9.955
REMARK  2 active torsions:
REMARK  status: ('A' for Active; 'I' for Inactive)
REMARK    1  A    between atoms: C6_6  and  O8_8 
REMARK    2  A    between atoms: N7_7  and  O8_8 
ROOT
HETATM    1  C1  UNL     1     -38.937  11.676   4.325  1.00 20.00     0.014 C 
HETATM    2  C2  UNL     1     -39.754  12.053   5.120  1.00 20.00    -0.089 C 
HETATM    3  C6  UNL     1     -40.751  12.510   6.089  1.00 20.00     0.296 C 
ENDROOT
BRANCH   3   4
HETATM    4  O8  UNL     1     -40.385  13.773   6.621  1.00 20.00    -0.244 OA
BRANCH   4   5
HETATM    5  N7  UNL     1     -40.286  13.648   8.013  1.00 20.00    -0.143 NA
HETATM    6  C3  UNL     1     -40.339  14.809   8.590  1.00 20.00     0.032 C 
HETATM    7  C4  UNL     1     -40.261  15.018  10.082  1.00 20.00     0.067 C 
HETATM    8  C5  UNL     1     -40.484  16.032   7.722  1.00 20.00     0.067 C 
ENDBRANCH   4   5
ENDBRANCH   3   4
TORSDOF 2
ENDMDL
