MODEL 1
REMARK VINA RESULT:      -5.2      0.000      0.000
REMARK  1 active torsions:
REMARK  status: ('A' for Active; 'I' for Inactive)
REMARK    1  A    between atoms: C3_3  and  C8_8 
ROOT
HETATM    1  C1  UNL     1     -33.305   8.070   5.287  1.00 20.00     0.048 A 
HETATM    2  C2  UNL     1     -32.335   8.692   4.479  1.00 20.00     0.141 A 
HETATM    3  C3  UNL     1     -33.571   6.882   4.652  1.00 20.00     0.039 A 
HETATM    4  C7  UNL     1     -32.693   5.821   2.550  1.00 20.00     0.179 C 
HETATM    5  N9  UNL     1     -32.008   7.960   3.411  1.00 20.00    -0.185 NA
HETATM    6  N10 UNL     1     -32.776   6.866   3.544  1.00 20.00    -0.278 N 
ENDROOT
BRANCH   3   7
HETATM    7  C8  UNL     1     -34.534   5.739   5.010  1.00 20.00    -0.007 C 
HETATM    8  C4  UNL     1     -35.878   5.941   4.277  1.00 20.00     0.021 C 
HETATM    9  C5  UNL     1     -34.784   5.728   6.535  1.00 20.00     0.021 C 
HETATM   10  C6  UNL     1     -34.011   4.336   4.625  1.00 20.00     0.021 C 
ENDBRANCH   3   7
TORSDOF 1
ENDMDL
MODEL 2
REMARK VINA RESULT:      -4.5      0.936      2.271
REMARK  1 active torsions:
REMARK  status: ('A' for Active; 'I' for Inactive)
REMARK    1  A    between atoms: C3_3  and  C8_8 
ROOT
HETATM    1  C1  UNL     1     -32.646   6.558   3.058  1.00 20.00     0.048 A 
HETATM    2  C2  UNL     1     -31.993   7.801   2.966  1.00 20.00     0.141 A 
HETATM    3  C3  UNL     1     -33.444   6.670   4.170  1.00 20.00     0.039 A 
HETATM    4  C7  UNL     1     -33.840   8.521   5.823  1.00 20.00     0.179 C 
HETATM    5  N9  UNL     1     -32.345   8.642   3.942  1.00 20.00    -0.185 NA
HETATM    6  N10 UNL     1     -33.228   7.925   4.658  1.00 20.00    -0.278 N 
ENDROOT
BRANCH   3   7
HETATM    7  C8  UNL     1     -34.412   5.671   4.823  1.00 20.00    -0.007 C 
HETATM    8  C4  UNL     1     -34.014   4.230   4.433  1.00 20.00     0.021 C 
HETATM    9  C5  UNL     1     -35.852   5.949   4.338  1.00 20.00     0.021 C 
HETATM   10  C6  UNL     1     -34.431   5.737   6.367  1.00 20.00     0.021 C 
ENDBRANCH   3   7
TORSDOF 1
ENDMDL
MODEL 3
REMARK VINA RESULT:      -4.0      1.633      3.387
REMARK  1 active torsions:
REMARK  status: ('A' for Active; 'I' for Inactive)
REMARK    1  A    between atoms: C3_3  and  C8_8 
ROOT
HETATM    1  C1  UNL     1     -34.254   6.645   6.110  1.00 20.00     0.048 A 
HETATM    2  C2  UNL     1     -34.746   5.326   6.122  1.00 20.00     0.141 A 
HETATM    3  C3  UNL     1     -33.682   6.786   4.870  1.00 20.00     0.039 A 
HETATM    4  C7  UNL     1     -33.428   5.241   2.905  1.00 20.00     0.179 C 
HETATM    5  N9  UNL     1     -34.506   4.676   4.980  1.00 20.00    -0.185 NA
HETATM    6  N10 UNL     1     -33.858   5.590   4.239  1.00 20.00    -0.278 N 
ENDROOT
BRANCH   3   7
HETATM    7  C8  UNL     1     -32.967   7.981   4.218  1.00 20.00    -0.007 C 
HETATM    8  C4  UNL     1     -32.312   8.855   5.311  1.00 20.00     0.021 C 
HETATM    9  C5  UNL     1     -33.989   8.833   3.432  1.00 20.00     0.021 C 
HETATM   10  C6  UNL     1     -31.851   7.579   3.227  1.00 20.00     0.021 C 
ENDBRANCH   3   7
TORSDOF 1
ENDMDL
MODEL 4
REMARK VINA RESULT:      -3.8     16.279     17.032
REMARK  1 active torsions:
REMARK  status: ('A' for Active; 'I' for Inactive)
REMARK    1  A    between atoms: C3_3  and  C8_8 
ROOT
HETATM    1  C1  UNL     1     -25.246  19.189  10.108  1.00 20.00     0.048 A 
HETATM    2  C2  UNL     1     -25.771  19.156  11.413  1.00 20.00     0.141 A 
HETATM    3  C3  UNL     1     -23.951  18.755  10.247  1.00 20.00     0.039 A 
HETATM    4  C7  UNL     1     -22.588  18.015  12.225  1.00 20.00     0.179 C 
HETATM    5  N9  UNL     1     -24.882  18.734  12.316  1.00 20.00    -0.185 NA
HETATM    6  N10 UNL     1     -23.785  18.498  11.576  1.00 20.00    -0.278 N 
ENDROOT
BRANCH   3   7
HETATM    7  C8  UNL     1     -22.834  18.558   9.209  1.00 20.00    -0.007 C 
HETATM    8  C4  UNL     1     -23.287  19.121   7.844  1.00 20.00     0.021 C 
HETATM    9  C5  UNL     1     -22.523  17.053   9.059  1.00 20.00     0.021 C 
HETATM   10  C6  UNL     1     -21.508  19.263   9.576  1.00 20.00     0.021 C 
ENDBRANCH   3   7
TORSDOF 1
ENDMDL
MODEL 5
REMARK VINA RESULT:      -3.6     12.524     13.762
REMARK  1 active torsions:
REMARK  status: ('A' for Active; 'I' for Inactive)
REMARK    1  A    between atoms: C3_3  and  C8_8 
ROOT
HETATM    1  C1  UNL     1     -33.515  15.437  -3.775  1.00 20.00     0.048 A 
HETATM    2  C2  UNL     1     -33.773  14.896  -5.049  1.00 20.00     0.141 A 
HETATM    3  C3  UNL     1     -33.939  16.740  -3.863  1.00 20.00     0.039 A 
HETATM    4  C7  UNL     1     -34.961  18.095  -5.716  1.00 20.00     0.179 C 
HETATM    5  N9  UNL     1     -34.317  15.784  -5.885  1.00 20.00    -0.185 NA
HETATM    6  N10 UNL     1     -34.406  16.895  -5.135  1.00 20.00    -0.278 N 
ENDROOT
BRANCH   3   7
HETATM    7  C8  UNL     1     -33.939  17.874  -2.826  1.00 20.00    -0.007 C 
HETATM    8  C4  UNL     1     -32.905  18.949  -3.229  1.00 20.00     0.021 C 
HETATM    9  C5  UNL     1     -33.567  17.309  -1.437  1.00 20.00     0.021 C 
HETATM   10  C6  UNL     1     -35.302  18.587  -2.677  1.00 20.00     0.021 C 
ENDBRANCH   3   7
TORSDOF 1
ENDMDL
MODEL 6
REMARK VINA RESULT:      -3.5      9.867     10.847
REMARK  1 active torsions:
REMARK  status: ('A' for Active; 'I' for Inactive)
REMARK    1  A    between atoms: C3_3  and  C8_8 
ROOT
HETATM    1  C1  UNL     1     -40.271  12.493   5.058  1.00 20.00     0.048 A 
HETATM    2  C2  UNL     1     -39.280  11.939   5.890  1.00 20.00     0.141 A 
HETATM    3  C3  UNL     1     -40.931  13.390   5.861  1.00 20.00     0.039 A 
HETATM    4  C7  UNL     1     -40.654  14.079   8.261  1.00 20.00     0.179 C 
HETATM    5  N9  UNL     1     -39.305  12.442   7.127  1.00 20.00    -0.185 NA
HETATM    6  N10 UNL     1     -40.320  13.322   7.078  1.00 20.00    -0.278 N 
ENDROOT
BRANCH   3   7
HETATM    7  C8  UNL     1     -42.116  14.325   5.569  1.00 20.00    -0.007 C 
HETATM    8  C4  UNL     1     -43.416  13.710   6.131  1.00 20.00     0.021 C 
HETATM    9  C5  UNL     1     -42.263  14.516   4.043  1.00 20.00     0.021 C 
HETATM   10  C6  UNL     1     -41.971  15.733   6.191  1.00 20.00     0.021 C 
ENDBRANCH   3   7
TORSDOF 1
ENDMDL
MODEL 7
REMARK VINA RESULT:      -3.5     12.383     13.259
REMARK  1 active torsions:
REMARK  status: ('A' for Active; 'I' for Inactive)
REMARK    1  A    between atoms: C3_3  and  C8_8 
ROOT
HETATM    1  C1  UNL     1     -31.154  18.533  -0.355  1.00 20.00     0.048 A 
HETATM    2  C2  UNL     1     -30.965  18.746   1.023  1.00 20.00     0.141 A 
HETATM    3  C3  UNL     1     -32.517  18.507  -0.515  1.00 20.00     0.039 A 
HETATM    4  C7  UNL     1     -34.442  18.752   1.081  1.00 20.00     0.179 C 
HETATM    5  N9  UNL     1     -32.117  18.847   1.692  1.00 20.00    -0.185 NA
HETATM    6  N10 UNL     1     -33.042  18.698   0.729  1.00 20.00    -0.278 N 
ENDROOT
BRANCH   3   7
HETATM    7  C8  UNL     1     -33.383  18.313  -1.771  1.00 20.00    -0.007 C 
HETATM    8  C4  UNL     1     -33.522  16.806  -2.079  1.00 20.00     0.021 C 
HETATM    9  C5  UNL     1     -32.719  19.018  -2.974  1.00 20.00     0.021 C 
HETATM   10  C6  UNL     1     -34.813  18.886  -1.640  1.00 20.00     0.021 C 
ENDBRANCH   3   7
TORSDOF 1
ENDMDL
MODEL 8
REMARK VINA RESULT:      -3.5     12.352     13.623
REMARK  1 active torsions:
REMARK  status: ('A' for Active; 'I' for Inactive)
REMARK    1  A    between atoms: C3_3  and  C8_8 
ROOT
HETATM    1  C1  UNL     1     -33.501  16.194  -3.076  1.00 20.00     0.048 A 
HETATM    2  C2  UNL     1     -33.011  17.466  -2.729  1.00 20.00     0.141 A 
HETATM    3  C3  UNL     1     -34.121  16.383  -4.287  1.00 20.00     0.039 A 
HETATM    4  C7  UNL     1     -34.451  18.395  -5.756  1.00 20.00     0.179 C 
HETATM    5  N9  UNL     1     -33.295  18.396  -3.646  1.00 20.00    -0.185 NA
HETATM    6  N10 UNL     1     -33.970  17.706  -4.581  1.00 20.00    -0.278 N 
ENDROOT
BRANCH   3   7
HETATM    7  C8  UNL     1     -34.858  15.398  -5.209  1.00 20.00    -0.007 C 
HETATM    8  C4  UNL     1     -34.987  14.027  -4.509  1.00 20.00     0.021 C 
HETATM    9  C5  UNL     1     -34.067  15.224  -6.524  1.00 20.00     0.021 C 
HETATM   10  C6  UNL     1     -36.286  15.849  -5.593  1.00 20.00     0.021 C 
ENDBRANCH   3   7
TORSDOF 1
ENDMDL
MODEL 9
REMARK VINA RESULT:      -3.4     12.522     13.928
REMARK  1 active torsions:
REMARK  status: ('A' for Active; 'I' for Inactive)
REMARK    1  A    between atoms: C3_3  and  C8_8 
ROOT
HETATM    1  C1  UNL     1     -33.419  15.922  -3.540  1.00 20.00     0.048 A 
HETATM    2  C2  UNL     1     -33.352  16.700  -2.369  1.00 20.00     0.141 A 
HETATM    3  C3  UNL     1     -34.290  16.603  -4.355  1.00 20.00     0.039 A 
HETATM    4  C7  UNL     1     -35.591  18.735  -4.084  1.00 20.00     0.179 C 
HETATM    5  N9  UNL     1     -34.120  17.791  -2.430  1.00 20.00    -0.185 NA
HETATM    6  N10 UNL     1     -34.677  17.704  -3.650  1.00 20.00    -0.278 N 
ENDROOT
BRANCH   3   7
HETATM    7  C8  UNL     1     -34.797  16.293  -5.773  1.00 20.00    -0.007 C 
HETATM    8  C4  UNL     1     -36.301  15.945  -5.723  1.00 20.00     0.021 C 
HETATM    9  C5  UNL     1     -34.017  15.093  -6.354  1.00 20.00     0.021 C 
HETATM   10  C6  UNL     1     -34.633  17.466  -6.767  1.00 20.00     0.021 C 
ENDBRANCH   3   7
TORSDOF 1
ENDMDL
