MODEL 1
REMARK VINA RESULT:      -5.0      0.000      0.000
REMARK  3 active torsions:
REMARK  status: ('A' for Active; 'I' for Inactive)
REMARK    1  A    between atoms: C3_3  and  C9_9 
REMARK    2  A    between atoms: C8_8  and  C10_10 
REMARK    3  A    between atoms: C9_9  and  C10_10 
ROOT
HETATM    1  C1  UNL     1     -34.455   5.041   5.886  1.00 20.00    -0.026 C 
HETATM    2  C2  UNL     1     -34.240   6.236   6.454  1.00 20.00    -0.025 C 
HETATM    3  C4  UNL     1     -35.383   6.630   4.488  1.00 20.00     0.017 C 
HETATM    4  C5  UNL     1     -33.314   5.698   3.789  1.00 20.00     0.013 C 
HETATM    5  C6  UNL     1     -34.666   5.280   4.409  1.00 20.00     0.009 C 
HETATM    6  C7  UNL     1     -34.291   7.272   5.351  1.00 20.00     0.012 C 
HETATM    7  C8  UNL     1     -33.024   7.068   4.479  1.00 20.00    -0.006 C 
ENDROOT
BRANCH   7   8
HETATM    8  C10 UNL     1     -32.808   8.191   3.471  1.00 20.00     0.012 C 
BRANCH   8   9
HETATM    9  C9  UNL     1     -32.164   7.673   2.193  1.00 20.00     0.070 C 
BRANCH   9  10
HETATM   10  C3  UNL     1     -32.404   8.586   1.015  1.00 20.00     0.231 C 
HETATM   11  O11 UNL     1     -32.810   9.740   1.097  1.00 20.00    -0.307 OA
ENDBRANCH   9  10
ENDBRANCH   8   9
ENDBRANCH   7   8
TORSDOF 3
ENDMDL
MODEL 2
REMARK VINA RESULT:      -4.5     15.484     16.382
REMARK  3 active torsions:
REMARK  status: ('A' for Active; 'I' for Inactive)
REMARK    1  A    between atoms: C3_3  and  C9_9 
REMARK    2  A    between atoms: C8_8  and  C10_10 
REMARK    3  A    between atoms: C9_9  and  C10_10 
ROOT
HETATM    1  C1  UNL     1     -25.430  17.103  12.161  1.00 20.00    -0.026 C 
HETATM    2  C2  UNL     1     -24.347  16.458  11.700  1.00 20.00    -0.025 C 
HETATM    3  C4  UNL     1     -23.648  18.565  12.331  1.00 20.00     0.017 C 
HETATM    4  C5  UNL     1     -25.159  18.958  10.542  1.00 20.00     0.013 C 
HETATM    5  C6  UNL     1     -25.151  18.583  12.041  1.00 20.00     0.009 C 
HETATM    6  C7  UNL     1     -23.353  17.510  11.259  1.00 20.00     0.012 C 
HETATM    7  C8  UNL     1     -23.932  18.172   9.980  1.00 20.00    -0.006 C 
ENDROOT
BRANCH   7   8
HETATM    8  C10 UNL     1     -22.933  19.084   9.277  1.00 20.00     0.012 C 
BRANCH   8   9
HETATM    9  C9  UNL     1     -21.518  18.529   9.364  1.00 20.00     0.070 C 
BRANCH   9  10
HETATM   10  C3  UNL     1     -21.319  17.317   8.488  1.00 20.00     0.231 C 
HETATM   11  O11 UNL     1     -21.738  17.207   7.341  1.00 20.00    -0.307 OA
ENDBRANCH   9  10
ENDBRANCH   8   9
ENDBRANCH   7   8
TORSDOF 3
ENDMDL
MODEL 3
REMARK VINA RESULT:      -4.1     11.667     13.018
REMARK  3 active torsions:
REMARK  status: ('A' for Active; 'I' for Inactive)
REMARK    1  A    between atoms: C3_3  and  C9_9 
REMARK    2  A    between atoms: C8_8  and  C10_10 
REMARK    3  A    between atoms: C9_9  and  C10_10 
ROOT
HETATM    1  C1  UNL     1     -33.090  19.174  -2.606  1.00 20.00    -0.026 C 
HETATM    2  C2  UNL     1     -32.970  18.900  -3.914  1.00 20.00    -0.025 C 
HETATM    3  C4  UNL     1     -35.021  18.077  -3.246  1.00 20.00     0.017 C 
HETATM    4  C5  UNL     1     -33.444  16.795  -2.018  1.00 20.00     0.013 C 
HETATM    5  C6  UNL     1     -34.091  18.198  -2.036  1.00 20.00     0.009 C 
HETATM    6  C7  UNL     1     -33.881  17.729  -4.211  1.00 20.00     0.012 C 
HETATM    7  C8  UNL     1     -33.251  16.482  -3.536  1.00 20.00    -0.006 C 
ENDROOT
BRANCH   7   8
HETATM    8  C10 UNL     1     -33.923  15.178  -3.949  1.00 20.00     0.012 C 
BRANCH   8   9
HETATM    9  C9  UNL     1     -34.197  15.144  -5.445  1.00 20.00     0.070 C 
BRANCH   9  10
HETATM   10  C3  UNL     1     -35.587  14.650  -5.767  1.00 20.00     0.231 C 
HETATM   11  O11 UNL     1     -35.957  14.277  -6.875  1.00 20.00    -0.307 OA
ENDBRANCH   9  10
ENDBRANCH   8   9
ENDBRANCH   7   8
TORSDOF 3
ENDMDL
MODEL 4
REMARK VINA RESULT:      -4.0      2.361      4.470
REMARK  3 active torsions:
REMARK  status: ('A' for Active; 'I' for Inactive)
REMARK    1  A    between atoms: C3_3  and  C9_9 
REMARK    2  A    between atoms: C8_8  and  C10_10 
REMARK    3  A    between atoms: C9_9  and  C10_10 
ROOT
HETATM    1  C1  UNL     1     -32.645   8.646   2.145  1.00 20.00    -0.026 C 
HETATM    2  C2  UNL     1     -32.799   9.543   3.131  1.00 20.00    -0.025 C 
HETATM    3  C4  UNL     1     -31.328   7.944   3.910  1.00 20.00     0.017 C 
HETATM    4  C5  UNL     1     -33.362   6.763   3.583  1.00 20.00     0.013 C 
HETATM    5  C6  UNL     1     -32.182   7.358   2.783  1.00 20.00     0.009 C 
HETATM    6  C7  UNL     1     -32.455   8.845   4.429  1.00 20.00     0.012 C 
HETATM    7  C8  UNL     1     -33.588   7.822   4.708  1.00 20.00    -0.006 C 
ENDROOT
BRANCH   7   8
HETATM    8  C10 UNL     1     -33.510   7.213   6.103  1.00 20.00     0.012 C 
BRANCH   8   9
HETATM    9  C9  UNL     1     -34.720   6.338   6.396  1.00 20.00     0.070 C 
BRANCH   9  10
HETATM   10  C3  UNL     1     -34.486   4.890   6.040  1.00 20.00     0.231 C 
HETATM   11  O11 UNL     1     -34.763   4.382   4.959  1.00 20.00    -0.307 OA
ENDBRANCH   9  10
ENDBRANCH   8   9
ENDBRANCH   7   8
TORSDOF 3
ENDMDL
MODEL 5
REMARK VINA RESULT:      -4.0     11.608     12.609
REMARK  3 active torsions:
REMARK  status: ('A' for Active; 'I' for Inactive)
REMARK    1  A    between atoms: C3_3  and  C9_9 
REMARK    2  A    between atoms: C8_8  and  C10_10 
REMARK    3  A    between atoms: C9_9  and  C10_10 
ROOT
HETATM    1  C1  UNL     1     -34.490  18.950  -0.907  1.00 20.00    -0.026 C 
HETATM    2  C2  UNL     1     -33.741  17.942  -0.437  1.00 20.00    -0.025 C 
HETATM    3  C4  UNL     1     -32.608  18.825  -2.243  1.00 20.00     0.017 C 
HETATM    4  C5  UNL     1     -34.615  17.959  -3.173  1.00 20.00     0.013 C 
HETATM    5  C6  UNL     1     -34.098  19.161  -2.351  1.00 20.00     0.009 C 
HETATM    6  C7  UNL     1     -32.861  17.469  -1.574  1.00 20.00     0.012 C 
HETATM    7  C8  UNL     1     -33.787  16.765  -2.601  1.00 20.00    -0.006 C 
ENDROOT
BRANCH   7   8
HETATM    8  C10 UNL     1     -33.016  16.022  -3.686  1.00 20.00     0.012 C 
BRANCH   8   9
HETATM    9  C9  UNL     1     -33.808  14.836  -4.217  1.00 20.00     0.070 C 
BRANCH   9  10
HETATM   10  C3  UNL     1     -34.438  15.117  -5.559  1.00 20.00     0.231 C 
HETATM   11  O11 UNL     1     -33.928  14.847  -6.641  1.00 20.00    -0.307 OA
ENDBRANCH   9  10
ENDBRANCH   8   9
ENDBRANCH   7   8
TORSDOF 3
ENDMDL
MODEL 6
REMARK VINA RESULT:      -4.0      0.945      1.720
REMARK  3 active torsions:
REMARK  status: ('A' for Active; 'I' for Inactive)
REMARK    1  A    between atoms: C3_3  and  C9_9 
REMARK    2  A    between atoms: C8_8  and  C10_10 
REMARK    3  A    between atoms: C9_9  and  C10_10 
ROOT
HETATM    1  C1  UNL     1     -35.425   5.384   5.810  1.00 20.00    -0.026 C 
HETATM    2  C2  UNL     1     -35.481   5.777   4.529  1.00 20.00    -0.025 C 
HETATM    3  C4  UNL     1     -33.305   5.118   4.928  1.00 20.00     0.017 C 
HETATM    4  C5  UNL     1     -33.623   6.993   6.350  1.00 20.00     0.013 C 
HETATM    5  C6  UNL     1     -33.983   5.495   6.248  1.00 20.00     0.009 C 
HETATM    6  C7  UNL     1     -34.078   6.166   4.118  1.00 20.00     0.012 C 
HETATM    7  C8  UNL     1     -33.733   7.479   4.870  1.00 20.00    -0.006 C 
ENDROOT
BRANCH   7   8
HETATM    8  C10 UNL     1     -32.445   8.128   4.376  1.00 20.00     0.012 C 
BRANCH   8   9
HETATM    9  C9  UNL     1     -32.228   7.872   2.892  1.00 20.00     0.070 C 
BRANCH   9  10
HETATM   10  C3  UNL     1     -32.684   9.027   2.033  1.00 20.00     0.231 C 
HETATM   11  O11 UNL     1     -32.566   9.080   0.814  1.00 20.00    -0.307 OA
ENDBRANCH   9  10
ENDBRANCH   8   9
ENDBRANCH   7   8
TORSDOF 3
ENDMDL
MODEL 7
REMARK VINA RESULT:      -3.9     11.864     13.123
REMARK  3 active torsions:
REMARK  status: ('A' for Active; 'I' for Inactive)
REMARK    1  A    between atoms: C3_3  and  C9_9 
REMARK    2  A    between atoms: C8_8  and  C10_10 
REMARK    3  A    between atoms: C9_9  and  C10_10 
ROOT
HETATM    1  C1  UNL     1     -34.510  17.101  -4.127  1.00 20.00    -0.026 C 
HETATM    2  C2  UNL     1     -35.198  18.223  -3.870  1.00 20.00    -0.025 C 
HETATM    3  C4  UNL     1     -32.977  18.695  -3.455  1.00 20.00     0.017 C 
HETATM    4  C5  UNL     1     -33.536  17.034  -1.852  1.00 20.00     0.013 C 
HETATM    5  C6  UNL     1     -33.214  17.186  -3.355  1.00 20.00     0.009 C 
HETATM    6  C7  UNL     1     -34.367  19.048  -2.912  1.00 20.00     0.012 C 
HETATM    7  C8  UNL     1     -34.382  18.311  -1.547  1.00 20.00    -0.006 C 
ENDROOT
BRANCH   7   8
HETATM    8  C10 UNL     1     -33.790  19.142  -0.415  1.00 20.00     0.012 C 
BRANCH   8   9
HETATM    9  C9  UNL     1     -32.834  18.320   0.436  1.00 20.00     0.070 C 
BRANCH   9  10
HETATM   10  C3  UNL     1     -31.420  18.847   0.390  1.00 20.00     0.231 C 
HETATM   11  O11 UNL     1     -30.648  18.695  -0.550  1.00 20.00    -0.307 OA
ENDBRANCH   9  10
ENDBRANCH   8   9
ENDBRANCH   7   8
TORSDOF 3
ENDMDL
MODEL 8
REMARK VINA RESULT:      -3.8      9.099     10.237
REMARK  3 active torsions:
REMARK  status: ('A' for Active; 'I' for Inactive)
REMARK    1  A    between atoms: C3_3  and  C9_9 
REMARK    2  A    between atoms: C8_8  and  C10_10 
REMARK    3  A    between atoms: C9_9  and  C10_10 
ROOT
HETATM    1  C1  UNL     1     -42.290  15.503   7.144  1.00 20.00    -0.026 C 
HETATM    2  C2  UNL     1     -42.315  15.066   5.876  1.00 20.00    -0.025 C 
HETATM    3  C4  UNL     1     -42.657  13.222   7.220  1.00 20.00     0.017 C 
HETATM    4  C5  UNL     1     -40.464  13.951   7.767  1.00 20.00     0.013 C 
HETATM    5  C6  UNL     1     -41.944  14.318   8.016  1.00 20.00     0.009 C 
HETATM    6  C7  UNL     1     -41.969  13.594   5.902  1.00 20.00     0.012 C 
HETATM    7  C8  UNL     1     -40.467  13.487   6.276  1.00 20.00    -0.006 C 
ENDROOT
BRANCH   7   8
HETATM    8  C10 UNL     1     -39.908  12.080   6.105  1.00 20.00     0.012 C 
BRANCH   8   9
HETATM    9  C9  UNL     1     -38.648  12.082   5.252  1.00 20.00     0.070 C 
BRANCH   9  10
HETATM   10  C3  UNL     1     -38.868  11.456   3.895  1.00 20.00     0.231 C 
HETATM   11  O11 UNL     1     -39.211  12.070   2.891  1.00 20.00    -0.307 OA
ENDBRANCH   9  10
ENDBRANCH   8   9
ENDBRANCH   7   8
TORSDOF 3
ENDMDL
MODEL 9
REMARK VINA RESULT:      -3.6     11.792     13.312
REMARK  3 active torsions:
REMARK  status: ('A' for Active; 'I' for Inactive)
REMARK    1  A    between atoms: C3_3  and  C9_9 
REMARK    2  A    between atoms: C8_8  and  C10_10 
REMARK    3  A    between atoms: C9_9  and  C10_10 
ROOT
HETATM    1  C1  UNL     1     -33.898  17.627  -1.599  1.00 20.00    -0.026 C 
HETATM    2  C2  UNL     1     -33.443  16.589  -2.316  1.00 20.00    -0.025 C 
HETATM    3  C4  UNL     1     -32.977  18.493  -3.534  1.00 20.00     0.017 C 
HETATM    4  C5  UNL     1     -35.349  18.418  -3.442  1.00 20.00     0.013 C 
HETATM    5  C6  UNL     1     -34.128  18.767  -2.563  1.00 20.00     0.009 C 
HETATM    6  C7  UNL     1     -33.387  17.033  -3.761  1.00 20.00     0.012 C 
HETATM    7  C8  UNL     1     -34.853  17.176  -4.249  1.00 20.00    -0.006 C 
ENDROOT
BRANCH   7   8
HETATM    8  C10 UNL     1     -34.962  17.383  -5.756  1.00 20.00     0.012 C 
BRANCH   8   9
HETATM    9  C9  UNL     1     -34.580  16.122  -6.518  1.00 20.00     0.070 C 
BRANCH   9  10
HETATM   10  C3  UNL     1     -35.535  14.980  -6.260  1.00 20.00     0.231 C 
HETATM   11  O11 UNL     1     -35.998  14.248  -7.128  1.00 20.00    -0.307 OA
ENDBRANCH   9  10
ENDBRANCH   8   9
ENDBRANCH   7   8
TORSDOF 3
ENDMDL
