MODEL 1
REMARK VINA RESULT:      -4.6      0.000      0.000
REMARK  3 active torsions:
REMARK  status: ('A' for Active; 'I' for Inactive)
REMARK    1  A    between atoms: C3_3  and  C9_9 
REMARK    2  A    between atoms: C8_8  and  C10_10 
REMARK    3  A    between atoms: C9_9  and  C10_10 
ROOT
HETATM    1  C1  UNL     1     -33.959   5.461   6.266  1.00 20.00    -0.026 C 
HETATM    2  C2  UNL     1     -34.028   6.786   6.063  1.00 20.00    -0.025 C 
HETATM    3  C4  UNL     1     -35.604   5.815   4.683  1.00 20.00     0.017 C 
HETATM    4  C5  UNL     1     -33.509   5.004   3.883  1.00 20.00     0.013 C 
HETATM    5  C6  UNL     1     -34.519   4.791   5.033  1.00 20.00     0.009 C 
HETATM    6  C7  UNL     1     -34.627   6.998   4.692  1.00 20.00     0.012 C 
HETATM    7  C8  UNL     1     -33.624   6.535   3.602  1.00 20.00    -0.006 C 
ENDROOT
BRANCH   7   8
HETATM    8  C10 UNL     1     -32.284   7.257   3.610  1.00 20.00     0.012 C 
BRANCH   8   9
HETATM    9  C9  UNL     1     -32.398   8.648   2.998  1.00 20.00     0.070 C 
BRANCH   9  10
HETATM   10  C3  UNL     1     -32.394   8.618   1.488  1.00 20.00     0.231 C 
HETATM   11  O11 UNL     1     -32.697   9.564   0.770  1.00 20.00    -0.307 OA
ENDBRANCH   9  10
ENDBRANCH   8   9
ENDBRANCH   7   8
TORSDOF 3
ENDMDL
MODEL 2
REMARK VINA RESULT:      -4.2      1.382      1.510
REMARK  3 active torsions:
REMARK  status: ('A' for Active; 'I' for Inactive)
REMARK    1  A    between atoms: C3_3  and  C9_9 
REMARK    2  A    between atoms: C8_8  and  C10_10 
REMARK    3  A    between atoms: C9_9  and  C10_10 
ROOT
HETATM    1  C1  UNL     1     -34.047   5.443   6.324  1.00 20.00    -0.026 C 
HETATM    2  C2  UNL     1     -34.030   6.744   6.001  1.00 20.00    -0.025 C 
HETATM    3  C4  UNL     1     -35.664   5.754   4.705  1.00 20.00     0.017 C 
HETATM    4  C5  UNL     1     -33.626   4.741   3.997  1.00 20.00     0.013 C 
HETATM    5  C6  UNL     1     -34.648   4.700   5.155  1.00 20.00     0.009 C 
HETATM    6  C7  UNL     1     -34.613   6.868   4.612  1.00 20.00     0.012 C 
HETATM    7  C8  UNL     1     -33.641   6.244   3.576  1.00 20.00    -0.006 C 
ENDROOT
BRANCH   7   8
HETATM    8  C10 UNL     1     -32.258   6.875   3.526  1.00 20.00     0.012 C 
BRANCH   8   9
HETATM    9  C9  UNL     1     -32.292   8.237   2.843  1.00 20.00     0.070 C 
BRANCH   9  10
HETATM   10  C3  UNL     1     -32.418   9.376   3.828  1.00 20.00     0.231 C 
HETATM   11  O11 UNL     1     -32.109   9.312   5.012  1.00 20.00    -0.307 OA
ENDBRANCH   9  10
ENDBRANCH   8   9
ENDBRANCH   7   8
TORSDOF 3
ENDMDL
MODEL 3
REMARK VINA RESULT:      -4.1      1.209      2.119
REMARK  3 active torsions:
REMARK  status: ('A' for Active; 'I' for Inactive)
REMARK    1  A    between atoms: C3_3  and  C9_9 
REMARK    2  A    between atoms: C8_8  and  C10_10 
REMARK    3  A    between atoms: C9_9  and  C10_10 
ROOT
HETATM    1  C1  UNL     1     -35.696   5.637   4.629  1.00 20.00    -0.026 C 
HETATM    2  C2  UNL     1     -34.711   5.979   3.785  1.00 20.00    -0.025 C 
HETATM    3  C4  UNL     1     -33.764   4.639   5.410  1.00 20.00     0.017 C 
HETATM    4  C5  UNL     1     -34.511   6.579   6.577  1.00 20.00     0.013 C 
HETATM    5  C6  UNL     1     -35.050   5.276   5.945  1.00 20.00     0.009 C 
HETATM    6  C7  UNL     1     -33.409   5.854   4.542  1.00 20.00     0.012 C 
HETATM    7  C8  UNL     1     -33.327   6.956   5.632  1.00 20.00    -0.006 C 
ENDROOT
BRANCH   7   8
HETATM    8  C10 UNL     1     -33.395   8.385   5.113  1.00 20.00     0.012 C 
BRANCH   8   9
HETATM    9  C9  UNL     1     -32.178   8.725   4.261  1.00 20.00     0.070 C 
BRANCH   9  10
HETATM   10  C3  UNL     1     -32.493   8.742   2.784  1.00 20.00     0.231 C 
HETATM   11  O11 UNL     1     -32.152   7.876   1.987  1.00 20.00    -0.307 OA
ENDBRANCH   9  10
ENDBRANCH   8   9
ENDBRANCH   7   8
TORSDOF 3
ENDMDL
MODEL 4
REMARK VINA RESULT:      -3.9      9.079     10.044
REMARK  3 active torsions:
REMARK  status: ('A' for Active; 'I' for Inactive)
REMARK    1  A    between atoms: C3_3  and  C9_9 
REMARK    2  A    between atoms: C8_8  and  C10_10 
REMARK    3  A    between atoms: C9_9  and  C10_10 
ROOT
HETATM    1  C1  UNL     1     -41.719  14.051   8.544  1.00 20.00    -0.026 C 
HETATM    2  C2  UNL     1     -40.579  14.434   7.949  1.00 20.00    -0.025 C 
HETATM    3  C4  UNL     1     -42.275  14.754   6.415  1.00 20.00     0.017 C 
HETATM    4  C5  UNL     1     -42.219  12.399   6.781  1.00 20.00     0.013 C 
HETATM    5  C6  UNL     1     -42.700  13.707   7.449  1.00 20.00     0.009 C 
HETATM    6  C7  UNL     1     -40.799  14.338   6.457  1.00 20.00     0.012 C 
HETATM    7  C8  UNL     1     -40.921  12.849   6.038  1.00 20.00    -0.006 C 
ENDROOT
BRANCH   7   8
HETATM    8  C10 UNL     1     -39.709  11.986   6.357  1.00 20.00     0.012 C 
BRANCH   8   9
HETATM    9  C9  UNL     1     -38.639  12.111   5.280  1.00 20.00     0.070 C 
BRANCH   9  10
HETATM   10  C3  UNL     1     -39.048  11.461   3.979  1.00 20.00     0.231 C 
HETATM   11  O11 UNL     1     -39.202  12.056   2.919  1.00 20.00    -0.307 OA
ENDBRANCH   9  10
ENDBRANCH   8   9
ENDBRANCH   7   8
TORSDOF 3
ENDMDL
MODEL 5
REMARK VINA RESULT:      -3.9     11.806     13.065
REMARK  3 active torsions:
REMARK  status: ('A' for Active; 'I' for Inactive)
REMARK    1  A    between atoms: C3_3  and  C9_9 
REMARK    2  A    between atoms: C8_8  and  C10_10 
REMARK    3  A    between atoms: C9_9  and  C10_10 
ROOT
HETATM    1  C1  UNL     1     -33.319  16.970  -3.205  1.00 20.00    -0.026 C 
HETATM    2  C2  UNL     1     -33.478  16.678  -1.906  1.00 20.00    -0.025 C 
HETATM    3  C4  UNL     1     -34.788  18.530  -2.340  1.00 20.00     0.017 C 
HETATM    4  C5  UNL     1     -32.550  19.263  -2.715  1.00 20.00     0.013 C 
HETATM    5  C6  UNL     1     -33.668  18.429  -3.381  1.00 20.00     0.009 C 
HETATM    6  C7  UNL     1     -33.925  17.945  -1.214  1.00 20.00     0.012 C 
HETATM    7  C8  UNL     1     -32.763  18.973  -1.196  1.00 20.00    -0.006 C 
ENDROOT
BRANCH   7   8
HETATM    8  C10 UNL     1     -31.501  18.509  -0.483  1.00 20.00     0.012 C 
BRANCH   8   9
HETATM    9  C9  UNL     1     -31.677  18.530   1.030  1.00 20.00     0.070 C 
BRANCH   9  10
HETATM   10  C3  UNL     1     -30.359  18.615   1.765  1.00 20.00     0.231 C 
HETATM   11  O11 UNL     1     -30.238  18.604   2.984  1.00 20.00    -0.307 OA
ENDBRANCH   9  10
ENDBRANCH   8   9
ENDBRANCH   7   8
TORSDOF 3
ENDMDL
MODEL 6
REMARK VINA RESULT:      -3.9      2.415      4.407
REMARK  3 active torsions:
REMARK  status: ('A' for Active; 'I' for Inactive)
REMARK    1  A    between atoms: C3_3  and  C9_9 
REMARK    2  A    between atoms: C8_8  and  C10_10 
REMARK    3  A    between atoms: C9_9  and  C10_10 
ROOT
HETATM    1  C1  UNL     1     -31.722   7.530   3.217  1.00 20.00    -0.026 C 
HETATM    2  C2  UNL     1     -32.828   6.791   3.391  1.00 20.00    -0.025 C 
HETATM    3  C4  UNL     1     -33.520   8.977   3.117  1.00 20.00     0.017 C 
HETATM    4  C5  UNL     1     -32.252   8.987   5.137  1.00 20.00     0.013 C 
HETATM    5  C6  UNL     1     -32.067   8.949   3.603  1.00 20.00     0.009 C 
HETATM    6  C7  UNL     1     -33.908   7.717   3.901  1.00 20.00     0.012 C 
HETATM    7  C8  UNL     1     -33.570   8.176   5.345  1.00 20.00    -0.006 C 
ENDROOT
BRANCH   7   8
HETATM    8  C10 UNL     1     -33.439   7.055   6.365  1.00 20.00     0.012 C 
BRANCH   8   9
HETATM    9  C9  UNL     1     -34.720   6.234   6.457  1.00 20.00     0.070 C 
BRANCH   9  10
HETATM   10  C3  UNL     1     -34.535   4.816   5.970  1.00 20.00     0.231 C 
HETATM   11  O11 UNL     1     -34.717   4.444   4.817  1.00 20.00    -0.307 OA
ENDBRANCH   9  10
ENDBRANCH   8   9
ENDBRANCH   7   8
TORSDOF 3
ENDMDL
MODEL 7
REMARK VINA RESULT:      -3.8     11.942     13.244
REMARK  3 active torsions:
REMARK  status: ('A' for Active; 'I' for Inactive)
REMARK    1  A    between atoms: C3_3  and  C9_9 
REMARK    2  A    between atoms: C8_8  and  C10_10 
REMARK    3  A    between atoms: C9_9  and  C10_10 
ROOT
HETATM    1  C1  UNL     1     -32.796  19.261  -3.504  1.00 20.00    -0.026 C 
HETATM    2  C2  UNL     1     -33.604  18.599  -4.346  1.00 20.00    -0.025 C 
HETATM    3  C4  UNL     1     -34.724  18.762  -2.333  1.00 20.00     0.017 C 
HETATM    4  C5  UNL     1     -32.810  17.421  -1.861  1.00 20.00     0.013 C 
HETATM    5  C6  UNL     1     -33.215  18.892  -2.101  1.00 20.00     0.009 C 
HETATM    6  C7  UNL     1     -34.556  17.783  -3.503  1.00 20.00     0.012 C 
HETATM    7  C8  UNL     1     -33.784  16.638  -2.796  1.00 20.00    -0.006 C 
ENDROOT
BRANCH   7   8
HETATM    8  C10 UNL     1     -33.080  15.662  -3.727  1.00 20.00     0.012 C 
BRANCH   8   9
HETATM    9  C9  UNL     1     -34.079  14.804  -4.493  1.00 20.00     0.070 C 
BRANCH   9  10
HETATM   10  C3  UNL     1     -34.058  15.077  -5.979  1.00 20.00     0.231 C 
HETATM   11  O11 UNL     1     -34.933  14.734  -6.765  1.00 20.00    -0.307 OA
ENDBRANCH   9  10
ENDBRANCH   8   9
ENDBRANCH   7   8
TORSDOF 3
ENDMDL
MODEL 8
REMARK VINA RESULT:      -3.8     11.628     12.911
REMARK  3 active torsions:
REMARK  status: ('A' for Active; 'I' for Inactive)
REMARK    1  A    between atoms: C3_3  and  C9_9 
REMARK    2  A    between atoms: C8_8  and  C10_10 
REMARK    3  A    between atoms: C9_9  and  C10_10 
ROOT
HETATM    1  C1  UNL     1     -34.587  18.669  -1.196  1.00 20.00    -0.026 C 
HETATM    2  C2  UNL     1     -33.671  17.769  -0.810  1.00 20.00    -0.025 C 
HETATM    3  C4  UNL     1     -32.608  19.227  -2.251  1.00 20.00     0.017 C 
HETATM    4  C5  UNL     1     -34.262  18.145  -3.585  1.00 20.00     0.013 C 
HETATM    5  C6  UNL     1     -34.118  19.246  -2.511  1.00 20.00     0.009 C 
HETATM    6  C7  UNL     1     -32.595  17.740  -1.871  1.00 20.00     0.012 C 
HETATM    7  C8  UNL     1     -33.160  17.118  -3.176  1.00 20.00    -0.006 C 
ENDROOT
BRANCH   7   8
HETATM    8  C10 UNL     1     -33.678  15.693  -3.041  1.00 20.00     0.012 C 
BRANCH   8   9
HETATM    9  C9  UNL     1     -33.293  14.845  -4.246  1.00 20.00     0.070 C 
BRANCH   9  10
HETATM   10  C3  UNL     1     -34.350  14.858  -5.325  1.00 20.00     0.231 C 
HETATM   11  O11 UNL     1     -34.121  14.926  -6.527  1.00 20.00    -0.307 OA
ENDBRANCH   9  10
ENDBRANCH   8   9
ENDBRANCH   7   8
TORSDOF 3
ENDMDL
MODEL 9
REMARK VINA RESULT:      -3.7     11.521     12.824
REMARK  3 active torsions:
REMARK  status: ('A' for Active; 'I' for Inactive)
REMARK    1  A    between atoms: C3_3  and  C9_9 
REMARK    2  A    between atoms: C8_8  and  C10_10 
REMARK    3  A    between atoms: C9_9  and  C10_10 
ROOT
HETATM    1  C1  UNL     1     -36.227  15.624  -5.227  1.00 20.00    -0.026 C 
HETATM    2  C2  UNL     1     -35.573  16.789  -5.110  1.00 20.00    -0.025 C 
HETATM    3  C4  UNL     1     -34.231  15.392  -6.367  1.00 20.00     0.017 C 
HETATM    4  C5  UNL     1     -34.367  14.347  -4.228  1.00 20.00     0.013 C 
HETATM    5  C6  UNL     1     -35.195  14.559  -5.516  1.00 20.00     0.009 C 
HETATM    6  C7  UNL     1     -34.103  16.499  -5.313  1.00 20.00     0.012 C 
HETATM    7  C8  UNL     1     -33.559  15.677  -4.115  1.00 20.00    -0.006 C 
ENDROOT
BRANCH   7   8
HETATM    8  C10 UNL     1     -33.687  16.352  -2.757  1.00 20.00     0.012 C 
BRANCH   8   9
HETATM    9  C9  UNL     1     -33.000  17.712  -2.744  1.00 20.00     0.070 C 
BRANCH   9  10
HETATM   10  C3  UNL     1     -32.427  18.059  -1.390  1.00 20.00     0.231 C 
HETATM   11  O11 UNL     1     -31.567  18.909  -1.192  1.00 20.00    -0.307 OA
ENDBRANCH   9  10
ENDBRANCH   8   9
ENDBRANCH   7   8
TORSDOF 3
ENDMDL
