MODEL 1
REMARK VINA RESULT:      -3.8      0.000      0.000
REMARK  2 active torsions:
REMARK  status: ('A' for Active; 'I' for Inactive)
REMARK    1  A    between atoms: C4_4  and  C5_5 
REMARK    2  A    between atoms: C4_4  and  N6_6 
ROOT
HETATM    1  C1  UNL     1     -33.928   4.435   4.477  1.00 20.00     0.016 C 
HETATM    2  C2  UNL     1     -35.775   6.111   4.294  1.00 20.00     0.016 C 
HETATM    3  C3  UNL     1     -34.449   5.953   6.408  1.00 20.00     0.016 C 
HETATM    4  C5  UNL     1     -34.373   5.852   4.876  1.00 20.00    -0.036 C 
ENDROOT
BRANCH   4   5
HETATM    5  C4  UNL     1     -33.405   6.910   4.307  1.00 20.00     0.154 C 
BRANCH   5   6
HETATM    6  N6  UNL     1     -33.286   8.059   5.210  1.00 20.00    -0.063 NA
HETATM    7  O7  UNL     1     -32.316   8.784   4.940  1.00 20.00    -0.101 OA
ENDBRANCH   5   6
ENDBRANCH   4   5
TORSDOF 2
ENDMDL
MODEL 2
REMARK VINA RESULT:      -3.8      0.123      1.646
REMARK  2 active torsions:
REMARK  status: ('A' for Active; 'I' for Inactive)
REMARK    1  A    between atoms: C4_4  and  C5_5 
REMARK    2  A    between atoms: C4_4  and  N6_6 
ROOT
HETATM    1  C1  UNL     1     -34.452   5.955   6.402  1.00 20.00     0.016 C 
HETATM    2  C2  UNL     1     -33.933   4.440   4.481  1.00 20.00     0.016 C 
HETATM    3  C3  UNL     1     -35.801   6.092   4.289  1.00 20.00     0.016 C 
HETATM    4  C5  UNL     1     -34.396   5.857   4.868  1.00 20.00    -0.036 C 
ENDROOT
BRANCH   4   5
HETATM    5  C4  UNL     1     -33.390   6.874   4.290  1.00 20.00     0.154 C 
BRANCH   5   6
HETATM    6  N6  UNL     1     -33.049   7.900   5.281  1.00 20.00    -0.063 NA
HETATM    7  O7  UNL     1     -32.247   8.740   4.845  1.00 20.00    -0.101 OA
ENDBRANCH   5   6
ENDBRANCH   4   5
TORSDOF 2
ENDMDL
MODEL 3
REMARK VINA RESULT:      -3.8      0.028      1.639
REMARK  2 active torsions:
REMARK  status: ('A' for Active; 'I' for Inactive)
REMARK    1  A    between atoms: C4_4  and  C5_5 
REMARK    2  A    between atoms: C4_4  and  N6_6 
ROOT
HETATM    1  C1  UNL     1     -35.795   6.103   4.284  1.00 20.00     0.016 C 
HETATM    2  C2  UNL     1     -34.430   5.975   6.375  1.00 20.00     0.016 C 
HETATM    3  C3  UNL     1     -33.921   4.443   4.466  1.00 20.00     0.016 C 
HETATM    4  C5  UNL     1     -34.382   5.860   4.841  1.00 20.00    -0.036 C 
ENDROOT
BRANCH   4   5
HETATM    5  C4  UNL     1     -33.394   6.916   4.303  1.00 20.00     0.154 C 
BRANCH   5   6
HETATM    6  N6  UNL     1     -33.302   8.065   5.210  1.00 20.00    -0.063 NA
HETATM    7  O7  UNL     1     -32.327   8.792   4.966  1.00 20.00    -0.101 OA
ENDBRANCH   5   6
ENDBRANCH   4   5
TORSDOF 2
ENDMDL
MODEL 4
REMARK VINA RESULT:      -3.4     15.803     16.705
REMARK  2 active torsions:
REMARK  status: ('A' for Active; 'I' for Inactive)
REMARK    1  A    between atoms: C4_4  and  C5_5 
REMARK    2  A    between atoms: C4_4  and  N6_6 
ROOT
HETATM    1  C1  UNL     1     -22.717  18.569  11.838  1.00 20.00     0.016 C 
HETATM    2  C2  UNL     1     -23.857  16.734  10.576  1.00 20.00     0.016 C 
HETATM    3  C3  UNL     1     -24.067  19.099   9.788  1.00 20.00     0.016 C 
HETATM    4  C5  UNL     1     -23.117  18.078  10.436  1.00 20.00    -0.036 C 
ENDROOT
BRANCH   4   5
HETATM    5  C4  UNL     1     -21.869  17.859   9.556  1.00 20.00     0.154 C 
BRANCH   5   6
HETATM    6  N6  UNL     1     -22.080  16.766   8.601  1.00 20.00    -0.063 NA
HETATM    7  O7  UNL     1     -21.733  17.063   7.448  1.00 20.00    -0.101 OA
ENDBRANCH   5   6
ENDBRANCH   4   5
TORSDOF 2
ENDMDL
MODEL 5
REMARK VINA RESULT:      -3.3      2.336      2.976
REMARK  2 active torsions:
REMARK  status: ('A' for Active; 'I' for Inactive)
REMARK    1  A    between atoms: C4_4  and  C5_5 
REMARK    2  A    between atoms: C4_4  and  N6_6 
ROOT
HETATM    1  C1  UNL     1     -33.698   7.278   4.880  1.00 20.00     0.016 C 
HETATM    2  C2  UNL     1     -34.607   5.444   6.317  1.00 20.00     0.016 C 
HETATM    3  C3  UNL     1     -35.867   6.165   4.281  1.00 20.00     0.016 C 
HETATM    4  C5  UNL     1     -34.464   5.944   4.868  1.00 20.00    -0.036 C 
ENDROOT
BRANCH   4   5
HETATM    5  C4  UNL     1     -33.695   4.879   4.058  1.00 20.00     0.154 C 
BRANCH   5   6
HETATM    6  N6  UNL     1     -32.923   5.496   2.974  1.00 20.00    -0.063 NA
HETATM    7  O7  UNL     1     -32.819   4.760   1.981  1.00 20.00    -0.101 OA
ENDBRANCH   5   6
ENDBRANCH   4   5
TORSDOF 2
ENDMDL
MODEL 6
REMARK VINA RESULT:      -3.2     12.769     13.382
REMARK  2 active torsions:
REMARK  status: ('A' for Active; 'I' for Inactive)
REMARK    1  A    between atoms: C4_4  and  C5_5 
REMARK    2  A    between atoms: C4_4  and  N6_6 
ROOT
HETATM    1  C1  UNL     1     -33.379  16.616  -2.471  1.00 20.00     0.016 C 
HETATM    2  C2  UNL     1     -34.907  18.593  -2.366  1.00 20.00     0.016 C 
HETATM    3  C3  UNL     1     -33.854  17.726  -0.270  1.00 20.00     0.016 C 
HETATM    4  C5  UNL     1     -33.634  17.962  -1.773  1.00 20.00    -0.036 C 
ENDROOT
BRANCH   4   5
HETATM    5  C4  UNL     1     -32.455  18.931  -2.007  1.00 20.00     0.154 C 
BRANCH   5   6
HETATM    6  N6  UNL     1     -31.760  19.229  -0.751  1.00 20.00    -0.063 NA
HETATM    7  O7  UNL     1     -30.639  18.700  -0.686  1.00 20.00    -0.101 OA
ENDBRANCH   5   6
ENDBRANCH   4   5
TORSDOF 2
ENDMDL
MODEL 7
REMARK VINA RESULT:      -3.2     12.693     13.425
REMARK  2 active torsions:
REMARK  status: ('A' for Active; 'I' for Inactive)
REMARK    1  A    between atoms: C4_4  and  C5_5 
REMARK    2  A    between atoms: C4_4  and  N6_6 
ROOT
HETATM    1  C1  UNL     1     -33.793  18.002   0.382  1.00 20.00     0.016 C 
HETATM    2  C2  UNL     1     -33.211  17.124  -1.887  1.00 20.00     0.016 C 
HETATM    3  C3  UNL     1     -34.635  19.169  -1.676  1.00 20.00     0.016 C 
HETATM    4  C5  UNL     1     -33.451  18.403  -1.063  1.00 20.00    -0.036 C 
ENDROOT
BRANCH   4   5
HETATM    5  C4  UNL     1     -32.167  19.258  -1.104  1.00 20.00     0.154 C 
BRANCH   5   6
HETATM    6  N6  UNL     1     -31.011  18.498  -0.618  1.00 20.00    -0.063 NA
HETATM    7  O7  UNL     1     -30.458  19.035   0.355  1.00 20.00    -0.101 OA
ENDBRANCH   5   6
ENDBRANCH   4   5
TORSDOF 2
ENDMDL
MODEL 8
REMARK VINA RESULT:      -3.1      2.591      3.212
REMARK  2 active torsions:
REMARK  status: ('A' for Active; 'I' for Inactive)
REMARK    1  A    between atoms: C4_4  and  C5_5 
REMARK    2  A    between atoms: C4_4  and  N6_6 
ROOT
HETATM    1  C1  UNL     1     -32.680   7.103   3.953  1.00 20.00     0.016 C 
HETATM    2  C2  UNL     1     -33.338   6.760   6.342  1.00 20.00     0.016 C 
HETATM    3  C3  UNL     1     -34.448   8.551   4.994  1.00 20.00     0.016 C 
HETATM    4  C5  UNL     1     -33.859   7.132   4.941  1.00 20.00    -0.036 C 
ENDROOT
BRANCH   4   5
HETATM    5  C4  UNL     1     -34.938   6.107   4.534  1.00 20.00     0.154 C 
BRANCH   5   6
HETATM    6  N6  UNL     1     -34.684   4.800   5.148  1.00 20.00    -0.063 NA
HETATM    7  O7  UNL     1     -34.126   4.007   4.374  1.00 20.00    -0.101 OA
ENDBRANCH   5   6
ENDBRANCH   4   5
TORSDOF 2
ENDMDL
MODEL 9
REMARK VINA RESULT:      -3.1      2.595      3.208
REMARK  2 active torsions:
REMARK  status: ('A' for Active; 'I' for Inactive)
REMARK    1  A    between atoms: C4_4  and  C5_5 
REMARK    2  A    between atoms: C4_4  and  N6_6 
ROOT
HETATM    1  C1  UNL     1     -33.330   6.802   6.342  1.00 20.00     0.016 C 
HETATM    2  C2  UNL     1     -34.470   8.524   4.931  1.00 20.00     0.016 C 
HETATM    3  C3  UNL     1     -32.669   7.101   3.938  1.00 20.00     0.016 C 
HETATM    4  C5  UNL     1     -33.846   7.117   4.927  1.00 20.00    -0.036 C 
ENDROOT
BRANCH   4   5
HETATM    5  C4  UNL     1     -34.930   6.103   4.502  1.00 20.00     0.154 C 
BRANCH   5   6
HETATM    6  N6  UNL     1     -34.700   4.794   5.121  1.00 20.00    -0.063 NA
HETATM    7  O7  UNL     1     -34.128   3.998   4.361  1.00 20.00    -0.101 OA
ENDBRANCH   5   6
ENDBRANCH   4   5
TORSDOF 2
ENDMDL
