MODEL 1
REMARK VINA RESULT:      -4.1      0.000      0.000
REMARK  3 active torsions:
REMARK  status: ('A' for Active; 'I' for Inactive)
REMARK    1  A    between atoms: C1_1  and  C3_3 
REMARK    2  A    between atoms: C2_2  and  C7_7 
REMARK    3  A    between atoms: C7_7  and  C8_8 
ROOT
HETATM    1  C1  UNL     1     -32.452   8.023   3.753  1.00 20.00     0.045 C 
HETATM    2  C2  UNL     1     -33.624   7.920   4.396  1.00 20.00    -0.023 C 
ENDROOT
BRANCH   2   3
HETATM    3  C7  UNL     1     -33.743   7.477   5.828  1.00 20.00     0.031 C 
BRANCH   3   4
HETATM    4  C8  UNL     1     -34.659   6.253   6.006  1.00 20.00    -0.019 C 
HETATM    5  C5  UNL     1     -35.306   5.887   4.668  1.00 20.00     0.010 C 
HETATM    6  C6  UNL     1     -33.904   5.043   6.563  1.00 20.00     0.010 C 
ENDBRANCH   3   4
ENDBRANCH   2   3
BRANCH   1   7
HETATM    7  C3  UNL     1     -32.402   8.464   2.332  1.00 20.00     0.145 C 
HETATM    8  C4  UNL     1     -32.973   9.823   2.024  1.00 20.00     0.096 C 
HETATM    9  O9  UNL     1     -31.940   7.752   1.442  1.00 20.00    -0.294 OA
ENDBRANCH   1   7
TORSDOF 3
ENDMDL
MODEL 2
REMARK VINA RESULT:      -4.1      1.685      2.001
REMARK  3 active torsions:
REMARK  status: ('A' for Active; 'I' for Inactive)
REMARK    1  A    between atoms: C1_1  and  C3_3 
REMARK    2  A    between atoms: C2_2  and  C7_7 
REMARK    3  A    between atoms: C7_7  and  C8_8 
ROOT
HETATM    1  C1  UNL     1     -32.856   7.442   4.905  1.00 20.00     0.045 C 
HETATM    2  C2  UNL     1     -33.833   7.367   5.820  1.00 20.00    -0.023 C 
ENDROOT
BRANCH   2   3
HETATM    3  C7  UNL     1     -34.325   6.068   6.397  1.00 20.00     0.031 C 
BRANCH   3   4
HETATM    4  C8  UNL     1     -34.971   5.148   5.345  1.00 20.00    -0.019 C 
HETATM    5  C5  UNL     1     -35.738   5.986   4.319  1.00 20.00     0.010 C 
HETATM    6  C6  UNL     1     -33.936   4.275   4.629  1.00 20.00     0.010 C 
ENDBRANCH   3   4
ENDBRANCH   2   3
BRANCH   1   7
HETATM    7  C3  UNL     1     -32.418   8.760   4.371  1.00 20.00     0.145 C 
HETATM    8  C4  UNL     1     -32.550   8.967   2.885  1.00 20.00     0.096 C 
HETATM    9  O9  UNL     1     -31.948   9.636   5.094  1.00 20.00    -0.294 OA
ENDBRANCH   1   7
TORSDOF 3
ENDMDL
MODEL 3
REMARK VINA RESULT:      -4.1      0.958      1.137
REMARK  3 active torsions:
REMARK  status: ('A' for Active; 'I' for Inactive)
REMARK    1  A    between atoms: C1_1  and  C3_3 
REMARK    2  A    between atoms: C2_2  and  C7_7 
REMARK    3  A    between atoms: C7_7  and  C8_8 
ROOT
HETATM    1  C1  UNL     1     -32.509   8.220   3.746  1.00 20.00     0.045 C 
HETATM    2  C2  UNL     1     -33.639   8.001   4.435  1.00 20.00    -0.023 C 
ENDROOT
BRANCH   2   3
HETATM    3  C7  UNL     1     -33.661   7.399   5.812  1.00 20.00     0.031 C 
BRANCH   3   4
HETATM    4  C8  UNL     1     -34.673   6.247   5.950  1.00 20.00    -0.019 C 
HETATM    5  C5  UNL     1     -35.251   5.894   4.577  1.00 20.00     0.010 C 
HETATM    6  C6  UNL     1     -34.046   5.001   6.583  1.00 20.00     0.010 C 
ENDBRANCH   3   4
ENDBRANCH   2   3
BRANCH   1   7
HETATM    7  C3  UNL     1     -32.555   8.815   2.383  1.00 20.00     0.145 C 
HETATM    8  C4  UNL     1     -32.030   7.967   1.255  1.00 20.00     0.096 C 
HETATM    9  O9  UNL     1     -32.978   9.952   2.179  1.00 20.00    -0.294 OA
ENDBRANCH   1   7
TORSDOF 3
ENDMDL
MODEL 4
REMARK VINA RESULT:      -4.0     11.620     12.163
REMARK  3 active torsions:
REMARK  status: ('A' for Active; 'I' for Inactive)
REMARK    1  A    between atoms: C1_1  and  C3_3 
REMARK    2  A    between atoms: C2_2  and  C7_7 
REMARK    3  A    between atoms: C7_7  and  C8_8 
ROOT
HETATM    1  C1  UNL     1     -30.579  18.171   1.611  1.00 20.00     0.045 C 
HETATM    2  C2  UNL     1     -31.322  18.874   0.744  1.00 20.00    -0.023 C 
ENDROOT
BRANCH   2   3
HETATM    3  C7  UNL     1     -31.627  18.405  -0.651  1.00 20.00     0.031 C 
BRANCH   3   4
HETATM    4  C8  UNL     1     -33.136  18.265  -0.923  1.00 20.00    -0.019 C 
HETATM    5  C5  UNL     1     -33.391  17.076  -1.852  1.00 20.00     0.010 C 
HETATM    6  C6  UNL     1     -33.941  18.095   0.369  1.00 20.00     0.010 C 
ENDBRANCH   3   4
ENDBRANCH   2   3
BRANCH   1   7
HETATM    7  C3  UNL     1     -30.310  18.693   2.978  1.00 20.00     0.145 C 
HETATM    8  C4  UNL     1     -28.865  18.831   3.379  1.00 20.00     0.096 C 
HETATM    9  O9  UNL     1     -31.215  18.981   3.759  1.00 20.00    -0.294 OA
ENDBRANCH   1   7
TORSDOF 3
ENDMDL
MODEL 5
REMARK VINA RESULT:      -3.8     11.612     12.121
REMARK  3 active torsions:
REMARK  status: ('A' for Active; 'I' for Inactive)
REMARK    1  A    between atoms: C1_1  and  C3_3 
REMARK    2  A    between atoms: C2_2  and  C7_7 
REMARK    3  A    between atoms: C7_7  and  C8_8 
ROOT
HETATM    1  C1  UNL     1     -32.514  18.259  -1.906  1.00 20.00     0.045 C 
HETATM    2  C2  UNL     1     -33.151  17.110  -2.178  1.00 20.00    -0.023 C 
ENDROOT
BRANCH   2   3
HETATM    3  C7  UNL     1     -33.832  16.835  -3.490  1.00 20.00     0.031 C 
BRANCH   3   4
HETATM    4  C8  UNL     1     -33.860  15.339  -3.851  1.00 20.00    -0.019 C 
HETATM    5  C5  UNL     1     -34.855  15.095  -4.989  1.00 20.00     0.010 C 
HETATM    6  C6  UNL     1     -32.478  14.815  -4.251  1.00 20.00     0.010 C 
ENDBRANCH   3   4
ENDBRANCH   2   3
BRANCH   1   7
HETATM    7  C3  UNL     1     -31.863  18.471  -0.584  1.00 20.00     0.145 C 
HETATM    8  C4  UNL     1     -32.765  18.480   0.622  1.00 20.00     0.096 C 
HETATM    9  O9  UNL     1     -30.652  18.653  -0.473  1.00 20.00    -0.294 OA
ENDBRANCH   1   7
TORSDOF 3
ENDMDL
MODEL 6
REMARK VINA RESULT:      -3.8     11.549     12.036
REMARK  3 active torsions:
REMARK  status: ('A' for Active; 'I' for Inactive)
REMARK    1  A    between atoms: C1_1  and  C3_3 
REMARK    2  A    between atoms: C2_2  and  C7_7 
REMARK    3  A    between atoms: C7_7  and  C8_8 
ROOT
HETATM    1  C1  UNL     1     -33.982  16.397  -4.038  1.00 20.00     0.045 C 
HETATM    2  C2  UNL     1     -33.250  16.597  -2.933  1.00 20.00    -0.023 C 
ENDROOT
BRANCH   2   3
HETATM    3  C7  UNL     1     -33.140  17.931  -2.247  1.00 20.00     0.031 C 
BRANCH   3   4
HETATM    4  C8  UNL     1     -32.775  17.812  -0.756  1.00 20.00    -0.019 C 
HETATM    5  C5  UNL     1     -31.488  18.590  -0.470  1.00 20.00     0.010 C 
HETATM    6  C6  UNL     1     -33.897  18.317   0.155  1.00 20.00     0.010 C 
ENDBRANCH   3   4
ENDBRANCH   2   3
BRANCH   1   7
HETATM    7  C3  UNL     1     -34.046  15.052  -4.672  1.00 20.00     0.145 C 
HETATM    8  C4  UNL     1     -34.029  15.011  -6.178  1.00 20.00     0.096 C 
HETATM    9  O9  UNL     1     -34.130  14.019  -4.010  1.00 20.00    -0.294 OA
ENDBRANCH   1   7
TORSDOF 3
ENDMDL
MODEL 7
REMARK VINA RESULT:      -3.8      1.965      4.604
REMARK  3 active torsions:
REMARK  status: ('A' for Active; 'I' for Inactive)
REMARK    1  A    between atoms: C1_1  and  C3_3 
REMARK    2  A    between atoms: C2_2  and  C7_7 
REMARK    3  A    between atoms: C7_7  and  C8_8 
ROOT
HETATM    1  C1  UNL     1     -34.349   6.745   4.578  1.00 20.00     0.045 C 
HETATM    2  C2  UNL     1     -33.198   7.416   4.724  1.00 20.00    -0.023 C 
ENDROOT
BRANCH   2   3
HETATM    3  C7  UNL     1     -32.951   8.772   4.121  1.00 20.00     0.031 C 
BRANCH   3   4
HETATM    4  C8  UNL     1     -32.237   8.704   2.759  1.00 20.00    -0.019 C 
HETATM    5  C5  UNL     1     -32.098   7.246   2.314  1.00 20.00     0.010 C 
HETATM    6  C6  UNL     1     -32.972   9.505   1.681  1.00 20.00     0.010 C 
ENDBRANCH   3   4
ENDBRANCH   2   3
BRANCH   1   7
HETATM    7  C3  UNL     1     -34.529   5.404   5.198  1.00 20.00     0.145 C 
HETATM    8  C4  UNL     1     -34.691   5.366   6.694  1.00 20.00     0.096 C 
HETATM    9  O9  UNL     1     -34.526   4.370   4.533  1.00 20.00    -0.294 OA
ENDBRANCH   1   7
TORSDOF 3
ENDMDL
MODEL 8
REMARK VINA RESULT:      -3.7     11.590     12.257
REMARK  3 active torsions:
REMARK  status: ('A' for Active; 'I' for Inactive)
REMARK    1  A    between atoms: C1_1  and  C3_3 
REMARK    2  A    between atoms: C2_2  and  C7_7 
REMARK    3  A    between atoms: C7_7  and  C8_8 
ROOT
HETATM    1  C1  UNL     1     -33.590  16.605  -2.214  1.00 20.00     0.045 C 
HETATM    2  C2  UNL     1     -33.191  16.221  -3.435  1.00 20.00    -0.023 C 
ENDROOT
BRANCH   2   3
HETATM    3  C7  UNL     1     -33.671  14.961  -4.102  1.00 20.00     0.031 C 
BRANCH   3   4
HETATM    4  C8  UNL     1     -34.725  15.222  -5.194  1.00 20.00    -0.019 C 
HETATM    5  C5  UNL     1     -34.064  15.197  -6.574  1.00 20.00     0.010 C 
HETATM    6  C6  UNL     1     -35.866  14.202  -5.148  1.00 20.00     0.010 C 
ENDBRANCH   3   4
ENDBRANCH   2   3
BRANCH   1   7
HETATM    7  C3  UNL     1     -33.074  17.862  -1.608  1.00 20.00     0.145 C 
HETATM    8  C4  UNL     1     -33.439  18.120  -0.170  1.00 20.00     0.096 C 
HETATM    9  O9  UNL     1     -32.401  18.669  -2.247  1.00 20.00    -0.294 OA
ENDBRANCH   1   7
TORSDOF 3
ENDMDL
MODEL 9
REMARK VINA RESULT:      -3.7     11.660     12.429
REMARK  3 active torsions:
REMARK  status: ('A' for Active; 'I' for Inactive)
REMARK    1  A    between atoms: C1_1  and  C3_3 
REMARK    2  A    between atoms: C2_2  and  C7_7 
REMARK    3  A    between atoms: C7_7  and  C8_8 
ROOT
HETATM    1  C1  UNL     1     -33.683  15.132  -4.802  1.00 20.00     0.045 C 
HETATM    2  C2  UNL     1     -33.887  16.227  -4.055  1.00 20.00    -0.023 C 
ENDROOT
BRANCH   2   3
HETATM    3  C7  UNL     1     -33.285  16.418  -2.690  1.00 20.00     0.031 C 
BRANCH   3   4
HETATM    4  C8  UNL     1     -33.582  17.806  -2.091  1.00 20.00    -0.019 C 
HETATM    5  C5  UNL     1     -34.857  18.380  -2.712  1.00 20.00     0.010 C 
HETATM    6  C6  UNL     1     -33.724  17.757  -0.568  1.00 20.00     0.010 C 
ENDBRANCH   3   4
ENDBRANCH   2   3
BRANCH   1   7
HETATM    7  C3  UNL     1     -34.311  15.001  -6.145  1.00 20.00     0.145 C 
HETATM    8  C4  UNL     1     -35.808  14.844  -6.180  1.00 20.00     0.096 C 
HETATM    9  O9  UNL     1     -33.648  14.998  -7.180  1.00 20.00    -0.294 OA
ENDBRANCH   1   7
TORSDOF 3
ENDMDL
