MODEL 1
REMARK VINA RESULT:      -4.9      0.000      0.000
REMARK  4 active torsions:
REMARK  status: ('A' for Active; 'I' for Inactive)
REMARK    1  A    between atoms: C1_1  and  C6_6 
REMARK    2  A    between atoms: C2_2  and  C8_8 
REMARK    3  A    between atoms: C8_8  and  C10_10 
REMARK    4  A    between atoms: C9_9  and  C10_10 
ROOT
HETATM    1  C1  UNL     1     -32.882   8.030   4.355  1.00 20.00    -0.074 C 
HETATM    2  C2  UNL     1     -33.470   7.628   5.322  1.00 20.00    -0.104 C 
ENDROOT
BRANCH   1   3
HETATM    3  C6  UNL     1     -32.166   8.520   3.177  1.00 20.00     0.200 C 
HETATM    4  C4  UNL     1     -32.150   7.506   2.044  1.00 20.00     0.047 C 
HETATM    5  C3  UNL     1     -32.082   8.396   0.827  1.00 20.00     0.030 C 
HETATM    6  C5  UNL     1     -32.967   9.551   1.241  1.00 20.00     0.169 C 
HETATM    7  O11 UNL     1     -32.808   9.700   2.659  1.00 20.00    -0.374 OA
ENDBRANCH   1   3
BRANCH   2   8
HETATM    8  C8  UNL     1     -34.191   7.135   6.504  1.00 20.00     0.094 C 
BRANCH   8   9
HETATM    9  C10 UNL     1     -34.502   5.644   6.377  1.00 20.00     0.012 C 
BRANCH   9  10
HETATM   10  C9  UNL     1     -35.001   5.298   4.974  1.00 20.00    -0.004 C 
HETATM   11  C7  UNL     1     -34.029   4.383   4.246  1.00 20.00     0.005 C 
ENDBRANCH   9  10
ENDBRANCH   8   9
ENDBRANCH   2   8
TORSDOF 4
ENDMDL
MODEL 2
REMARK VINA RESULT:      -4.5     11.162     11.894
REMARK  4 active torsions:
REMARK  status: ('A' for Active; 'I' for Inactive)
REMARK    1  A    between atoms: C1_1  and  C6_6 
REMARK    2  A    between atoms: C2_2  and  C8_8 
REMARK    3  A    between atoms: C8_8  and  C10_10 
REMARK    4  A    between atoms: C9_9  and  C10_10 
ROOT
HETATM    1  C1  UNL     1     -33.462  16.948  -2.398  1.00 20.00    -0.074 C 
HETATM    2  C2  UNL     1     -33.590  17.392  -1.290  1.00 20.00    -0.104 C 
ENDROOT
BRANCH   1   3
HETATM    3  C6  UNL     1     -33.306  16.408  -3.749  1.00 20.00     0.200 C 
HETATM    4  C4  UNL     1     -33.753  14.958  -3.850  1.00 20.00     0.047 C 
HETATM    5  C3  UNL     1     -34.206  14.868  -5.286  1.00 20.00     0.030 C 
HETATM    6  C5  UNL     1     -34.850  16.221  -5.491  1.00 20.00     0.169 C 
HETATM    7  O11 UNL     1     -34.117  17.150  -4.679  1.00 20.00    -0.374 OA
ENDBRANCH   1   3
BRANCH   2   8
HETATM    8  C8  UNL     1     -33.747  17.932   0.068  1.00 20.00     0.094 C 
BRANCH   8   9
HETATM    9  C10 UNL     1     -32.737  19.047   0.337  1.00 20.00     0.012 C 
BRANCH   9  10
HETATM   10  C9  UNL     1     -31.302  18.520   0.289  1.00 20.00    -0.004 C 
HETATM   11  C7  UNL     1     -30.741  18.304   1.686  1.00 20.00     0.005 C 
ENDBRANCH   9  10
ENDBRANCH   8   9
ENDBRANCH   2   8
TORSDOF 4
ENDMDL
MODEL 3
REMARK VINA RESULT:      -4.4     11.089     11.992
REMARK  4 active torsions:
REMARK  status: ('A' for Active; 'I' for Inactive)
REMARK    1  A    between atoms: C1_1  and  C6_6 
REMARK    2  A    between atoms: C2_2  and  C8_8 
REMARK    3  A    between atoms: C8_8  and  C10_10 
REMARK    4  A    between atoms: C9_9  and  C10_10 
ROOT
HETATM    1  C1  UNL     1     -33.279  16.951  -2.605  1.00 20.00    -0.074 C 
HETATM    2  C2  UNL     1     -33.360  15.993  -3.324  1.00 20.00    -0.104 C 
ENDROOT
BRANCH   1   3
HETATM    3  C6  UNL     1     -33.181  18.118  -1.729  1.00 20.00     0.200 C 
HETATM    4  C4  UNL     1     -33.646  17.822  -0.312  1.00 20.00     0.047 C 
HETATM    5  C3  UNL     1     -32.815  18.786   0.499  1.00 20.00     0.030 C 
HETATM    6  C5  UNL     1     -31.497  18.756  -0.242  1.00 20.00     0.169 C 
HETATM    7  O11 UNL     1     -31.811  18.550  -1.627  1.00 20.00    -0.374 OA
ENDBRANCH   1   3
BRANCH   2   8
HETATM    8  C8  UNL     1     -33.458  14.818  -4.203  1.00 20.00     0.094 C 
BRANCH   8   9
HETATM    9  C10 UNL     1     -34.051  15.195  -5.560  1.00 20.00     0.012 C 
BRANCH   9  10
HETATM   10  C9  UNL     1     -35.534  14.833  -5.639  1.00 20.00    -0.004 C 
HETATM   11  C7  UNL     1     -35.884  13.704  -4.684  1.00 20.00     0.005 C 
ENDBRANCH   9  10
ENDBRANCH   8   9
ENDBRANCH   2   8
TORSDOF 4
ENDMDL
MODEL 4
REMARK VINA RESULT:      -4.2     11.080     12.131
REMARK  4 active torsions:
REMARK  status: ('A' for Active; 'I' for Inactive)
REMARK    1  A    between atoms: C1_1  and  C6_6 
REMARK    2  A    between atoms: C2_2  and  C8_8 
REMARK    3  A    between atoms: C8_8  and  C10_10 
REMARK    4  A    between atoms: C9_9  and  C10_10 
ROOT
HETATM    1  C1  UNL     1     -32.634  18.259  -1.615  1.00 20.00    -0.074 C 
HETATM    2  C2  UNL     1     -33.115  17.654  -2.533  1.00 20.00    -0.104 C 
ENDROOT
BRANCH   1   3
HETATM    3  C6  UNL     1     -32.046  18.996  -0.496  1.00 20.00     0.200 C 
HETATM    4  C4  UNL     1     -32.820  18.800   0.799  1.00 20.00     0.047 C 
HETATM    5  C3  UNL     1     -31.738  18.962   1.839  1.00 20.00     0.030 C 
HETATM    6  C5  UNL     1     -30.560  18.295   1.163  1.00 20.00     0.169 C 
HETATM    7  O11 UNL     1     -30.706  18.534  -0.244  1.00 20.00    -0.374 OA
ENDBRANCH   1   3
BRANCH   2   8
HETATM    8  C8  UNL     1     -33.707  16.913  -3.656  1.00 20.00     0.094 C 
BRANCH   8   9
HETATM    9  C10 UNL     1     -33.045  15.546  -3.824  1.00 20.00     0.012 C 
BRANCH   9  10
HETATM   10  C9  UNL     1     -34.067  14.476  -4.205  1.00 20.00    -0.004 C 
HETATM   11  C7  UNL     1     -34.803  14.838  -5.485  1.00 20.00     0.005 C 
ENDBRANCH   9  10
ENDBRANCH   8   9
ENDBRANCH   2   8
TORSDOF 4
ENDMDL
MODEL 5
REMARK VINA RESULT:      -4.0     11.492     12.269
REMARK  4 active torsions:
REMARK  status: ('A' for Active; 'I' for Inactive)
REMARK    1  A    between atoms: C1_1  and  C6_6 
REMARK    2  A    between atoms: C2_2  and  C8_8 
REMARK    3  A    between atoms: C8_8  and  C10_10 
REMARK    4  A    between atoms: C9_9  and  C10_10 
ROOT
HETATM    1  C1  UNL     1     -33.715  16.288  -3.510  1.00 20.00    -0.074 C 
HETATM    2  C2  UNL     1     -33.512  16.841  -2.464  1.00 20.00    -0.104 C 
ENDROOT
BRANCH   1   3
HETATM    3  C6  UNL     1     -33.962  15.614  -4.785  1.00 20.00     0.200 C 
HETATM    4  C4  UNL     1     -35.051  14.558  -4.682  1.00 20.00     0.047 C 
HETATM    5  C3  UNL     1     -35.625  14.562  -6.078  1.00 20.00     0.030 C 
HETATM    6  C5  UNL     1     -35.565  16.032  -6.431  1.00 20.00     0.169 C 
HETATM    7  O11 UNL     1     -34.407  16.563  -5.773  1.00 20.00    -0.374 OA
ENDBRANCH   1   3
BRANCH   2   8
HETATM    8  C8  UNL     1     -33.262  17.520  -1.184  1.00 20.00     0.094 C 
BRANCH   8   9
HETATM    9  C10 UNL     1     -32.202  18.610  -1.337  1.00 20.00     0.012 C 
BRANCH   9  10
HETATM   10  C9  UNL     1     -31.242  18.622  -0.148  1.00 20.00    -0.004 C 
HETATM   11  C7  UNL     1     -31.989  18.538   1.173  1.00 20.00     0.005 C 
ENDBRANCH   9  10
ENDBRANCH   8   9
ENDBRANCH   2   8
TORSDOF 4
ENDMDL
MODEL 6
REMARK VINA RESULT:      -4.0     11.267     12.110
REMARK  4 active torsions:
REMARK  status: ('A' for Active; 'I' for Inactive)
REMARK    1  A    between atoms: C1_1  and  C6_6 
REMARK    2  A    between atoms: C2_2  and  C8_8 
REMARK    3  A    between atoms: C8_8  and  C10_10 
REMARK    4  A    between atoms: C9_9  and  C10_10 
ROOT
HETATM    1  C1  UNL     1     -32.605  18.112  -1.218  1.00 20.00    -0.074 C 
HETATM    2  C2  UNL     1     -31.776  18.493  -0.437  1.00 20.00    -0.104 C 
ENDROOT
BRANCH   1   3
HETATM    3  C6  UNL     1     -33.615  17.648  -2.169  1.00 20.00     0.200 C 
HETATM    4  C4  UNL     1     -33.426  18.245  -3.555  1.00 20.00     0.047 C 
HETATM    5  C3  UNL     1     -33.993  17.164  -4.442  1.00 20.00     0.030 C 
HETATM    6  C5  UNL     1     -33.541  15.910  -3.727  1.00 20.00     0.169 C 
HETATM    7  O11 UNL     1     -33.532  16.219  -2.326  1.00 20.00    -0.374 OA
ENDBRANCH   1   3
BRANCH   2   8
HETATM    8  C8  UNL     1     -30.759  18.958   0.517  1.00 20.00     0.094 C 
BRANCH   8   9
HETATM    9  C10 UNL     1     -30.889  18.233   1.856  1.00 20.00     0.012 C 
BRANCH   9  10
HETATM   10  C9  UNL     1     -30.029  18.895   2.933  1.00 20.00    -0.004 C 
HETATM   11  C7  UNL     1     -30.833  19.183   4.190  1.00 20.00     0.005 C 
ENDBRANCH   9  10
ENDBRANCH   8   9
ENDBRANCH   2   8
TORSDOF 4
ENDMDL
MODEL 7
REMARK VINA RESULT:      -4.0      0.924      2.035
REMARK  4 active torsions:
REMARK  status: ('A' for Active; 'I' for Inactive)
REMARK    1  A    between atoms: C1_1  and  C6_6 
REMARK    2  A    between atoms: C2_2  and  C8_8 
REMARK    3  A    between atoms: C8_8  and  C10_10 
REMARK    4  A    between atoms: C9_9  and  C10_10 
ROOT
HETATM    1  C1  UNL     1     -32.685   6.756   2.795  1.00 20.00    -0.074 C 
HETATM    2  C2  UNL     1     -33.166   5.810   3.356  1.00 20.00    -0.104 C 
ENDROOT
BRANCH   1   3
HETATM    3  C6  UNL     1     -32.097   7.908   2.111  1.00 20.00     0.200 C 
HETATM    4  C4  UNL     1     -32.347   7.882   0.611  1.00 20.00     0.047 C 
HETATM    5  C3  UNL     1     -32.362   9.352   0.269  1.00 20.00     0.030 C 
HETATM    6  C5  UNL     1     -33.056   9.941   1.478  1.00 20.00     0.169 C 
HETATM    7  O11 UNL     1     -32.683   9.129   2.600  1.00 20.00    -0.374 OA
ENDBRANCH   1   3
BRANCH   2   8
HETATM    8  C8  UNL     1     -33.756   4.654   4.046  1.00 20.00     0.094 C 
BRANCH   8   9
HETATM    9  C10 UNL     1     -34.935   5.078   4.921  1.00 20.00     0.012 C 
BRANCH   9  10
HETATM   10  C9  UNL     1     -34.478   5.434   6.336  1.00 20.00    -0.004 C 
HETATM   11  C7  UNL     1     -34.191   6.921   6.471  1.00 20.00     0.005 C 
ENDBRANCH   9  10
ENDBRANCH   8   9
ENDBRANCH   2   8
TORSDOF 4
ENDMDL
MODEL 8
REMARK VINA RESULT:      -3.8     10.202     11.302
REMARK  4 active torsions:
REMARK  status: ('A' for Active; 'I' for Inactive)
REMARK    1  A    between atoms: C1_1  and  C6_6 
REMARK    2  A    between atoms: C2_2  and  C8_8 
REMARK    3  A    between atoms: C8_8  and  C10_10 
REMARK    4  A    between atoms: C9_9  and  C10_10 
ROOT
HETATM    1  C1  UNL     1     -42.870   5.126  -0.993  1.00 20.00    -0.074 C 
HETATM    2  C2  UNL     1     -43.089   4.207  -1.733  1.00 20.00    -0.104 C 
ENDROOT
BRANCH   1   3
HETATM    3  C6  UNL     1     -42.603   6.246  -0.090  1.00 20.00     0.200 C 
HETATM    4  C4  UNL     1     -41.197   6.203   0.489  1.00 20.00     0.047 C 
HETATM    5  C3  UNL     1     -40.904   7.666   0.712  1.00 20.00     0.030 C 
HETATM    6  C5  UNL     1     -41.565   8.299  -0.493  1.00 20.00     0.169 C 
HETATM    7  O11 UNL     1     -42.713   7.495  -0.799  1.00 20.00    -0.374 OA
ENDBRANCH   1   3
BRANCH   2   8
HETATM    8  C8  UNL     1     -43.360   3.082  -2.641  1.00 20.00     0.094 C 
BRANCH   8   9
HETATM    9  C10 UNL     1     -42.538   3.201  -3.924  1.00 20.00     0.012 C 
BRANCH   9  10
HETATM   10  C9  UNL     1     -41.388   2.195  -3.943  1.00 20.00    -0.004 C 
HETATM   11  C7  UNL     1     -41.897   0.764  -3.875  1.00 20.00     0.005 C 
ENDBRANCH   9  10
ENDBRANCH   8   9
ENDBRANCH   2   8
TORSDOF 4
ENDMDL
MODEL 9
REMARK VINA RESULT:      -3.7     10.173     10.927
REMARK  4 active torsions:
REMARK  status: ('A' for Active; 'I' for Inactive)
REMARK    1  A    between atoms: C1_1  and  C6_6 
REMARK    2  A    between atoms: C2_2  and  C8_8 
REMARK    3  A    between atoms: C8_8  and  C10_10 
REMARK    4  A    between atoms: C9_9  and  C10_10 
ROOT
HETATM    1  C1  UNL     1     -42.124  14.294   4.731  1.00 20.00    -0.074 C 
HETATM    2  C2  UNL     1     -41.441  13.739   5.548  1.00 20.00    -0.104 C 
ENDROOT
BRANCH   1   3
HETATM    3  C6  UNL     1     -42.957  14.970   3.736  1.00 20.00     0.200 C 
HETATM    4  C4  UNL     1     -42.965  16.480   3.915  1.00 20.00     0.047 C 
HETATM    5  C3  UNL     1     -43.190  16.962   2.503  1.00 20.00     0.030 C 
HETATM    6  C5  UNL     1     -42.379  15.965   1.704  1.00 20.00     0.169 C 
HETATM    7  O11 UNL     1     -42.453  14.719   2.411  1.00 20.00    -0.374 OA
ENDBRANCH   1   3
BRANCH   2   8
HETATM    8  C8  UNL     1     -40.606  13.058   6.548  1.00 20.00     0.094 C 
BRANCH   8   9
HETATM    9  C10 UNL     1     -40.008  11.771   5.981  1.00 20.00     0.012 C 
BRANCH   9  10
HETATM   10  C9  UNL     1     -38.738  12.055   5.179  1.00 20.00    -0.004 C 
HETATM   11  C7  UNL     1     -38.893  11.641   3.725  1.00 20.00     0.005 C 
ENDBRANCH   9  10
ENDBRANCH   8   9
ENDBRANCH   2   8
TORSDOF 4
ENDMDL
