MODEL 1
REMARK VINA RESULT:      -3.8      0.000      0.000
REMARK  2 active torsions:
REMARK  status: ('A' for Active; 'I' for Inactive)
REMARK    1  A    between atoms: C2_2  and  C3_3 
REMARK    2  A    between atoms: N7_7  and  N8_8 
ROOT
HETATM    1  C2  UNL     1     -33.647   6.660   4.711  1.00 20.00     0.138 C 
HETATM    2  N7  UNL     1     -34.299   5.677   4.178  1.00 20.00    -0.214 NA
ENDROOT
BRANCH   1   3
HETATM    3  C3  UNL     1     -32.836   7.626   3.913  1.00 20.00    -0.047 C 
HETATM    4  C1  UNL     1     -32.665   7.308   2.618  1.00 20.00    -0.023 C 
HETATM    5  C4  UNL     1     -31.907   8.081   1.586  1.00 20.00     0.036 C 
HETATM    6  C5  UNL     1     -32.309   8.829   4.631  1.00 20.00     0.049 C 
ENDBRANCH   1   3
BRANCH   2   7
HETATM    7  N8  UNL     1     -34.968   4.931   5.082  1.00 20.00    -0.222 NA
HETATM    8  C6  UNL     1     -34.696   5.241   6.476  1.00 20.00     0.135 C 
HETATM    9  H20 UNL     1     -34.837   3.934   4.911  1.00 20.00     0.148 HD
ENDBRANCH   2   7
TORSDOF 2
ENDMDL
MODEL 2
REMARK VINA RESULT:      -3.8     12.599     13.154
REMARK  2 active torsions:
REMARK  status: ('A' for Active; 'I' for Inactive)
REMARK    1  A    between atoms: C2_2  and  C3_3 
REMARK    2  A    between atoms: N7_7  and  N8_8 
ROOT
HETATM    1  C2  UNL     1     -30.435  18.358   1.722  1.00 20.00     0.138 C 
HETATM    2  N7  UNL     1     -30.415  19.203   0.741  1.00 20.00    -0.214 NA
ENDROOT
BRANCH   1   3
HETATM    3  C3  UNL     1     -30.031  18.717   3.113  1.00 20.00    -0.047 C 
HETATM    4  C1  UNL     1     -28.714  18.641   3.372  1.00 20.00    -0.023 C 
HETATM    5  C4  UNL     1     -28.024  18.939   4.665  1.00 20.00     0.036 C 
HETATM    6  C5  UNL     1     -31.121  19.118   4.057  1.00 20.00     0.049 C 
ENDBRANCH   1   3
BRANCH   2   7
HETATM    7  N8  UNL     1     -30.824  18.668  -0.428  1.00 20.00    -0.222 NA
HETATM    8  C6  UNL     1     -32.089  19.170  -0.940  1.00 20.00     0.135 C 
HETATM    9  H20 UNL     1     -30.841  17.649  -0.386  1.00 20.00     0.148 HD
ENDBRANCH   2   7
TORSDOF 2
ENDMDL
MODEL 3
REMARK VINA RESULT:      -3.7     12.463     13.008
REMARK  2 active torsions:
REMARK  status: ('A' for Active; 'I' for Inactive)
REMARK    1  A    between atoms: C2_2  and  C3_3 
REMARK    2  A    between atoms: N7_7  and  N8_8 
ROOT
HETATM    1  C2  UNL     1     -32.139  18.421  -0.850  1.00 20.00     0.138 C 
HETATM    2  N7  UNL     1     -30.888  18.702  -0.680  1.00 20.00    -0.214 NA
ENDROOT
BRANCH   1   3
HETATM    3  C3  UNL     1     -32.734  18.127  -2.187  1.00 20.00    -0.047 C 
HETATM    4  C1  UNL     1     -33.132  16.858  -2.378  1.00 20.00    -0.023 C 
HETATM    5  C4  UNL     1     -33.758  16.277  -3.606  1.00 20.00     0.036 C 
HETATM    6  C5  UNL     1     -32.820  19.263  -3.158  1.00 20.00     0.049 C 
ENDBRANCH   1   3
BRANCH   2   7
HETATM    7  N8  UNL     1     -30.564  18.928   0.610  1.00 20.00    -0.222 NA
HETATM    8  C6  UNL     1     -31.572  18.548   1.586  1.00 20.00     0.135 C 
HETATM    9  H20 UNL     1     -30.279  19.897   0.758  1.00 20.00     0.148 HD
ENDBRANCH   2   7
TORSDOF 2
ENDMDL
MODEL 4
REMARK VINA RESULT:      -3.7     11.991     12.807
REMARK  2 active torsions:
REMARK  status: ('A' for Active; 'I' for Inactive)
REMARK    1  A    between atoms: C2_2  and  C3_3 
REMARK    2  A    between atoms: N7_7  and  N8_8 
ROOT
HETATM    1  C2  UNL     1     -33.653  16.344  -4.098  1.00 20.00     0.138 C 
HETATM    2  N7  UNL     1     -33.050  15.198  -4.072  1.00 20.00    -0.214 NA
ENDROOT
BRANCH   1   3
HETATM    3  C3  UNL     1     -33.430  17.404  -3.071  1.00 20.00    -0.047 C 
HETATM    4  C1  UNL     1     -33.581  17.013  -1.794  1.00 20.00    -0.023 C 
HETATM    5  C4  UNL     1     -33.422  17.849  -0.564  1.00 20.00     0.036 C 
HETATM    6  C5  UNL     1     -33.069  18.768  -3.568  1.00 20.00     0.049 C 
ENDBRANCH   1   3
BRANCH   2   7
HETATM    7  N8  UNL     1     -33.396  14.393  -5.098  1.00 20.00    -0.222 NA
HETATM    8  C6  UNL     1     -34.105  15.038  -6.191  1.00 20.00     0.135 C 
HETATM    9  H20 UNL     1     -33.916  13.578  -4.773  1.00 20.00     0.148 HD
ENDBRANCH   2   7
TORSDOF 2
ENDMDL
MODEL 5
REMARK VINA RESULT:      -3.6     12.369     13.232
REMARK  2 active torsions:
REMARK  status: ('A' for Active; 'I' for Inactive)
REMARK    1  A    between atoms: C2_2  and  C3_3 
REMARK    2  A    between atoms: N7_7  and  N8_8 
ROOT
HETATM    1  C2  UNL     1     -32.095  18.550  -0.560  1.00 20.00     0.138 C 
HETATM    2  N7  UNL     1     -30.813  18.683  -0.450  1.00 20.00    -0.214 NA
ENDROOT
BRANCH   1   3
HETATM    3  C3  UNL     1     -32.772  18.225  -1.850  1.00 20.00    -0.047 C 
HETATM    4  C1  UNL     1     -32.694  19.173  -2.800  1.00 20.00    -0.023 C 
HETATM    5  C4  UNL     1     -33.270  19.127  -4.179  1.00 20.00     0.036 C 
HETATM    6  C5  UNL     1     -33.454  16.897  -1.946  1.00 20.00     0.049 C 
ENDBRANCH   1   3
BRANCH   2   7
HETATM    7  N8  UNL     1     -30.415  18.972   0.807  1.00 20.00    -0.222 NA
HETATM    8  C6  UNL     1     -31.265  18.458   1.868  1.00 20.00     0.135 C 
HETATM    9  H20 UNL     1     -30.266  19.974   0.929  1.00 20.00     0.148 HD
ENDBRANCH   2   7
TORSDOF 2
ENDMDL
MODEL 6
REMARK VINA RESULT:      -3.6     11.970     12.573
REMARK  2 active torsions:
REMARK  status: ('A' for Active; 'I' for Inactive)
REMARK    1  A    between atoms: C2_2  and  C3_3 
REMARK    2  A    between atoms: N7_7  and  N8_8 
ROOT
HETATM    1  C2  UNL     1     -32.844  17.738  -2.212  1.00 20.00     0.138 C 
HETATM    2  N7  UNL     1     -33.179  16.541  -2.573  1.00 20.00    -0.214 NA
ENDROOT
BRANCH   1   3
HETATM    3  C3  UNL     1     -32.659  18.136  -0.786  1.00 20.00    -0.047 C 
HETATM    4  C1  UNL     1     -31.418  18.525  -0.449  1.00 20.00    -0.023 C 
HETATM    5  C4  UNL     1     -30.940  18.975   0.895  1.00 20.00     0.036 C 
HETATM    6  C5  UNL     1     -33.860  18.059   0.104  1.00 20.00     0.049 C 
ENDBRANCH   1   3
BRANCH   2   7
HETATM    7  N8  UNL     1     -33.286  16.401  -3.911  1.00 20.00    -0.222 NA
HETATM    8  C6  UNL     1     -33.408  15.035  -4.392  1.00 20.00     0.135 C 
HETATM    9  H20 UNL     1     -32.527  16.879  -4.398  1.00 20.00     0.148 HD
ENDBRANCH   2   7
TORSDOF 2
ENDMDL
MODEL 7
REMARK VINA RESULT:      -3.6      9.967     10.318
REMARK  2 active torsions:
REMARK  status: ('A' for Active; 'I' for Inactive)
REMARK    1  A    between atoms: C2_2  and  C3_3 
REMARK    2  A    between atoms: N7_7  and  N8_8 
ROOT
HETATM    1  C2  UNL     1     -40.944  13.602   7.231  1.00 20.00     0.138 C 
HETATM    2  N7  UNL     1     -40.087  13.455   8.189  1.00 20.00    -0.214 NA
ENDROOT
BRANCH   1   3
HETATM    3  C3  UNL     1     -40.674  13.179   5.825  1.00 20.00    -0.047 C 
HETATM    4  C1  UNL     1     -39.672  12.297   5.668  1.00 20.00    -0.023 C 
HETATM    5  C4  UNL     1     -39.181  11.699   4.388  1.00 20.00     0.036 C 
HETATM    6  C5  UNL     1     -41.536  13.775   4.757  1.00 20.00     0.049 C 
ENDBRANCH   1   3
BRANCH   2   7
HETATM    7  N8  UNL     1     -40.539  13.901   9.380  1.00 20.00    -0.222 NA
HETATM    8  C6  UNL     1     -40.183  15.270   9.713  1.00 20.00     0.135 C 
HETATM    9  H20 UNL     1     -40.273  13.273  10.138  1.00 20.00     0.148 HD
ENDBRANCH   2   7
TORSDOF 2
ENDMDL
MODEL 8
REMARK VINA RESULT:      -3.4      2.254      4.336
REMARK  2 active torsions:
REMARK  status: ('A' for Active; 'I' for Inactive)
REMARK    1  A    between atoms: C2_2  and  C3_3 
REMARK    2  A    between atoms: N7_7  and  N8_8 
ROOT
HETATM    1  C2  UNL     1     -32.867   7.145   3.284  1.00 20.00     0.138 C 
HETATM    2  N7  UNL     1     -32.570   8.268   2.714  1.00 20.00    -0.214 NA
ENDROOT
BRANCH   1   3
HETATM    3  C3  UNL     1     -33.510   7.060   4.628  1.00 20.00    -0.047 C 
HETATM    4  C1  UNL     1     -34.093   5.885   4.918  1.00 20.00    -0.023 C 
HETATM    5  C4  UNL     1     -34.807   5.511   6.178  1.00 20.00     0.036 C 
HETATM    6  C5  UNL     1     -33.437   8.277   5.496  1.00 20.00     0.049 C 
ENDBRANCH   1   3
BRANCH   2   7
HETATM    7  N8  UNL     1     -32.000   8.113   1.500  1.00 20.00    -0.222 NA
HETATM    8  C6  UNL     1     -32.538   8.953   0.442  1.00 20.00     0.135 C 
HETATM    9  H20 UNL     1     -32.004   7.135   1.210  1.00 20.00     0.148 HD
ENDBRANCH   2   7
TORSDOF 2
ENDMDL
MODEL 9
REMARK VINA RESULT:      -3.3     12.387     12.767
REMARK  2 active torsions:
REMARK  status: ('A' for Active; 'I' for Inactive)
REMARK    1  A    between atoms: C2_2  and  C3_3 
REMARK    2  A    between atoms: N7_7  and  N8_8 
ROOT
HETATM    1  C2  UNL     1     -31.462  18.683  -0.201  1.00 20.00     0.138 C 
HETATM    2  N7  UNL     1     -31.159  18.655   1.057  1.00 20.00    -0.214 NA
ENDROOT
BRANCH   1   3
HETATM    3  C3  UNL     1     -32.712  18.080  -0.749  1.00 20.00    -0.047 C 
HETATM    4  C1  UNL     1     -32.592  17.489  -1.951  1.00 20.00    -0.023 C 
HETATM    5  C4  UNL     1     -33.664  16.807  -2.739  1.00 20.00     0.036 C 
HETATM    6  C5  UNL     1     -33.948  18.197   0.086  1.00 20.00     0.049 C 
ENDBRANCH   1   3
BRANCH   2   7
HETATM    7  N8  UNL     1     -29.985  19.263   1.333  1.00 20.00    -0.222 NA
HETATM    8  C6  UNL     1     -29.506  19.113   2.697  1.00 20.00     0.135 C 
HETATM    9  H20 UNL     1     -30.007  20.250   1.075  1.00 20.00     0.148 HD
ENDBRANCH   2   7
TORSDOF 2
ENDMDL
