MODEL 1
REMARK VINA RESULT:      -3.3      0.000      0.000
REMARK  0 active torsions:
REMARK  status: ('A' for Active; 'I' for Inactive)
ROOT
HETATM    1  C1  UNL     1     -34.660  15.766  -5.924  1.00 20.00     0.145 C 
HETATM    2  C2  UNL     1     -34.480  17.546  -4.147  1.00 20.00     0.061 C 
HETATM    3  C3  UNL     1     -36.736  17.152  -5.571  1.00 20.00     0.061 C 
HETATM    4  C4  UNL     1     -34.362  16.048  -4.448  1.00 20.00     0.103 C 
HETATM    5  C5  UNL     1     -35.683  16.695  -6.586  1.00 20.00     0.103 C 
HETATM    6  C6  UNL     1     -33.057  15.379  -4.020  1.00 20.00     0.024 C 
HETATM    7  C7  UNL     1     -36.220  16.081  -7.879  1.00 20.00     0.024 C 
HETATM    8  O8  UNL     1     -34.113  14.852  -6.538  1.00 20.00    -0.296 OA
HETATM    9  S9  UNL     1     -33.195  18.553  -3.761  1.00 20.00    -0.076 SA
HETATM   10  S10 UNL     1     -38.349  16.690  -5.587  1.00 20.00    -0.076 SA
HETATM   11  S11 UNL     1     -36.121  18.205  -4.284  1.00 20.00    -0.074 SA
ENDROOT
TORSDOF 0
ENDMDL
MODEL 2
REMARK VINA RESULT:      -3.2      1.223      3.767
REMARK  0 active torsions:
REMARK  status: ('A' for Active; 'I' for Inactive)
ROOT
HETATM    1  C1  UNL     1     -34.399  15.753  -4.458  1.00 20.00     0.145 C 
HETATM    2  C2  UNL     1     -36.233  17.064  -5.586  1.00 20.00     0.061 C 
HETATM    3  C3  UNL     1     -34.267  18.254  -4.176  1.00 20.00     0.061 C 
HETATM    4  C4  UNL     1     -35.097  16.056  -5.787  1.00 20.00     0.103 C 
HETATM    5  C5  UNL     1     -34.353  16.907  -3.451  1.00 20.00     0.103 C 
HETATM    6  C6  UNL     1     -35.467  14.764  -6.514  1.00 20.00     0.024 C 
HETATM    7  C7  UNL     1     -33.292  16.653  -2.380  1.00 20.00     0.024 C 
HETATM    8  O8  UNL     1     -33.907  14.652  -4.214  1.00 20.00    -0.296 OA
HETATM    9  S9  UNL     1     -37.867  16.713  -5.739  1.00 20.00    -0.076 SA
HETATM   10  S10 UNL     1     -32.927  19.263  -4.172  1.00 20.00    -0.076 SA
HETATM   11  S11 UNL     1     -35.710  18.690  -5.110  1.00 20.00    -0.074 SA
ENDROOT
TORSDOF 0
ENDMDL
MODEL 3
REMARK VINA RESULT:      -3.2      1.223      1.424
REMARK  0 active torsions:
REMARK  status: ('A' for Active; 'I' for Inactive)
ROOT
HETATM    1  C1  UNL     1     -34.399  15.751  -4.449  1.00 20.00     0.145 C 
HETATM    2  C2  UNL     1     -34.264  18.253  -4.167  1.00 20.00     0.061 C 
HETATM    3  C3  UNL     1     -36.237  17.064  -5.569  1.00 20.00     0.061 C 
HETATM    4  C4  UNL     1     -34.347  16.905  -3.443  1.00 20.00     0.103 C 
HETATM    5  C5  UNL     1     -35.102  16.056  -5.776  1.00 20.00     0.103 C 
HETATM    6  C6  UNL     1     -33.281  16.649  -2.378  1.00 20.00     0.024 C 
HETATM    7  C7  UNL     1     -35.477  14.764  -6.503  1.00 20.00     0.024 C 
HETATM    8  O8  UNL     1     -33.908  14.650  -4.207  1.00 20.00    -0.296 OA
HETATM    9  S9  UNL     1     -32.924  19.263  -4.167  1.00 20.00    -0.076 SA
HETATM   10  S10 UNL     1     -37.871  16.713  -5.711  1.00 20.00    -0.076 SA
HETATM   11  S11 UNL     1     -35.711  18.689  -5.094  1.00 20.00    -0.074 SA
ENDROOT
TORSDOF 0
ENDMDL
MODEL 4
REMARK VINA RESULT:      -3.0      2.782      3.398
REMARK  0 active torsions:
REMARK  status: ('A' for Active; 'I' for Inactive)
ROOT
HETATM    1  C1  UNL     1     -35.267  18.043  -3.546  1.00 20.00     0.145 C 
HETATM    2  C2  UNL     1     -34.193  16.095  -4.734  1.00 20.00     0.061 C 
HETATM    3  C3  UNL     1     -35.581  17.998  -6.047  1.00 20.00     0.061 C 
HETATM    4  C4  UNL     1     -33.956  17.298  -3.814  1.00 20.00     0.103 C 
HETATM    5  C5  UNL     1     -36.288  18.025  -4.688  1.00 20.00     0.103 C 
HETATM    6  C6  UNL     1     -33.219  17.008  -2.507  1.00 20.00     0.024 C 
HETATM    7  C7  UNL     1     -37.335  19.124  -4.499  1.00 20.00     0.024 C 
HETATM    8  O8  UNL     1     -35.487  18.618  -2.481  1.00 20.00    -0.296 OA
HETATM    9  S9  UNL     1     -34.067  14.489  -4.266  1.00 20.00    -0.076 SA
HETATM   10  S10 UNL     1     -35.572  19.261  -7.151  1.00 20.00    -0.076 SA
HETATM   11  S11 UNL     1     -34.681  16.509  -6.387  1.00 20.00    -0.074 SA
ENDROOT
TORSDOF 0
ENDMDL
MODEL 5
REMARK VINA RESULT:      -3.0      2.781      4.249
REMARK  0 active torsions:
REMARK  status: ('A' for Active; 'I' for Inactive)
ROOT
HETATM    1  C1  UNL     1     -35.271  18.044  -3.558  1.00 20.00     0.145 C 
HETATM    2  C2  UNL     1     -35.583  18.001  -6.060  1.00 20.00     0.061 C 
HETATM    3  C3  UNL     1     -34.204  16.093  -4.745  1.00 20.00     0.061 C 
HETATM    4  C4  UNL     1     -36.291  18.032  -4.701  1.00 20.00     0.103 C 
HETATM    5  C5  UNL     1     -33.962  17.295  -3.826  1.00 20.00     0.103 C 
HETATM    6  C6  UNL     1     -37.333  19.134  -4.512  1.00 20.00     0.024 C 
HETATM    7  C7  UNL     1     -33.226  17.001  -2.518  1.00 20.00     0.024 C 
HETATM    8  O8  UNL     1     -35.490  18.619  -2.493  1.00 20.00    -0.296 OA
HETATM    9  S9  UNL     1     -35.571  19.263  -7.166  1.00 20.00    -0.076 SA
HETATM   10  S10 UNL     1     -34.088  14.487  -4.276  1.00 20.00    -0.076 SA
HETATM   11  S11 UNL     1     -34.689  16.508  -6.399  1.00 20.00    -0.074 SA
ENDROOT
TORSDOF 0
ENDMDL
MODEL 6
REMARK VINA RESULT:      -2.8      2.331      3.501
REMARK  0 active torsions:
REMARK  status: ('A' for Active; 'I' for Inactive)
ROOT
HETATM    1  C1  UNL     1     -33.915  16.828  -3.896  1.00 20.00     0.145 C 
HETATM    2  C2  UNL     1     -35.334  15.331  -5.345  1.00 20.00     0.061 C 
HETATM    3  C3  UNL     1     -35.179  17.994  -5.739  1.00 20.00     0.061 C 
HETATM    4  C4  UNL     1     -33.921  15.608  -4.822  1.00 20.00     0.103 C 
HETATM    5  C5  UNL     1     -34.935  17.921  -4.228  1.00 20.00     0.103 C 
HETATM    6  C6  UNL     1     -33.203  14.426  -4.169  1.00 20.00     0.024 C 
HETATM    7  C7  UNL     1     -34.564  19.238  -3.544  1.00 20.00     0.024 C 
HETATM    8  O8  UNL     1     -33.139  16.924  -2.945  1.00 20.00    -0.296 OA
HETATM    9  S9  UNL     1     -36.271  14.004  -4.925  1.00 20.00    -0.076 SA
HETATM   10  S10 UNL     1     -34.704  19.262  -6.728  1.00 20.00    -0.076 SA
HETATM   11  S11 UNL     1     -35.982  16.573  -6.431  1.00 20.00    -0.074 SA
ENDROOT
TORSDOF 0
ENDMDL
MODEL 7
REMARK VINA RESULT:      -2.8     13.754     14.406
REMARK  0 active torsions:
REMARK  status: ('A' for Active; 'I' for Inactive)
ROOT
HETATM    1  C1  UNL     1     -41.809  16.302   6.489  1.00 20.00     0.145 C 
HETATM    2  C2  UNL     1     -40.859  16.140   8.820  1.00 20.00     0.061 C 
HETATM    3  C3  UNL     1     -40.948  14.026   7.148  1.00 20.00     0.061 C 
HETATM    4  C4  UNL     1     -40.764  16.851   7.465  1.00 20.00     0.103 C 
HETATM    5  C5  UNL     1     -42.163  14.820   6.657  1.00 20.00     0.103 C 
HETATM    6  C6  UNL     1     -40.807  18.378   7.505  1.00 20.00     0.024 C 
HETATM    7  C7  UNL     1     -42.855  14.281   5.405  1.00 20.00     0.024 C 
HETATM    8  O8  UNL     1     -42.332  17.005   5.626  1.00 20.00    -0.296 OA
HETATM    9  S9  UNL     1     -41.383  16.855  10.244  1.00 20.00    -0.076 SA
HETATM   10  S10 UNL     1     -40.110  12.893   6.239  1.00 20.00    -0.076 SA
HETATM   11  S11 UNL     1     -40.414  14.424   8.791  1.00 20.00    -0.074 SA
ENDROOT
TORSDOF 0
ENDMDL
MODEL 8
REMARK VINA RESULT:      -2.8     13.752     14.563
REMARK  0 active torsions:
REMARK  status: ('A' for Active; 'I' for Inactive)
ROOT
HETATM    1  C1  UNL     1     -41.810  16.296   6.484  1.00 20.00     0.145 C 
HETATM    2  C2  UNL     1     -40.945  14.022   7.147  1.00 20.00     0.061 C 
HETATM    3  C3  UNL     1     -40.865  16.140   8.815  1.00 20.00     0.061 C 
HETATM    4  C4  UNL     1     -42.160  14.814   6.652  1.00 20.00     0.103 C 
HETATM    5  C5  UNL     1     -40.768  16.849   7.461  1.00 20.00     0.103 C 
HETATM    6  C6  UNL     1     -42.848  14.273   5.399  1.00 20.00     0.024 C 
HETATM    7  C7  UNL     1     -40.814  18.377   7.498  1.00 20.00     0.024 C 
HETATM    8  O8  UNL     1     -42.334  16.998   5.619  1.00 20.00    -0.296 OA
HETATM    9  S9  UNL     1     -40.104  12.887   6.242  1.00 20.00    -0.076 SA
HETATM   10  S10 UNL     1     -41.396  16.854  10.237  1.00 20.00    -0.076 SA
HETATM   11  S11 UNL     1     -40.416  14.425   8.791  1.00 20.00    -0.074 SA
ENDROOT
TORSDOF 0
ENDMDL
MODEL 9
REMARK VINA RESULT:      -2.7      2.158      3.356
REMARK  0 active torsions:
REMARK  status: ('A' for Active; 'I' for Inactive)
ROOT
HETATM    1  C1  UNL     1     -36.496  15.877  -5.543  1.00 20.00     0.145 C 
HETATM    2  C2  UNL     1     -36.905  18.213  -4.686  1.00 20.00     0.061 C 
HETATM    3  C3  UNL     1     -34.899  17.632  -6.392  1.00 20.00     0.061 C 
HETATM    4  C4  UNL     1     -37.510  17.019  -5.433  1.00 20.00     0.103 C 
HETATM    5  C5  UNL     1     -35.027  16.298  -5.649  1.00 20.00     0.103 C 
HETATM    6  C6  UNL     1     -38.851  16.508  -4.905  1.00 20.00     0.024 C 
HETATM    7  C7  UNL     1     -34.168  15.150  -6.180  1.00 20.00     0.024 C 
HETATM    8  O8  UNL     1     -36.840  14.695  -5.546  1.00 20.00    -0.296 OA
HETATM    9  S9  UNL     1     -37.375  18.730  -3.161  1.00 20.00    -0.076 SA
HETATM   10  S10 UNL     1     -34.226  17.822  -7.917  1.00 20.00    -0.076 SA
HETATM   11  S11 UNL     1     -35.580  19.028  -5.537  1.00 20.00    -0.074 SA
ENDROOT
TORSDOF 0
ENDMDL
