MODEL 1
REMARK VINA RESULT:      -4.2      0.000      0.000
REMARK  1 active torsions:
REMARK  status: ('A' for Active; 'I' for Inactive)
REMARK    1  A    between atoms: C7_7  and  C11_11 
ROOT
HETATM    1  C1  UNL     1     -32.173   8.104   1.767  1.00 20.00     0.127 C 
HETATM    2  C2  UNL     1     -32.736   9.198   2.646  1.00 20.00     0.078 C 
HETATM    3  C3  UNL     1     -32.127   6.683   2.277  1.00 20.00     0.079 C 
HETATM    4  C4  UNL     1     -32.456   9.014   4.132  1.00 20.00     0.008 C 
HETATM    5  C5  UNL     1     -33.375   6.256   3.043  1.00 20.00     0.013 C 
HETATM    6  C6  UNL     1     -33.476   8.112   4.824  1.00 20.00     0.006 C 
HETATM    7  C7  UNL     1     -33.320   6.611   4.538  1.00 20.00    -0.007 C 
HETATM    8  O12 UNL     1     -31.756   8.372   0.638  1.00 20.00    -0.298 OA
ENDROOT
BRANCH   7   9
HETATM    9  C11 UNL     1     -34.410   5.840   5.291  1.00 20.00    -0.048 C 
HETATM   10  C8  UNL     1     -34.619   6.465   6.677  1.00 20.00     0.015 C 
HETATM   11  C9  UNL     1     -33.984   4.373   5.452  1.00 20.00     0.015 C 
HETATM   12  C10 UNL     1     -35.724   5.904   4.498  1.00 20.00     0.015 C 
ENDBRANCH   7   9
TORSDOF 1
ENDMDL
MODEL 2
REMARK VINA RESULT:      -4.1     11.502     13.149
REMARK  1 active torsions:
REMARK  status: ('A' for Active; 'I' for Inactive)
REMARK    1  A    between atoms: C7_7  and  C11_11 
ROOT
HETATM    1  C1  UNL     1     -34.930  15.407  -6.280  1.00 20.00     0.127 C 
HETATM    2  C2  UNL     1     -33.692  14.803  -5.658  1.00 20.00     0.078 C 
HETATM    3  C3  UNL     1     -35.671  16.508  -5.558  1.00 20.00     0.079 C 
HETATM    4  C4  UNL     1     -33.735  14.714  -4.138  1.00 20.00     0.008 C 
HETATM    5  C5  UNL     1     -34.762  17.542  -4.902  1.00 20.00     0.013 C 
HETATM    6  C6  UNL     1     -33.292  16.006  -3.452  1.00 20.00     0.006 C 
HETATM    7  C7  UNL     1     -34.319  17.147  -3.484  1.00 20.00    -0.007 C 
HETATM    8  O12 UNL     1     -35.331  15.004  -7.375  1.00 20.00    -0.298 OA
ENDROOT
BRANCH   7   9
HETATM    9  C11 UNL     1     -33.734  18.370  -2.768  1.00 20.00    -0.048 C 
HETATM   10  C8  UNL     1     -32.957  19.232  -3.773  1.00 20.00     0.015 C 
HETATM   11  C9  UNL     1     -32.784  17.906  -1.653  1.00 20.00     0.015 C 
HETATM   12  C10 UNL     1     -34.872  19.200  -2.156  1.00 20.00     0.015 C 
ENDBRANCH   7   9
TORSDOF 1
ENDMDL
MODEL 3
REMARK VINA RESULT:      -4.1     11.133     12.998
REMARK  1 active torsions:
REMARK  status: ('A' for Active; 'I' for Inactive)
REMARK    1  A    between atoms: C7_7  and  C11_11 
ROOT
HETATM    1  C1  UNL     1     -32.558  18.612  -2.366  1.00 20.00     0.127 C 
HETATM    2  C2  UNL     1     -32.800  19.262  -3.709  1.00 20.00     0.078 C 
HETATM    3  C3  UNL     1     -33.253  17.314  -2.026  1.00 20.00     0.079 C 
HETATM    4  C4  UNL     1     -34.213  19.082  -4.247  1.00 20.00     0.008 C 
HETATM    5  C5  UNL     1     -33.301  16.315  -3.176  1.00 20.00     0.013 C 
HETATM    6  C6  UNL     1     -34.404  17.764  -4.995  1.00 20.00     0.006 C 
HETATM    7  C7  UNL     1     -34.510  16.517  -4.104  1.00 20.00    -0.007 C 
HETATM    8  O12 UNL     1     -31.795  19.139  -1.553  1.00 20.00    -0.298 OA
ENDROOT
BRANCH   7   9
HETATM    9  C11 UNL     1     -34.691  15.280  -4.991  1.00 20.00    -0.048 C 
HETATM   10  C8  UNL     1     -33.711  15.346  -6.172  1.00 20.00     0.015 C 
HETATM   11  C9  UNL     1     -36.131  15.237  -5.525  1.00 20.00     0.015 C 
HETATM   12  C10 UNL     1     -34.414  14.013  -4.168  1.00 20.00     0.015 C 
ENDBRANCH   7   9
TORSDOF 1
ENDMDL
MODEL 4
REMARK VINA RESULT:      -4.1     11.781     13.388
REMARK  1 active torsions:
REMARK  status: ('A' for Active; 'I' for Inactive)
REMARK    1  A    between atoms: C7_7  and  C11_11 
ROOT
HETATM    1  C1  UNL     1     -35.759  15.200  -6.316  1.00 20.00     0.127 C 
HETATM    2  C2  UNL     1     -36.899  16.092  -5.880  1.00 20.00     0.078 C 
HETATM    3  C3  UNL     1     -34.344  15.541  -5.911  1.00 20.00     0.079 C 
HETATM    4  C4  UNL     1     -36.546  17.572  -5.812  1.00 20.00     0.008 C 
HETATM    5  C5  UNL     1     -34.209  16.029  -4.473  1.00 20.00     0.013 C 
HETATM    6  C6  UNL     1     -35.898  17.971  -4.487  1.00 20.00     0.006 C 
HETATM    7  C7  UNL     1     -34.432  17.542  -4.323  1.00 20.00    -0.007 C 
HETATM    8  O12 UNL     1     -35.985  14.197  -6.997  1.00 20.00    -0.298 OA
ENDROOT
BRANCH   7   9
HETATM    9  C11 UNL     1     -33.925  18.004  -2.951  1.00 20.00    -0.048 C 
HETATM   10  C8  UNL     1     -32.808  19.040  -3.138  1.00 20.00     0.015 C 
HETATM   11  C9  UNL     1     -33.377  16.797  -2.174  1.00 20.00     0.015 C 
HETATM   12  C10 UNL     1     -35.081  18.636  -2.162  1.00 20.00     0.015 C 
ENDBRANCH   7   9
TORSDOF 1
ENDMDL
MODEL 5
REMARK VINA RESULT:      -4.0     12.516     14.093
REMARK  1 active torsions:
REMARK  status: ('A' for Active; 'I' for Inactive)
REMARK    1  A    between atoms: C7_7  and  C11_11 
ROOT
HETATM    1  C1  UNL     1     -29.378  -2.268  11.094  1.00 20.00     0.127 C 
HETATM    2  C2  UNL     1     -28.697  -1.336  12.071  1.00 20.00     0.078 C 
HETATM    3  C3  UNL     1     -28.564  -2.949  10.019  1.00 20.00     0.079 C 
HETATM    4  C4  UNL     1     -27.545  -0.537  11.476  1.00 20.00     0.008 C 
HETATM    5  C5  UNL     1     -27.210  -3.463  10.495  1.00 20.00     0.013 C 
HETATM    6  C6  UNL     1     -26.222  -1.302  11.484  1.00 20.00     0.006 C 
HETATM    7  C7  UNL     1     -26.099  -2.403  10.420  1.00 20.00    -0.007 C 
HETATM    8  O12 UNL     1     -30.591  -2.471  11.177  1.00 20.00    -0.298 OA
ENDROOT
BRANCH   7   9
HETATM    9  C11 UNL     1     -24.731  -3.081  10.555  1.00 20.00    -0.048 C 
HETATM   10  C8  UNL     1     -24.907  -4.478  11.168  1.00 20.00     0.015 C 
HETATM   11  C9  UNL     1     -23.827  -2.236  11.465  1.00 20.00     0.015 C 
HETATM   12  C10 UNL     1     -24.083  -3.210   9.169  1.00 20.00     0.015 C 
ENDBRANCH   7   9
TORSDOF 1
ENDMDL
MODEL 6
REMARK VINA RESULT:      -3.8     11.814     13.531
REMARK  1 active torsions:
REMARK  status: ('A' for Active; 'I' for Inactive)
REMARK    1  A    between atoms: C7_7  and  C11_11 
ROOT
HETATM    1  C1  UNL     1     -35.810  15.348  -6.474  1.00 20.00     0.127 C 
HETATM    2  C2  UNL     1     -36.972  16.205  -6.026  1.00 20.00     0.078 C 
HETATM    3  C3  UNL     1     -34.408  15.696  -6.032  1.00 20.00     0.079 C 
HETATM    4  C4  UNL     1     -36.643  17.688  -5.898  1.00 20.00     0.008 C 
HETATM    5  C5  UNL     1     -34.306  16.132  -4.575  1.00 20.00     0.013 C 
HETATM    6  C6  UNL     1     -36.025  18.047  -4.547  1.00 20.00     0.006 C 
HETATM    7  C7  UNL     1     -34.556  17.635  -4.373  1.00 20.00    -0.007 C 
HETATM    8  O12 UNL     1     -36.008  14.368  -7.196  1.00 20.00    -0.298 OA
ENDROOT
BRANCH   7   9
HETATM    9  C11 UNL     1     -34.080  18.053  -2.977  1.00 20.00    -0.048 C 
HETATM   10  C8  UNL     1     -35.222  18.763  -2.235  1.00 20.00     0.015 C 
HETATM   11  C9  UNL     1     -32.884  19.009  -3.107  1.00 20.00     0.015 C 
HETATM   12  C10 UNL     1     -33.654  16.808  -2.185  1.00 20.00     0.015 C 
ENDBRANCH   7   9
TORSDOF 1
ENDMDL
MODEL 7
REMARK VINA RESULT:      -3.8     11.856     13.270
REMARK  1 active torsions:
REMARK  status: ('A' for Active; 'I' for Inactive)
REMARK    1  A    between atoms: C7_7  and  C11_11 
ROOT
HETATM    1  C1  UNL     1     -34.158  18.401  -2.241  1.00 20.00     0.127 C 
HETATM    2  C2  UNL     1     -33.680  17.002  -1.930  1.00 20.00     0.078 C 
HETATM    3  C3  UNL     1     -34.605  18.746  -3.643  1.00 20.00     0.079 C 
HETATM    4  C4  UNL     1     -32.929  16.328  -3.072  1.00 20.00     0.008 C 
HETATM    5  C5  UNL     1     -35.442  17.663  -4.313  1.00 20.00     0.013 C 
HETATM    6  C6  UNL     1     -33.858  15.648  -4.077  1.00 20.00     0.006 C 
HETATM    7  C7  UNL     1     -34.595  16.600  -5.031  1.00 20.00    -0.007 C 
HETATM    8  O12 UNL     1     -34.186  19.257  -1.353  1.00 20.00    -0.298 OA
ENDROOT
BRANCH   7   9
HETATM    9  C11 UNL     1     -35.487  15.778  -5.969  1.00 20.00    -0.048 C 
HETATM   10  C8  UNL     1     -34.762  15.557  -7.305  1.00 20.00     0.015 C 
HETATM   11  C9  UNL     1     -36.800  16.534  -6.221  1.00 20.00     0.015 C 
HETATM   12  C10 UNL     1     -35.796  14.419  -5.325  1.00 20.00     0.015 C 
ENDBRANCH   7   9
TORSDOF 1
ENDMDL
MODEL 8
REMARK VINA RESULT:      -3.7     11.212     12.288
REMARK  1 active torsions:
REMARK  status: ('A' for Active; 'I' for Inactive)
REMARK    1  A    between atoms: C7_7  and  C11_11 
ROOT
HETATM    1  C1  UNL     1     -41.177  17.327   8.881  1.00 20.00     0.127 C 
HETATM    2  C2  UNL     1     -41.118  16.180   9.865  1.00 20.00     0.078 C 
HETATM    3  C3  UNL     1     -40.929  17.068   7.414  1.00 20.00     0.079 C 
HETATM    4  C4  UNL     1     -40.083  15.116   9.524  1.00 20.00     0.008 C 
HETATM    5  C5  UNL     1     -41.578  15.793   6.888  1.00 20.00     0.013 C 
HETATM    6  C6  UNL     1     -40.604  14.072   8.537  1.00 20.00     0.006 C 
HETATM    7  C7  UNL     1     -40.700  14.545   7.079  1.00 20.00    -0.007 C 
HETATM    8  O12 UNL     1     -41.431  18.467   9.277  1.00 20.00    -0.298 OA
ENDROOT
BRANCH   7   9
HETATM    9  C11 UNL     1     -41.240  13.399   6.214  1.00 20.00    -0.048 C 
HETATM   10  C8  UNL     1     -41.739  13.957   4.873  1.00 20.00     0.015 C 
HETATM   11  C9  UNL     1     -42.403  12.710   6.944  1.00 20.00     0.015 C 
HETATM   12  C10 UNL     1     -40.122  12.378   5.958  1.00 20.00     0.015 C 
ENDBRANCH   7   9
TORSDOF 1
ENDMDL
MODEL 9
REMARK VINA RESULT:      -3.7     11.570     13.260
REMARK  1 active torsions:
REMARK  status: ('A' for Active; 'I' for Inactive)
REMARK    1  A    between atoms: C7_7  and  C11_11 
ROOT
HETATM    1  C1  UNL     1     -32.948  17.828  -2.045  1.00 20.00     0.127 C 
HETATM    2  C2  UNL     1     -33.262  19.006  -2.940  1.00 20.00     0.078 C 
HETATM    3  C3  UNL     1     -33.553  16.477  -2.345  1.00 20.00     0.079 C 
HETATM    4  C4  UNL     1     -34.676  19.001  -3.507  1.00 20.00     0.008 C 
HETATM    5  C5  UNL     1     -33.570  16.118  -3.827  1.00 20.00     0.013 C 
HETATM    6  C6  UNL     1     -34.805  18.165  -4.780  1.00 20.00     0.006 C 
HETATM    7  C7  UNL     1     -34.813  16.645  -4.563  1.00 20.00    -0.007 C 
HETATM    8  O12 UNL     1     -32.198  17.972  -1.077  1.00 20.00    -0.298 OA
ENDROOT
BRANCH   7   9
HETATM    9  C11 UNL     1     -34.941  15.945  -5.922  1.00 20.00    -0.048 C 
HETATM   10  C8  UNL     1     -36.252  15.147  -5.968  1.00 20.00     0.015 C 
HETATM   11  C9  UNL     1     -33.754  14.990  -6.121  1.00 20.00     0.015 C 
HETATM   12  C10 UNL     1     -34.943  16.996  -7.042  1.00 20.00     0.015 C 
ENDBRANCH   7   9
TORSDOF 1
ENDMDL
