MODEL 1
REMARK VINA RESULT:      -5.8      0.000      0.000
REMARK  0 active torsions:
REMARK  status: ('A' for Active; 'I' for Inactive)
ROOT
HETATM    1  C1  UNL     1     -32.687   5.979   2.720  1.00 20.00    -0.002 A 
HETATM    2  C2  UNL     1     -32.206   7.238   3.214  1.00 20.00     0.010 A 
HETATM    3  C3  UNL     1     -33.665   5.312   3.341  1.00 20.00    -0.010 A 
HETATM    4  C4  UNL     1     -32.687   7.833   4.313  1.00 20.00    -0.015 A 
HETATM    5  C5  UNL     1     -33.785   7.162   5.080  1.00 20.00     0.166 A 
HETATM    6  C6  UNL     1     -34.342   5.806   4.595  1.00 20.00     0.035 A 
HETATM    7  C7  UNL     1     -32.181   9.145   4.824  1.00 20.00     0.052 C 
HETATM    8  C8  UNL     1     -35.842   5.980   4.316  1.00 20.00     0.027 C 
HETATM    9  C9  UNL     1     -34.131   4.777   5.715  1.00 20.00     0.027 C 
HETATM   10  O10 UNL     1     -34.232   7.705   6.092  1.00 20.00    -0.292 OA
ENDROOT
TORSDOF 0
ENDMDL
MODEL 2
REMARK VINA RESULT:      -5.1      1.513      2.648
REMARK  0 active torsions:
REMARK  status: ('A' for Active; 'I' for Inactive)
ROOT
HETATM    1  C1  UNL     1     -33.668   8.156   5.884  1.00 20.00    -0.002 A 
HETATM    2  C2  UNL     1     -32.810   8.357   4.750  1.00 20.00     0.010 A 
HETATM    3  C3  UNL     1     -34.409   7.051   6.013  1.00 20.00    -0.010 A 
HETATM    4  C4  UNL     1     -32.687   7.474   3.751  1.00 20.00    -0.015 A 
HETATM    5  C5  UNL     1     -33.479   6.204   3.804  1.00 20.00     0.166 A 
HETATM    6  C6  UNL     1     -34.418   5.933   5.000  1.00 20.00     0.035 A 
HETATM    7  C7  UNL     1     -31.792   7.689   2.571  1.00 20.00     0.052 C 
HETATM    8  C8  UNL     1     -33.957   4.638   5.684  1.00 20.00     0.027 C 
HETATM    9  C9  UNL     1     -35.844   5.763   4.457  1.00 20.00     0.027 C 
HETATM   10  O10 UNL     1     -33.370   5.387   2.887  1.00 20.00    -0.292 OA
ENDROOT
TORSDOF 0
ENDMDL
MODEL 3
REMARK VINA RESULT:      -4.3      1.067      3.141
REMARK  0 active torsions:
REMARK  status: ('A' for Active; 'I' for Inactive)
ROOT
HETATM    1  C1  UNL     1     -33.145   5.296   2.862  1.00 20.00    -0.002 A 
HETATM    2  C2  UNL     1     -33.954   5.104   4.032  1.00 20.00     0.010 A 
HETATM    3  C3  UNL     1     -32.530   6.457   2.619  1.00 20.00    -0.010 A 
HETATM    4  C4  UNL     1     -34.154   6.054   4.956  1.00 20.00    -0.015 A 
HETATM    5  C5  UNL     1     -33.506   7.393   4.771  1.00 20.00     0.166 A 
HETATM    6  C6  UNL     1     -32.625   7.655   3.530  1.00 20.00     0.035 A 
HETATM    7  C7  UNL     1     -34.999   5.850   6.174  1.00 20.00     0.052 C 
HETATM    8  C8  UNL     1     -31.216   8.024   4.017  1.00 20.00     0.027 C 
HETATM    9  C9  UNL     1     -33.237   8.828   2.751  1.00 20.00     0.027 C 
HETATM   10  O10 UNL     1     -33.687   8.271   5.617  1.00 20.00    -0.292 OA
ENDROOT
TORSDOF 0
ENDMDL
MODEL 4
REMARK VINA RESULT:      -4.0      1.679      3.774
REMARK  0 active torsions:
REMARK  status: ('A' for Active; 'I' for Inactive)
ROOT
HETATM    1  C1  UNL     1     -33.663   8.369   5.887  1.00 20.00    -0.002 A 
HETATM    2  C2  UNL     1     -34.289   7.077   5.851  1.00 20.00     0.010 A 
HETATM    3  C3  UNL     1     -32.841   8.775   4.915  1.00 20.00    -0.010 A 
HETATM    4  C4  UNL     1     -34.102   6.193   4.861  1.00 20.00    -0.015 A 
HETATM    5  C5  UNL     1     -33.196   6.557   3.725  1.00 20.00     0.166 A 
HETATM    6  C6  UNL     1     -32.496   7.934   3.712  1.00 20.00     0.035 A 
HETATM    7  C7  UNL     1     -34.755   4.848   4.828  1.00 20.00     0.052 C 
HETATM    8  C8  UNL     1     -32.933   8.677   2.441  1.00 20.00     0.027 C 
HETATM    9  C9  UNL     1     -30.979   7.697   3.686  1.00 20.00     0.027 C 
HETATM   10  O10 UNL     1     -33.020   5.748   2.812  1.00 20.00    -0.292 OA
ENDROOT
TORSDOF 0
ENDMDL
MODEL 5
REMARK VINA RESULT:      -4.0      1.628      3.416
REMARK  0 active torsions:
REMARK  status: ('A' for Active; 'I' for Inactive)
ROOT
HETATM    1  C1  UNL     1     -34.627   5.734   5.671  1.00 20.00    -0.002 A 
HETATM    2  C2  UNL     1     -34.173   4.950   4.558  1.00 20.00     0.010 A 
HETATM    3  C3  UNL     1     -34.322   7.031   5.784  1.00 20.00    -0.010 A 
HETATM    4  C4  UNL     1     -33.423   5.443   3.564  1.00 20.00    -0.015 A 
HETATM    5  C5  UNL     1     -33.028   6.888   3.601  1.00 20.00     0.166 A 
HETATM    6  C6  UNL     1     -33.487   7.780   4.775  1.00 20.00     0.035 A 
HETATM    7  C7  UNL     1     -32.952   4.621   2.406  1.00 20.00     0.052 C 
HETATM    8  C8  UNL     1     -34.320   8.934   4.198  1.00 20.00     0.027 C 
HETATM    9  C9  UNL     1     -32.236   8.331   5.472  1.00 20.00     0.027 C 
HETATM   10  O10 UNL     1     -32.338   7.347   2.689  1.00 20.00    -0.292 OA
ENDROOT
TORSDOF 0
ENDMDL
MODEL 6
REMARK VINA RESULT:      -3.9      1.592      2.952
REMARK  0 active torsions:
REMARK  status: ('A' for Active; 'I' for Inactive)
ROOT
HETATM    1  C1  UNL     1     -32.676   7.828   3.651  1.00 20.00    -0.002 A 
HETATM    2  C2  UNL     1     -32.318   6.730   2.798  1.00 20.00     0.010 A 
HETATM    3  C3  UNL     1     -33.554   7.682   4.648  1.00 20.00    -0.010 A 
HETATM    4  C4  UNL     1     -32.826   5.497   2.928  1.00 20.00    -0.015 A 
HETATM    5  C5  UNL     1     -33.820   5.234   4.018  1.00 20.00     0.166 A 
HETATM    6  C6  UNL     1     -34.241   6.377   4.966  1.00 20.00     0.035 A 
HETATM    7  C7  UNL     1     -32.451   4.357   2.035  1.00 20.00     0.052 C 
HETATM    8  C8  UNL     1     -33.884   5.962   6.400  1.00 20.00     0.027 C 
HETATM    9  C9  UNL     1     -35.759   6.568   4.836  1.00 20.00     0.027 C 
HETATM   10  O10 UNL     1     -34.290   4.101   4.142  1.00 20.00    -0.292 OA
ENDROOT
TORSDOF 0
ENDMDL
MODEL 7
REMARK VINA RESULT:      -3.8     12.559     13.649
REMARK  0 active torsions:
REMARK  status: ('A' for Active; 'I' for Inactive)
ROOT
HETATM    1  C1  UNL     1     -33.672  14.793  -5.098  1.00 20.00    -0.002 A 
HETATM    2  C2  UNL     1     -33.263  15.329  -3.831  1.00 20.00     0.010 A 
HETATM    3  C3  UNL     1     -34.485  15.470  -5.914  1.00 20.00    -0.010 A 
HETATM    4  C4  UNL     1     -33.655  16.526  -3.374  1.00 20.00    -0.015 A 
HETATM    5  C5  UNL     1     -34.568  17.361  -4.218  1.00 20.00     0.166 A 
HETATM    6  C6  UNL     1     -35.041  16.834  -5.590  1.00 20.00     0.035 A 
HETATM    7  C7  UNL     1     -33.226  17.080  -2.052  1.00 20.00     0.052 C 
HETATM    8  C8  UNL     1     -34.580  17.829  -6.666  1.00 20.00     0.027 C 
HETATM    9  C9  UNL     1     -36.574  16.757  -5.568  1.00 20.00     0.027 C 
HETATM   10  O10 UNL     1     -34.932  18.463  -3.803  1.00 20.00    -0.292 OA
ENDROOT
TORSDOF 0
ENDMDL
MODEL 8
REMARK VINA RESULT:      -3.8      9.985     11.114
REMARK  0 active torsions:
REMARK  status: ('A' for Active; 'I' for Inactive)
ROOT
HETATM    1  C1  UNL     1     -42.039  14.360   4.886  1.00 20.00    -0.002 A 
HETATM    2  C2  UNL     1     -41.088  13.285   4.936  1.00 20.00     0.010 A 
HETATM    3  C3  UNL     1     -42.283  15.127   5.953  1.00 20.00    -0.010 A 
HETATM    4  C4  UNL     1     -40.386  12.970   6.032  1.00 20.00    -0.015 A 
HETATM    5  C5  UNL     1     -40.591  13.772   7.280  1.00 20.00     0.166 A 
HETATM    6  C6  UNL     1     -41.601  14.941   7.285  1.00 20.00     0.035 A 
HETATM    7  C7  UNL     1     -39.397  11.848   6.079  1.00 20.00     0.052 C 
HETATM    8  C8  UNL     1     -40.839  16.227   7.638  1.00 20.00     0.027 C 
HETATM    9  C9  UNL     1     -42.663  14.648   8.354  1.00 20.00     0.027 C 
HETATM   10  O10 UNL     1     -39.947  13.487   8.292  1.00 20.00    -0.292 OA
ENDROOT
TORSDOF 0
ENDMDL
MODEL 9
REMARK VINA RESULT:      -3.7     12.543     13.611
REMARK  0 active torsions:
REMARK  status: ('A' for Active; 'I' for Inactive)
ROOT
HETATM    1  C1  UNL     1     -33.292  15.816  -3.416  1.00 20.00    -0.002 A 
HETATM    2  C2  UNL     1     -33.834  17.140  -3.296  1.00 20.00     0.010 A 
HETATM    3  C3  UNL     1     -33.683  14.985  -4.388  1.00 20.00    -0.010 A 
HETATM    4  C4  UNL     1     -34.757  17.639  -4.129  1.00 20.00    -0.015 A 
HETATM    5  C5  UNL     1     -35.261  16.783  -5.250  1.00 20.00     0.166 A 
HETATM    6  C6  UNL     1     -34.713  15.350  -5.428  1.00 20.00     0.035 A 
HETATM    7  C7  UNL     1     -35.320  19.019  -3.998  1.00 20.00     0.052 C 
HETATM    8  C8  UNL     1     -34.070  15.256  -6.819  1.00 20.00     0.027 C 
HETATM    9  C9  UNL     1     -35.893  14.372  -5.327  1.00 20.00     0.027 C 
HETATM   10  O10 UNL     1     -36.110  17.236  -6.019  1.00 20.00    -0.292 OA
ENDROOT
TORSDOF 0
ENDMDL
