MODEL 1
REMARK VINA RESULT:      -3.7      0.000      0.000
REMARK  0 active torsions:
REMARK  status: ('A' for Active; 'I' for Inactive)
ROOT
HETATM    1  C1  UNL     1     -33.203   7.598   4.923  1.00 20.00     0.062 C 
HETATM    2  C2  UNL     1     -34.335   5.805   6.254  1.00 20.00     0.113 C 
HETATM    3  C3  UNL     1     -34.413   5.678   4.726  1.00 20.00     0.056 C 
HETATM    4  C4  UNL     1     -32.317   8.748   4.583  1.00 20.00     0.078 C 
HETATM    5  C5  UNL     1     -34.003   4.268   4.289  1.00 20.00     0.041 C 
HETATM    6  C6  UNL     1     -35.822   5.984   4.195  1.00 20.00     0.041 C 
HETATM    7  N7  UNL     1     -33.464   6.635   4.104  1.00 20.00    -0.277 NA
HETATM    8  S8  UNL     1     -33.887   7.533   6.524  1.00 20.00    -0.113 SA
ENDROOT
TORSDOF 0
ENDMDL
MODEL 2
REMARK VINA RESULT:      -3.4     15.740     16.522
REMARK  0 active torsions:
REMARK  status: ('A' for Active; 'I' for Inactive)
ROOT
HETATM    1  C1  UNL     1     -22.546  17.643   9.662  1.00 20.00     0.062 C 
HETATM    2  C2  UNL     1     -22.750  17.907  12.143  1.00 20.00     0.113 C 
HETATM    3  C3  UNL     1     -23.996  17.399  11.402  1.00 20.00     0.056 C 
HETATM    4  C4  UNL     1     -21.934  17.517   8.308  1.00 20.00     0.078 C 
HETATM    5  C5  UNL     1     -24.546  16.145  12.089  1.00 20.00     0.041 C 
HETATM    6  C6  UNL     1     -25.099  18.466  11.335  1.00 20.00     0.041 C 
HETATM    7  N7  UNL     1     -23.624  17.026  10.015  1.00 20.00    -0.277 NA
HETATM    8  S8  UNL     1     -21.738  18.640  10.839  1.00 20.00    -0.113 SA
ENDROOT
TORSDOF 0
ENDMDL
MODEL 3
REMARK VINA RESULT:      -3.4     15.596     16.737
REMARK  0 active torsions:
REMARK  status: ('A' for Active; 'I' for Inactive)
ROOT
HETATM    1  C1  UNL     1     -23.767  17.411  10.369  1.00 20.00     0.062 C 
HETATM    2  C2  UNL     1     -23.627  19.063   8.493  1.00 20.00     0.113 C 
HETATM    3  C3  UNL     1     -22.343  18.288   8.822  1.00 20.00     0.056 C 
HETATM    4  C4  UNL     1     -24.344  16.499  11.398  1.00 20.00     0.078 C 
HETATM    5  C5  UNL     1     -21.745  17.686   7.546  1.00 20.00     0.041 C 
HETATM    6  C6  UNL     1     -21.293  19.178   9.503  1.00 20.00     0.041 C 
HETATM    7  N7  UNL     1     -22.667  17.166   9.738  1.00 20.00    -0.277 NA
HETATM    8  S8  UNL     1     -24.647  18.860   9.969  1.00 20.00    -0.113 SA
ENDROOT
TORSDOF 0
ENDMDL
MODEL 4
REMARK VINA RESULT:      -3.2     12.989     13.815
REMARK  0 active torsions:
REMARK  status: ('A' for Active; 'I' for Inactive)
ROOT
HETATM    1  C1  UNL     1     -33.401  16.814  -3.168  1.00 20.00     0.062 C 
HETATM    2  C2  UNL     1     -32.784  19.213  -2.805  1.00 20.00     0.113 C 
HETATM    3  C3  UNL     1     -32.931  18.344  -1.547  1.00 20.00     0.056 C 
HETATM    4  C4  UNL     1     -33.622  15.509  -3.853  1.00 20.00     0.078 C 
HETATM    5  C5  UNL     1     -31.707  18.511  -0.641  1.00 20.00     0.041 C 
HETATM    6  C6  UNL     1     -34.200  18.692  -0.753  1.00 20.00     0.041 C 
HETATM    7  N7  UNL     1     -33.007  16.916  -1.942  1.00 20.00    -0.277 NA
HETATM    8  S8  UNL     1     -33.647  18.275  -4.084  1.00 20.00    -0.113 SA
ENDROOT
TORSDOF 0
ENDMDL
MODEL 5
REMARK VINA RESULT:      -3.2     15.824     16.734
REMARK  0 active torsions:
REMARK  status: ('A' for Active; 'I' for Inactive)
ROOT
HETATM    1  C1  UNL     1     -24.203  17.584  11.363  1.00 20.00     0.062 C 
HETATM    2  C2  UNL     1     -22.230  18.939  10.630  1.00 20.00     0.113 C 
HETATM    3  C3  UNL     1     -23.042  18.255   9.521  1.00 20.00     0.056 C 
HETATM    4  C4  UNL     1     -25.294  17.043  12.222  1.00 20.00     0.078 C 
HETATM    5  C5  UNL     1     -23.391  19.262   8.420  1.00 20.00     0.041 C 
HETATM    6  C6  UNL     1     -22.286  17.070   8.902  1.00 20.00     0.041 C 
HETATM    7  N7  UNL     1     -24.317  17.748  10.087  1.00 20.00    -0.277 NA
HETATM    8  S8  UNL     1     -22.711  18.057  12.129  1.00 20.00    -0.113 SA
ENDROOT
TORSDOF 0
ENDMDL
MODEL 6
REMARK VINA RESULT:      -3.1     12.991     14.119
REMARK  0 active torsions:
REMARK  status: ('A' for Active; 'I' for Inactive)
ROOT
HETATM    1  C1  UNL     1     -33.834  16.285  -3.879  1.00 20.00     0.062 C 
HETATM    2  C2  UNL     1     -34.054  15.080  -6.062  1.00 20.00     0.113 C 
HETATM    3  C3  UNL     1     -34.843  16.390  -5.919  1.00 20.00     0.056 C 
HETATM    4  C4  UNL     1     -33.307  16.688  -2.544  1.00 20.00     0.078 C 
HETATM    5  C5  UNL     1     -34.586  17.299  -7.126  1.00 20.00     0.041 C 
HETATM    6  C6  UNL     1     -36.353  16.140  -5.784  1.00 20.00     0.041 C 
HETATM    7  N7  UNL     1     -34.381  17.112  -4.707  1.00 20.00    -0.277 NA
HETATM    8  S8  UNL     1     -33.663  14.620  -4.361  1.00 20.00    -0.113 SA
ENDROOT
TORSDOF 0
ENDMDL
MODEL 7
REMARK VINA RESULT:      -3.1     10.027     10.723
REMARK  0 active torsions:
REMARK  status: ('A' for Active; 'I' for Inactive)
ROOT
HETATM    1  C1  UNL     1     -40.407  12.861   6.370  1.00 20.00     0.062 C 
HETATM    2  C2  UNL     1     -41.518  15.086   6.660  1.00 20.00     0.113 C 
HETATM    3  C3  UNL     1     -41.071  14.370   7.943  1.00 20.00     0.056 C 
HETATM    4  C4  UNL     1     -39.712  11.712   5.724  1.00 20.00     0.078 C 
HETATM    5  C5  UNL     1     -40.264  15.325   8.829  1.00 20.00     0.041 C 
HETATM    6  C6  UNL     1     -42.264  13.823   8.741  1.00 20.00     0.041 C 
HETATM    7  N7  UNL     1     -40.187  13.232   7.588  1.00 20.00    -0.277 NA
HETATM    8  S8  UNL     1     -41.543  13.776   5.417  1.00 20.00    -0.113 SA
ENDROOT
TORSDOF 0
ENDMDL
MODEL 8
REMARK VINA RESULT:      -3.1     13.112     13.759
REMARK  0 active torsions:
REMARK  status: ('A' for Active; 'I' for Inactive)
ROOT
HETATM    1  C1  UNL     1     -33.891  16.577  -3.738  1.00 20.00     0.062 C 
HETATM    2  C2  UNL     1     -35.622  16.801  -5.533  1.00 20.00     0.113 C 
HETATM    3  C3  UNL     1     -34.917  15.440  -5.425  1.00 20.00     0.056 C 
HETATM    4  C4  UNL     1     -33.096  16.862  -2.510  1.00 20.00     0.078 C 
HETATM    5  C5  UNL     1     -35.950  14.309  -5.398  1.00 20.00     0.041 C 
HETATM    6  C6  UNL     1     -33.940  15.206  -6.587  1.00 20.00     0.041 C 
HETATM    7  N7  UNL     1     -34.153  15.382  -4.155  1.00 20.00    -0.277 NA
HETATM    8  S8  UNL     1     -34.534  17.926  -4.633  1.00 20.00    -0.113 SA
ENDROOT
TORSDOF 0
ENDMDL
MODEL 9
REMARK VINA RESULT:      -3.0      9.881     10.389
REMARK  0 active torsions:
REMARK  status: ('A' for Active; 'I' for Inactive)
ROOT
HETATM    1  C1  UNL     1     -40.872  14.407   7.834  1.00 20.00     0.062 C 
HETATM    2  C2  UNL     1     -42.127  12.484   6.838  1.00 20.00     0.113 C 
HETATM    3  C3  UNL     1     -41.029  13.111   5.967  1.00 20.00     0.056 C 
HETATM    4  C4  UNL     1     -40.339  15.365   8.845  1.00 20.00     0.078 C 
HETATM    5  C5  UNL     1     -40.104  12.022   5.414  1.00 20.00     0.041 C 
HETATM    6  C6  UNL     1     -41.615  13.920   4.800  1.00 20.00     0.041 C 
HETATM    7  N7  UNL     1     -40.204  14.023   6.798  1.00 20.00    -0.277 NA
HETATM    8  S8  UNL     1     -42.462  13.742   8.089  1.00 20.00    -0.113 SA
ENDROOT
TORSDOF 0
ENDMDL
