MODEL 1
REMARK VINA RESULT:      -3.7      0.000      0.000
REMARK  1 active torsions:
REMARK  status: ('A' for Active; 'I' for Inactive)
REMARK    1  A    between atoms: C6_6  and  C10_10 
ROOT
HETATM    1  C1  UNL     1     -33.490  15.953  -3.020  1.00 20.00     0.052 C 
HETATM    2  C2  UNL     1     -33.343  17.286  -3.066  1.00 20.00    -0.080 C 
HETATM    3  C3  UNL     1     -33.975  15.205  -4.205  1.00 20.00     0.149 C 
HETATM    4  C4  UNL     1     -33.701  18.109  -4.278  1.00 20.00     0.039 C 
HETATM    5  C5  UNL     1     -34.219  15.963  -5.492  1.00 20.00     0.088 C 
HETATM    6  C6  UNL     1     -34.667  17.402  -5.239  1.00 20.00     0.000 C 
HETATM    7  C7  UNL     1     -32.795  18.050  -1.895  1.00 20.00     0.043 C 
HETATM    8  O11 UNL     1     -34.112  13.984  -4.141  1.00 20.00    -0.293 OA
ENDROOT
BRANCH   6   9
HETATM    9  C10 UNL     1     -36.112  17.454  -4.726  1.00 20.00    -0.018 C 
HETATM   10  C8  UNL     1     -36.542  18.899  -4.477  1.00 20.00     0.010 C 
HETATM   11  C9  UNL     1     -37.058  16.774  -5.713  1.00 20.00     0.010 C 
ENDBRANCH   6   9
TORSDOF 1
ENDMDL
MODEL 2
REMARK VINA RESULT:      -3.7      2.043      3.814
REMARK  1 active torsions:
REMARK  status: ('A' for Active; 'I' for Inactive)
REMARK    1  A    between atoms: C6_6  and  C10_10 
ROOT
HETATM    1  C1  UNL     1     -34.947  16.351  -7.798  1.00 20.00     0.052 C 
HETATM    2  C2  UNL     1     -34.577  17.485  -7.184  1.00 20.00    -0.080 C 
HETATM    3  C3  UNL     1     -35.737  15.325  -7.077  1.00 20.00     0.149 C 
HETATM    4  C4  UNL     1     -34.886  17.772  -5.736  1.00 20.00     0.039 C 
HETATM    5  C5  UNL     1     -36.193  15.620  -5.664  1.00 20.00     0.088 C 
HETATM    6  C6  UNL     1     -35.207  16.516  -4.914  1.00 20.00     0.000 C 
HETATM    7  C7  UNL     1     -33.829  18.561  -7.918  1.00 20.00     0.043 C 
HETATM    8  O11 UNL     1     -36.059  14.287  -7.654  1.00 20.00    -0.293 OA
ENDROOT
BRANCH   6   9
HETATM    9  C10 UNL     1     -33.934  15.748  -4.534  1.00 20.00    -0.018 C 
HETATM   10  C8  UNL     1     -33.219  16.436  -3.372  1.00 20.00     0.010 C 
HETATM   11  C9  UNL     1     -34.265  14.300  -4.180  1.00 20.00     0.010 C 
ENDBRANCH   6   9
TORSDOF 1
ENDMDL
MODEL 3
REMARK VINA RESULT:      -3.6     12.067     13.719
REMARK  1 active torsions:
REMARK  status: ('A' for Active; 'I' for Inactive)
REMARK    1  A    between atoms: C6_6  and  C10_10 
ROOT
HETATM    1  C1  UNL     1     -33.533   7.228   6.300  1.00 20.00     0.052 C 
HETATM    2  C2  UNL     1     -34.289   6.194   5.901  1.00 20.00    -0.080 C 
HETATM    3  C3  UNL     1     -33.218   8.338   5.369  1.00 20.00     0.149 C 
HETATM    4  C4  UNL     1     -34.819   6.061   4.495  1.00 20.00     0.039 C 
HETATM    5  C5  UNL     1     -33.837   8.324   3.987  1.00 20.00     0.088 C 
HETATM    6  C6  UNL     1     -34.053   6.904   3.465  1.00 20.00     0.000 C 
HETATM    7  C7  UNL     1     -34.668   5.093   6.849  1.00 20.00     0.043 C 
HETATM    8  O11 UNL     1     -32.515   9.273   5.750  1.00 20.00    -0.293 OA
ENDROOT
BRANCH   6   9
HETATM    9  C10 UNL     1     -32.724   6.245   3.072  1.00 20.00    -0.018 C 
HETATM   10  C8  UNL     1     -32.971   4.883   2.427  1.00 20.00     0.010 C 
HETATM   11  C9  UNL     1     -31.934   7.151   2.130  1.00 20.00     0.010 C 
ENDBRANCH   6   9
TORSDOF 1
ENDMDL
MODEL 4
REMARK VINA RESULT:      -3.4      1.615      2.208
REMARK  1 active torsions:
REMARK  status: ('A' for Active; 'I' for Inactive)
REMARK    1  A    between atoms: C6_6  and  C10_10 
ROOT
HETATM    1  C1  UNL     1     -34.717  15.012  -5.304  1.00 20.00     0.052 C 
HETATM    2  C2  UNL     1     -34.259  16.078  -4.629  1.00 20.00    -0.080 C 
HETATM    3  C3  UNL     1     -35.591  15.186  -6.488  1.00 20.00     0.149 C 
HETATM    4  C4  UNL     1     -34.631  17.495  -4.985  1.00 20.00     0.039 C 
HETATM    5  C5  UNL     1     -35.886  16.590  -6.973  1.00 20.00     0.088 C 
HETATM    6  C6  UNL     1     -35.909  17.603  -5.829  1.00 20.00     0.000 C 
HETATM    7  C7  UNL     1     -33.324  15.920  -3.465  1.00 20.00     0.043 C 
HETATM    8  O11 UNL     1     -36.009  14.197  -7.088  1.00 20.00    -0.293 OA
ENDROOT
BRANCH   6   9
HETATM    9  C10 UNL     1     -37.169  17.444  -4.969  1.00 20.00    -0.018 C 
HETATM   10  C8  UNL     1     -37.160  18.444  -3.814  1.00 20.00     0.010 C 
HETATM   11  C9  UNL     1     -38.426  17.616  -5.819  1.00 20.00     0.010 C 
ENDBRANCH   6   9
TORSDOF 1
ENDMDL
MODEL 5
REMARK VINA RESULT:      -3.4     12.401     13.216
REMARK  1 active torsions:
REMARK  status: ('A' for Active; 'I' for Inactive)
REMARK    1  A    between atoms: C6_6  and  C10_10 
ROOT
HETATM    1  C1  UNL     1     -41.178  13.352   4.896  1.00 20.00     0.052 C 
HETATM    2  C2  UNL     1     -42.021  14.389   4.780  1.00 20.00    -0.080 C 
HETATM    3  C3  UNL     1     -40.913  12.738   6.220  1.00 20.00     0.149 C 
HETATM    4  C4  UNL     1     -42.705  15.026   5.964  1.00 20.00     0.039 C 
HETATM    5  C5  UNL     1     -41.678  13.248   7.423  1.00 20.00     0.088 C 
HETATM    6  C6  UNL     1     -42.017  14.734   7.305  1.00 20.00     0.000 C 
HETATM    7  C7  UNL     1     -42.347  14.983   3.440  1.00 20.00     0.043 C 
HETATM    8  O11 UNL     1     -40.130  11.793   6.307  1.00 20.00    -0.293 OA
ENDROOT
BRANCH   6   9
HETATM    9  C10 UNL     1     -40.771  15.607   7.502  1.00 20.00    -0.018 C 
HETATM   10  C8  UNL     1     -41.098  17.076   7.238  1.00 20.00     0.010 C 
HETATM   11  C9  UNL     1     -40.205  15.427   8.908  1.00 20.00     0.010 C 
ENDBRANCH   6   9
TORSDOF 1
ENDMDL
MODEL 6
REMARK VINA RESULT:      -3.4     11.994     13.609
REMARK  1 active torsions:
REMARK  status: ('A' for Active; 'I' for Inactive)
REMARK    1  A    between atoms: C6_6  and  C10_10 
ROOT
HETATM    1  C1  UNL     1     -32.326   6.977   3.123  1.00 20.00     0.052 C 
HETATM    2  C2  UNL     1     -32.876   8.055   3.702  1.00 20.00    -0.080 C 
HETATM    3  C3  UNL     1     -33.064   5.692   3.061  1.00 20.00     0.149 C 
HETATM    4  C4  UNL     1     -34.232   8.028   4.363  1.00 20.00     0.039 C 
HETATM    5  C5  UNL     1     -34.483   5.645   3.586  1.00 20.00     0.088 C 
HETATM    6  C6  UNL     1     -34.703   6.618   4.744  1.00 20.00     0.000 C 
HETATM    7  C7  UNL     1     -32.167   9.378   3.719  1.00 20.00     0.043 C 
HETATM    8  O11 UNL     1     -32.539   4.713   2.534  1.00 20.00    -0.293 OA
ENDROOT
BRANCH   6   9
HETATM    9  C10 UNL     1     -34.022   6.122   6.027  1.00 20.00    -0.018 C 
HETATM   10  C8  UNL     1     -33.873   7.263   7.031  1.00 20.00     0.010 C 
HETATM   11  C9  UNL     1     -34.808   4.965   6.640  1.00 20.00     0.010 C 
ENDBRANCH   6   9
TORSDOF 1
ENDMDL
MODEL 7
REMARK VINA RESULT:      -3.3      1.984      4.250
REMARK  1 active torsions:
REMARK  status: ('A' for Active; 'I' for Inactive)
REMARK    1  A    between atoms: C6_6  and  C10_10 
ROOT
HETATM    1  C1  UNL     1     -36.834  16.737  -5.535  1.00 20.00     0.052 C 
HETATM    2  C2  UNL     1     -35.805  16.319  -6.288  1.00 20.00    -0.080 C 
HETATM    3  C3  UNL     1     -36.625  17.736  -4.459  1.00 20.00     0.149 C 
HETATM    4  C4  UNL     1     -34.387  16.782  -6.069  1.00 20.00     0.039 C 
HETATM    5  C5  UNL     1     -35.248  18.338  -4.285  1.00 20.00     0.088 C 
HETATM    6  C6  UNL     1     -34.137  17.361  -4.669  1.00 20.00     0.000 C 
HETATM    7  C7  UNL     1     -36.010  15.354  -7.421  1.00 20.00     0.043 C 
HETATM    8  O11 UNL     1     -37.579  18.101  -3.773  1.00 20.00    -0.293 OA
ENDROOT
BRANCH   6   9
HETATM    9  C10 UNL     1     -33.982  16.253  -3.619  1.00 20.00    -0.018 C 
HETATM   10  C8  UNL     1     -33.112  15.119  -4.161  1.00 20.00     0.010 C 
HETATM   11  C9  UNL     1     -33.390  16.814  -2.329  1.00 20.00     0.010 C 
ENDBRANCH   6   9
TORSDOF 1
ENDMDL
MODEL 8
REMARK VINA RESULT:      -3.1      2.006      3.768
REMARK  1 active torsions:
REMARK  status: ('A' for Active; 'I' for Inactive)
REMARK    1  A    between atoms: C6_6  and  C10_10 
ROOT
HETATM    1  C1  UNL     1     -35.132  16.641  -4.973  1.00 20.00     0.052 C 
HETATM    2  C2  UNL     1     -34.272  15.813  -4.361  1.00 20.00    -0.080 C 
HETATM    3  C3  UNL     1     -34.984  18.112  -4.849  1.00 20.00     0.149 C 
HETATM    4  C4  UNL     1     -33.149  16.303  -3.481  1.00 20.00     0.039 C 
HETATM    5  C5  UNL     1     -33.794  18.660  -4.090  1.00 20.00     0.088 C 
HETATM    6  C6  UNL     1     -33.353  17.732  -2.959  1.00 20.00     0.000 C 
HETATM    7  C7  UNL     1     -34.371  14.324  -4.526  1.00 20.00     0.043 C 
HETATM    8  O11 UNL     1     -35.788  18.854  -5.410  1.00 20.00    -0.293 OA
ENDROOT
BRANCH   6   9
HETATM    9  C10 UNL     1     -34.344  17.770  -1.788  1.00 20.00    -0.018 C 
HETATM   10  C8  UNL     1     -33.609  17.608  -0.458  1.00 20.00     0.010 C 
HETATM   11  C9  UNL     1     -35.145  19.069  -1.804  1.00 20.00     0.010 C 
ENDBRANCH   6   9
TORSDOF 1
ENDMDL
MODEL 9
REMARK VINA RESULT:      -3.0     13.618     14.326
REMARK  1 active torsions:
REMARK  status: ('A' for Active; 'I' for Inactive)
REMARK    1  A    between atoms: C6_6  and  C10_10 
ROOT
HETATM    1  C1  UNL     1     -42.386  15.280   9.248  1.00 20.00     0.052 C 
HETATM    2  C2  UNL     1     -42.376  16.092   8.180  1.00 20.00    -0.080 C 
HETATM    3  C3  UNL     1     -41.316  14.270   9.440  1.00 20.00     0.149 C 
HETATM    4  C4  UNL     1     -41.332  16.006   7.095  1.00 20.00     0.039 C 
HETATM    5  C5  UNL     1     -40.169  14.233   8.454  1.00 20.00     0.088 C 
HETATM    6  C6  UNL     1     -40.598  14.658   7.050  1.00 20.00     0.000 C 
HETATM    7  C7  UNL     1     -43.417  17.159   8.003  1.00 20.00     0.043 C 
HETATM    8  O11 UNL     1     -41.348  13.529  10.421  1.00 20.00    -0.293 OA
ENDROOT
BRANCH   6   9
HETATM    9  C10 UNL     1     -41.449  13.574   6.375  1.00 20.00    -0.018 C 
HETATM   10  C8  UNL     1     -42.166  14.141   5.151  1.00 20.00     0.010 C 
HETATM   11  C9  UNL     1     -40.584  12.378   5.985  1.00 20.00     0.010 C 
ENDBRANCH   6   9
TORSDOF 1
ENDMDL
