MODEL 1
REMARK VINA RESULT:      -3.7      0.000      0.000
REMARK  1 active torsions:
REMARK  status: ('A' for Active; 'I' for Inactive)
REMARK    1  A    between atoms: C3_3  and  C5_5 
ROOT
HETATM    1  C1  UNL     1     -34.532   5.718   6.340  1.00 20.00     0.179 C 
HETATM    2  C2  UNL     1     -33.690   7.059   5.016  1.00 20.00     0.179 C 
HETATM    3  C3  UNL     1     -34.543   5.794   4.802  1.00 20.00     0.011 C 
HETATM    4  C4  UNL     1     -35.919   6.068   4.206  1.00 20.00     0.020 C 
HETATM    5  O6  UNL     1     -33.954   7.042   6.440  1.00 20.00    -0.389 OA
ENDROOT
BRANCH   3   6
HETATM    6  C5  UNL     1     -33.824   4.649   4.102  1.00 20.00     0.128 C 
HETATM    7 CL7  UNL     1     -32.950   5.251   2.679  1.00 20.00    -0.130 Cl
ENDBRANCH   3   6
TORSDOF 1
ENDMDL
MODEL 2
REMARK VINA RESULT:      -3.6      2.132      2.735
REMARK  1 active torsions:
REMARK  status: ('A' for Active; 'I' for Inactive)
REMARK    1  A    between atoms: C3_3  and  C5_5 
ROOT
HETATM    1  C1  UNL     1     -35.445   6.017   4.515  1.00 20.00     0.179 C 
HETATM    2  C2  UNL     1     -33.843   4.892   5.171  1.00 20.00     0.179 C 
HETATM    3  C3  UNL     1     -34.081   6.412   5.110  1.00 20.00     0.011 C 
HETATM    4  C4  UNL     1     -34.172   7.080   6.476  1.00 20.00     0.020 C 
HETATM    5  O6  UNL     1     -35.230   4.624   4.850  1.00 20.00    -0.389 OA
ENDROOT
BRANCH   3   6
HETATM    6  C5  UNL     1     -33.163   7.164   4.155  1.00 20.00     0.128 C 
HETATM    7 CL7  UNL     1     -32.535   8.630   4.933  1.00 20.00    -0.130 Cl
ENDBRANCH   3   6
TORSDOF 1
ENDMDL
MODEL 3
REMARK VINA RESULT:      -3.3      1.851      2.510
REMARK  1 active torsions:
REMARK  status: ('A' for Active; 'I' for Inactive)
REMARK    1  A    between atoms: C3_3  and  C5_5 
ROOT
HETATM    1  C1  UNL     1     -34.027   5.206   5.675  1.00 20.00     0.179 C 
HETATM    2  C2  UNL     1     -35.491   5.942   4.419  1.00 20.00     0.179 C 
HETATM    3  C3  UNL     1     -33.981   6.228   4.524  1.00 20.00     0.011 C 
HETATM    4  C4  UNL     1     -33.177   5.762   3.316  1.00 20.00     0.020 C 
HETATM    5  O6  UNL     1     -35.380   4.821   5.331  1.00 20.00    -0.389 OA
ENDROOT
BRANCH   3   6
HETATM    6  C5  UNL     1     -33.628   7.648   4.945  1.00 20.00     0.128 C 
HETATM    7 CL7  UNL     1     -32.122   8.165   4.161  1.00 20.00    -0.130 Cl
ENDBRANCH   3   6
TORSDOF 1
ENDMDL
MODEL 4
REMARK VINA RESULT:      -3.2      1.743      1.990
REMARK  1 active torsions:
REMARK  status: ('A' for Active; 'I' for Inactive)
REMARK    1  A    between atoms: C3_3  and  C5_5 
ROOT
HETATM    1  C1  UNL     1     -34.052   4.722   5.303  1.00 20.00     0.179 C 
HETATM    2  C2  UNL     1     -34.358   6.484   6.333  1.00 20.00     0.179 C 
HETATM    3  C3  UNL     1     -34.389   6.148   4.830  1.00 20.00     0.011 C 
HETATM    4  C4  UNL     1     -35.767   6.279   4.194  1.00 20.00     0.020 C 
HETATM    5  O6  UNL     1     -34.298   5.080   6.684  1.00 20.00    -0.389 OA
ENDROOT
BRANCH   3   6
HETATM    6  C5  UNL     1     -33.301   6.819   4.003  1.00 20.00     0.128 C 
HETATM    7 CL7  UNL     1     -32.615   8.194   4.890  1.00 20.00    -0.130 Cl
ENDBRANCH   3   6
TORSDOF 1
ENDMDL
MODEL 5
REMARK VINA RESULT:      -3.1     13.474     14.042
REMARK  1 active torsions:
REMARK  status: ('A' for Active; 'I' for Inactive)
REMARK    1  A    between atoms: C3_3  and  C5_5 
ROOT
HETATM    1  C1  UNL     1     -34.593  15.104  -6.738  1.00 20.00     0.179 C 
HETATM    2  C2  UNL     1     -35.978  14.392  -5.383  1.00 20.00     0.179 C 
HETATM    3  C3  UNL     1     -34.812  15.389  -5.240  1.00 20.00     0.011 C 
HETATM    4  C4  UNL     1     -35.251  16.817  -4.940  1.00 20.00     0.020 C 
HETATM    5  O6  UNL     1     -35.850  14.392  -6.826  1.00 20.00    -0.389 OA
ENDROOT
BRANCH   3   6
HETATM    6  C5  UNL     1     -33.682  14.925  -4.331  1.00 20.00     0.128 C 
HETATM    7 CL7  UNL     1     -33.403  16.113  -3.043  1.00 20.00    -0.130 Cl
ENDBRANCH   3   6
TORSDOF 1
ENDMDL
MODEL 6
REMARK VINA RESULT:      -3.0      2.367      2.901
REMARK  1 active torsions:
REMARK  status: ('A' for Active; 'I' for Inactive)
REMARK    1  A    between atoms: C3_3  and  C5_5 
ROOT
HETATM    1  C1  UNL     1     -33.397   6.411   3.876  1.00 20.00     0.179 C 
HETATM    2  C2  UNL     1     -33.934   4.420   3.964  1.00 20.00     0.179 C 
HETATM    3  C3  UNL     1     -34.520   5.678   4.633  1.00 20.00     0.011 C 
HETATM    4  C4  UNL     1     -35.922   6.036   4.158  1.00 20.00     0.020 C 
HETATM    5  O6  UNL     1     -33.089   5.225   3.105  1.00 20.00    -0.389 OA
ENDROOT
BRANCH   3   6
HETATM    6  C5  UNL     1     -34.393   5.711   6.150  1.00 20.00     0.128 C 
HETATM    7 CL7  UNL     1     -34.106   7.371   6.707  1.00 20.00    -0.130 Cl
ENDBRANCH   3   6
TORSDOF 1
ENDMDL
MODEL 7
REMARK VINA RESULT:      -3.0     13.506     14.093
REMARK  1 active torsions:
REMARK  status: ('A' for Active; 'I' for Inactive)
REMARK    1  A    between atoms: C3_3  and  C5_5 
ROOT
HETATM    1  C1  UNL     1     -35.953  15.012  -5.650  1.00 20.00     0.179 C 
HETATM    2  C2  UNL     1     -34.110  15.215  -6.558  1.00 20.00     0.179 C 
HETATM    3  C3  UNL     1     -34.562  15.369  -5.093  1.00 20.00     0.011 C 
HETATM    4  C4  UNL     1     -33.984  14.318  -4.153  1.00 20.00     0.020 C 
HETATM    5  O6  UNL     1     -35.387  14.643  -6.931  1.00 20.00    -0.389 OA
ENDROOT
BRANCH   3   6
HETATM    6  C5  UNL     1     -34.442  16.779  -4.533  1.00 20.00     0.128 C 
HETATM    7 CL7  UNL     1     -33.504  16.765  -3.027  1.00 20.00    -0.130 Cl
ENDBRANCH   3   6
TORSDOF 1
ENDMDL
MODEL 8
REMARK VINA RESULT:      -3.0      8.467      9.450
REMARK  1 active torsions:
REMARK  status: ('A' for Active; 'I' for Inactive)
REMARK    1  A    between atoms: C3_3  and  C5_5 
ROOT
HETATM    1  C1  UNL     1     -40.725   6.848   0.563  1.00 20.00     0.179 C 
HETATM    2  C2  UNL     1     -42.168   5.812  -0.489  1.00 20.00     0.179 C 
HETATM    3  C3  UNL     1     -42.233   7.091   0.367  1.00 20.00     0.011 C 
HETATM    4  C4  UNL     1     -42.558   8.351  -0.426  1.00 20.00     0.020 C 
HETATM    5  O6  UNL     1     -40.720   5.819  -0.455  1.00 20.00    -0.389 OA
ENDROOT
BRANCH   3   6
HETATM    6  C5  UNL     1     -43.069   6.970   1.634  1.00 20.00     0.128 C 
HETATM    7 CL7  UNL     1     -43.203   5.269   2.121  1.00 20.00    -0.130 Cl
ENDBRANCH   3   6
TORSDOF 1
ENDMDL
MODEL 9
REMARK VINA RESULT:      -3.0      9.220      9.855
REMARK  1 active torsions:
REMARK  status: ('A' for Active; 'I' for Inactive)
REMARK    1  A    between atoms: C3_3  and  C5_5 
ROOT
HETATM    1  C1  UNL     1     -41.910  12.400   6.677  1.00 20.00     0.179 C 
HETATM    2  C2  UNL     1     -40.471  13.857   6.935  1.00 20.00     0.179 C 
HETATM    3  C3  UNL     1     -41.071  13.211   5.672  1.00 20.00     0.011 C 
HETATM    4  C4  UNL     1     -41.889  14.169   4.815  1.00 20.00     0.020 C 
HETATM    5  O6  UNL     1     -41.477  13.239   7.774  1.00 20.00    -0.389 OA
ENDROOT
BRANCH   3   6
HETATM    6  C5  UNL     1     -40.090  12.388   4.848  1.00 20.00     0.128 C 
HETATM    7 CL7  UNL     1     -38.616  12.071   5.784  1.00 20.00    -0.130 Cl
ENDBRANCH   3   6
TORSDOF 1
ENDMDL
