MODEL 1
REMARK VINA RESULT:      -5.7      0.000      0.000
REMARK  0 active torsions:
REMARK  status: ('A' for Active; 'I' for Inactive)
ROOT
HETATM    1  C1  UNL     1     -34.376   6.840   6.533  1.00 20.00     0.009 A 
HETATM    2  C2  UNL     1     -34.569   5.578   6.137  1.00 20.00     0.074 A 
HETATM    3  C3  UNL     1     -33.718   7.788   5.679  1.00 20.00     0.043 A 
HETATM    4  C4  UNL     1     -33.286   7.412   4.467  1.00 20.00     0.108 A 
HETATM    5  C5  UNL     1     -34.096   5.133   4.793  1.00 20.00     0.248 A 
HETATM    6  C6  UNL     1     -32.969   5.749   2.672  1.00 20.00     0.160 C 
HETATM    7  N7  UNL     1     -33.459   6.109   4.002  1.00 20.00    -0.309 N 
HETATM    8  O8  UNL     1     -34.290   3.963   4.464  1.00 20.00    -0.268 OA
HETATM    9 CL9  UNL     1     -32.497   8.560   3.448  1.00 20.00    -0.064 Cl
ENDROOT
TORSDOF 0
ENDMDL
MODEL 2
REMARK VINA RESULT:      -5.6      2.267      2.764
REMARK  0 active torsions:
REMARK  status: ('A' for Active; 'I' for Inactive)
ROOT
HETATM    1  C1  UNL     1     -34.725   5.594   5.948  1.00 20.00     0.009 A 
HETATM    2  C2  UNL     1     -34.324   6.836   6.237  1.00 20.00     0.074 A 
HETATM    3  C3  UNL     1     -34.341   4.962   4.717  1.00 20.00     0.043 A 
HETATM    4  C4  UNL     1     -33.572   5.618   3.839  1.00 20.00     0.108 A 
HETATM    5  C5  UNL     1     -33.467   7.589   5.274  1.00 20.00     0.248 A 
HETATM    6  C6  UNL     1     -32.287   7.589   3.093  1.00 20.00     0.160 C 
HETATM    7  N7  UNL     1     -33.125   6.916   4.086  1.00 20.00    -0.309 N 
HETATM    8  O8  UNL     1     -33.120   8.731   5.573  1.00 20.00    -0.268 OA
HETATM    9 CL9  UNL     1     -33.115   4.850   2.362  1.00 20.00    -0.064 Cl
ENDROOT
TORSDOF 0
ENDMDL
MODEL 3
REMARK VINA RESULT:      -5.4      2.013      2.903
REMARK  0 active torsions:
REMARK  status: ('A' for Active; 'I' for Inactive)
ROOT
HETATM    1  C1  UNL     1     -32.300   8.521   4.202  1.00 20.00     0.009 A 
HETATM    2  C2  UNL     1     -33.017   8.424   5.325  1.00 20.00     0.074 A 
HETATM    3  C3  UNL     1     -32.283   7.453   3.242  1.00 20.00     0.043 A 
HETATM    4  C4  UNL     1     -32.992   6.338   3.469  1.00 20.00     0.108 A 
HETATM    5  C5  UNL     1     -33.814   7.192   5.602  1.00 20.00     0.248 A 
HETATM    6  C6  UNL     1     -34.512   4.944   4.823  1.00 20.00     0.160 C 
HETATM    7  N7  UNL     1     -33.757   6.181   4.624  1.00 20.00    -0.309 N 
HETATM    8  O8  UNL     1     -34.460   7.138   6.648  1.00 20.00    -0.268 OA
HETATM    9 CL9  UNL     1     -32.966   5.060   2.310  1.00 20.00    -0.064 Cl
ENDROOT
TORSDOF 0
ENDMDL
MODEL 4
REMARK VINA RESULT:      -5.3      1.033      2.622
REMARK  0 active torsions:
REMARK  status: ('A' for Active; 'I' for Inactive)
ROOT
HETATM    1  C1  UNL     1     -32.629   6.077   2.477  1.00 20.00     0.009 A 
HETATM    2  C2  UNL     1     -33.442   5.181   3.044  1.00 20.00     0.074 A 
HETATM    3  C3  UNL     1     -32.314   7.312   3.140  1.00 20.00     0.043 A 
HETATM    4  C4  UNL     1     -32.840   7.579   4.343  1.00 20.00     0.108 A 
HETATM    5  C5  UNL     1     -34.042   5.455   4.383  1.00 20.00     0.248 A 
HETATM    6  C6  UNL     1     -34.244   7.021   6.294  1.00 20.00     0.160 C 
HETATM    7  N7  UNL     1     -33.696   6.681   4.982  1.00 20.00    -0.309 N 
HETATM    8  O8  UNL     1     -34.788   4.607   4.872  1.00 20.00    -0.268 OA
HETATM    9 CL9  UNL     1     -32.456   9.065   5.132  1.00 20.00    -0.064 Cl
ENDROOT
TORSDOF 0
ENDMDL
MODEL 5
REMARK VINA RESULT:      -5.2      1.943      2.851
REMARK  0 active torsions:
REMARK  status: ('A' for Active; 'I' for Inactive)
ROOT
HETATM    1  C1  UNL     1     -32.250   8.346   3.833  1.00 20.00     0.009 A 
HETATM    2  C2  UNL     1     -32.239   7.360   2.931  1.00 20.00     0.074 A 
HETATM    3  C3  UNL     1     -32.981   8.214   5.062  1.00 20.00     0.043 A 
HETATM    4  C4  UNL     1     -33.665   7.090   5.317  1.00 20.00     0.108 A 
HETATM    5  C5  UNL     1     -32.994   6.099   3.191  1.00 20.00     0.248 A 
HETATM    6  C6  UNL     1     -34.452   4.824   4.738  1.00 20.00     0.160 C 
HETATM    7  N7  UNL     1     -33.689   6.029   4.412  1.00 20.00    -0.309 N 
HETATM    8  O8  UNL     1     -32.961   5.214   2.336  1.00 20.00    -0.268 OA
HETATM    9 CL9  UNL     1     -34.540   6.940   6.797  1.00 20.00    -0.064 Cl
ENDROOT
TORSDOF 0
ENDMDL
MODEL 6
REMARK VINA RESULT:      -5.2      1.768      2.601
REMARK  0 active torsions:
REMARK  status: ('A' for Active; 'I' for Inactive)
ROOT
HETATM    1  C1  UNL     1     -34.378   4.766   4.469  1.00 20.00     0.009 A 
HETATM    2  C2  UNL     1     -34.626   5.408   5.615  1.00 20.00     0.074 A 
HETATM    3  C3  UNL     1     -33.577   5.371   3.443  1.00 20.00     0.043 A 
HETATM    4  C4  UNL     1     -33.067   6.596   3.625  1.00 20.00     0.108 A 
HETATM    5  C5  UNL     1     -34.071   6.776   5.842  1.00 20.00     0.248 A 
HETATM    6  C6  UNL     1     -32.715   8.649   4.949  1.00 20.00     0.160 C 
HETATM    7  N7  UNL     1     -33.293   7.314   4.800  1.00 20.00    -0.309 N 
HETATM    8  O8  UNL     1     -34.322   7.337   6.908  1.00 20.00    -0.268 OA
HETATM    9 CL9  UNL     1     -32.105   7.315   2.386  1.00 20.00    -0.064 Cl
ENDROOT
TORSDOF 0
ENDMDL
MODEL 7
REMARK VINA RESULT:      -5.1      2.451      3.031
REMARK  0 active torsions:
REMARK  status: ('A' for Active; 'I' for Inactive)
ROOT
HETATM    1  C1  UNL     1     -33.112   8.554   5.373  1.00 20.00     0.009 A 
HETATM    2  C2  UNL     1     -32.477   8.641   4.201  1.00 20.00     0.074 A 
HETATM    3  C3  UNL     1     -33.811   7.357   5.747  1.00 20.00     0.043 A 
HETATM    4  C4  UNL     1     -33.833   6.307   4.915  1.00 20.00     0.108 A 
HETATM    5  C5  UNL     1     -32.487   7.486   3.255  1.00 20.00     0.248 A 
HETATM    6  C6  UNL     1     -33.242   5.168   2.807  1.00 20.00     0.160 C 
HETATM    7  N7  UNL     1     -33.188   6.341   3.678  1.00 20.00    -0.309 N 
HETATM    8  O8  UNL     1     -31.892   7.604   2.185  1.00 20.00    -0.268 OA
HETATM    9 CL9  UNL     1     -34.675   4.872   5.373  1.00 20.00    -0.064 Cl
ENDROOT
TORSDOF 0
ENDMDL
MODEL 8
REMARK VINA RESULT:      -5.0      2.631      3.893
REMARK  0 active torsions:
REMARK  status: ('A' for Active; 'I' for Inactive)
ROOT
HETATM    1  C1  UNL     1     -32.420   6.588   2.576  1.00 20.00     0.009 A 
HETATM    2  C2  UNL     1     -32.078   7.721   3.195  1.00 20.00     0.074 A 
HETATM    3  C3  UNL     1     -33.339   5.664   3.181  1.00 20.00     0.043 A 
HETATM    4  C4  UNL     1     -33.863   5.933   4.384  1.00 20.00     0.108 A 
HETATM    5  C5  UNL     1     -32.648   8.043   4.537  1.00 20.00     0.248 A 
HETATM    6  C6  UNL     1     -34.141   7.345   6.388  1.00 20.00     0.160 C 
HETATM    7  N7  UNL     1     -33.542   7.099   5.078  1.00 20.00    -0.309 N 
HETATM    8  O8  UNL     1     -32.307   9.095   5.078  1.00 20.00    -0.268 OA
HETATM    9 CL9  UNL     1     -34.966   4.817   5.103  1.00 20.00    -0.064 Cl
ENDROOT
TORSDOF 0
ENDMDL
MODEL 9
REMARK VINA RESULT:      -4.9      2.292      3.263
REMARK  0 active torsions:
REMARK  status: ('A' for Active; 'I' for Inactive)
ROOT
HETATM    1  C1  UNL     1     -33.874   4.741   3.624  1.00 20.00     0.009 A 
HETATM    2  C2  UNL     1     -33.121   5.436   2.767  1.00 20.00     0.074 A 
HETATM    3  C3  UNL     1     -34.263   5.301   4.888  1.00 20.00     0.043 A 
HETATM    4  C4  UNL     1     -33.869   6.537   5.222  1.00 20.00     0.108 A 
HETATM    5  C5  UNL     1     -32.667   6.815   3.116  1.00 20.00     0.248 A 
HETATM    6  C6  UNL     1     -32.677   8.652   4.781  1.00 20.00     0.160 C 
HETATM    7  N7  UNL     1     -33.081   7.309   4.368  1.00 20.00    -0.309 N 
HETATM    8  O8  UNL     1     -31.973   7.424   2.303  1.00 20.00    -0.268 OA
HETATM    9 CL9  UNL     1     -34.342   7.203   6.743  1.00 20.00    -0.064 Cl
ENDROOT
TORSDOF 0
ENDMDL
