MODEL 1
REMARK VINA RESULT:      -5.0      0.000      0.000
REMARK  1 active torsions:
REMARK  status: ('A' for Active; 'I' for Inactive)
REMARK    1  A    between atoms: C3_3  and  C7_7 
ROOT
HETATM    1  C1  UNL     1     -32.602   7.187   2.943  1.00 20.00    -0.082 C 
HETATM    2  C2  UNL     1     -32.825   7.763   4.146  1.00 20.00    -0.081 C 
HETATM    3  C4  UNL     1     -33.053   5.775   2.633  1.00 20.00     0.035 C 
HETATM    4  C5  UNL     1     -33.590   7.054   5.247  1.00 20.00     0.050 C 
HETATM    5  C6  UNL     1     -33.522   4.976   3.848  1.00 20.00     0.021 C 
HETATM    6  C7  UNL     1     -34.388   5.815   4.797  1.00 20.00     0.013 C 
HETATM    7  C8  UNL     1     -31.913   7.859   1.784  1.00 20.00     0.043 C 
HETATM    8  C9  UNL     1     -32.341   9.133   4.545  1.00 20.00     0.043 C 
HETATM    9  C10 UNL     1     -35.720   6.213   4.145  1.00 20.00     0.023 C 
ENDROOT
BRANCH   6  10
HETATM   10  C3  UNL     1     -34.704   4.995   6.023  1.00 20.00     0.240 C 
HETATM   11  O11 UNL     1     -33.998   4.981   7.026  1.00 20.00    -0.306 OA
ENDBRANCH   6  10
TORSDOF 1
ENDMDL
MODEL 2
REMARK VINA RESULT:      -4.1     12.106     13.377
REMARK  1 active torsions:
REMARK  status: ('A' for Active; 'I' for Inactive)
REMARK    1  A    between atoms: C3_3  and  C7_7 
ROOT
HETATM    1  C1  UNL     1     -34.453  17.210  -4.418  1.00 20.00    -0.082 C 
HETATM    2  C2  UNL     1     -33.732  16.339  -3.676  1.00 20.00    -0.081 C 
HETATM    3  C4  UNL     1     -35.055  18.466  -3.821  1.00 20.00     0.035 C 
HETATM    4  C5  UNL     1     -33.431  16.588  -2.210  1.00 20.00     0.050 C 
HETATM    5  C6  UNL     1     -35.017  18.525  -2.295  1.00 20.00     0.021 C 
HETATM    6  C7  UNL     1     -33.681  18.028  -1.726  1.00 20.00     0.013 C 
HETATM    7  C8  UNL     1     -34.729  17.061  -5.891  1.00 20.00     0.043 C 
HETATM    8  C9  UNL     1     -33.168  15.039  -4.187  1.00 20.00     0.043 C 
HETATM    9  C10 UNL     1     -32.522  18.959  -2.109  1.00 20.00     0.023 C 
ENDROOT
BRANCH   6  10
HETATM   10  C3  UNL     1     -33.772  18.003  -0.221  1.00 20.00     0.240 C 
HETATM   11  O11 UNL     1     -32.842  18.313   0.516  1.00 20.00    -0.306 OA
ENDBRANCH   6  10
TORSDOF 1
ENDMDL
MODEL 3
REMARK VINA RESULT:      -4.0     12.331     13.645
REMARK  1 active torsions:
REMARK  status: ('A' for Active; 'I' for Inactive)
REMARK    1  A    between atoms: C3_3  and  C7_7 
ROOT
HETATM    1  C1  UNL     1     -33.775  16.830  -3.509  1.00 20.00    -0.082 C 
HETATM    2  C2  UNL     1     -34.756  17.402  -4.243  1.00 20.00    -0.081 C 
HETATM    3  C4  UNL     1     -33.433  15.360  -3.633  1.00 20.00     0.035 C 
HETATM    4  C5  UNL     1     -35.543  16.623  -5.280  1.00 20.00     0.050 C 
HETATM    5  C6  UNL     1     -34.443  14.537  -4.432  1.00 20.00     0.021 C 
HETATM    6  C7  UNL     1     -34.926  15.271  -5.689  1.00 20.00     0.013 C 
HETATM    7  C8  UNL     1     -32.910  17.560  -2.515  1.00 20.00     0.043 C 
HETATM    8  C9  UNL     1     -35.196  18.837  -4.118  1.00 20.00     0.043 C 
HETATM    9  C10 UNL     1     -33.792  15.457  -6.707  1.00 20.00     0.023 C 
ENDROOT
BRANCH   6  10
HETATM   10  C3  UNL     1     -36.005  14.450  -6.349  1.00 20.00     0.240 C 
HETATM   11  O11 UNL     1     -36.130  14.350  -7.565  1.00 20.00    -0.306 OA
ENDBRANCH   6  10
TORSDOF 1
ENDMDL
MODEL 4
REMARK VINA RESULT:      -3.8     10.408     11.490
REMARK  1 active torsions:
REMARK  status: ('A' for Active; 'I' for Inactive)
REMARK    1  A    between atoms: C3_3  and  C7_7 
ROOT
HETATM    1  C1  UNL     1     -42.062  15.886   6.402  1.00 20.00    -0.082 C 
HETATM    2  C2  UNL     1     -41.147  15.450   7.297  1.00 20.00    -0.081 C 
HETATM    3  C4  UNL     1     -42.475  15.053   5.207  1.00 20.00     0.035 C 
HETATM    4  C5  UNL     1     -40.513  14.076   7.195  1.00 20.00     0.050 C 
HETATM    5  C6  UNL     1     -41.595  13.831   4.949  1.00 20.00     0.021 C 
HETATM    6  C7  UNL     1     -41.225  13.096   6.244  1.00 20.00     0.013 C 
HETATM    7  C8  UNL     1     -42.780  17.208   6.483  1.00 20.00     0.043 C 
HETATM    8  C9  UNL     1     -40.637  16.255   8.465  1.00 20.00     0.043 C 
HETATM    9  C10 UNL     1     -42.458  12.465   6.908  1.00 20.00     0.023 C 
ENDROOT
BRANCH   6  10
HETATM   10  C3  UNL     1     -40.261  11.984   5.915  1.00 20.00     0.240 C 
HETATM   11  O11 UNL     1     -39.277  11.720   6.597  1.00 20.00    -0.306 OA
ENDBRANCH   6  10
TORSDOF 1
ENDMDL
MODEL 5
REMARK VINA RESULT:      -3.6     12.598     14.483
REMARK  1 active torsions:
REMARK  status: ('A' for Active; 'I' for Inactive)
REMARK    1  A    between atoms: C3_3  and  C7_7 
ROOT
HETATM    1  C1  UNL     1     -33.729  18.201  -4.486  1.00 20.00    -0.082 C 
HETATM    2  C2  UNL     1     -33.905  16.917  -4.099  1.00 20.00    -0.081 C 
HETATM    3  C4  UNL     1     -34.224  18.712  -5.823  1.00 20.00     0.035 C 
HETATM    4  C5  UNL     1     -34.657  15.915  -4.955  1.00 20.00     0.050 C 
HETATM    5  C6  UNL     1     -34.680  17.621  -6.791  1.00 20.00     0.021 C 
HETATM    6  C7  UNL     1     -35.498  16.527  -6.092  1.00 20.00     0.013 C 
HETATM    7  C8  UNL     1     -33.055  19.263  -3.656  1.00 20.00     0.043 C 
HETATM    8  C9  UNL     1     -33.375  16.325  -2.819  1.00 20.00     0.043 C 
HETATM    9  C10 UNL     1     -36.836  17.069  -5.570  1.00 20.00     0.023 C 
ENDROOT
BRANCH   6  10
HETATM   10  C3  UNL     1     -35.800  15.434  -7.085  1.00 20.00     0.240 C 
HETATM   11  O11 UNL     1     -35.932  14.256  -6.774  1.00 20.00    -0.306 OA
ENDBRANCH   6  10
TORSDOF 1
ENDMDL
MODEL 6
REMARK VINA RESULT:      -3.5     12.217     13.763
REMARK  1 active torsions:
REMARK  status: ('A' for Active; 'I' for Inactive)
REMARK    1  A    between atoms: C3_3  and  C7_7 
ROOT
HETATM    1  C1  UNL     1     -33.838  16.618  -3.705  1.00 20.00    -0.082 C 
HETATM    2  C2  UNL     1     -33.402  15.521  -4.364  1.00 20.00    -0.081 C 
HETATM    3  C4  UNL     1     -34.946  17.494  -4.250  1.00 20.00     0.035 C 
HETATM    4  C5  UNL     1     -34.030  15.062  -5.666  1.00 20.00     0.050 C 
HETATM    5  C6  UNL     1     -35.332  17.203  -5.699  1.00 20.00     0.021 C 
HETATM    6  C7  UNL     1     -35.395  15.698  -5.993  1.00 20.00     0.013 C 
HETATM    7  C8  UNL     1     -33.307  17.089  -2.376  1.00 20.00     0.043 C 
HETATM    8  C9  UNL     1     -32.258  14.648  -3.916  1.00 20.00     0.043 C 
HETATM    9  C10 UNL     1     -36.532  15.017  -5.219  1.00 20.00     0.023 C 
ENDROOT
BRANCH   6  10
HETATM   10  C3  UNL     1     -35.658  15.499  -7.465  1.00 20.00     0.240 C 
HETATM   11  O11 UNL     1     -36.264  14.534  -7.918  1.00 20.00    -0.306 OA
ENDBRANCH   6  10
TORSDOF 1
ENDMDL
MODEL 7
REMARK VINA RESULT:      -3.4     12.698     13.814
REMARK  1 active torsions:
REMARK  status: ('A' for Active; 'I' for Inactive)
REMARK    1  A    between atoms: C3_3  and  C7_7 
ROOT
HETATM    1  C1  UNL     1     -33.803  17.138  -3.045  1.00 20.00    -0.082 C 
HETATM    2  C2  UNL     1     -34.933  17.792  -3.399  1.00 20.00    -0.081 C 
HETATM    3  C4  UNL     1     -33.338  15.891  -3.766  1.00 20.00     0.035 C 
HETATM    4  C5  UNL     1     -35.781  17.352  -4.577  1.00 20.00     0.050 C 
HETATM    5  C6  UNL     1     -34.367  15.288  -4.722  1.00 20.00     0.021 C 
HETATM    6  C7  UNL     1     -35.100  16.360  -5.539  1.00 20.00     0.013 C 
HETATM    7  C8  UNL     1     -32.879  17.561  -1.933  1.00 20.00     0.043 C 
HETATM    8  C9  UNL     1     -35.491  18.993  -2.680  1.00 20.00     0.043 C 
HETATM    9  C10 UNL     1     -34.150  17.080  -6.507  1.00 20.00     0.023 C 
ENDROOT
BRANCH   6  10
HETATM   10  C3  UNL     1     -36.176  15.696  -6.361  1.00 20.00     0.240 C 
HETATM   11  O11 UNL     1     -36.257  14.482  -6.513  1.00 20.00    -0.306 OA
ENDBRANCH   6  10
TORSDOF 1
ENDMDL
MODEL 8
REMARK VINA RESULT:      -3.3      2.441      4.041
REMARK  1 active torsions:
REMARK  status: ('A' for Active; 'I' for Inactive)
REMARK    1  A    between atoms: C3_3  and  C7_7 
ROOT
HETATM    1  C1  UNL     1     -33.677   5.439   4.150  1.00 20.00    -0.082 C 
HETATM    2  C2  UNL     1     -34.008   6.489   4.935  1.00 20.00    -0.081 C 
HETATM    3  C4  UNL     1     -33.008   5.621   2.804  1.00 20.00     0.035 C 
HETATM    4  C5  UNL     1     -33.682   7.919   4.544  1.00 20.00     0.050 C 
HETATM    5  C6  UNL     1     -32.989   7.062   2.294  1.00 20.00     0.021 C 
HETATM    6  C7  UNL     1     -32.657   8.068   3.404  1.00 20.00     0.013 C 
HETATM    7  C8  UNL     1     -33.908   3.994   4.508  1.00 20.00     0.043 C 
HETATM    8  C9  UNL     1     -34.738   6.384   6.248  1.00 20.00     0.043 C 
HETATM    9  C10 UNL     1     -31.219   7.892   3.915  1.00 20.00     0.023 C 
ENDROOT
BRANCH   6  10
HETATM   10  C3  UNL     1     -32.779   9.464   2.849  1.00 20.00     0.240 C 
HETATM   11  O11 UNL     1     -32.874   9.709   1.652  1.00 20.00    -0.306 OA
ENDBRANCH   6  10
TORSDOF 1
ENDMDL
MODEL 9
REMARK VINA RESULT:      -3.3     10.669     11.842
REMARK  1 active torsions:
REMARK  status: ('A' for Active; 'I' for Inactive)
REMARK    1  A    between atoms: C3_3  and  C7_7 
ROOT
HETATM    1  C1  UNL     1     -41.998  14.431   5.337  1.00 20.00    -0.082 C 
HETATM    2  C2  UNL     1     -41.063  13.634   5.903  1.00 20.00    -0.081 C 
HETATM    3  C4  UNL     1     -42.843  15.384   6.156  1.00 20.00     0.035 C 
HETATM    4  C5  UNL     1     -40.761  13.679   7.389  1.00 20.00     0.050 C 
HETATM    5  C6  UNL     1     -42.750  15.177   7.668  1.00 20.00     0.021 C 
HETATM    6  C7  UNL     1     -41.312  14.911   8.131  1.00 20.00     0.013 C 
HETATM    7  C8  UNL     1     -42.299  14.487   3.862  1.00 20.00     0.043 C 
HETATM    8  C9  UNL     1     -40.241  12.613   5.160  1.00 20.00     0.043 C 
HETATM    9  C10 UNL     1     -40.414  16.140   7.923  1.00 20.00     0.023 C 
ENDROOT
BRANCH   6  10
HETATM   10  C3  UNL     1     -41.325  14.597   9.606  1.00 20.00     0.240 C 
HETATM   11  O11 UNL     1     -40.723  13.650  10.100  1.00 20.00    -0.306 OA
ENDBRANCH   6  10
TORSDOF 1
ENDMDL
