MODEL 1
REMARK VINA RESULT:      -3.4      0.000      0.000
REMARK  0 active torsions:
REMARK  status: ('A' for Active; 'I' for Inactive)
ROOT
HETATM    1  C1  UNL     1     -33.682   7.099   4.734  1.00 20.00     0.084 C 
HETATM    2  C2  UNL     1     -34.582   5.387   6.263  1.00 20.00     0.048 C 
HETATM    3  C3  UNL     1     -33.761   4.756   3.972  1.00 20.00     0.048 C 
HETATM    4  C4  UNL     1     -34.438   5.838   4.811  1.00 20.00     0.118 C 
HETATM    5  N5  UNL     1     -33.083   8.092   4.676  1.00 20.00    -0.195 NA
HETATM    6 CL6  UNL     1     -36.069   6.160   4.138  1.00 20.00    -0.104 Cl
ENDROOT
TORSDOF 0
ENDMDL
MODEL 2
REMARK VINA RESULT:      -3.4      1.356      1.848
REMARK  0 active torsions:
REMARK  status: ('A' for Active; 'I' for Inactive)
ROOT
HETATM    1  C1  UNL     1     -33.658   7.197   4.812  1.00 20.00     0.084 C 
HETATM    2  C2  UNL     1     -35.814   6.149   4.238  1.00 20.00     0.048 C 
HETATM    3  C3  UNL     1     -34.464   5.317   6.190  1.00 20.00     0.048 C 
HETATM    4  C4  UNL     1     -34.408   5.930   4.791  1.00 20.00     0.118 C 
HETATM    5  N5  UNL     1     -33.070   8.198   4.831  1.00 20.00    -0.195 NA
HETATM    6 CL6  UNL     1     -33.523   4.812   3.703  1.00 20.00    -0.104 Cl
ENDROOT
TORSDOF 0
ENDMDL
MODEL 3
REMARK VINA RESULT:      -3.3      1.530      2.103
REMARK  0 active torsions:
REMARK  status: ('A' for Active; 'I' for Inactive)
ROOT
HETATM    1  C1  UNL     1     -33.573   5.524   3.613  1.00 20.00     0.084 C 
HETATM    2  C2  UNL     1     -33.885   7.427   5.150  1.00 20.00     0.048 C 
HETATM    3  C3  UNL     1     -34.362   5.076   5.906  1.00 20.00     0.048 C 
HETATM    4  C4  UNL     1     -34.383   6.047   4.726  1.00 20.00     0.118 C 
HETATM    5  N5  UNL     1     -32.931   5.113   2.738  1.00 20.00    -0.195 NA
HETATM    6 CL6  UNL     1     -36.067   6.195   4.127  1.00 20.00    -0.104 Cl
ENDROOT
TORSDOF 0
ENDMDL
MODEL 4
REMARK VINA RESULT:      -3.2      2.024      2.297
REMARK  0 active torsions:
REMARK  status: ('A' for Active; 'I' for Inactive)
ROOT
HETATM    1  C1  UNL     1     -33.558   5.503   3.610  1.00 20.00     0.084 C 
HETATM    2  C2  UNL     1     -34.329   5.038   5.905  1.00 20.00     0.048 C 
HETATM    3  C3  UNL     1     -35.851   6.152   4.242  1.00 20.00     0.048 C 
HETATM    4  C4  UNL     1     -34.406   5.987   4.711  1.00 20.00     0.118 C 
HETATM    5  N5  UNL     1     -32.891   5.116   2.742  1.00 20.00    -0.195 NA
HETATM    6 CL6  UNL     1     -33.769   7.590   5.201  1.00 20.00    -0.104 Cl
ENDROOT
TORSDOF 0
ENDMDL
MODEL 5
REMARK VINA RESULT:      -3.2      2.074      2.586
REMARK  0 active torsions:
REMARK  status: ('A' for Active; 'I' for Inactive)
ROOT
HETATM    1  C1  UNL     1     -33.520   5.514   3.588  1.00 20.00     0.084 C 
HETATM    2  C2  UNL     1     -35.802   6.158   4.265  1.00 20.00     0.048 C 
HETATM    3  C3  UNL     1     -33.805   7.436   5.105  1.00 20.00     0.048 C 
HETATM    4  C4  UNL     1     -34.335   6.066   4.682  1.00 20.00     0.118 C 
HETATM    5  N5  UNL     1     -32.879   5.080   2.723  1.00 20.00    -0.195 NA
HETATM    6 CL6  UNL     1     -34.194   4.937   6.068  1.00 20.00    -0.104 Cl
ENDROOT
TORSDOF 0
ENDMDL
MODEL 6
REMARK VINA RESULT:      -3.2     16.479     16.972
REMARK  0 active torsions:
REMARK  status: ('A' for Active; 'I' for Inactive)
ROOT
HETATM    1  C1  UNL     1     -22.700  17.294   9.559  1.00 20.00     0.084 C 
HETATM    2  C2  UNL     1     -24.278  16.519  11.289  1.00 20.00     0.048 C 
HETATM    3  C3  UNL     1     -24.585  18.757  10.182  1.00 20.00     0.048 C 
HETATM    4  C4  UNL     1     -23.570  17.722  10.667  1.00 20.00     0.118 C 
HETATM    5  N5  UNL     1     -22.018  16.954   8.684  1.00 20.00    -0.195 NA
HETATM    6 CL6  UNL     1     -22.515  18.479  11.903  1.00 20.00    -0.104 Cl
ENDROOT
TORSDOF 0
ENDMDL
MODEL 7
REMARK VINA RESULT:      -2.9     13.628     13.950
REMARK  0 active torsions:
REMARK  status: ('A' for Active; 'I' for Inactive)
ROOT
HETATM    1  C1  UNL     1     -31.794  18.537  -0.900  1.00 20.00     0.084 C 
HETATM    2  C2  UNL     1     -33.050  19.263  -2.893  1.00 20.00     0.048 C 
HETATM    3  C3  UNL     1     -34.219  18.933  -0.691  1.00 20.00     0.048 C 
HETATM    4  C4  UNL     1     -33.087  18.453  -1.599  1.00 20.00     0.118 C 
HETATM    5  N5  UNL     1     -30.775  18.607  -0.349  1.00 20.00    -0.195 NA
HETATM    6 CL6  UNL     1     -33.358  16.727  -2.000  1.00 20.00    -0.104 Cl
ENDROOT
TORSDOF 0
ENDMDL
MODEL 8
REMARK VINA RESULT:      -2.9      9.510      9.828
REMARK  0 active torsions:
REMARK  status: ('A' for Active; 'I' for Inactive)
ROOT
HETATM    1  C1  UNL     1     -42.713   5.835  -0.653  1.00 20.00     0.084 C 
HETATM    2  C2  UNL     1     -42.579   8.281  -0.380  1.00 20.00     0.048 C 
HETATM    3  C3  UNL     1     -40.778   6.787   0.542  1.00 20.00     0.048 C 
HETATM    4  C4  UNL     1     -42.270   6.919   0.238  1.00 20.00     0.118 C 
HETATM    5  N5  UNL     1     -43.060   4.981  -1.360  1.00 20.00    -0.195 NA
HETATM    6 CL6  UNL     1     -43.191   6.752   1.768  1.00 20.00    -0.104 Cl
ENDROOT
TORSDOF 0
ENDMDL
MODEL 9
REMARK VINA RESULT:      -2.8     16.753     17.078
REMARK  0 active torsions:
REMARK  status: ('A' for Active; 'I' for Inactive)
ROOT
HETATM    1  C1  UNL     1     -25.025  18.650  11.521  1.00 20.00     0.084 C 
HETATM    2  C2  UNL     1     -22.690  18.481  12.294  1.00 20.00     0.048 C 
HETATM    3  C3  UNL     1     -23.308  17.859   9.937  1.00 20.00     0.048 C 
HETATM    4  C4  UNL     1     -23.771  17.888  11.393  1.00 20.00     0.118 C 
HETATM    5  N5  UNL     1     -26.011  19.255  11.621  1.00 20.00    -0.195 NA
HETATM    6 CL6  UNL     1     -24.117  16.212  11.927  1.00 20.00    -0.104 Cl
ENDROOT
TORSDOF 0
ENDMDL
