MODEL 1
REMARK VINA RESULT:      -3.9      0.000      0.000
REMARK  2 active torsions:
REMARK  status: ('A' for Active; 'I' for Inactive)
REMARK    1  A    between atoms: C3_3  and  C7_7 
REMARK    2  A    between atoms: C7_7  and  C8_8 
ROOT
HETATM    1  C1  UNL     1     -30.983  18.856   0.226  1.00 20.00     0.088 C 
HETATM    2  C2  UNL     1     -31.792  18.374  -0.838  1.00 20.00     0.096 C 
HETATM    3  C3  UNL     1     -33.094  18.055  -0.714  1.00 20.00    -0.073 C 
HETATM    4  C4  UNL     1     -33.780  18.204   0.620  1.00 20.00     0.044 C 
HETATM    5  N9  UNL     1     -30.316  19.253   1.089  1.00 20.00    -0.192 NA
ENDROOT
BRANCH   3   6
HETATM    6  C7  UNL     1     -33.976  17.574  -1.851  1.00 20.00     0.038 C 
BRANCH   6   7
HETATM    7  C8  UNL     1     -33.236  17.350  -3.186  1.00 20.00    -0.019 C 
HETATM    8  C5  UNL     1     -33.837  18.173  -4.327  1.00 20.00     0.010 C 
HETATM    9  C6  UNL     1     -33.264  15.863  -3.552  1.00 20.00     0.010 C 
ENDBRANCH   6   7
ENDBRANCH   3   6
TORSDOF 2
ENDMDL
MODEL 2
REMARK VINA RESULT:      -3.9      3.302      5.129
REMARK  2 active torsions:
REMARK  status: ('A' for Active; 'I' for Inactive)
REMARK    1  A    between atoms: C3_3  and  C7_7 
REMARK    2  A    between atoms: C7_7  and  C8_8 
ROOT
HETATM    1  C1  UNL     1     -33.830  15.093  -5.308  1.00 20.00     0.088 C 
HETATM    2  C2  UNL     1     -33.619  15.324  -3.922  1.00 20.00     0.096 C 
HETATM    3  C3  UNL     1     -33.608  16.543  -3.351  1.00 20.00    -0.073 C 
HETATM    4  C4  UNL     1     -33.830  17.771  -4.197  1.00 20.00     0.044 C 
HETATM    5  N9  UNL     1     -34.003  14.896  -6.439  1.00 20.00    -0.192 NA
ENDROOT
BRANCH   3   6
HETATM    6  C7  UNL     1     -33.421  16.798  -1.867  1.00 20.00     0.038 C 
BRANCH   6   7
HETATM    7  C8  UNL     1     -33.151  18.271  -1.498  1.00 20.00    -0.019 C 
HETATM    8  C5  UNL     1     -31.793  18.460  -0.821  1.00 20.00     0.010 C 
HETATM    9  C6  UNL     1     -34.263  18.789  -0.581  1.00 20.00     0.010 C 
ENDBRANCH   6   7
ENDBRANCH   3   6
TORSDOF 2
ENDMDL
MODEL 3
REMARK VINA RESULT:      -3.9     11.827     12.655
REMARK  2 active torsions:
REMARK  status: ('A' for Active; 'I' for Inactive)
REMARK    1  A    between atoms: C3_3  and  C7_7 
REMARK    2  A    between atoms: C7_7  and  C8_8 
ROOT
HETATM    1  C1  UNL     1     -32.184   7.713   1.915  1.00 20.00     0.088 C 
HETATM    2  C2  UNL     1     -32.687   7.101   3.095  1.00 20.00     0.096 C 
HETATM    3  C3  UNL     1     -32.863   7.744   4.265  1.00 20.00    -0.073 C 
HETATM    4  C4  UNL     1     -32.518   9.207   4.377  1.00 20.00     0.044 C 
HETATM    5  N9  UNL     1     -31.775   8.205   0.947  1.00 20.00    -0.192 NA
ENDROOT
BRANCH   3   6
HETATM    6  C7  UNL     1     -33.434   7.110   5.520  1.00 20.00     0.038 C 
BRANCH   6   7
HETATM    7  C8  UNL     1     -34.222   5.806   5.278  1.00 20.00    -0.019 C 
HETATM    8  C5  UNL     1     -35.506   6.044   4.481  1.00 20.00     0.010 C 
HETATM    9  C6  UNL     1     -34.561   5.148   6.618  1.00 20.00     0.010 C 
ENDBRANCH   6   7
ENDBRANCH   3   6
TORSDOF 2
ENDMDL
MODEL 4
REMARK VINA RESULT:      -3.9      1.077      1.742
REMARK  2 active torsions:
REMARK  status: ('A' for Active; 'I' for Inactive)
REMARK    1  A    between atoms: C3_3  and  C7_7 
REMARK    2  A    between atoms: C7_7  and  C8_8 
ROOT
HETATM    1  C1  UNL     1     -30.683  18.563   1.651  1.00 20.00     0.088 C 
HETATM    2  C2  UNL     1     -30.976  18.485   0.263  1.00 20.00     0.096 C 
HETATM    3  C3  UNL     1     -32.221  18.411  -0.244  1.00 20.00    -0.073 C 
HETATM    4  C4  UNL     1     -33.411  18.410   0.682  1.00 20.00     0.044 C 
HETATM    5  N9  UNL     1     -30.435  18.629   2.783  1.00 20.00    -0.192 NA
ENDROOT
BRANCH   3   6
HETATM    6  C7  UNL     1     -32.548  18.365  -1.726  1.00 20.00     0.038 C 
BRANCH   6   7
HETATM    7  C8  UNL     1     -33.744  17.462  -2.091  1.00 20.00    -0.019 C 
HETATM    8  C5  UNL     1     -33.335  16.295  -2.992  1.00 20.00     0.010 C 
HETATM    9  C6  UNL     1     -34.829  18.293  -2.782  1.00 20.00     0.010 C 
ENDBRANCH   6   7
ENDBRANCH   3   6
TORSDOF 2
ENDMDL
MODEL 5
REMARK VINA RESULT:      -3.7     14.162     15.489
REMARK  2 active torsions:
REMARK  status: ('A' for Active; 'I' for Inactive)
REMARK    1  A    between atoms: C3_3  and  C7_7 
REMARK    2  A    between atoms: C7_7  and  C8_8 
ROOT
HETATM    1  C1  UNL     1     -21.750  17.446   8.286  1.00 20.00     0.088 C 
HETATM    2  C2  UNL     1     -21.936  17.652   9.680  1.00 20.00     0.096 C 
HETATM    3  C3  UNL     1     -22.895  18.436  10.207  1.00 20.00    -0.073 C 
HETATM    4  C4  UNL     1     -23.857  19.160   9.300  1.00 20.00     0.044 C 
HETATM    5  N9  UNL     1     -21.594  17.271   7.149  1.00 20.00    -0.192 NA
ENDROOT
BRANCH   3   6
HETATM    6  C7  UNL     1     -23.125  18.634  11.694  1.00 20.00     0.038 C 
BRANCH   6   7
HETATM    7  C8  UNL     1     -24.245  17.757  12.292  1.00 20.00    -0.019 C 
HETATM    8  C5  UNL     1     -24.439  16.455  11.513  1.00 20.00     0.010 C 
HETATM    9  C6  UNL     1     -25.559  18.542  12.323  1.00 20.00     0.010 C 
ENDBRANCH   6   7
ENDBRANCH   3   6
TORSDOF 2
ENDMDL
MODEL 6
REMARK VINA RESULT:      -3.7      4.052      5.841
REMARK  2 active torsions:
REMARK  status: ('A' for Active; 'I' for Inactive)
REMARK    1  A    between atoms: C3_3  and  C7_7 
REMARK    2  A    between atoms: C7_7  and  C8_8 
ROOT
HETATM    1  C1  UNL     1     -35.410  15.220  -6.374  1.00 20.00     0.088 C 
HETATM    2  C2  UNL     1     -34.690  16.170  -5.599  1.00 20.00     0.096 C 
HETATM    3  C3  UNL     1     -34.004  15.869  -4.480  1.00 20.00    -0.073 C 
HETATM    4  C4  UNL     1     -33.969  14.447  -3.980  1.00 20.00     0.044 C 
HETATM    5  N9  UNL     1     -35.999  14.451  -7.013  1.00 20.00    -0.192 NA
ENDROOT
BRANCH   3   6
HETATM    6  C7  UNL     1     -33.202  16.868  -3.667  1.00 20.00     0.038 C 
BRANCH   6   7
HETATM    7  C8  UNL     1     -33.857  17.284  -2.334  1.00 20.00    -0.019 C 
HETATM    8  C5  UNL     1     -34.905  18.382  -2.522  1.00 20.00     0.010 C 
HETATM    9  C6  UNL     1     -32.782  17.758  -1.352  1.00 20.00     0.010 C 
ENDBRANCH   6   7
ENDBRANCH   3   6
TORSDOF 2
ENDMDL
MODEL 7
REMARK VINA RESULT:      -3.6     11.131     12.746
REMARK  2 active torsions:
REMARK  status: ('A' for Active; 'I' for Inactive)
REMARK    1  A    between atoms: C3_3  and  C7_7 
REMARK    2  A    between atoms: C7_7  and  C8_8 
ROOT
HETATM    1  C1  UNL     1     -39.348  11.931   4.798  1.00 20.00     0.088 C 
HETATM    2  C2  UNL     1     -39.819  12.355   6.071  1.00 20.00     0.096 C 
HETATM    3  C3  UNL     1     -40.828  13.228   6.251  1.00 20.00    -0.073 C 
HETATM    4  C4  UNL     1     -41.534  13.818   5.057  1.00 20.00     0.044 C 
HETATM    5  N9  UNL     1     -38.960  11.578   3.763  1.00 20.00    -0.192 NA
ENDROOT
BRANCH   3   6
HETATM    6  C7  UNL     1     -41.362  13.659   7.605  1.00 20.00     0.038 C 
BRANCH   6   7
HETATM    7  C8  UNL     1     -40.381  14.503   8.443  1.00 20.00    -0.019 C 
HETATM    8  C5  UNL     1     -40.657  14.393   9.944  1.00 20.00     0.010 C 
HETATM    9  C6  UNL     1     -40.457  15.970   8.010  1.00 20.00     0.010 C 
ENDBRANCH   6   7
ENDBRANCH   3   6
TORSDOF 2
ENDMDL
MODEL 8
REMARK VINA RESULT:      -3.5     11.086     12.038
REMARK  2 active torsions:
REMARK  status: ('A' for Active; 'I' for Inactive)
REMARK    1  A    between atoms: C3_3  and  C7_7 
REMARK    2  A    between atoms: C7_7  and  C8_8 
ROOT
HETATM    1  C1  UNL     1     -32.744   9.310   1.409  1.00 20.00     0.088 C 
HETATM    2  C2  UNL     1     -32.938   9.063   2.795  1.00 20.00     0.096 C 
HETATM    3  C3  UNL     1     -32.696   7.882   3.394  1.00 20.00    -0.073 C 
HETATM    4  C4  UNL     1     -32.183   6.719   2.583  1.00 20.00     0.044 C 
HETATM    5  N9  UNL     1     -32.585   9.520   0.279  1.00 20.00    -0.192 NA
ENDROOT
BRANCH   3   6
HETATM    6  C7  UNL     1     -32.865   7.618   4.879  1.00 20.00     0.038 C 
BRANCH   6   7
HETATM    7  C8  UNL     1     -34.232   7.021   5.273  1.00 20.00    -0.019 C 
HETATM    8  C5  UNL     1     -34.345   6.775   6.779  1.00 20.00     0.010 C 
HETATM    9  C6  UNL     1     -34.464   5.710   4.516  1.00 20.00     0.010 C 
ENDBRANCH   6   7
ENDBRANCH   3   6
TORSDOF 2
ENDMDL
MODEL 9
REMARK VINA RESULT:      -3.5      1.585      2.606
REMARK  2 active torsions:
REMARK  status: ('A' for Active; 'I' for Inactive)
REMARK    1  A    between atoms: C3_3  and  C7_7 
REMARK    2  A    between atoms: C7_7  and  C8_8 
ROOT
HETATM    1  C1  UNL     1     -30.250  18.615   2.607  1.00 20.00     0.088 C 
HETATM    2  C2  UNL     1     -31.598  18.448   2.186  1.00 20.00     0.096 C 
HETATM    3  C3  UNL     1     -31.996  18.466   0.900  1.00 20.00    -0.073 C 
HETATM    4  C4  UNL     1     -30.983  18.672  -0.197  1.00 20.00     0.044 C 
HETATM    5  N9  UNL     1     -29.152  18.748   2.959  1.00 20.00    -0.192 NA
ENDROOT
BRANCH   3   6
HETATM    6  C7  UNL     1     -33.425  18.252   0.437  1.00 20.00     0.038 C 
BRANCH   6   7
HETATM    7  C8  UNL     1     -33.649  18.467  -1.074  1.00 20.00    -0.019 C 
HETATM    8  C5  UNL     1     -34.935  19.243  -1.365  1.00 20.00     0.010 C 
HETATM    9  C6  UNL     1     -33.689  17.113  -1.790  1.00 20.00     0.010 C 
ENDBRANCH   6   7
ENDBRANCH   3   6
TORSDOF 2
ENDMDL
