MODEL 1
REMARK VINA RESULT:      -3.5      0.000      0.000
REMARK  1 active torsions:
REMARK  status: ('A' for Active; 'I' for Inactive)
REMARK    1  A    between atoms: C1_1  and  S12_12 
ROOT
HETATM    1  C1  UNL     1     -40.792  12.721   5.546  1.00 20.00     0.066 C 
HETATM    2  C2  UNL     1     -41.599  13.911   5.144  1.00 20.00     0.074 C 
HETATM    3  C3  UNL     1     -41.719  13.833   8.449  1.00 20.00     0.042 A 
HETATM    4  C4  UNL     1     -42.391  14.245   6.398  1.00 20.00     0.029 A 
HETATM    5  C5  UNL     1     -41.777  15.105   7.561  1.00 20.00    -0.039 A 
HETATM    6  C6  UNL     1     -42.201  12.973   7.265  1.00 20.00     0.056 A 
HETATM    7  C7  UNL     1     -42.765  16.151   8.084  1.00 20.00     0.015 C 
HETATM    8  C8  UNL     1     -40.404  15.729   7.318  1.00 20.00     0.015 C 
HETATM    9  C9  UNL     1     -43.417  12.102   7.501  1.00 20.00     0.041 C 
HETATM   10  N11 UNL     1     -41.087  12.194   6.689  1.00 20.00    -0.276 NA
ENDROOT
BRANCH   1  11
HETATM   11  S12 UNL     1     -39.556  12.120   4.497  1.00 20.00    -0.119 SA
HETATM   12  C10 UNL     1     -38.169  12.078   5.656  1.00 20.00     0.097 C 
ENDBRANCH   1  11
TORSDOF 1
ENDMDL
MODEL 2
REMARK VINA RESULT:      -3.4      2.404      3.757
REMARK  1 active torsions:
REMARK  status: ('A' for Active; 'I' for Inactive)
REMARK    1  A    between atoms: C1_1  and  S12_12 
ROOT
HETATM    1  C1  UNL     1     -40.416  14.660   8.647  1.00 20.00     0.066 C 
HETATM    2  C2  UNL     1     -40.454  15.622   7.506  1.00 20.00     0.074 C 
HETATM    3  C3  UNL     1     -42.080  12.938   6.457  1.00 20.00     0.042 A 
HETATM    4  C4  UNL     1     -40.852  14.756   6.322  1.00 20.00     0.029 A 
HETATM    5  C5  UNL     1     -42.352  14.403   6.021  1.00 20.00    -0.039 A 
HETATM    6  C6  UNL     1     -40.644  13.320   6.871  1.00 20.00     0.056 A 
HETATM    7  C7  UNL     1     -42.684  14.527   4.531  1.00 20.00     0.015 C 
HETATM    8  C8  UNL     1     -43.417  15.093   6.872  1.00 20.00     0.015 C 
HETATM    9  C9  UNL     1     -39.519  12.501   6.274  1.00 20.00     0.041 C 
HETATM   10  N11 UNL     1     -40.523  13.409   8.340  1.00 20.00    -0.276 NA
ENDROOT
BRANCH   1  11
HETATM   11  S12 UNL     1     -40.227  15.244  10.264  1.00 20.00    -0.119 SA
HETATM   12  C10 UNL     1     -41.167  13.981  11.154  1.00 20.00     0.097 C 
ENDBRANCH   1  11
TORSDOF 1
ENDMDL
MODEL 3
REMARK VINA RESULT:      -3.3     20.895     22.297
REMARK  1 active torsions:
REMARK  status: ('A' for Active; 'I' for Inactive)
REMARK    1  A    between atoms: C1_1  and  S12_12 
ROOT
HETATM    1  C1  UNL     1     -25.746  -3.429  10.863  1.00 20.00     0.066 C 
HETATM    2  C2  UNL     1     -26.673  -3.932  11.920  1.00 20.00     0.074 C 
HETATM    3  C3  UNL     1     -28.402  -1.680  10.221  1.00 20.00     0.042 A 
HETATM    4  C4  UNL     1     -27.781  -2.891  11.947  1.00 20.00     0.029 A 
HETATM    5  C5  UNL     1     -28.981  -2.932  10.933  1.00 20.00    -0.039 A 
HETATM    6  C6  UNL     1     -27.163  -1.721  11.137  1.00 20.00     0.056 A 
HETATM    7  C7  UNL     1     -30.322  -2.660  11.619  1.00 20.00     0.015 C 
HETATM    8  C8  UNL     1     -29.079  -4.150  10.016  1.00 20.00     0.015 C 
HETATM    9  C9  UNL     1     -26.827  -0.451  11.892  1.00 20.00     0.041 C 
HETATM   10  N11 UNL     1     -25.987  -2.242  10.413  1.00 20.00    -0.276 NA
ENDROOT
BRANCH   1  11
HETATM   11  S12 UNL     1     -24.438  -4.420  10.318  1.00 20.00    -0.119 SA
HETATM   12  C10 UNL     1     -23.775  -3.358   9.014  1.00 20.00     0.097 C 
ENDBRANCH   1  11
TORSDOF 1
ENDMDL
MODEL 4
REMARK VINA RESULT:      -3.2     12.341     14.000
REMARK  1 active torsions:
REMARK  status: ('A' for Active; 'I' for Inactive)
REMARK    1  A    between atoms: C1_1  and  S12_12 
ROOT
HETATM    1  C1  UNL     1     -33.961  16.821  -3.905  1.00 20.00     0.066 C 
HETATM    2  C2  UNL     1     -34.206  18.021  -4.759  1.00 20.00     0.074 C 
HETATM    3  C3  UNL     1     -36.297  15.708  -5.863  1.00 20.00     0.042 A 
HETATM    4  C4  UNL     1     -34.980  17.465  -5.943  1.00 20.00     0.029 A 
HETATM    5  C5  UNL     1     -36.534  17.242  -5.885  1.00 20.00    -0.039 A 
HETATM    6  C6  UNL     1     -34.774  15.935  -5.791  1.00 20.00     0.056 A 
HETATM    7  C7  UNL     1     -37.230  17.717  -7.163  1.00 20.00     0.015 C 
HETATM    8  C8  UNL     1     -37.267  17.753  -4.646  1.00 20.00     0.015 C 
HETATM    9  C9  UNL     1     -33.928  15.238  -6.836  1.00 20.00     0.041 C 
HETATM   10  N11 UNL     1     -34.265  15.679  -4.429  1.00 20.00    -0.276 NA
ENDROOT
BRANCH   1  11
HETATM   11  S12 UNL     1     -33.301  17.009  -2.318  1.00 20.00    -0.119 SA
HETATM   12  C10 UNL     1     -34.382  18.316  -1.692  1.00 20.00     0.097 C 
ENDBRANCH   1  11
TORSDOF 1
ENDMDL
MODEL 5
REMARK VINA RESULT:      -3.2     12.730     14.180
REMARK  1 active torsions:
REMARK  status: ('A' for Active; 'I' for Inactive)
REMARK    1  A    between atoms: C1_1  and  S12_12 
ROOT
HETATM    1  C1  UNL     1     -34.753  16.849  -6.334  1.00 20.00     0.066 C 
HETATM    2  C2  UNL     1     -35.492  17.466  -5.193  1.00 20.00     0.074 C 
HETATM    3  C3  UNL     1     -32.930  15.875  -3.833  1.00 20.00     0.042 A 
HETATM    4  C4  UNL     1     -34.948  16.733  -3.977  1.00 20.00     0.029 A 
HETATM    5  C5  UNL     1     -33.605  17.161  -3.284  1.00 20.00    -0.039 A 
HETATM    6  C6  UNL     1     -34.211  15.525  -4.615  1.00 20.00     0.056 A 
HETATM    7  C7  UNL     1     -33.722  17.166  -1.758  1.00 20.00     0.015 C 
HETATM    8  C8  UNL     1     -32.941  18.444  -3.781  1.00 20.00     0.015 C 
HETATM    9  C9  UNL     1     -34.799  14.148  -4.384  1.00 20.00     0.041 C 
HETATM   10  N11 UNL     1     -34.046  15.804  -6.055  1.00 20.00    -0.276 NA
ENDROOT
BRANCH   1  11
HETATM   11  S12 UNL     1     -34.881  17.533  -7.917  1.00 20.00    -0.119 SA
HETATM   12  C10 UNL     1     -33.948  19.060  -7.665  1.00 20.00     0.097 C 
ENDBRANCH   1  11
TORSDOF 1
ENDMDL
MODEL 6
REMARK VINA RESULT:      -3.2     12.593     13.571
REMARK  1 active torsions:
REMARK  status: ('A' for Active; 'I' for Inactive)
REMARK    1  A    between atoms: C1_1  and  S12_12 
ROOT
HETATM    1  C1  UNL     1     -33.235  17.830  -1.801  1.00 20.00     0.066 C 
HETATM    2  C2  UNL     1     -32.779  18.728  -2.903  1.00 20.00     0.074 C 
HETATM    3  C3  UNL     1     -35.056  16.748  -4.260  1.00 20.00     0.042 A 
HETATM    4  C4  UNL     1     -33.274  18.031  -4.160  1.00 20.00     0.029 A 
HETATM    5  C5  UNL     1     -34.745  18.210  -4.680  1.00 20.00    -0.039 A 
HETATM    6  C6  UNL     1     -33.652  16.621  -3.636  1.00 20.00     0.056 A 
HETATM    7  C7  UNL     1     -34.797  18.416  -6.196  1.00 20.00     0.015 C 
HETATM    8  C8  UNL     1     -35.620  19.238  -3.963  1.00 20.00     0.015 C 
HETATM    9  C9  UNL     1     -32.801  15.455  -4.097  1.00 20.00     0.041 C 
HETATM   10  N11 UNL     1     -33.719  16.687  -2.163  1.00 20.00    -0.276 NA
ENDROOT
BRANCH   1  11
HETATM   11  S12 UNL     1     -33.092  18.339  -0.155  1.00 20.00    -0.119 SA
HETATM   12  C10 UNL     1     -31.296  18.513  -0.047  1.00 20.00     0.097 C 
ENDBRANCH   1  11
TORSDOF 1
ENDMDL
MODEL 7
REMARK VINA RESULT:      -3.1      1.657      2.279
REMARK  1 active torsions:
REMARK  status: ('A' for Active; 'I' for Inactive)
REMARK    1  A    between atoms: C1_1  and  S12_12 
ROOT
HETATM    1  C1  UNL     1     -41.146  13.845   7.026  1.00 20.00     0.066 C 
HETATM    2  C2  UNL     1     -42.311  14.778   7.019  1.00 20.00     0.074 C 
HETATM    3  C3  UNL     1     -40.359  15.816   9.480  1.00 20.00     0.042 A 
HETATM    4  C4  UNL     1     -42.224  15.467   8.371  1.00 20.00     0.029 A 
HETATM    5  C5  UNL     1     -41.288  16.706   8.610  1.00 20.00    -0.039 A 
HETATM    6  C6  UNL     1     -41.211  14.577   9.138  1.00 20.00     0.056 A 
HETATM    7  C7  UNL     1     -41.984  17.805   9.417  1.00 20.00     0.015 C 
HETATM    8  C8  UNL     1     -40.582  17.294   7.389  1.00 20.00     0.015 C 
HETATM    9  C9  UNL     1     -41.737  13.765  10.303  1.00 20.00     0.041 C 
HETATM   10  N11 UNL     1     -40.524  13.719   8.152  1.00 20.00    -0.276 NA
ENDROOT
BRANCH   1  11
HETATM   11  S12 UNL     1     -40.705  13.002   5.582  1.00 20.00    -0.119 SA
HETATM   12  C10 UNL     1     -39.324  12.020   6.213  1.00 20.00     0.097 C 
ENDBRANCH   1  11
TORSDOF 1
ENDMDL
MODEL 8
REMARK VINA RESULT:      -3.1      2.869      4.489
REMARK  1 active torsions:
REMARK  status: ('A' for Active; 'I' for Inactive)
REMARK    1  A    between atoms: C1_1  and  S12_12 
ROOT
HETATM    1  C1  UNL     1     -42.249  13.905  10.031  1.00 20.00     0.066 C 
HETATM    2  C2  UNL     1     -43.367  14.399   9.174  1.00 20.00     0.074 C 
HETATM    3  C3  UNL     1     -40.925  13.624   7.082  1.00 20.00     0.042 A 
HETATM    4  C4  UNL     1     -42.697  14.680   7.839  1.00 20.00     0.029 A 
HETATM    5  C5  UNL     1     -42.446  13.544   6.783  1.00 20.00    -0.039 A 
HETATM    6  C6  UNL     1     -41.190  14.646   8.205  1.00 20.00     0.056 A 
HETATM    7  C7  UNL     1     -42.797  13.992   5.362  1.00 20.00     0.015 C 
HETATM    8  C8  UNL     1     -43.043  12.169   7.081  1.00 20.00     0.015 C 
HETATM    9  C9  UNL     1     -40.426  15.952   8.137  1.00 20.00     0.041 C 
HETATM   10  N11 UNL     1     -41.061  14.017   9.535  1.00 20.00    -0.276 NA
ENDROOT
BRANCH   1  11
HETATM   11  S12 UNL     1     -42.584  13.241  11.592  1.00 20.00    -0.119 SA
HETATM   12  C10 UNL     1     -43.417  11.714  11.099  1.00 20.00     0.097 C 
ENDBRANCH   1  11
TORSDOF 1
ENDMDL
MODEL 9
REMARK VINA RESULT:      -3.0      2.650      4.088
REMARK  1 active torsions:
REMARK  status: ('A' for Active; 'I' for Inactive)
REMARK    1  A    between atoms: C1_1  and  S12_12 
ROOT
HETATM    1  C1  UNL     1     -42.631  16.106   7.311  1.00 20.00     0.066 C 
HETATM    2  C2  UNL     1     -41.184  15.765   7.173  1.00 20.00     0.074 C 
HETATM    3  C3  UNL     1     -42.808  12.910   6.777  1.00 20.00     0.042 A 
HETATM    4  C4  UNL     1     -41.157  14.253   7.326  1.00 20.00     0.029 A 
HETATM    5  C5  UNL     1     -41.455  13.293   6.119  1.00 20.00    -0.039 A 
HETATM    6  C6  UNL     1     -42.569  13.947   7.893  1.00 20.00     0.056 A 
HETATM    7  C7  UNL     1     -40.471  12.122   6.059  1.00 20.00     0.015 C 
HETATM    8  C8  UNL     1     -41.620  13.933   4.741  1.00 20.00     0.015 C 
HETATM    9  C9  UNL     1     -42.654  13.448   9.321  1.00 20.00     0.041 C 
HETATM   10  N11 UNL     1     -43.408  15.145   7.691  1.00 20.00    -0.276 NA
ENDROOT
BRANCH   1  11
HETATM   11  S12 UNL     1     -43.177  17.712   6.977  1.00 20.00    -0.119 SA
HETATM   12  C10 UNL     1     -42.336  17.997   5.402  1.00 20.00     0.097 C 
ENDBRANCH   1  11
TORSDOF 1
ENDMDL
