MODEL 1
REMARK VINA RESULT:      -3.7      0.000      0.000
REMARK  6 active torsions:
REMARK  status: ('A' for Active; 'I' for Inactive)
REMARK    1  A    between atoms: C1_1  and  C5_5 
REMARK    2  A    between atoms: C1_1  and  C8_8 
REMARK    3  A    between atoms: C6_6  and  O10_10 
REMARK    4  A    between atoms: C7_7  and  O11_11 
REMARK    5  A    between atoms: C8_8  and  O10_10 
REMARK    6  A    between atoms: C8_8  and  O11_11 
ROOT
HETATM    1  C8  UNL     1     -36.031  14.996  -5.644  1.00 20.00     0.329 C 
ENDROOT
BRANCH   1   2
HETATM    2  C1  UNL     1     -35.264  14.044  -4.735  1.00 20.00     0.181 C 
HETATM    3  O9  UNL     1     -35.785  13.028  -4.274  1.00 20.00    -0.293 OA
BRANCH   2   4
HETATM    4  C5  UNL     1     -33.826  14.429  -4.419  1.00 20.00     0.079 C 
HETATM    5  C2  UNL     1     -33.727  15.729  -3.642  1.00 20.00     0.013 C 
ENDBRANCH   2   4
ENDBRANCH   1   2
BRANCH   1   6
HETATM    6  O10 UNL     1     -35.877  14.445  -6.951  1.00 20.00    -0.355 OA
BRANCH   6   7
HETATM    7  C6  UNL     1     -35.564  15.440  -7.917  1.00 20.00     0.167 C 
HETATM    8  C3  UNL     1     -34.076  15.718  -7.876  1.00 20.00     0.033 C 
ENDBRANCH   6   7
ENDBRANCH   1   6
BRANCH   1   9
HETATM    9  O11 UNL     1     -37.397  15.042  -5.254  1.00 20.00    -0.355 OA
BRANCH   9  10
HETATM   10  C7  UNL     1     -37.923  16.363  -5.261  1.00 20.00     0.167 C 
HETATM   11  C4  UNL     1     -36.794  17.344  -5.025  1.00 20.00     0.033 C 
ENDBRANCH   9  10
ENDBRANCH   1   9
TORSDOF 6
ENDMDL
MODEL 2
REMARK VINA RESULT:      -3.6     12.505     13.984
REMARK  6 active torsions:
REMARK  status: ('A' for Active; 'I' for Inactive)
REMARK    1  A    between atoms: C1_1  and  C5_5 
REMARK    2  A    between atoms: C1_1  and  C8_8 
REMARK    3  A    between atoms: C6_6  and  O10_10 
REMARK    4  A    between atoms: C7_7  and  O11_11 
REMARK    5  A    between atoms: C8_8  and  O10_10 
REMARK    6  A    between atoms: C8_8  and  O11_11 
ROOT
HETATM    1  C8  UNL     1     -40.534  13.113   6.729  1.00 20.00     0.329 C 
ENDROOT
BRANCH   1   2
HETATM    2  C1  UNL     1     -42.047  12.926   6.747  1.00 20.00     0.181 C 
HETATM    3  O9  UNL     1     -42.589  12.110   7.492  1.00 20.00    -0.293 OA
BRANCH   2   4
HETATM    4  C5  UNL     1     -42.843  13.795   5.784  1.00 20.00     0.079 C 
HETATM    5  C2  UNL     1     -42.019  14.253   4.594  1.00 20.00     0.013 C 
ENDBRANCH   2   4
ENDBRANCH   1   2
BRANCH   1   6
HETATM    6  O10 UNL     1     -40.207  13.516   8.058  1.00 20.00    -0.355 OA
BRANCH   6   7
HETATM    7  C6  UNL     1     -40.340  14.920   8.240  1.00 20.00     0.167 C 
HETATM    8  C3  UNL     1     -40.180  15.243   9.711  1.00 20.00     0.033 C 
ENDBRANCH   6   7
ENDBRANCH   1   6
BRANCH   1   9
HETATM    9  O11 UNL     1     -39.900  11.890   6.382  1.00 20.00    -0.355 OA
BRANCH   9  10
HETATM   10  C7  UNL     1     -38.763  12.081   5.549  1.00 20.00     0.167 C 
HETATM   11  C4  UNL     1     -39.111  11.662   4.137  1.00 20.00     0.033 C 
ENDBRANCH   9  10
ENDBRANCH   1   9
TORSDOF 6
ENDMDL
MODEL 3
REMARK VINA RESULT:      -3.4     12.744     13.933
REMARK  6 active torsions:
REMARK  status: ('A' for Active; 'I' for Inactive)
REMARK    1  A    between atoms: C1_1  and  C5_5 
REMARK    2  A    between atoms: C1_1  and  C8_8 
REMARK    3  A    between atoms: C6_6  and  O10_10 
REMARK    4  A    between atoms: C7_7  and  O11_11 
REMARK    5  A    between atoms: C8_8  and  O10_10 
REMARK    6  A    between atoms: C8_8  and  O11_11 
ROOT
HETATM    1  C8  UNL     1     -40.792  13.391   7.088  1.00 20.00     0.329 C 
ENDROOT
BRANCH   1   2
HETATM    2  C1  UNL     1     -39.832  12.493   6.316  1.00 20.00     0.181 C 
HETATM    3  O9  UNL     1     -38.944  11.856   6.883  1.00 20.00    -0.293 OA
BRANCH   2   4
HETATM    4  C5  UNL     1     -40.026  12.443   4.807  1.00 20.00     0.079 C 
HETATM    5  C2  UNL     1     -38.960  11.617   4.110  1.00 20.00     0.013 C 
ENDBRANCH   2   4
ENDBRANCH   1   2
BRANCH   1   6
HETATM    6  O10 UNL     1     -41.953  12.585   7.286  1.00 20.00    -0.355 OA
BRANCH   6   7
HETATM    7  C6  UNL     1     -43.154  13.324   7.104  1.00 20.00     0.167 C 
HETATM    8  C3  UNL     1     -42.923  14.392   6.056  1.00 20.00     0.033 C 
ENDBRANCH   6   7
ENDBRANCH   1   6
BRANCH   1   9
HETATM    9  O11 UNL     1     -40.206  13.777   8.323  1.00 20.00    -0.355 OA
BRANCH   9  10
HETATM   10  C7  UNL     1     -40.252  15.182   8.534  1.00 20.00     0.167 C 
HETATM   11  C4  UNL     1     -41.196  15.478   9.680  1.00 20.00     0.033 C 
ENDBRANCH   9  10
ENDBRANCH   1   9
TORSDOF 6
ENDMDL
MODEL 4
REMARK VINA RESULT:      -3.3     12.443     13.503
REMARK  6 active torsions:
REMARK  status: ('A' for Active; 'I' for Inactive)
REMARK    1  A    between atoms: C1_1  and  C5_5 
REMARK    2  A    between atoms: C1_1  and  C8_8 
REMARK    3  A    between atoms: C6_6  and  O10_10 
REMARK    4  A    between atoms: C7_7  and  O11_11 
REMARK    5  A    between atoms: C8_8  and  O10_10 
REMARK    6  A    between atoms: C8_8  and  O11_11 
ROOT
HETATM    1  C8  UNL     1     -40.917  13.378   6.528  1.00 20.00     0.329 C 
ENDROOT
BRANCH   1   2
HETATM    2  C1  UNL     1     -40.488  14.143   7.774  1.00 20.00     0.181 C 
HETATM    3  O9  UNL     1     -40.299  13.575   8.849  1.00 20.00    -0.293 OA
BRANCH   2   4
HETATM    4  C5  UNL     1     -40.323  15.647   7.615  1.00 20.00     0.079 C 
HETATM    5  C2  UNL     1     -41.063  16.432   8.683  1.00 20.00     0.013 C 
ENDBRANCH   2   4
ENDBRANCH   1   2
BRANCH   1   6
HETATM    6  O10 UNL     1     -40.227  12.132   6.618  1.00 20.00    -0.355 OA
BRANCH   6   7
HETATM    7  C6  UNL     1     -39.016  12.135   5.874  1.00 20.00     0.167 C 
HETATM    8  C3  UNL     1     -39.315  11.740   4.443  1.00 20.00     0.033 C 
ENDBRANCH   6   7
ENDBRANCH   1   6
BRANCH   1   9
HETATM    9  O11 UNL     1     -42.326  13.196   6.532  1.00 20.00    -0.355 OA
BRANCH   9  10
HETATM   10  C7  UNL     1     -42.992  14.075   5.634  1.00 20.00     0.167 C 
HETATM   11  C4  UNL     1     -42.105  14.316   4.432  1.00 20.00     0.033 C 
ENDBRANCH   9  10
ENDBRANCH   1   9
TORSDOF 6
ENDMDL
MODEL 5
REMARK VINA RESULT:      -3.2      5.992      7.207
REMARK  6 active torsions:
REMARK  status: ('A' for Active; 'I' for Inactive)
REMARK    1  A    between atoms: C1_1  and  C5_5 
REMARK    2  A    between atoms: C1_1  and  C8_8 
REMARK    3  A    between atoms: C6_6  and  O10_10 
REMARK    4  A    between atoms: C7_7  and  O11_11 
REMARK    5  A    between atoms: C8_8  and  O10_10 
REMARK    6  A    between atoms: C8_8  and  O11_11 
ROOT
HETATM    1  C8  UNL     1     -32.830  18.975  -0.599  1.00 20.00     0.329 C 
ENDROOT
BRANCH   1   2
HETATM    2  C1  UNL     1     -31.495  18.770   0.105  1.00 20.00     0.181 C 
HETATM    3  O9  UNL     1     -30.471  18.486  -0.517  1.00 20.00    -0.293 OA
BRANCH   2   4
HETATM    4  C5  UNL     1     -31.504  18.922   1.619  1.00 20.00     0.079 C 
HETATM    5  C2  UNL     1     -30.161  18.594   2.247  1.00 20.00     0.013 C 
ENDBRANCH   2   4
ENDBRANCH   1   2
BRANCH   1   6
HETATM    6  O10 UNL     1     -32.674  18.324  -1.859  1.00 20.00    -0.355 OA
BRANCH   6   7
HETATM    7  C6  UNL     1     -33.288  17.041  -1.879  1.00 20.00     0.167 C 
HETATM    8  C3  UNL     1     -33.262  16.504  -3.294  1.00 20.00     0.033 C 
ENDBRANCH   6   7
ENDBRANCH   1   6
BRANCH   1   9
HETATM    9  O11 UNL     1     -33.875  18.390   0.165  1.00 20.00    -0.355 OA
BRANCH   9  10
HETATM   10  C7  UNL     1     -34.993  19.257   0.317  1.00 20.00     0.167 C 
HETATM   11  C4  UNL     1     -35.460  19.210   1.756  1.00 20.00     0.033 C 
ENDBRANCH   9  10
ENDBRANCH   1   9
TORSDOF 6
ENDMDL
MODEL 6
REMARK VINA RESULT:      -3.2      4.062      5.216
REMARK  6 active torsions:
REMARK  status: ('A' for Active; 'I' for Inactive)
REMARK    1  A    between atoms: C1_1  and  C5_5 
REMARK    2  A    between atoms: C1_1  and  C8_8 
REMARK    3  A    between atoms: C6_6  and  O10_10 
REMARK    4  A    between atoms: C7_7  and  O11_11 
REMARK    5  A    between atoms: C8_8  and  O10_10 
REMARK    6  A    between atoms: C8_8  and  O11_11 
ROOT
HETATM    1  C8  UNL     1     -33.589  17.776  -2.138  1.00 20.00     0.329 C 
ENDROOT
BRANCH   1   2
HETATM    2  C1  UNL     1     -33.025  18.051  -0.749  1.00 20.00     0.181 C 
HETATM    3  O9  UNL     1     -33.708  17.914   0.266  1.00 20.00    -0.293 OA
BRANCH   2   4
HETATM    4  C5  UNL     1     -31.577  18.516  -0.693  1.00 20.00     0.079 C 
HETATM    5  C2  UNL     1     -31.012  18.495   0.716  1.00 20.00     0.013 C 
ENDBRANCH   2   4
ENDBRANCH   1   2
BRANCH   1   6
HETATM    6  O10 UNL     1     -33.517  16.358  -2.279  1.00 20.00    -0.355 OA
BRANCH   6   7
HETATM    7  C6  UNL     1     -33.085  15.971  -3.577  1.00 20.00     0.167 C 
HETATM    8  C3  UNL     1     -33.925  14.802  -4.048  1.00 20.00     0.033 C 
ENDBRANCH   6   7
ENDBRANCH   1   6
BRANCH   1   9
HETATM    9  O11 UNL     1     -34.929  18.241  -2.216  1.00 20.00    -0.355 OA
BRANCH   9  10
HETATM   10  C7  UNL     1     -35.160  19.054  -3.361  1.00 20.00     0.167 C 
HETATM   11  C4  UNL     1     -35.960  18.263  -4.373  1.00 20.00     0.033 C 
ENDBRANCH   9  10
ENDBRANCH   1   9
TORSDOF 6
ENDMDL
MODEL 7
REMARK VINA RESULT:      -3.2      0.900      3.444
REMARK  6 active torsions:
REMARK  status: ('A' for Active; 'I' for Inactive)
REMARK    1  A    between atoms: C1_1  and  C5_5 
REMARK    2  A    between atoms: C1_1  and  C8_8 
REMARK    3  A    between atoms: C6_6  and  O10_10 
REMARK    4  A    between atoms: C7_7  and  O11_11 
REMARK    5  A    between atoms: C8_8  and  O10_10 
REMARK    6  A    between atoms: C8_8  and  O11_11 
ROOT
HETATM    1  C8  UNL     1     -35.753  15.357  -5.553  1.00 20.00     0.329 C 
ENDROOT
BRANCH   1   2
HETATM    2  C1  UNL     1     -35.542  15.098  -7.040  1.00 20.00     0.181 C 
HETATM    3  O9  UNL     1     -36.121  14.184  -7.626  1.00 20.00    -0.293 OA
BRANCH   2   4
HETATM    4  C5  UNL     1     -34.566  16.024  -7.750  1.00 20.00     0.079 C 
HETATM    5  C2  UNL     1     -34.469  17.387  -7.091  1.00 20.00     0.013 C 
ENDBRANCH   2   4
ENDBRANCH   1   2
BRANCH   1   6
HETATM    6  O10 UNL     1     -37.168  15.300  -5.377  1.00 20.00    -0.355 OA
BRANCH   6   7
HETATM    7  C6  UNL     1     -37.789  16.555  -5.626  1.00 20.00     0.167 C 
HETATM    8  C3  UNL     1     -37.224  17.583  -4.669  1.00 20.00     0.033 C 
ENDBRANCH   6   7
ENDBRANCH   1   6
BRANCH   1   9
HETATM    9  O11 UNL     1     -35.091  14.358  -4.790  1.00 20.00    -0.355 OA
BRANCH   9  10
HETATM   10  C7  UNL     1     -33.714  14.649  -4.586  1.00 20.00     0.167 C 
HETATM   11  C4  UNL     1     -33.594  15.803  -3.614  1.00 20.00     0.033 C 
ENDBRANCH   9  10
ENDBRANCH   1   9
TORSDOF 6
ENDMDL
MODEL 8
REMARK VINA RESULT:      -3.1     10.753     12.619
REMARK  6 active torsions:
REMARK  status: ('A' for Active; 'I' for Inactive)
REMARK    1  A    between atoms: C1_1  and  C5_5 
REMARK    2  A    between atoms: C1_1  and  C8_8 
REMARK    3  A    between atoms: C6_6  and  O10_10 
REMARK    4  A    between atoms: C7_7  and  O11_11 
REMARK    5  A    between atoms: C8_8  and  O10_10 
REMARK    6  A    between atoms: C8_8  and  O11_11 
ROOT
HETATM    1  C8  UNL     1     -32.249   7.327   3.388  1.00 20.00     0.329 C 
ENDROOT
BRANCH   1   2
HETATM    2  C1  UNL     1     -32.697   8.213   4.544  1.00 20.00     0.181 C 
HETATM    3  O9  UNL     1     -31.988   9.123   4.975  1.00 20.00    -0.293 OA
BRANCH   2   4
HETATM    4  C5  UNL     1     -34.060   7.898   5.143  1.00 20.00     0.079 C 
HETATM    5  C2  UNL     1     -33.962   7.080   6.418  1.00 20.00     0.013 C 
ENDBRANCH   2   4
ENDBRANCH   1   2
BRANCH   1   6
HETATM    6  O10 UNL     1     -33.397   6.539   3.076  1.00 20.00    -0.355 OA
BRANCH   6   7
HETATM    7  C6  UNL     1     -33.084   5.157   2.963  1.00 20.00     0.167 C 
HETATM    8  C3  UNL     1     -33.875   4.386   3.998  1.00 20.00     0.033 C 
ENDBRANCH   6   7
ENDBRANCH   1   6
BRANCH   1   9
HETATM    9  O11 UNL     1     -31.854   8.133   2.286  1.00 20.00    -0.355 OA
BRANCH   9  10
HETATM   10  C7  UNL     1     -32.872   9.038   1.878  1.00 20.00     0.167 C 
HETATM   11  C4  UNL     1     -32.707   9.331   0.402  1.00 20.00     0.033 C 
ENDBRANCH   9  10
ENDBRANCH   1   9
TORSDOF 6
ENDMDL
MODEL 9
REMARK VINA RESULT:      -3.1      4.537      6.137
REMARK  6 active torsions:
REMARK  status: ('A' for Active; 'I' for Inactive)
REMARK    1  A    between atoms: C1_1  and  C5_5 
REMARK    2  A    between atoms: C1_1  and  C8_8 
REMARK    3  A    between atoms: C6_6  and  O10_10 
REMARK    4  A    between atoms: C7_7  and  O11_11 
REMARK    5  A    between atoms: C8_8  and  O10_10 
REMARK    6  A    between atoms: C8_8  and  O11_11 
ROOT
HETATM    1  C8  UNL     1     -33.746  17.738  -1.528  1.00 20.00     0.329 C 
ENDROOT
BRANCH   1   2
HETATM    2  C1  UNL     1     -32.575  18.525  -0.954  1.00 20.00     0.181 C 
HETATM    3  O9  UNL     1     -31.773  19.114  -1.679  1.00 20.00    -0.293 OA
BRANCH   2   4
HETATM    4  C5  UNL     1     -32.446  18.529   0.562  1.00 20.00     0.079 C 
HETATM    5  C2  UNL     1     -31.001  18.526   1.026  1.00 20.00     0.013 C 
ENDBRANCH   2   4
ENDBRANCH   1   2
BRANCH   1   6
HETATM    6  O10 UNL     1     -34.367  18.638  -2.444  1.00 20.00    -0.355 OA
BRANCH   6   7
HETATM    7  C6  UNL     1     -35.516  19.262  -1.885  1.00 20.00     0.167 C 
HETATM    8  C3  UNL     1     -36.729  18.898  -2.716  1.00 20.00     0.033 C 
ENDBRANCH   6   7
ENDBRANCH   1   6
BRANCH   1   9
HETATM    9  O11 UNL     1     -33.270  16.571  -2.184  1.00 20.00    -0.355 OA
BRANCH   9  10
HETATM   10  C7  UNL     1     -33.667  16.510  -3.548  1.00 20.00     0.167 C 
HETATM   11  C4  UNL     1     -33.309  15.149  -4.105  1.00 20.00     0.033 C 
ENDBRANCH   9  10
ENDBRANCH   1   9
TORSDOF 6
ENDMDL
