MODEL 1
REMARK VINA RESULT:      -3.6      0.000      0.000
REMARK  4 active torsions:
REMARK  status: ('A' for Active; 'I' for Inactive)
REMARK    1  A    between atoms: C2_2  and  C6_6 
REMARK    2  A    between atoms: C2_2  and  C7_7 
REMARK    3  A    between atoms: C6_6  and  C8_8 
REMARK    4  A    between atoms: C7_7  and  O10_10 
ROOT
HETATM    1  C1  UNL     1     -33.344   6.548   6.525  1.00 20.00     0.209 A 
HETATM    2  C2  UNL     1     -34.091   6.632   5.215  1.00 20.00     0.104 A 
HETATM    3  O9  UNL     1     -34.774   6.665   6.476  1.00 20.00    -0.373 OA
ENDROOT
BRANCH   2   4
HETATM    4  C6  UNL     1     -34.134   7.955   4.460  1.00 20.00     0.051 C 
BRANCH   4   5
HETATM    5  C8  UNL     1     -32.806   8.395   3.793  1.00 20.00    -0.049 C 
HETATM    6  C3  UNL     1     -31.913   9.033   4.875  1.00 20.00     0.014 C 
HETATM    7  C4  UNL     1     -33.056   9.437   2.691  1.00 20.00     0.014 C 
HETATM    8  C5  UNL     1     -32.060   7.192   3.193  1.00 20.00     0.014 C 
ENDBRANCH   4   5
ENDBRANCH   2   4
BRANCH   2   9
HETATM    9  C7  UNL     1     -34.340   5.388   4.427  1.00 20.00     0.204 C 
BRANCH   9  10
HETATM   10  O10 UNL     1     -35.471   4.701   4.957  1.00 20.00    -0.398 OA
HETATM   11  H26 UNL     1     -35.565   4.991   5.877  1.00 20.00     0.209 HD
ENDBRANCH   9  10
ENDBRANCH   2   9
TORSDOF 4
ENDMDL
MODEL 2
REMARK VINA RESULT:      -3.6     15.153     16.170
REMARK  4 active torsions:
REMARK  status: ('A' for Active; 'I' for Inactive)
REMARK    1  A    between atoms: C2_2  and  C6_6 
REMARK    2  A    between atoms: C2_2  and  C7_7 
REMARK    3  A    between atoms: C6_6  and  C8_8 
REMARK    4  A    between atoms: C7_7  and  O10_10 
ROOT
HETATM    1  C1  UNL     1     -23.363  19.172   8.512  1.00 20.00     0.209 A 
HETATM    2  C2  UNL     1     -22.853  17.948   9.234  1.00 20.00     0.104 A 
HETATM    3  O9  UNL     1     -22.741  19.261   9.802  1.00 20.00    -0.373 OA
ENDROOT
BRANCH   2   4
HETATM    4  C6  UNL     1     -23.837  17.045   9.968  1.00 20.00     0.051 C 
BRANCH   4   5
HETATM    5  C8  UNL     1     -24.053  17.363  11.469  1.00 20.00    -0.049 C 
HETATM    6  C3  UNL     1     -24.478  16.065  12.181  1.00 20.00     0.014 C 
HETATM    7  C4  UNL     1     -25.164  18.410  11.660  1.00 20.00     0.014 C 
HETATM    8  C5  UNL     1     -22.758  17.875  12.121  1.00 20.00     0.014 C 
ENDBRANCH   4   5
ENDBRANCH   2   4
BRANCH   2   9
HETATM    9  C7  UNL     1     -21.543  17.350   8.836  1.00 20.00     0.204 C 
BRANCH   9  10
HETATM   10  O10 UNL     1     -21.646  16.792   7.528  1.00 20.00    -0.398 OA
HETATM   11  H26 UNL     1     -20.740  16.707   7.192  1.00 20.00     0.209 HD
ENDBRANCH   9  10
ENDBRANCH   2   9
TORSDOF 4
ENDMDL
MODEL 3
REMARK VINA RESULT:      -3.5     11.670     13.275
REMARK  4 active torsions:
REMARK  status: ('A' for Active; 'I' for Inactive)
REMARK    1  A    between atoms: C2_2  and  C6_6 
REMARK    2  A    between atoms: C2_2  and  C7_7 
REMARK    3  A    between atoms: C6_6  and  C8_8 
REMARK    4  A    between atoms: C7_7  and  O10_10 
ROOT
HETATM    1  C1  UNL     1     -36.076  15.219  -5.861  1.00 20.00     0.209 A 
HETATM    2  C2  UNL     1     -34.695  15.361  -5.268  1.00 20.00     0.104 A 
HETATM    3  O9  UNL     1     -34.905  14.757  -6.552  1.00 20.00    -0.373 OA
ENDROOT
BRANCH   2   4
HETATM    4  C6  UNL     1     -33.985  16.708  -5.334  1.00 20.00     0.051 C 
BRANCH   4   5
HETATM    5  C8  UNL     1     -34.111  17.599  -4.071  1.00 20.00    -0.049 C 
HETATM    6  C3  UNL     1     -33.317  18.896  -4.316  1.00 20.00     0.014 C 
HETATM    7  C4  UNL     1     -33.527  16.895  -2.835  1.00 20.00     0.014 C 
HETATM    8  C5  UNL     1     -35.578  17.969  -3.797  1.00 20.00     0.014 C 
ENDBRANCH   4   5
ENDBRANCH   2   4
BRANCH   2   9
HETATM    9  C7  UNL     1     -34.241  14.401  -4.217  1.00 20.00     0.204 C 
BRANCH   9  10
HETATM   10  O10 UNL     1     -33.025  13.780  -4.625  1.00 20.00    -0.398 OA
HETATM   11  H26 UNL     1     -32.400  14.496  -4.817  1.00 20.00     0.209 HD
ENDBRANCH   9  10
ENDBRANCH   2   9
TORSDOF 4
ENDMDL
MODEL 4
REMARK VINA RESULT:      -3.5     11.836     13.081
REMARK  4 active torsions:
REMARK  status: ('A' for Active; 'I' for Inactive)
REMARK    1  A    between atoms: C2_2  and  C6_6 
REMARK    2  A    between atoms: C2_2  and  C7_7 
REMARK    3  A    between atoms: C6_6  and  C8_8 
REMARK    4  A    between atoms: C7_7  and  O10_10 
ROOT
HETATM    1  C1  UNL     1     -34.547  16.091  -6.767  1.00 20.00     0.209 A 
HETATM    2  C2  UNL     1     -34.542  15.284  -5.491  1.00 20.00     0.104 A 
HETATM    3  O9  UNL     1     -33.839  14.847  -6.663  1.00 20.00    -0.373 OA
ENDROOT
BRANCH   2   4
HETATM    4  C6  UNL     1     -33.626  15.697  -4.345  1.00 20.00     0.051 C 
BRANCH   4   5
HETATM    5  C8  UNL     1     -33.963  17.050  -3.668  1.00 20.00    -0.049 C 
HETATM    6  C3  UNL     1     -33.653  16.926  -2.164  1.00 20.00     0.014 C 
HETATM    7  C4  UNL     1     -35.452  17.397  -3.831  1.00 20.00     0.014 C 
HETATM    8  C5  UNL     1     -33.111  18.190  -4.248  1.00 20.00     0.014 C 
ENDBRANCH   4   5
ENDBRANCH   2   4
BRANCH   2   9
HETATM    9  C7  UNL     1     -35.726  14.439  -5.149  1.00 20.00     0.204 C 
BRANCH   9  10
HETATM   10  O10 UNL     1     -35.293  13.235  -4.520  1.00 20.00    -0.398 OA
HETATM   11  H26 UNL     1     -35.176  13.441  -3.580  1.00 20.00     0.209 HD
ENDBRANCH   9  10
ENDBRANCH   2   9
TORSDOF 4
ENDMDL
MODEL 5
REMARK VINA RESULT:      -3.4     11.694     13.287
REMARK  4 active torsions:
REMARK  status: ('A' for Active; 'I' for Inactive)
REMARK    1  A    between atoms: C2_2  and  C6_6 
REMARK    2  A    between atoms: C2_2  and  C7_7 
REMARK    3  A    between atoms: C6_6  and  C8_8 
REMARK    4  A    between atoms: C7_7  and  O10_10 
ROOT
HETATM    1  C1  UNL     1     -36.344  15.100  -5.644  1.00 20.00     0.209 A 
HETATM    2  C2  UNL     1     -34.896  15.284  -5.257  1.00 20.00     0.104 A 
HETATM    3  O9  UNL     1     -35.275  14.597  -6.458  1.00 20.00    -0.373 OA
ENDROOT
BRANCH   2   4
HETATM    4  C6  UNL     1     -34.217  16.625  -5.507  1.00 20.00     0.051 C 
BRANCH   4   5
HETATM    5  C8  UNL     1     -34.219  17.614  -4.313  1.00 20.00    -0.049 C 
HETATM    6  C3  UNL     1     -35.682  17.932  -3.953  1.00 20.00     0.014 C 
HETATM    7  C4  UNL     1     -33.510  18.928  -4.680  1.00 20.00     0.014 C 
HETATM    8  C5  UNL     1     -33.536  16.998  -3.080  1.00 20.00     0.014 C 
ENDBRANCH   4   5
ENDBRANCH   2   4
BRANCH   2   9
HETATM    9  C7  UNL     1     -34.292  14.395  -4.220  1.00 20.00     0.204 C 
BRANCH   9  10
HETATM   10  O10 UNL     1     -33.074  13.840  -4.710  1.00 20.00    -0.398 OA
HETATM   11  H26 UNL     1     -32.358  14.386  -4.352  1.00 20.00     0.209 HD
ENDBRANCH   9  10
ENDBRANCH   2   9
TORSDOF 4
ENDMDL
MODEL 6
REMARK VINA RESULT:      -3.4     11.775     12.789
REMARK  4 active torsions:
REMARK  status: ('A' for Active; 'I' for Inactive)
REMARK    1  A    between atoms: C2_2  and  C6_6 
REMARK    2  A    between atoms: C2_2  and  C7_7 
REMARK    3  A    between atoms: C6_6  and  C8_8 
REMARK    4  A    between atoms: C7_7  and  O10_10 
ROOT
HETATM    1  C1  UNL     1     -32.717  15.219  -4.282  1.00 20.00     0.209 A 
HETATM    2  C2  UNL     1     -33.739  16.152  -3.678  1.00 20.00     0.104 A 
HETATM    3  O9  UNL     1     -33.992  14.747  -3.821  1.00 20.00    -0.373 OA
ENDROOT
BRANCH   2   4
HETATM    4  C6  UNL     1     -33.581  16.603  -2.231  1.00 20.00     0.051 C 
BRANCH   4   5
HETATM    5  C8  UNL     1     -33.282  18.110  -2.023  1.00 20.00    -0.049 C 
HETATM    6  C3  UNL     1     -32.174  18.239  -0.961  1.00 20.00     0.014 C 
HETATM    7  C4  UNL     1     -34.528  18.858  -1.521  1.00 20.00     0.014 C 
HETATM    8  C5  UNL     1     -32.789  18.763  -3.325  1.00 20.00     0.014 C 
ENDBRANCH   4   5
ENDBRANCH   2   4
BRANCH   2   9
HETATM    9  C7  UNL     1     -34.574  17.008  -4.573  1.00 20.00     0.204 C 
BRANCH   9  10
HETATM   10  O10 UNL     1     -35.951  16.858  -4.235  1.00 20.00    -0.398 OA
HETATM   11  H26 UNL     1     -36.037  15.996  -3.800  1.00 20.00     0.209 HD
ENDBRANCH   9  10
ENDBRANCH   2   9
TORSDOF 4
ENDMDL
MODEL 7
REMARK VINA RESULT:      -3.3     11.960     12.979
REMARK  4 active torsions:
REMARK  status: ('A' for Active; 'I' for Inactive)
REMARK    1  A    between atoms: C2_2  and  C6_6 
REMARK    2  A    between atoms: C2_2  and  C7_7 
REMARK    3  A    between atoms: C6_6  and  C8_8 
REMARK    4  A    between atoms: C7_7  and  O10_10 
ROOT
HETATM    1  C1  UNL     1     -34.080  19.243   0.478  1.00 20.00     0.209 A 
HETATM    2  C2  UNL     1     -33.053  18.548  -0.383  1.00 20.00     0.104 A 
HETATM    3  O9  UNL     1     -33.174  18.271   1.020  1.00 20.00    -0.373 OA
ENDROOT
BRANCH   2   4
HETATM    4  C6  UNL     1     -33.482  17.389  -1.275  1.00 20.00     0.051 C 
BRANCH   4   5
HETATM    5  C8  UNL     1     -33.828  17.759  -2.740  1.00 20.00    -0.049 C 
HETATM    6  C3  UNL     1     -33.602  16.513  -3.618  1.00 20.00     0.014 C 
HETATM    7  C4  UNL     1     -32.921  18.889  -3.256  1.00 20.00     0.014 C 
HETATM    8  C5  UNL     1     -35.298  18.190  -2.873  1.00 20.00     0.014 C 
ENDBRANCH   4   5
ENDBRANCH   2   4
BRANCH   2   9
HETATM    9  C7  UNL     1     -31.793  19.262  -0.749  1.00 20.00     0.204 C 
BRANCH   9  10
HETATM   10  O10 UNL     1     -30.666  18.506  -0.312  1.00 20.00    -0.398 OA
HETATM   11  H26 UNL     1     -30.738  17.635  -0.732  1.00 20.00     0.209 HD
ENDBRANCH   9  10
ENDBRANCH   2   9
TORSDOF 4
ENDMDL
MODEL 8
REMARK VINA RESULT:      -3.3     11.975     13.316
REMARK  4 active torsions:
REMARK  status: ('A' for Active; 'I' for Inactive)
REMARK    1  A    between atoms: C2_2  and  C6_6 
REMARK    2  A    between atoms: C2_2  and  C7_7 
REMARK    3  A    between atoms: C6_6  and  C8_8 
REMARK    4  A    between atoms: C7_7  and  O10_10 
ROOT
HETATM    1  C1  UNL     1     -35.457  16.999  -4.797  1.00 20.00     0.209 A 
HETATM    2  C2  UNL     1     -34.042  16.799  -4.311  1.00 20.00     0.104 A 
HETATM    3  O9  UNL     1     -34.351  16.913  -5.707  1.00 20.00    -0.373 OA
ENDROOT
BRANCH   2   4
HETATM    4  C6  UNL     1     -33.264  17.987  -3.757  1.00 20.00     0.051 C 
BRANCH   4   5
HETATM    5  C8  UNL     1     -33.571  18.366  -2.285  1.00 20.00    -0.049 C 
HETATM    6  C3  UNL     1     -33.637  17.069  -1.458  1.00 20.00     0.014 C 
HETATM    7  C4  UNL     1     -34.923  19.089  -2.169  1.00 20.00     0.014 C 
HETATM    8  C5  UNL     1     -32.466  19.262  -1.700  1.00 20.00     0.014 C 
ENDBRANCH   4   5
ENDBRANCH   2   4
BRANCH   2   9
HETATM    9  C7  UNL     1     -33.588  15.436  -3.904  1.00 20.00     0.204 C 
BRANCH   9  10
HETATM   10  O10 UNL     1     -32.434  15.068  -4.655  1.00 20.00    -0.398 OA
HETATM   11  H26 UNL     1     -32.572  14.153  -4.944  1.00 20.00     0.209 HD
ENDBRANCH   9  10
ENDBRANCH   2   9
TORSDOF 4
ENDMDL
MODEL 9
REMARK VINA RESULT:      -3.3      9.926     10.975
REMARK  4 active torsions:
REMARK  status: ('A' for Active; 'I' for Inactive)
REMARK    1  A    between atoms: C2_2  and  C6_6 
REMARK    2  A    between atoms: C2_2  and  C7_7 
REMARK    3  A    between atoms: C6_6  and  C8_8 
REMARK    4  A    between atoms: C7_7  and  O10_10 
ROOT
HETATM    1  C1  UNL     1     -40.963  16.306   7.966  1.00 20.00     0.209 A 
HETATM    2  C2  UNL     1     -41.114  14.818   8.173  1.00 20.00     0.104 A 
HETATM    3  O9  UNL     1     -42.083  15.580   7.439  1.00 20.00    -0.373 OA
ENDROOT
BRANCH   2   4
HETATM    4  C6  UNL     1     -40.309  13.854   7.309  1.00 20.00     0.051 C 
BRANCH   4   5
HETATM    5  C8  UNL     1     -41.129  13.009   6.301  1.00 20.00    -0.049 C 
HETATM    6  C3  UNL     1     -40.238  11.855   5.803  1.00 20.00     0.014 C 
HETATM    7  C4  UNL     1     -41.558  13.852   5.089  1.00 20.00     0.014 C 
HETATM    8  C5  UNL     1     -42.378  12.407   6.967  1.00 20.00     0.014 C 
ENDBRANCH   4   5
ENDBRANCH   2   4
BRANCH   2   9
HETATM    9  C7  UNL     1     -41.617  14.304   9.482  1.00 20.00     0.204 C 
BRANCH   9  10
HETATM   10  O10 UNL     1     -40.607  13.519  10.112  1.00 20.00    -0.398 OA
HETATM   11  H26 UNL     1     -40.835  13.480  11.054  1.00 20.00     0.209 HD
ENDBRANCH   9  10
ENDBRANCH   2   9
TORSDOF 4
ENDMDL
