MODEL 1
REMARK VINA RESULT:      -4.4      0.000      0.000
REMARK  1 active torsions:
REMARK  status: ('A' for Active; 'I' for Inactive)
REMARK    1  A    between atoms: C3_3  and  C7_7 
ROOT
HETATM    1  C1  UNL     1     -32.573   7.279   3.099  1.00 20.00    -0.082 C 
HETATM    2  C2  UNL     1     -32.667   7.856   4.318  1.00 20.00    -0.081 C 
HETATM    3  C4  UNL     1     -33.121   5.896   2.821  1.00 20.00     0.035 C 
HETATM    4  C5  UNL     1     -33.378   7.180   5.476  1.00 20.00     0.050 C 
HETATM    5  C6  UNL     1     -33.531   5.105   4.066  1.00 20.00     0.021 C 
HETATM    6  C7  UNL     1     -34.261   5.980   5.090  1.00 20.00     0.013 C 
HETATM    7  C8  UNL     1     -31.944   7.921   1.891  1.00 20.00     0.043 C 
HETATM    8  C9  UNL     1     -32.079   9.194   4.682  1.00 20.00     0.043 C 
HETATM    9  C10 UNL     1     -34.614   5.161   6.336  1.00 20.00     0.023 C 
ENDROOT
BRANCH   6  10
HETATM   10  C3  UNL     1     -35.572   6.461   4.513  1.00 20.00     0.240 C 
HETATM   11  O11 UNL     1     -36.423   5.709   4.050  1.00 20.00    -0.306 OA
ENDBRANCH   6  10
TORSDOF 1
ENDMDL
MODEL 2
REMARK VINA RESULT:      -4.4     12.176     13.416
REMARK  1 active torsions:
REMARK  status: ('A' for Active; 'I' for Inactive)
REMARK    1  A    between atoms: C3_3  and  C7_7 
ROOT
HETATM    1  C1  UNL     1     -34.397  17.296  -4.379  1.00 20.00    -0.082 C 
HETATM    2  C2  UNL     1     -33.704  16.395  -3.648  1.00 20.00    -0.081 C 
HETATM    3  C4  UNL     1     -34.992  18.543  -3.761  1.00 20.00     0.035 C 
HETATM    4  C5  UNL     1     -33.427  16.598  -2.169  1.00 20.00     0.050 C 
HETATM    5  C6  UNL     1     -34.991  18.565  -2.230  1.00 20.00     0.021 C 
HETATM    6  C7  UNL     1     -33.682  18.024  -1.647  1.00 20.00     0.013 C 
HETATM    7  C8  UNL     1     -34.647  17.191  -5.860  1.00 20.00     0.043 C 
HETATM    8  C9  UNL     1     -33.150  15.100  -4.183  1.00 20.00     0.043 C 
HETATM    9  C10 UNL     1     -33.740  18.023  -0.116  1.00 20.00     0.023 C 
ENDROOT
BRANCH   6  10
HETATM   10  C3  UNL     1     -32.536  18.931  -2.028  1.00 20.00     0.240 C 
HETATM   11  O11 UNL     1     -31.545  19.100  -1.325  1.00 20.00    -0.306 OA
ENDBRANCH   6  10
TORSDOF 1
ENDMDL
MODEL 3
REMARK VINA RESULT:      -3.9     12.059     13.494
REMARK  1 active torsions:
REMARK  status: ('A' for Active; 'I' for Inactive)
REMARK    1  A    between atoms: C3_3  and  C7_7 
ROOT
HETATM    1  C1  UNL     1     -33.829  16.621  -3.464  1.00 20.00    -0.082 C 
HETATM    2  C2  UNL     1     -34.681  17.344  -4.225  1.00 20.00    -0.081 C 
HETATM    3  C4  UNL     1     -33.622  15.137  -3.681  1.00 20.00     0.035 C 
HETATM    4  C5  UNL     1     -35.446  16.730  -5.384  1.00 20.00     0.050 C 
HETATM    5  C6  UNL     1     -34.635  14.477  -4.620  1.00 20.00     0.021 C 
HETATM    6  C7  UNL     1     -34.941  15.350  -5.841  1.00 20.00     0.013 C 
HETATM    7  C8  UNL     1     -32.988  17.180  -2.347  1.00 20.00     0.043 C 
HETATM    8  C9  UNL     1     -34.990  18.803  -4.016  1.00 20.00     0.043 C 
HETATM    9  C10 UNL     1     -35.990  14.673  -6.731  1.00 20.00     0.023 C 
ENDROOT
BRANCH   6  10
HETATM   10  C3  UNL     1     -33.701  15.503  -6.689  1.00 20.00     0.240 C 
HETATM   11  O11 UNL     1     -33.581  15.010  -7.806  1.00 20.00    -0.306 OA
ENDBRANCH   6  10
TORSDOF 1
ENDMDL
MODEL 4
REMARK VINA RESULT:      -3.7     10.331     11.476
REMARK  1 active torsions:
REMARK  status: ('A' for Active; 'I' for Inactive)
REMARK    1  A    between atoms: C3_3  and  C7_7 
ROOT
HETATM    1  C1  UNL     1     -42.043  15.851   6.325  1.00 20.00    -0.082 C 
HETATM    2  C2  UNL     1     -41.121  15.441   7.225  1.00 20.00    -0.081 C 
HETATM    3  C4  UNL     1     -42.437  15.002   5.136  1.00 20.00     0.035 C 
HETATM    4  C5  UNL     1     -40.458  14.078   7.135  1.00 20.00     0.050 C 
HETATM    5  C6  UNL     1     -41.530  13.796   4.879  1.00 20.00     0.021 C 
HETATM    6  C7  UNL     1     -41.138  13.083   6.177  1.00 20.00     0.013 C 
HETATM    7  C8  UNL     1     -42.788  17.157   6.394  1.00 20.00     0.043 C 
HETATM    8  C9  UNL     1     -40.630  16.264   8.386  1.00 20.00     0.043 C 
HETATM    9  C10 UNL     1     -40.197  11.910   5.879  1.00 20.00     0.023 C 
ENDROOT
BRANCH   6  10
HETATM   10  C3  UNL     1     -42.365  12.488   6.827  1.00 20.00     0.240 C 
HETATM   11  O11 UNL     1     -42.521  12.422   8.043  1.00 20.00    -0.306 OA
ENDBRANCH   6  10
TORSDOF 1
ENDMDL
MODEL 5
REMARK VINA RESULT:      -3.6     11.850     13.891
REMARK  1 active torsions:
REMARK  status: ('A' for Active; 'I' for Inactive)
REMARK    1  A    between atoms: C3_3  and  C7_7 
ROOT
HETATM    1  C1  UNL     1     -34.009  16.735  -3.776  1.00 20.00    -0.082 C 
HETATM    2  C2  UNL     1     -33.917  15.690  -4.629  1.00 20.00    -0.081 C 
HETATM    3  C4  UNL     1     -34.757  18.001  -4.136  1.00 20.00     0.035 C 
HETATM    4  C5  UNL     1     -34.604  15.692  -5.982  1.00 20.00     0.050 C 
HETATM    5  C6  UNL     1     -35.153  18.116  -5.610  1.00 20.00     0.021 C 
HETATM    6  C7  UNL     1     -35.668  16.788  -6.173  1.00 20.00     0.013 C 
HETATM    7  C8  UNL     1     -33.412  16.772  -2.394  1.00 20.00     0.043 C 
HETATM    8  C9  UNL     1     -33.129  14.435  -4.365  1.00 20.00     0.043 C 
HETATM    9  C10 UNL     1     -36.013  16.936  -7.660  1.00 20.00     0.023 C 
ENDROOT
BRANCH   6  10
HETATM   10  C3  UNL     1     -36.951  16.397  -5.477  1.00 20.00     0.240 C 
HETATM   11  O11 UNL     1     -37.340  15.237  -5.380  1.00 20.00    -0.306 OA
ENDBRANCH   6  10
TORSDOF 1
ENDMDL
MODEL 6
REMARK VINA RESULT:      -3.6     12.129     13.752
REMARK  1 active torsions:
REMARK  status: ('A' for Active; 'I' for Inactive)
REMARK    1  A    between atoms: C3_3  and  C7_7 
ROOT
HETATM    1  C1  UNL     1     -34.873  18.128  -3.644  1.00 20.00    -0.082 C 
HETATM    2  C2  UNL     1     -34.076  17.079  -3.341  1.00 20.00    -0.081 C 
HETATM    3  C4  UNL     1     -35.412  18.350  -5.040  1.00 20.00     0.035 C 
HETATM    4  C5  UNL     1     -33.712  16.021  -4.367  1.00 20.00     0.050 C 
HETATM    5  C6  UNL     1     -34.774  17.475  -6.122  1.00 20.00     0.021 C 
HETATM    6  C7  UNL     1     -34.567  16.033  -5.648  1.00 20.00     0.013 C 
HETATM    7  C8  UNL     1     -35.328  19.173  -2.660  1.00 20.00     0.043 C 
HETATM    8  C9  UNL     1     -33.446  16.840  -1.994  1.00 20.00     0.043 C 
HETATM    9  C10 UNL     1     -33.887  15.203  -6.743  1.00 20.00     0.023 C 
ENDROOT
BRANCH   6  10
HETATM   10  C3  UNL     1     -35.904  15.380  -5.388  1.00 20.00     0.240 C 
HETATM   11  O11 UNL     1     -36.370  14.491  -6.094  1.00 20.00    -0.306 OA
ENDBRANCH   6  10
TORSDOF 1
ENDMDL
MODEL 7
REMARK VINA RESULT:      -3.4     10.089     11.577
REMARK  1 active torsions:
REMARK  status: ('A' for Active; 'I' for Inactive)
REMARK    1  A    between atoms: C3_3  and  C7_7 
ROOT
HETATM    1  C1  UNL     1     -42.206  13.848   8.941  1.00 20.00    -0.082 C 
HETATM    2  C2  UNL     1     -41.185  14.567   8.424  1.00 20.00    -0.081 C 
HETATM    3  C4  UNL     1     -43.181  13.093   8.064  1.00 20.00     0.035 C 
HETATM    4  C5  UNL     1     -40.913  14.623   6.931  1.00 20.00     0.050 C 
HETATM    5  C6  UNL     1     -43.095  13.427   6.572  1.00 20.00     0.021 C 
HETATM    6  C7  UNL     1     -41.645  13.558   6.094  1.00 20.00     0.013 C 
HETATM    7  C8  UNL     1     -42.489  13.693  10.412  1.00 20.00     0.043 C 
HETATM    8  C9  UNL     1     -40.226  15.400   9.233  1.00 20.00     0.043 C 
HETATM    9  C10 UNL     1     -41.605  13.935   4.609  1.00 20.00     0.023 C 
ENDROOT
BRANCH   6  10
HETATM   10  C3  UNL     1     -40.941  12.227   6.214  1.00 20.00     0.240 C 
HETATM   11  O11 UNL     1     -39.772  12.110   6.566  1.00 20.00    -0.306 OA
ENDBRANCH   6  10
TORSDOF 1
ENDMDL
MODEL 8
REMARK VINA RESULT:      -3.3     10.192     11.412
REMARK  1 active torsions:
REMARK  status: ('A' for Active; 'I' for Inactive)
REMARK    1  A    between atoms: C3_3  and  C7_7 
ROOT
HETATM    1  C1  UNL     1     -40.678  13.324   5.801  1.00 20.00    -0.082 C 
HETATM    2  C2  UNL     1     -41.689  14.177   5.523  1.00 20.00    -0.081 C 
HETATM    3  C4  UNL     1     -40.084  13.209   7.188  1.00 20.00     0.035 C 
HETATM    4  C5  UNL     1     -42.334  15.038   6.594  1.00 20.00     0.050 C 
HETATM    5  C6  UNL     1     -40.513  14.307   8.164  1.00 20.00     0.021 C 
HETATM    6  C7  UNL     1     -42.004  14.634   8.043  1.00 20.00     0.013 C 
HETATM    7  C8  UNL     1     -40.040  12.393   4.804  1.00 20.00     0.043 C 
HETATM    8  C9  UNL     1     -42.275  14.395   4.153  1.00 20.00     0.043 C 
HETATM    9  C10 UNL     1     -42.382  15.766   9.005  1.00 20.00     0.023 C 
ENDROOT
BRANCH   6  10
HETATM   10  C3  UNL     1     -42.829  13.436   8.451  1.00 20.00     0.240 C 
HETATM   11  O11 UNL     1     -42.686  12.849   9.519  1.00 20.00    -0.306 OA
ENDBRANCH   6  10
TORSDOF 1
ENDMDL
MODEL 9
REMARK VINA RESULT:      -3.3     10.686     11.902
REMARK  1 active torsions:
REMARK  status: ('A' for Active; 'I' for Inactive)
REMARK    1  A    between atoms: C3_3  and  C7_7 
ROOT
HETATM    1  C1  UNL     1     -41.213  16.360   7.251  1.00 20.00    -0.082 C 
HETATM    2  C2  UNL     1     -42.074  16.012   6.269  1.00 20.00    -0.081 C 
HETATM    3  C4  UNL     1     -40.777  15.381   8.320  1.00 20.00     0.035 C 
HETATM    4  C5  UNL     1     -42.619  14.601   6.137  1.00 20.00     0.050 C 
HETATM    5  C6  UNL     1     -41.582  14.080   8.367  1.00 20.00     0.021 C 
HETATM    6  C7  UNL     1     -41.879  13.535   6.966  1.00 20.00     0.013 C 
HETATM    7  C8  UNL     1     -40.582  17.719   7.399  1.00 20.00     0.043 C 
HETATM    8  C9  UNL     1     -42.606  16.953   5.221  1.00 20.00     0.043 C 
HETATM    9  C10 UNL     1     -42.722  12.259   7.058  1.00 20.00     0.023 C 
ENDROOT
BRANCH   6  10
HETATM   10  C3  UNL     1     -40.589  13.145   6.282  1.00 20.00     0.240 C 
HETATM   11  O11 UNL     1     -39.888  12.207   6.647  1.00 20.00    -0.306 OA
ENDBRANCH   6  10
TORSDOF 1
ENDMDL
