MODEL 1
REMARK VINA RESULT:      -4.3      0.000      0.000
REMARK  0 active torsions:
REMARK  status: ('A' for Active; 'I' for Inactive)
ROOT
HETATM    1  C1  UNL     1     -34.453   4.924   5.211  1.00 20.00     0.028 C 
HETATM    2  C2  UNL     1     -34.748   5.961   6.295  1.00 20.00     0.017 C 
HETATM    3  C3  UNL     1     -34.205   5.589   3.862  1.00 20.00     0.188 C 
HETATM    4  C4  UNL     1     -33.656   7.018   6.364  1.00 20.00     0.140 C 
HETATM    5  O5  UNL     1     -32.272   8.729   4.830  1.00 20.00    -0.229 OA
HETATM    6  O6  UNL     1     -33.144   6.538   3.962  1.00 20.00    -0.296 OA
HETATM    7  S7  UNL     1     -33.512   7.888   4.769  1.00 20.00     0.152 S 
ENDROOT
TORSDOF 0
ENDMDL
MODEL 2
REMARK VINA RESULT:      -4.0      2.207      3.488
REMARK  0 active torsions:
REMARK  status: ('A' for Active; 'I' for Inactive)
ROOT
HETATM    1  C1  UNL     1     -32.249   8.172   4.291  1.00 20.00     0.028 C 
HETATM    2  C2  UNL     1     -32.465   7.357   3.017  1.00 20.00     0.017 C 
HETATM    3  C3  UNL     1     -33.466   8.102   5.207  1.00 20.00     0.188 C 
HETATM    4  C4  UNL     1     -32.865   5.924   3.335  1.00 20.00     0.140 C 
HETATM    5  O5  UNL     1     -34.612   4.490   4.781  1.00 20.00    -0.229 OA
HETATM    6  O6  UNL     1     -33.778   6.744   5.517  1.00 20.00    -0.296 OA
HETATM    7  S7  UNL     1     -34.413   5.896   4.298  1.00 20.00     0.152 S 
ENDROOT
TORSDOF 0
ENDMDL
MODEL 3
REMARK VINA RESULT:      -3.8      2.144      2.673
REMARK  0 active torsions:
REMARK  status: ('A' for Active; 'I' for Inactive)
ROOT
HETATM    1  C1  UNL     1     -34.090   6.976   6.447  1.00 20.00     0.028 C 
HETATM    2  C2  UNL     1     -33.729   7.925   5.305  1.00 20.00     0.017 C 
HETATM    3  C3  UNL     1     -34.789   5.725   5.927  1.00 20.00     0.188 C 
HETATM    4  C4  UNL     1     -32.919   7.217   4.229  1.00 20.00     0.140 C 
HETATM    5  O5  UNL     1     -32.931   5.034   2.670  1.00 20.00    -0.229 OA
HETATM    6  O6  UNL     1     -33.976   5.068   4.955  1.00 20.00    -0.296 OA
HETATM    7  S7  UNL     1     -33.868   5.825   3.533  1.00 20.00     0.152 S 
ENDROOT
TORSDOF 0
ENDMDL
MODEL 4
REMARK VINA RESULT:      -3.7      1.157      2.051
REMARK  0 active torsions:
REMARK  status: ('A' for Active; 'I' for Inactive)
ROOT
HETATM    1  C1  UNL     1     -34.864   5.661   5.827  1.00 20.00     0.028 C 
HETATM    2  C2  UNL     1     -34.113   5.079   4.630  1.00 20.00     0.017 C 
HETATM    3  C3  UNL     1     -34.114   6.845   6.428  1.00 20.00     0.188 C 
HETATM    4  C4  UNL     1     -33.802   6.150   3.595  1.00 20.00     0.140 C 
HETATM    5  O5  UNL     1     -32.712   8.587   3.339  1.00 20.00    -0.229 OA
HETATM    6  O6  UNL     1     -33.885   7.844   5.435  1.00 20.00    -0.296 OA
HETATM    7  S7  UNL     1     -32.772   7.462   4.329  1.00 20.00     0.152 S 
ENDROOT
TORSDOF 0
ENDMDL
MODEL 5
REMARK VINA RESULT:      -3.7      0.917      1.084
REMARK  0 active torsions:
REMARK  status: ('A' for Active; 'I' for Inactive)
ROOT
HETATM    1  C1  UNL     1     -33.938   5.077   3.937  1.00 20.00     0.028 C 
HETATM    2  C2  UNL     1     -34.800   5.951   4.848  1.00 20.00     0.017 C 
HETATM    3  C3  UNL     1     -33.160   5.922   2.935  1.00 20.00     0.188 C 
HETATM    4  C4  UNL     1     -33.973   7.033   5.526  1.00 20.00     0.140 C 
HETATM    5  O5  UNL     1     -32.209   8.985   4.999  1.00 20.00    -0.229 OA
HETATM    6  O6  UNL     1     -32.363   6.893   3.614  1.00 20.00    -0.296 OA
HETATM    7  S7  UNL     1     -33.192   8.109   4.279  1.00 20.00     0.152 S 
ENDROOT
TORSDOF 0
ENDMDL
MODEL 6
REMARK VINA RESULT:      -3.6      1.377      2.561
REMARK  0 active torsions:
REMARK  status: ('A' for Active; 'I' for Inactive)
ROOT
HETATM    1  C1  UNL     1     -34.381   6.941   6.339  1.00 20.00     0.028 C 
HETATM    2  C2  UNL     1     -34.532   5.431   6.153  1.00 20.00     0.017 C 
HETATM    3  C3  UNL     1     -33.209   7.484   5.530  1.00 20.00     0.188 C 
HETATM    4  C4  UNL     1     -34.625   5.060   4.680  1.00 20.00     0.140 C 
HETATM    5  O5  UNL     1     -33.390   5.424   2.327  1.00 20.00    -0.229 OA
HETATM    6  O6  UNL     1     -33.360   7.154   4.150  1.00 20.00    -0.296 OA
HETATM    7  S7  UNL     1     -33.126   5.596   3.793  1.00 20.00     0.152 S 
ENDROOT
TORSDOF 0
ENDMDL
MODEL 7
REMARK VINA RESULT:      -3.3      2.357      2.909
REMARK  0 active torsions:
REMARK  status: ('A' for Active; 'I' for Inactive)
ROOT
HETATM    1  C1  UNL     1     -32.363   7.456   2.856  1.00 20.00     0.028 C 
HETATM    2  C2  UNL     1     -32.274   8.120   4.230  1.00 20.00     0.017 C 
HETATM    3  C3  UNL     1     -32.699   5.973   2.979  1.00 20.00     0.188 C 
HETATM    4  C4  UNL     1     -33.536   7.879   5.046  1.00 20.00     0.140 C 
HETATM    5  O5  UNL     1     -35.171   5.923   5.881  1.00 20.00    -0.229 OA
HETATM    6  O6  UNL     1     -33.912   5.797   3.710  1.00 20.00    -0.296 OA
HETATM    7  S7  UNL     1     -33.802   6.093   5.293  1.00 20.00     0.152 S 
ENDROOT
TORSDOF 0
ENDMDL
MODEL 8
REMARK VINA RESULT:      -3.3      2.176      2.977
REMARK  0 active torsions:
REMARK  status: ('A' for Active; 'I' for Inactive)
ROOT
HETATM    1  C1  UNL     1     -32.588   8.129   3.725  1.00 20.00     0.028 C 
HETATM    2  C2  UNL     1     -32.920   8.034   5.214  1.00 20.00     0.017 C 
HETATM    3  C3  UNL     1     -32.427   6.745   3.104  1.00 20.00     0.188 C 
HETATM    4  C4  UNL     1     -34.132   7.147   5.458  1.00 20.00     0.140 C 
HETATM    5  O5  UNL     1     -35.126   4.723   4.883  1.00 20.00    -0.229 OA
HETATM    6  O6  UNL     1     -33.603   5.965   3.317  1.00 20.00    -0.296 OA
HETATM    7  S7  UNL     1     -33.822   5.463   4.836  1.00 20.00     0.152 S 
ENDROOT
TORSDOF 0
ENDMDL
MODEL 9
REMARK VINA RESULT:      -3.1     13.245     13.865
REMARK  0 active torsions:
REMARK  status: ('A' for Active; 'I' for Inactive)
ROOT
HETATM    1  C1  UNL     1     -33.833  16.803  -3.627  1.00 20.00     0.028 C 
HETATM    2  C2  UNL     1     -33.187  15.445  -3.900  1.00 20.00     0.017 C 
HETATM    3  C3  UNL     1     -34.465  17.379  -4.889  1.00 20.00     0.188 C 
HETATM    4  C4  UNL     1     -34.172  14.481  -4.543  1.00 20.00     0.140 C 
HETATM    5  O5  UNL     1     -35.911  14.281  -6.577  1.00 20.00    -0.229 OA
HETATM    6  O6  UNL     1     -35.415  16.463  -5.432  1.00 20.00    -0.296 OA
HETATM    7  S7  UNL     1     -34.776  15.152  -6.126  1.00 20.00     0.152 S 
ENDROOT
TORSDOF 0
ENDMDL
