MODEL 1
REMARK VINA RESULT:      -5.0      0.000      0.000
REMARK  0 active torsions:
REMARK  status: ('A' for Active; 'I' for Inactive)
ROOT
HETATM    1  C1  UNL     1     -33.767   7.191   5.179  1.00 20.00     0.149 C 
HETATM    2  C2  UNL     1     -33.189   8.006   4.038  1.00 20.00     0.080 C 
HETATM    3  C3  UNL     1     -32.280   7.160   3.161  1.00 20.00     0.007 C 
HETATM    4  C4  UNL     1     -32.980   5.895   2.680  1.00 20.00     0.003 C 
HETATM    5  C5  UNL     1     -33.460   5.059   3.868  1.00 20.00     0.033 C 
HETATM    6  C6  UNL     1     -34.373   5.829   4.834  1.00 20.00     0.093 C 
HETATM    7  C7  UNL     1     -34.624   4.997   6.094  1.00 20.00     0.041 C 
HETATM    8  O8  UNL     1     -33.818   7.663   6.316  1.00 20.00    -0.296 OA
HETATM    9 CL9  UNL     1     -35.958   6.176   4.066  1.00 20.00    -0.111 Cl
ENDROOT
TORSDOF 0
ENDMDL
MODEL 2
REMARK VINA RESULT:      -4.6      1.860      3.438
REMARK  0 active torsions:
REMARK  status: ('A' for Active; 'I' for Inactive)
ROOT
HETATM    1  C1  UNL     1     -33.548   6.071   3.895  1.00 20.00     0.149 C 
HETATM    2  C2  UNL     1     -34.666   5.225   4.474  1.00 20.00     0.080 C 
HETATM    3  C3  UNL     1     -34.566   5.139   5.988  1.00 20.00     0.007 C 
HETATM    4  C4  UNL     1     -34.488   6.521   6.626  1.00 20.00     0.003 C 
HETATM    5  C5  UNL     1     -33.290   7.300   6.082  1.00 20.00     0.033 C 
HETATM    6  C6  UNL     1     -33.281   7.428   4.551  1.00 20.00     0.093 C 
HETATM    7  C7  UNL     1     -31.951   8.020   4.082  1.00 20.00     0.041 C 
HETATM    8  O8  UNL     1     -32.950   5.703   2.882  1.00 20.00    -0.296 OA
HETATM    9 CL9  UNL     1     -34.603   8.510   4.000  1.00 20.00    -0.111 Cl
ENDROOT
TORSDOF 0
ENDMDL
MODEL 3
REMARK VINA RESULT:      -4.4      1.239      1.974
REMARK  0 active torsions:
REMARK  status: ('A' for Active; 'I' for Inactive)
ROOT
HETATM    1  C1  UNL     1     -34.097   6.077   5.947  1.00 20.00     0.149 C 
HETATM    2  C2  UNL     1     -33.991   7.541   6.330  1.00 20.00     0.080 C 
HETATM    3  C3  UNL     1     -32.962   8.262   5.475  1.00 20.00     0.007 C 
HETATM    4  C4  UNL     1     -33.229   8.066   3.988  1.00 20.00     0.003 C 
HETATM    5  C5  UNL     1     -33.231   6.578   3.632  1.00 20.00     0.033 C 
HETATM    6  C6  UNL     1     -34.226   5.748   4.458  1.00 20.00     0.093 C 
HETATM    7  C7  UNL     1     -34.007   4.256   4.197  1.00 20.00     0.041 C 
HETATM    8  O8  UNL     1     -34.166   5.210   6.819  1.00 20.00    -0.296 OA
HETATM    9 CL9  UNL     1     -35.915   6.154   4.008  1.00 20.00    -0.111 Cl
ENDROOT
TORSDOF 0
ENDMDL
MODEL 4
REMARK VINA RESULT:      -3.9     16.325     17.002
REMARK  0 active torsions:
REMARK  status: ('A' for Active; 'I' for Inactive)
ROOT
HETATM    1  C1  UNL     1     -24.178  18.485   9.978  1.00 20.00     0.149 C 
HETATM    2  C2  UNL     1     -22.790  18.146   9.468  1.00 20.00     0.080 C 
HETATM    3  C3  UNL     1     -21.713  18.699  10.386  1.00 20.00     0.007 C 
HETATM    4  C4  UNL     1     -21.927  18.263  11.830  1.00 20.00     0.003 C 
HETATM    5  C5  UNL     1     -23.301  18.712  12.332  1.00 20.00     0.033 C 
HETATM    6  C6  UNL     1     -24.466  18.222  11.458  1.00 20.00     0.093 C 
HETATM    7  C7  UNL     1     -25.769  18.893  11.898  1.00 20.00     0.041 C 
HETATM    8  O8  UNL     1     -25.050  18.872   9.198  1.00 20.00    -0.296 OA
HETATM    9 CL9  UNL     1     -24.669  16.446  11.612  1.00 20.00    -0.111 Cl
ENDROOT
TORSDOF 0
ENDMDL
MODEL 5
REMARK VINA RESULT:      -3.7      2.060      2.729
REMARK  0 active torsions:
REMARK  status: ('A' for Active; 'I' for Inactive)
ROOT
HETATM    1  C1  UNL     1     -33.189   6.285   3.678  1.00 20.00     0.149 C 
HETATM    2  C2  UNL     1     -31.983   7.201   3.607  1.00 20.00     0.080 C 
HETATM    3  C3  UNL     1     -32.382   8.655   3.799  1.00 20.00     0.007 C 
HETATM    4  C4  UNL     1     -33.192   8.852   5.075  1.00 20.00     0.003 C 
HETATM    5  C5  UNL     1     -34.448   7.979   5.057  1.00 20.00     0.033 C 
HETATM    6  C6  UNL     1     -34.157   6.486   4.846  1.00 20.00     0.093 C 
HETATM    7  C7  UNL     1     -35.465   5.724   4.621  1.00 20.00     0.041 C 
HETATM    8  O8  UNL     1     -33.319   5.364   2.869  1.00 20.00    -0.296 OA
HETATM    9 CL9  UNL     1     -33.342   5.790   6.286  1.00 20.00    -0.111 Cl
ENDROOT
TORSDOF 0
ENDMDL
MODEL 6
REMARK VINA RESULT:      -3.6     12.673     13.517
REMARK  0 active torsions:
REMARK  status: ('A' for Active; 'I' for Inactive)
ROOT
HETATM    1  C1  UNL     1     -35.240  16.668  -5.014  1.00 20.00     0.149 C 
HETATM    2  C2  UNL     1     -34.146  17.567  -4.470  1.00 20.00     0.080 C 
HETATM    3  C3  UNL     1     -33.384  16.889  -3.343  1.00 20.00     0.007 C 
HETATM    4  C4  UNL     1     -32.861  15.520  -3.762  1.00 20.00     0.003 C 
HETATM    5  C5  UNL     1     -34.012  14.617  -4.211  1.00 20.00     0.033 C 
HETATM    6  C6  UNL     1     -34.864  15.221  -5.338  1.00 20.00     0.093 C 
HETATM    7  C7  UNL     1     -36.110  14.362  -5.571  1.00 20.00     0.041 C 
HETATM    8  O8  UNL     1     -36.356  17.128  -5.262  1.00 20.00    -0.296 OA
HETATM    9 CL9  UNL     1     -33.933  15.285  -6.871  1.00 20.00    -0.111 Cl
ENDROOT
TORSDOF 0
ENDMDL
MODEL 7
REMARK VINA RESULT:      -3.6     16.108     16.563
REMARK  0 active torsions:
REMARK  status: ('A' for Active; 'I' for Inactive)
ROOT
HETATM    1  C1  UNL     1     -24.469  18.691  10.037  1.00 20.00     0.149 C 
HETATM    2  C2  UNL     1     -25.470  19.099  11.102  1.00 20.00     0.080 C 
HETATM    3  C3  UNL     1     -26.068  17.885  11.792  1.00 20.00     0.007 C 
HETATM    4  C4  UNL     1     -24.987  16.955  12.331  1.00 20.00     0.003 C 
HETATM    5  C5  UNL     1     -24.061  16.493  11.205  1.00 20.00     0.033 C 
HETATM    6  C6  UNL     1     -23.417  17.649  10.424  1.00 20.00     0.093 C 
HETATM    7  C7  UNL     1     -22.691  17.108   9.190  1.00 20.00     0.041 C 
HETATM    8  O8  UNL     1     -24.465  19.253   8.941  1.00 20.00    -0.296 OA
HETATM    9 CL9  UNL     1     -22.221  18.513  11.445  1.00 20.00    -0.111 Cl
ENDROOT
TORSDOF 0
ENDMDL
MODEL 8
REMARK VINA RESULT:      -3.5     13.004     14.217
REMARK  0 active torsions:
REMARK  status: ('A' for Active; 'I' for Inactive)
ROOT
HETATM    1  C1  UNL     1     -34.165  15.470  -5.804  1.00 20.00     0.149 C 
HETATM    2  C2  UNL     1     -33.845  14.850  -4.458  1.00 20.00     0.080 C 
HETATM    3  C3  UNL     1     -33.172  15.852  -3.534  1.00 20.00     0.007 C 
HETATM    4  C4  UNL     1     -33.985  17.135  -3.408  1.00 20.00     0.003 C 
HETATM    5  C5  UNL     1     -34.200  17.775  -4.781  1.00 20.00     0.033 C 
HETATM    6  C6  UNL     1     -34.858  16.835  -5.802  1.00 20.00     0.093 C 
HETATM    7  C7  UNL     1     -34.833  17.472  -7.193  1.00 20.00     0.041 C 
HETATM    8  O8  UNL     1     -33.950  14.845  -6.844  1.00 20.00    -0.296 OA
HETATM    9 CL9  UNL     1     -36.568  16.518  -5.361  1.00 20.00    -0.111 Cl
ENDROOT
TORSDOF 0
ENDMDL
MODEL 9
REMARK VINA RESULT:      -3.3     10.293     11.073
REMARK  0 active torsions:
REMARK  status: ('A' for Active; 'I' for Inactive)
ROOT
HETATM    1  C1  UNL     1     -40.904  13.903   7.539  1.00 20.00     0.149 C 
HETATM    2  C2  UNL     1     -41.744  15.135   7.820  1.00 20.00     0.080 C 
HETATM    3  C3  UNL     1     -42.010  15.924   6.549  1.00 20.00     0.007 C 
HETATM    4  C4  UNL     1     -42.607  15.047   5.456  1.00 20.00     0.003 C 
HETATM    5  C5  UNL     1     -41.679  13.872   5.139  1.00 20.00     0.033 C 
HETATM    6  C6  UNL     1     -41.328  13.017   6.366  1.00 20.00     0.093 C 
HETATM    7  C7  UNL     1     -40.233  12.010   6.006  1.00 20.00     0.041 C 
HETATM    8  O8  UNL     1     -39.977  13.599   8.290  1.00 20.00    -0.296 OA
HETATM    9 CL9  UNL     1     -42.765  12.104   6.933  1.00 20.00    -0.111 Cl
ENDROOT
TORSDOF 0
ENDMDL
