MODEL 1
REMARK VINA RESULT:      -3.8      0.000      0.000
REMARK  0 active torsions:
REMARK  status: ('A' for Active; 'I' for Inactive)
ROOT
HETATM    1  C1  UNL     1     -32.925   7.148   3.758  1.00 20.00     0.061 C 
HETATM    2  C2  UNL     1     -33.558   7.373   6.165  1.00 20.00     0.107 C 
HETATM    3  C3  UNL     1     -34.399   6.425   5.313  1.00 20.00     0.114 C 
HETATM    4  C4  UNL     1     -32.107   7.234   2.516  1.00 20.00     0.078 C 
HETATM    5  C5  UNL     1     -34.653   5.105   6.026  1.00 20.00     0.035 C 
HETATM    6  N6  UNL     1     -33.697   6.149   4.038  1.00 20.00    -0.282 NA
HETATM    7  S7  UNL     1     -32.792   8.436   4.926  1.00 20.00    -0.113 SA
ENDROOT
TORSDOF 0
ENDMDL
MODEL 2
REMARK VINA RESULT:      -3.7      1.780      3.280
REMARK  0 active torsions:
REMARK  status: ('A' for Active; 'I' for Inactive)
ROOT
HETATM    1  C1  UNL     1     -33.954   6.053   4.474  1.00 20.00     0.061 C 
HETATM    2  C2  UNL     1     -32.172   7.212   3.160  1.00 20.00     0.107 C 
HETATM    3  C3  UNL     1     -33.055   8.084   4.050  1.00 20.00     0.114 C 
HETATM    4  C4  UNL     1     -34.710   4.949   5.130  1.00 20.00     0.078 C 
HETATM    5  C5  UNL     1     -32.233   9.087   4.847  1.00 20.00     0.035 C 
HETATM    6  N6  UNL     1     -33.806   7.227   4.996  1.00 20.00    -0.282 NA
HETATM    7  S7  UNL     1     -33.176   5.729   2.947  1.00 20.00    -0.113 SA
ENDROOT
TORSDOF 0
ENDMDL
MODEL 3
REMARK VINA RESULT:      -3.6      1.208      3.100
REMARK  0 active torsions:
REMARK  status: ('A' for Active; 'I' for Inactive)
ROOT
HETATM    1  C1  UNL     1     -33.882   6.226   4.524  1.00 20.00     0.061 C 
HETATM    2  C2  UNL     1     -32.766   8.452   4.315  1.00 20.00     0.107 C 
HETATM    3  C3  UNL     1     -32.291   7.347   3.374  1.00 20.00     0.114 C 
HETATM    4  C4  UNL     1     -34.896   5.202   4.906  1.00 20.00     0.078 C 
HETATM    5  C5  UNL     1     -32.147   7.850   1.945  1.00 20.00     0.035 C 
HETATM    6  N6  UNL     1     -33.264   6.229   3.389  1.00 20.00    -0.282 NA
HETATM    7  S7  UNL     1     -33.552   7.520   5.645  1.00 20.00    -0.113 SA
ENDROOT
TORSDOF 0
ENDMDL
MODEL 4
REMARK VINA RESULT:      -3.5      1.581      1.843
REMARK  0 active torsions:
REMARK  status: ('A' for Active; 'I' for Inactive)
ROOT
HETATM    1  C1  UNL     1     -33.246   7.597   4.940  1.00 20.00     0.061 C 
HETATM    2  C2  UNL     1     -34.389   5.711   6.117  1.00 20.00     0.107 C 
HETATM    3  C3  UNL     1     -34.395   5.680   4.590  1.00 20.00     0.114 C 
HETATM    4  C4  UNL     1     -32.361   8.776   4.723  1.00 20.00     0.078 C 
HETATM    5  C5  UNL     1     -34.047   4.298   4.056  1.00 20.00     0.035 C 
HETATM    6  N6  UNL     1     -33.405   6.653   4.070  1.00 20.00    -0.282 NA
HETATM    7  S7  UNL     1     -34.069   7.451   6.470  1.00 20.00    -0.113 SA
ENDROOT
TORSDOF 0
ENDMDL
MODEL 5
REMARK VINA RESULT:      -3.1     16.195     16.624
REMARK  0 active torsions:
REMARK  status: ('A' for Active; 'I' for Inactive)
ROOT
HETATM    1  C1  UNL     1     -24.436  18.511  11.429  1.00 20.00     0.061 C 
HETATM    2  C2  UNL     1     -22.031  18.465  10.753  1.00 20.00     0.107 C 
HETATM    3  C3  UNL     1     -23.044  17.917   9.750  1.00 20.00     0.114 C 
HETATM    4  C4  UNL     1     -25.668  18.879  12.183  1.00 20.00     0.078 C 
HETATM    5  C5  UNL     1     -22.773  18.428   8.342  1.00 20.00     0.035 C 
HETATM    6  N6  UNL     1     -24.410  18.327  10.149  1.00 20.00    -0.282 NA
HETATM    7  S7  UNL     1     -22.937  18.377  12.310  1.00 20.00    -0.113 SA
ENDROOT
TORSDOF 0
ENDMDL
MODEL 6
REMARK VINA RESULT:      -3.1     15.339     16.156
REMARK  0 active torsions:
REMARK  status: ('A' for Active; 'I' for Inactive)
ROOT
HETATM    1  C1  UNL     1     -23.671  17.524  10.176  1.00 20.00     0.061 C 
HETATM    2  C2  UNL     1     -23.555  19.104   8.243  1.00 20.00     0.107 C 
HETATM    3  C3  UNL     1     -22.245  18.458   8.691  1.00 20.00     0.114 C 
HETATM    4  C4  UNL     1     -24.252  16.603  11.193  1.00 20.00     0.078 C 
HETATM    5  C5  UNL     1     -21.437  17.950   7.506  1.00 20.00     0.035 C 
HETATM    6  N6  UNL     1     -22.536  17.319   9.592  1.00 20.00    -0.282 NA
HETATM    7  S7  UNL     1     -24.597  18.924   9.704  1.00 20.00    -0.113 SA
ENDROOT
TORSDOF 0
ENDMDL
MODEL 7
REMARK VINA RESULT:      -3.1      1.970      2.463
REMARK  0 active torsions:
REMARK  status: ('A' for Active; 'I' for Inactive)
ROOT
HETATM    1  C1  UNL     1     -33.337   5.739   3.647  1.00 20.00     0.061 C 
HETATM    2  C2  UNL     1     -34.661   6.434   5.649  1.00 20.00     0.107 C 
HETATM    3  C3  UNL     1     -33.392   7.229   5.347  1.00 20.00     0.114 C 
HETATM    4  C4  UNL     1     -33.007   5.083   2.350  1.00 20.00     0.078 C 
HETATM    5  C5  UNL     1     -33.629   8.728   5.459  1.00 20.00     0.035 C 
HETATM    6  N6  UNL     1     -32.929   6.922   3.973  1.00 20.00    -0.282 NA
HETATM    7  S7  UNL     1     -34.375   4.890   4.762  1.00 20.00    -0.113 SA
ENDROOT
TORSDOF 0
ENDMDL
MODEL 8
REMARK VINA RESULT:      -3.0      1.679      1.936
REMARK  0 active torsions:
REMARK  status: ('A' for Active; 'I' for Inactive)
ROOT
HETATM    1  C1  UNL     1     -32.962   7.454   4.024  1.00 20.00     0.061 C 
HETATM    2  C2  UNL     1     -34.127   5.247   4.149  1.00 20.00     0.107 C 
HETATM    3  C3  UNL     1     -33.793   5.930   5.473  1.00 20.00     0.114 C 
HETATM    4  C4  UNL     1     -32.449   8.732   3.454  1.00 20.00     0.078 C 
HETATM    5  C5  UNL     1     -34.970   5.890   6.437  1.00 20.00     0.035 C 
HETATM    6  N6  UNL     1     -33.432   7.346   5.224  1.00 20.00    -0.282 NA
HETATM    7  S7  UNL     1     -32.986   6.042   3.001  1.00 20.00    -0.113 SA
ENDROOT
TORSDOF 0
ENDMDL
MODEL 9
REMARK VINA RESULT:      -2.9     12.339     12.957
REMARK  0 active torsions:
REMARK  status: ('A' for Active; 'I' for Inactive)
ROOT
HETATM    1  C1  UNL     1     -33.804  17.549  -1.930  1.00 20.00     0.061 C 
HETATM    2  C2  UNL     1     -34.601  17.249  -4.280  1.00 20.00     0.107 C 
HETATM    3  C3  UNL     1     -33.503  16.306  -3.795  1.00 20.00     0.114 C 
HETATM    4  C4  UNL     1     -33.783  17.995  -0.509  1.00 20.00     0.078 C 
HETATM    5  C5  UNL     1     -33.789  14.863  -4.187  1.00 20.00     0.035 C 
HETATM    6  N6  UNL     1     -33.395  16.385  -2.319  1.00 20.00    -0.282 NA
HETATM    7  S7  UNL     1     -34.466  18.630  -3.127  1.00 20.00    -0.113 SA
ENDROOT
TORSDOF 0
ENDMDL
