MODEL 1
REMARK VINA RESULT:      -3.3      0.000      0.000
REMARK  0 active torsions:
REMARK  status: ('A' for Active; 'I' for Inactive)
ROOT
HETATM    1  C1  UNL     1     -34.095  15.922  -4.500  1.00 20.00     0.021 A 
HETATM    2  C2  UNL     1     -33.827  16.921  -3.638  1.00 20.00     0.004 A 
HETATM    3  C3  UNL     1     -34.543  17.750  -5.915  1.00 20.00     0.145 A 
HETATM    4  C4  UNL     1     -34.000  14.455  -4.212  1.00 20.00     0.069 C 
HETATM    5  C5  UNL     1     -33.382  16.854  -2.216  1.00 20.00     0.058 C 
HETATM    6  C6  UNL     1     -34.820  15.402  -6.824  1.00 20.00     0.157 C 
HETATM    7  N7  UNL     1     -34.493  16.360  -5.769  1.00 20.00    -0.340 N 
HETATM    8  S8  UNL     1     -34.963  18.663  -7.247  1.00 20.00    -0.052 SA
HETATM    9  S9  UNL     1     -34.063  18.484  -4.376  1.00 20.00    -0.063 SA
ENDROOT
TORSDOF 0
ENDMDL
MODEL 2
REMARK VINA RESULT:      -3.1     13.138     14.029
REMARK  0 active torsions:
REMARK  status: ('A' for Active; 'I' for Inactive)
ROOT
HETATM    1  C1  UNL     1     -33.767   5.849   4.327  1.00 20.00     0.021 A 
HETATM    2  C2  UNL     1     -33.113   5.824   3.151  1.00 20.00     0.004 A 
HETATM    3  C3  UNL     1     -32.691   7.939   4.468  1.00 20.00     0.145 A 
HETATM    4  C4  UNL     1     -34.666   4.777   4.864  1.00 20.00     0.069 C 
HETATM    5  C5  UNL     1     -33.097   4.770   2.096  1.00 20.00     0.058 C 
HETATM    6  C6  UNL     1     -34.185   7.200   6.376  1.00 20.00     0.157 C 
HETATM    7  N7  UNL     1     -33.547   7.013   5.074  1.00 20.00    -0.340 N 
HETATM    8  S8  UNL     1     -32.178   9.428   5.018  1.00 20.00    -0.052 SA
HETATM    9  S9  UNL     1     -32.173   7.274   2.910  1.00 20.00    -0.063 SA
ENDROOT
TORSDOF 0
ENDMDL
MODEL 3
REMARK VINA RESULT:      -3.1     12.980     13.943
REMARK  0 active torsions:
REMARK  status: ('A' for Active; 'I' for Inactive)
ROOT
HETATM    1  C1  UNL     1     -33.550   7.078   5.146  1.00 20.00     0.021 A 
HETATM    2  C2  UNL     1     -32.722   7.962   4.555  1.00 20.00     0.004 A 
HETATM    3  C3  UNL     1     -33.094   5.882   3.169  1.00 20.00     0.145 A 
HETATM    4  C4  UNL     1     -34.215   7.241   6.478  1.00 20.00     0.069 C 
HETATM    5  C5  UNL     1     -32.255   9.293   5.038  1.00 20.00     0.058 C 
HETATM    6  C6  UNL     1     -34.642   4.856   4.892  1.00 20.00     0.157 C 
HETATM    7  N7  UNL     1     -33.769   5.918   4.394  1.00 20.00    -0.340 N 
HETATM    8  S8  UNL     1     -33.088   4.697   1.994  1.00 20.00    -0.052 SA
HETATM    9  S9  UNL     1     -32.166   7.382   3.006  1.00 20.00    -0.063 SA
ENDROOT
TORSDOF 0
ENDMDL
MODEL 4
REMARK VINA RESULT:      -3.0      1.431      2.668
REMARK  0 active torsions:
REMARK  status: ('A' for Active; 'I' for Inactive)
ROOT
HETATM    1  C1  UNL     1     -33.807  16.792  -3.792  1.00 20.00     0.021 A 
HETATM    2  C2  UNL     1     -34.201  15.755  -4.555  1.00 20.00     0.004 A 
HETATM    3  C3  UNL     1     -34.375  17.977  -5.746  1.00 20.00     0.145 A 
HETATM    4  C4  UNL     1     -33.308  16.714  -2.381  1.00 20.00     0.069 C 
HETATM    5  C5  UNL     1     -34.250  14.301  -4.229  1.00 20.00     0.058 C 
HETATM    6  C6  UNL     1     -33.507  19.262  -3.743  1.00 20.00     0.157 C 
HETATM    7  N7  UNL     1     -33.895  18.033  -4.433  1.00 20.00    -0.340 N 
HETATM    8  S8  UNL     1     -34.626  19.214  -6.838  1.00 20.00    -0.052 SA
HETATM    9  S9  UNL     1     -34.711  16.283  -6.139  1.00 20.00    -0.063 SA
ENDROOT
TORSDOF 0
ENDMDL
MODEL 5
REMARK VINA RESULT:      -3.0      1.734      2.275
REMARK  0 active torsions:
REMARK  status: ('A' for Active; 'I' for Inactive)
ROOT
HETATM    1  C1  UNL     1     -34.067  16.936  -3.655  1.00 20.00     0.021 A 
HETATM    2  C2  UNL     1     -34.776  18.048  -3.928  1.00 20.00     0.004 A 
HETATM    3  C3  UNL     1     -34.827  16.361  -5.809  1.00 20.00     0.145 A 
HETATM    4  C4  UNL     1     -33.305  16.658  -2.395  1.00 20.00     0.069 C 
HETATM    5  C5  UNL     1     -34.993  19.263  -3.092  1.00 20.00     0.058 C 
HETATM    6  C6  UNL     1     -33.362  14.722  -4.549  1.00 20.00     0.157 C 
HETATM    7  N7  UNL     1     -34.083  15.987  -4.685  1.00 20.00    -0.340 N 
HETATM    8  S8  UNL     1     -35.095  15.528  -7.229  1.00 20.00    -0.052 SA
HETATM    9  S9  UNL     1     -35.510  17.967  -5.509  1.00 20.00    -0.063 SA
ENDROOT
TORSDOF 0
ENDMDL
MODEL 6
REMARK VINA RESULT:      -3.0      1.561      3.217
REMARK  0 active torsions:
REMARK  status: ('A' for Active; 'I' for Inactive)
ROOT
HETATM    1  C1  UNL     1     -33.904  15.995  -4.400  1.00 20.00     0.021 A 
HETATM    2  C2  UNL     1     -34.714  16.159  -5.463  1.00 20.00     0.004 A 
HETATM    3  C3  UNL     1     -35.029  17.943  -3.702  1.00 20.00     0.145 A 
HETATM    4  C4  UNL     1     -32.901  14.899  -4.210  1.00 20.00     0.069 C 
HETATM    5  C5  UNL     1     -34.836  15.333  -6.698  1.00 20.00     0.058 C 
HETATM    6  C6  UNL     1     -33.260  16.943  -2.190  1.00 20.00     0.157 C 
HETATM    7  N7  UNL     1     -34.063  16.974  -3.411  1.00 20.00    -0.340 N 
HETATM    8  S8  UNL     1     -35.516  19.261  -2.801  1.00 20.00    -0.052 SA
HETATM    9  S9  UNL     1     -35.732  17.565  -5.283  1.00 20.00    -0.063 SA
ENDROOT
TORSDOF 0
ENDMDL
MODEL 7
REMARK VINA RESULT:      -2.9      2.036      2.773
REMARK  0 active torsions:
REMARK  status: ('A' for Active; 'I' for Inactive)
ROOT
HETATM    1  C1  UNL     1     -34.704  17.974  -3.544  1.00 20.00     0.021 A 
HETATM    2  C2  UNL     1     -33.820  17.242  -2.840  1.00 20.00     0.004 A 
HETATM    3  C3  UNL     1     -34.379  16.222  -5.083  1.00 20.00     0.145 A 
HETATM    4  C4  UNL     1     -35.333  19.263  -3.109  1.00 20.00     0.069 C 
HETATM    5  C5  UNL     1     -33.241  17.496  -1.489  1.00 20.00     0.058 C 
HETATM    6  C6  UNL     1     -35.975  18.096  -5.681  1.00 20.00     0.157 C 
HETATM    7  N7  UNL     1     -35.028  17.426  -4.791  1.00 20.00    -0.340 N 
HETATM    8  S8  UNL     1     -34.485  15.261  -6.443  1.00 20.00    -0.052 SA
HETATM    9  S9  UNL     1     -33.337  15.809  -3.711  1.00 20.00    -0.063 SA
ENDROOT
TORSDOF 0
ENDMDL
MODEL 8
REMARK VINA RESULT:      -2.9      1.244      3.259
REMARK  0 active torsions:
REMARK  status: ('A' for Active; 'I' for Inactive)
ROOT
HETATM    1  C1  UNL     1     -34.638  16.270  -5.826  1.00 20.00     0.021 A 
HETATM    2  C2  UNL     1     -34.766  17.595  -6.029  1.00 20.00     0.004 A 
HETATM    3  C3  UNL     1     -33.925  17.030  -3.714  1.00 20.00     0.145 A 
HETATM    4  C4  UNL     1     -34.943  15.189  -6.817  1.00 20.00     0.069 C 
HETATM    5  C5  UNL     1     -35.226  18.329  -7.243  1.00 20.00     0.058 C 
HETATM    6  C6  UNL     1     -33.979  14.538  -4.165  1.00 20.00     0.157 C 
HETATM    7  N7  UNL     1     -34.173  15.935  -4.549  1.00 20.00    -0.340 N 
HETATM    8  S8  UNL     1     -33.370  17.062  -2.141  1.00 20.00    -0.052 SA
HETATM    9  S9  UNL     1     -34.305  18.507  -4.615  1.00 20.00    -0.063 SA
ENDROOT
TORSDOF 0
ENDMDL
MODEL 9
REMARK VINA RESULT:      -2.8     12.491     13.625
REMARK  0 active torsions:
REMARK  status: ('A' for Active; 'I' for Inactive)
ROOT
HETATM    1  C1  UNL     1     -33.748   5.947   4.536  1.00 20.00     0.021 A 
HETATM    2  C2  UNL     1     -33.740   7.022   5.346  1.00 20.00     0.004 A 
HETATM    3  C3  UNL     1     -32.641   7.463   3.114  1.00 20.00     0.145 A 
HETATM    4  C4  UNL     1     -34.325   4.602   4.854  1.00 20.00     0.069 C 
HETATM    5  C5  UNL     1     -34.280   7.173   6.728  1.00 20.00     0.058 C 
HETATM    6  C6  UNL     1     -33.066   5.105   2.294  1.00 20.00     0.157 C 
HETATM    7  N7  UNL     1     -33.143   6.170   3.292  1.00 20.00    -0.340 N 
HETATM    8  S8  UNL     1     -31.860   8.127   1.796  1.00 20.00    -0.052 SA
HETATM    9  S9  UNL     1     -32.966   8.390   4.588  1.00 20.00    -0.063 SA
ENDROOT
TORSDOF 0
ENDMDL
