MODEL 1
REMARK VINA RESULT:      -4.4      0.000      0.000
REMARK  3 active torsions:
REMARK  status: ('A' for Active; 'I' for Inactive)
REMARK    1  A    between atoms: C3_3  and  C9_9 
REMARK    2  A    between atoms: C8_8  and  O11_11 
REMARK    3  A    between atoms: N10_10  and  O11_11 
ROOT
HETATM    1  C1  UNL     1     -32.978   9.709   0.310  1.00 20.00     0.014 C 
HETATM    2  C2  UNL     1     -32.467   8.777   0.868  1.00 20.00    -0.089 C 
HETATM    3  C8  UNL     1     -31.843   7.640   1.545  1.00 20.00     0.296 C 
ENDROOT
BRANCH   3   4
HETATM    4  O11 UNL     1     -32.074   7.706   2.943  1.00 20.00    -0.244 OA
BRANCH   4   5
HETATM    5  N10 UNL     1     -32.874   6.615   3.305  1.00 20.00    -0.142 NA
HETATM    6  C3  UNL     1     -33.539   6.853   4.398  1.00 20.00     0.043 C 
HETATM    7  C4  UNL     1     -33.421   8.168   5.145  1.00 20.00     0.069 C 
BRANCH   6   8
HETATM    8  C9  UNL     1     -34.477   5.758   4.958  1.00 20.00    -0.009 C 
HETATM    9  C5  UNL     1     -35.877   5.927   4.352  1.00 20.00     0.021 C 
HETATM   10  C6  UNL     1     -34.536   5.871   6.488  1.00 20.00     0.021 C 
HETATM   11  C7  UNL     1     -33.963   4.350   4.599  1.00 20.00     0.021 C 
ENDBRANCH   6   8
ENDBRANCH   4   5
ENDBRANCH   3   4
TORSDOF 3
ENDMDL
MODEL 2
REMARK VINA RESULT:      -4.2      1.052      1.912
REMARK  3 active torsions:
REMARK  status: ('A' for Active; 'I' for Inactive)
REMARK    1  A    between atoms: C3_3  and  C9_9 
REMARK    2  A    between atoms: C8_8  and  O11_11 
REMARK    3  A    between atoms: N10_10  and  O11_11 
ROOT
HETATM    1  C1  UNL     1     -32.714   9.110   0.007  1.00 20.00     0.014 C 
HETATM    2  C2  UNL     1     -32.726   9.207   1.204  1.00 20.00    -0.089 C 
HETATM    3  C8  UNL     1     -32.743   9.329   2.662  1.00 20.00     0.296 C 
ENDROOT
BRANCH   3   4
HETATM    4  O11 UNL     1     -32.142   8.192   3.262  1.00 20.00    -0.244 OA
BRANCH   4   5
HETATM    5  N10 UNL     1     -33.026   7.690   4.225  1.00 20.00    -0.142 NA
HETATM    6  C3  UNL     1     -33.383   6.467   3.955  1.00 20.00     0.043 C 
HETATM    7  C4  UNL     1     -32.872   5.729   2.731  1.00 20.00     0.069 C 
BRANCH   6   8
HETATM    8  C9  UNL     1     -34.364   5.745   4.907  1.00 20.00    -0.009 C 
HETATM    9  C5  UNL     1     -34.012   4.252   4.965  1.00 20.00     0.021 C 
HETATM   10  C6  UNL     1     -35.801   5.940   4.401  1.00 20.00     0.021 C 
HETATM   11  C7  UNL     1     -34.275   6.318   6.334  1.00 20.00     0.021 C 
ENDBRANCH   6   8
ENDBRANCH   4   5
ENDBRANCH   3   4
TORSDOF 3
ENDMDL
MODEL 3
REMARK VINA RESULT:      -4.2      0.817      1.589
REMARK  3 active torsions:
REMARK  status: ('A' for Active; 'I' for Inactive)
REMARK    1  A    between atoms: C3_3  and  C9_9 
REMARK    2  A    between atoms: C8_8  and  O11_11 
REMARK    3  A    between atoms: N10_10  and  O11_11 
ROOT
HETATM    1  C1  UNL     1     -32.575   8.856   0.326  1.00 20.00     0.014 C 
HETATM    2  C2  UNL     1     -32.612   8.982   1.519  1.00 20.00    -0.089 C 
HETATM    3  C8  UNL     1     -32.659   9.139   2.973  1.00 20.00     0.296 C 
ENDROOT
BRANCH   3   4
HETATM    4  O11 UNL     1     -31.983   8.066   3.610  1.00 20.00    -0.244 OA
BRANCH   4   5
HETATM    5  N10 UNL     1     -32.829   6.950   3.599  1.00 20.00    -0.142 NA
HETATM    6  C3  UNL     1     -33.502   6.850   4.708  1.00 20.00     0.043 C 
HETATM    7  C4  UNL     1     -33.348   7.850   5.840  1.00 20.00     0.069 C 
BRANCH   6   8
HETATM    8  C9  UNL     1     -34.488   5.671   4.882  1.00 20.00    -0.009 C 
HETATM    9  C5  UNL     1     -34.697   5.398   6.378  1.00 20.00     0.021 C 
HETATM   10  C6  UNL     1     -33.923   4.427   4.182  1.00 20.00     0.021 C 
HETATM   11  C7  UNL     1     -35.858   5.996   4.255  1.00 20.00     0.021 C 
ENDBRANCH   6   8
ENDBRANCH   4   5
ENDBRANCH   3   4
TORSDOF 3
ENDMDL
MODEL 4
REMARK VINA RESULT:      -4.0     10.017     10.989
REMARK  3 active torsions:
REMARK  status: ('A' for Active; 'I' for Inactive)
REMARK    1  A    between atoms: C3_3  and  C9_9 
REMARK    2  A    between atoms: C8_8  and  O11_11 
REMARK    3  A    between atoms: N10_10  and  O11_11 
ROOT
HETATM    1  C1  UNL     1     -39.001  11.721   3.636  1.00 20.00     0.014 C 
HETATM    2  C2  UNL     1     -39.107  11.801   4.829  1.00 20.00    -0.089 C 
HETATM    3  C8  UNL     1     -39.232  11.898   6.284  1.00 20.00     0.296 C 
ENDROOT
BRANCH   3   4
HETATM    4  O11 UNL     1     -40.544  12.298   6.645  1.00 20.00    -0.244 OA
BRANCH   4   5
HETATM    5  N10 UNL     1     -40.444  13.275   7.642  1.00 20.00    -0.142 NA
HETATM    6  C3  UNL     1     -41.105  14.351   7.326  1.00 20.00     0.043 C 
HETATM    7  C4  UNL     1     -41.871  14.473   6.022  1.00 20.00     0.069 C 
BRANCH   6   8
HETATM    8  C9  UNL     1     -41.105  15.546   8.308  1.00 20.00    -0.009 C 
HETATM    9  C5  UNL     1     -42.516  15.732   8.883  1.00 20.00     0.021 C 
HETATM   10  C6  UNL     1     -40.654  16.813   7.567  1.00 20.00     0.021 C 
HETATM   11  C7  UNL     1     -40.135  15.302   9.479  1.00 20.00     0.021 C 
ENDBRANCH   6   8
ENDBRANCH   4   5
ENDBRANCH   3   4
TORSDOF 3
ENDMDL
MODEL 5
REMARK VINA RESULT:      -4.0     10.060     11.036
REMARK  3 active torsions:
REMARK  status: ('A' for Active; 'I' for Inactive)
REMARK    1  A    between atoms: C3_3  and  C9_9 
REMARK    2  A    between atoms: C8_8  and  O11_11 
REMARK    3  A    between atoms: N10_10  and  O11_11 
ROOT
HETATM    1  C1  UNL     1     -39.009  11.753   3.651  1.00 20.00     0.014 C 
HETATM    2  C2  UNL     1     -39.114  11.837   4.843  1.00 20.00    -0.089 C 
HETATM    3  C8  UNL     1     -39.239  11.939   6.298  1.00 20.00     0.296 C 
ENDROOT
BRANCH   3   4
HETATM    4  O11 UNL     1     -40.549  12.350   6.657  1.00 20.00    -0.244 OA
BRANCH   4   5
HETATM    5  N10 UNL     1     -40.440  13.325   7.656  1.00 20.00    -0.142 NA
HETATM    6  C3  UNL     1     -41.123  14.393   7.358  1.00 20.00     0.043 C 
HETATM    7  C4  UNL     1     -41.918  14.510   6.071  1.00 20.00     0.069 C 
BRANCH   6   8
HETATM    8  C9  UNL     1     -41.118  15.584   8.344  1.00 20.00    -0.009 C 
HETATM    9  C5  UNL     1     -40.719  16.863   7.596  1.00 20.00     0.021 C 
HETATM   10  C6  UNL     1     -40.131  15.297   9.485  1.00 20.00     0.021 C 
HETATM   11  C7  UNL     1     -42.515  15.801   8.959  1.00 20.00     0.021 C 
ENDBRANCH   6   8
ENDBRANCH   4   5
ENDBRANCH   3   4
TORSDOF 3
ENDMDL
MODEL 6
REMARK VINA RESULT:      -3.9     11.237     12.855
REMARK  3 active torsions:
REMARK  status: ('A' for Active; 'I' for Inactive)
REMARK    1  A    between atoms: C3_3  and  C9_9 
REMARK    2  A    between atoms: C8_8  and  O11_11 
REMARK    3  A    between atoms: N10_10  and  O11_11 
ROOT
HETATM    1  C1  UNL     1     -31.420  18.573  -0.427  1.00 20.00     0.014 C 
HETATM    2  C2  UNL     1     -32.395  18.080  -0.924  1.00 20.00    -0.089 C 
HETATM    3  C8  UNL     1     -33.586  17.482  -1.527  1.00 20.00     0.296 C 
ENDROOT
BRANCH   3   4
HETATM    4  O11 UNL     1     -33.221  16.575  -2.555  1.00 20.00    -0.244 OA
BRANCH   4   5
HETATM    5  N10 UNL     1     -33.876  16.961  -3.730  1.00 20.00    -0.142 NA
HETATM    6  C3  UNL     1     -34.122  15.940  -4.499  1.00 20.00     0.043 C 
HETATM    7  C4  UNL     1     -33.723  14.527  -4.115  1.00 20.00     0.069 C 
BRANCH   6   8
HETATM    8  C9  UNL     1     -34.838  16.173  -5.849  1.00 20.00    -0.009 C 
HETATM    9  C5  UNL     1     -34.834  17.673  -6.176  1.00 20.00     0.021 C 
HETATM   10  C6  UNL     1     -36.277  15.645  -5.761  1.00 20.00     0.021 C 
HETATM   11  C7  UNL     1     -34.121  15.430  -6.993  1.00 20.00     0.021 C 
ENDBRANCH   6   8
ENDBRANCH   4   5
ENDBRANCH   3   4
TORSDOF 3
ENDMDL
MODEL 7
REMARK VINA RESULT:      -3.9     11.281     12.908
REMARK  3 active torsions:
REMARK  status: ('A' for Active; 'I' for Inactive)
REMARK    1  A    between atoms: C3_3  and  C9_9 
REMARK    2  A    between atoms: C8_8  and  O11_11 
REMARK    3  A    between atoms: N10_10  and  O11_11 
ROOT
HETATM    1  C1  UNL     1     -31.419  18.642  -0.430  1.00 20.00     0.014 C 
HETATM    2  C2  UNL     1     -32.372  18.100  -0.919  1.00 20.00    -0.089 C 
HETATM    3  C8  UNL     1     -33.537  17.442  -1.512  1.00 20.00     0.296 C 
ENDROOT
BRANCH   3   4
HETATM    4  O11 UNL     1     -33.138  16.587  -2.572  1.00 20.00    -0.244 OA
BRANCH   4   5
HETATM    5  N10 UNL     1     -33.809  16.991  -3.733  1.00 20.00    -0.142 NA
HETATM    6  C3  UNL     1     -34.066  15.981  -4.512  1.00 20.00     0.043 C 
HETATM    7  C4  UNL     1     -33.663  14.562  -4.154  1.00 20.00     0.069 C 
BRANCH   6   8
HETATM    8  C9  UNL     1     -34.800  16.234  -5.849  1.00 20.00    -0.009 C 
HETATM    9  C5  UNL     1     -34.121  15.426  -6.964  1.00 20.00     0.021 C 
HETATM   10  C6  UNL     1     -34.764  17.734  -6.174  1.00 20.00     0.021 C 
HETATM   11  C7  UNL     1     -36.274  15.795  -5.765  1.00 20.00     0.021 C 
ENDBRANCH   6   8
ENDBRANCH   4   5
ENDBRANCH   3   4
TORSDOF 3
ENDMDL
MODEL 8
REMARK VINA RESULT:      -3.7     10.362     11.257
REMARK  3 active torsions:
REMARK  status: ('A' for Active; 'I' for Inactive)
REMARK    1  A    between atoms: C3_3  and  C9_9 
REMARK    2  A    between atoms: C8_8  and  O11_11 
REMARK    3  A    between atoms: N10_10  and  O11_11 
ROOT
HETATM    1  C1  UNL     1     -38.947  11.632   4.059  1.00 20.00     0.014 C 
HETATM    2  C2  UNL     1     -39.709  11.965   4.925  1.00 20.00    -0.089 C 
HETATM    3  C8  UNL     1     -40.639  12.369   5.980  1.00 20.00     0.296 C 
ENDROOT
BRANCH   3   4
HETATM    4  O11 UNL     1     -40.090  13.427   6.749  1.00 20.00    -0.244 OA
BRANCH   4   5
HETATM    5  N10 UNL     1     -40.687  13.401   8.015  1.00 20.00    -0.142 NA
HETATM    6  C3  UNL     1     -40.851  14.602   8.491  1.00 20.00     0.043 C 
HETATM    7  C4  UNL     1     -40.428  15.840   7.721  1.00 20.00     0.069 C 
BRANCH   6   8
HETATM    8  C9  UNL     1     -41.493  14.773   9.887  1.00 20.00    -0.009 C 
HETATM    9  C5  UNL     1     -42.655  13.782  10.039  1.00 20.00     0.021 C 
HETATM   10  C6  UNL     1     -41.994  16.217  10.043  1.00 20.00     0.021 C 
HETATM   11  C7  UNL     1     -40.471  14.494  11.006  1.00 20.00     0.021 C 
ENDBRANCH   6   8
ENDBRANCH   4   5
ENDBRANCH   3   4
TORSDOF 3
ENDMDL
MODEL 9
REMARK VINA RESULT:      -3.6      9.484     10.995
REMARK  3 active torsions:
REMARK  status: ('A' for Active; 'I' for Inactive)
REMARK    1  A    between atoms: C3_3  and  C9_9 
REMARK    2  A    between atoms: C8_8  and  O11_11 
REMARK    3  A    between atoms: N10_10  and  O11_11 
ROOT
HETATM    1  C1  UNL     1     -42.828   1.668  -4.001  1.00 20.00     0.014 C 
HETATM    2  C2  UNL     1     -43.093   2.408  -3.094  1.00 20.00    -0.089 C 
HETATM    3  C8  UNL     1     -43.417   3.308  -1.987  1.00 20.00     0.296 C 
ENDROOT
BRANCH   3   4
HETATM    4  O11 UNL     1     -42.678   4.514  -2.093  1.00 20.00    -0.244 OA
BRANCH   4   5
HETATM    5  N10 UNL     1     -43.167   5.410  -1.135  1.00 20.00    -0.142 NA
HETATM    6  C3  UNL     1     -42.202   5.943  -0.443  1.00 20.00     0.043 C 
HETATM    7  C4  UNL     1     -40.745   5.595  -0.688  1.00 20.00     0.069 C 
BRANCH   6   8
HETATM    8  C9  UNL     1     -42.550   6.958   0.671  1.00 20.00    -0.009 C 
HETATM    9  C5  UNL     1     -43.306   6.239   1.797  1.00 20.00     0.021 C 
HETATM   10  C6  UNL     1     -43.409   8.086   0.081  1.00 20.00     0.021 C 
HETATM   11  C7  UNL     1     -41.276   7.585   1.268  1.00 20.00     0.021 C 
ENDBRANCH   6   8
ENDBRANCH   4   5
ENDBRANCH   3   4
TORSDOF 3
ENDMDL
