MODEL 1
REMARK VINA RESULT:      -4.5      0.000      0.000
REMARK  3 active torsions:
REMARK  status: ('A' for Active; 'I' for Inactive)
REMARK    1  A    between atoms: C3_3  and  C8_8 
REMARK    2  A    between atoms: C6_6  and  C7_7 
REMARK    3  A    between atoms: C7_7  and  C8_8 
ROOT
HETATM    1  C1  UNL     1     -34.293   5.685   6.308  1.00 20.00     0.197 C 
HETATM    2  C2  UNL     1     -34.773   5.032   5.040  1.00 20.00     0.197 C 
HETATM    3  C3  UNL     1     -33.973   7.085   4.556  1.00 20.00     0.263 C 
HETATM    4  O9  UNL     1     -34.231   7.069   5.965  1.00 20.00    -0.359 OA
HETATM    5  O10 UNL     1     -34.087   5.759   4.022  1.00 20.00    -0.359 OA
ENDROOT
BRANCH   3   6
HETATM    6  C8  UNL     1     -32.576   7.616   4.290  1.00 20.00     0.037 C 
HETATM    7  C5  UNL     1     -32.417   8.991   4.940  1.00 20.00     0.015 C 
BRANCH   6   8
HETATM    8  C7  UNL     1     -32.309   7.647   2.775  1.00 20.00     0.009 C 
BRANCH   8   9
HETATM    9  C6  UNL     1     -32.643   8.992   2.124  1.00 20.00    -0.004 C 
HETATM   10  C4  UNL     1     -32.520   8.921   0.609  1.00 20.00     0.005 C 
ENDBRANCH   8   9
ENDBRANCH   6   8
ENDBRANCH   3   6
TORSDOF 3
ENDMDL
MODEL 2
REMARK VINA RESULT:      -4.0      9.631     10.422
REMARK  3 active torsions:
REMARK  status: ('A' for Active; 'I' for Inactive)
REMARK    1  A    between atoms: C3_3  and  C8_8 
REMARK    2  A    between atoms: C6_6  and  C7_7 
REMARK    3  A    between atoms: C7_7  and  C8_8 
ROOT
HETATM    1  C1  UNL     1     -40.501  15.991   8.303  1.00 20.00     0.197 C 
HETATM    2  C2  UNL     1     -40.178  14.847   9.225  1.00 20.00     0.197 C 
HETATM    3  C3  UNL     1     -41.258  14.051   7.411  1.00 20.00     0.263 C 
HETATM    4  O9  UNL     1     -41.521  15.459   7.458  1.00 20.00    -0.359 OA
HETATM    5  O10 UNL     1     -40.242  13.711   8.365  1.00 20.00    -0.359 OA
ENDROOT
BRANCH   3   6
HETATM    6  C8  UNL     1     -40.795  13.657   6.021  1.00 20.00     0.037 C 
HETATM    7  C5  UNL     1     -41.884  13.991   5.002  1.00 20.00     0.015 C 
BRANCH   6   8
HETATM    8  C7  UNL     1     -40.410  12.166   6.002  1.00 20.00     0.009 C 
BRANCH   8   9
HETATM    9  C6  UNL     1     -38.988  11.911   5.497  1.00 20.00    -0.004 C 
HETATM   10  C4  UNL     1     -38.968  11.676   3.993  1.00 20.00     0.005 C 
ENDBRANCH   8   9
ENDBRANCH   6   8
ENDBRANCH   3   6
TORSDOF 3
ENDMDL
MODEL 3
REMARK VINA RESULT:      -3.9      1.536      3.987
REMARK  3 active torsions:
REMARK  status: ('A' for Active; 'I' for Inactive)
REMARK    1  A    between atoms: C3_3  and  C8_8 
REMARK    2  A    between atoms: C6_6  and  C7_7 
REMARK    3  A    between atoms: C7_7  and  C8_8 
ROOT
HETATM    1  C1  UNL     1     -32.550   9.123   2.690  1.00 20.00     0.197 C 
HETATM    2  C2  UNL     1     -32.082   7.766   2.239  1.00 20.00     0.197 C 
HETATM    3  C3  UNL     1     -32.669   7.659   4.415  1.00 20.00     0.263 C 
HETATM    4  O9  UNL     1     -32.470   9.046   4.113  1.00 20.00    -0.359 OA
HETATM    5  O10 UNL     1     -32.656   6.888   3.206  1.00 20.00    -0.359 OA
ENDROOT
BRANCH   3   6
HETATM    6  C8  UNL     1     -33.998   7.467   5.120  1.00 20.00     0.037 C 
HETATM    7  C5  UNL     1     -33.757   7.171   6.601  1.00 20.00     0.015 C 
BRANCH   6   8
HETATM    8  C7  UNL     1     -34.805   6.358   4.422  1.00 20.00     0.009 C 
BRANCH   8   9
HETATM    9  C6  UNL     1     -34.794   5.028   5.180  1.00 20.00    -0.004 C 
HETATM   10  C4  UNL     1     -33.850   4.026   4.529  1.00 20.00     0.005 C 
ENDBRANCH   8   9
ENDBRANCH   6   8
ENDBRANCH   3   6
TORSDOF 3
ENDMDL
MODEL 4
REMARK VINA RESULT:      -3.8      1.665      3.623
REMARK  3 active torsions:
REMARK  status: ('A' for Active; 'I' for Inactive)
REMARK    1  A    between atoms: C3_3  and  C8_8 
REMARK    2  A    between atoms: C6_6  and  C7_7 
REMARK    3  A    between atoms: C7_7  and  C8_8 
ROOT
HETATM    1  C1  UNL     1     -32.930   8.225   3.749  1.00 20.00     0.197 C 
HETATM    2  C2  UNL     1     -32.131   8.473   4.999  1.00 20.00     0.197 C 
HETATM    3  C3  UNL     1     -34.168   7.689   5.569  1.00 20.00     0.263 C 
HETATM    4  O9  UNL     1     -34.276   8.165   4.221  1.00 20.00    -0.359 OA
HETATM    5  O10 UNL     1     -32.792   7.665   5.971  1.00 20.00    -0.359 OA
ENDROOT
BRANCH   3   6
HETATM    6  C8  UNL     1     -34.747   6.290   5.672  1.00 20.00     0.037 C 
HETATM    7  C5  UNL     1     -33.858   5.430   6.570  1.00 20.00     0.015 C 
BRANCH   6   8
HETATM    8  C7  UNL     1     -34.917   5.690   4.265  1.00 20.00     0.009 C 
BRANCH   8   9
HETATM    9  C6  UNL     1     -33.882   4.612   3.933  1.00 20.00    -0.004 C 
HETATM   10  C4  UNL     1     -33.053   4.996   2.716  1.00 20.00     0.005 C 
ENDBRANCH   8   9
ENDBRANCH   6   8
ENDBRANCH   3   6
TORSDOF 3
ENDMDL
MODEL 5
REMARK VINA RESULT:      -3.8     11.309     12.495
REMARK  3 active torsions:
REMARK  status: ('A' for Active; 'I' for Inactive)
REMARK    1  A    between atoms: C3_3  and  C8_8 
REMARK    2  A    between atoms: C6_6  and  C7_7 
REMARK    3  A    between atoms: C7_7  and  C8_8 
ROOT
HETATM    1  C1  UNL     1     -31.437  18.605  -0.365  1.00 20.00     0.197 C 
HETATM    2  C2  UNL     1     -32.744  18.260   0.296  1.00 20.00     0.197 C 
HETATM    3  C3  UNL     1     -33.113  18.696  -1.886  1.00 20.00     0.263 C 
HETATM    4  O9  UNL     1     -31.836  19.263  -1.567  1.00 20.00    -0.359 OA
HETATM    5  O10 UNL     1     -33.570  17.877  -0.801  1.00 20.00    -0.359 OA
ENDROOT
BRANCH   3   6
HETATM    6  C8  UNL     1     -33.007  17.853  -3.143  1.00 20.00     0.037 C 
HETATM    7  C5  UNL     1     -33.835  18.488  -4.260  1.00 20.00     0.015 C 
BRANCH   6   8
HETATM    8  C7  UNL     1     -33.438  16.407  -2.840  1.00 20.00     0.009 C 
BRANCH   8   9
HETATM    9  C6  UNL     1     -33.098  15.421  -3.961  1.00 20.00    -0.004 C 
HETATM   10  C4  UNL     1     -34.229  14.428  -4.187  1.00 20.00     0.005 C 
ENDBRANCH   8   9
ENDBRANCH   6   8
ENDBRANCH   3   6
TORSDOF 3
ENDMDL
MODEL 6
REMARK VINA RESULT:      -3.7      1.263      1.767
REMARK  3 active torsions:
REMARK  status: ('A' for Active; 'I' for Inactive)
REMARK    1  A    between atoms: C3_3  and  C8_8 
REMARK    2  A    between atoms: C6_6  and  C7_7 
REMARK    3  A    between atoms: C7_7  and  C8_8 
ROOT
HETATM    1  C1  UNL     1     -33.751   6.664   6.398  1.00 20.00     0.197 C 
HETATM    2  C2  UNL     1     -34.459   5.340   6.294  1.00 20.00     0.197 C 
HETATM    3  C3  UNL     1     -34.447   6.331   4.267  1.00 20.00     0.263 C 
HETATM    4  O9  UNL     1     -34.178   7.361   5.227  1.00 20.00    -0.359 OA
HETATM    5  O10 UNL     1     -34.391   5.046   4.900  1.00 20.00    -0.359 OA
ENDROOT
BRANCH   3   6
HETATM    6  C8  UNL     1     -33.424   6.386   3.148  1.00 20.00     0.037 C 
HETATM    7  C5  UNL     1     -32.836   4.994   2.919  1.00 20.00     0.015 C 
BRANCH   6   8
HETATM    8  C7  UNL     1     -32.346   7.434   3.477  1.00 20.00     0.009 C 
BRANCH   8   9
HETATM    9  C6  UNL     1     -32.484   8.726   2.668  1.00 20.00    -0.004 C 
HETATM   10  C4  UNL     1     -32.228   8.483   1.187  1.00 20.00     0.005 C 
ENDBRANCH   8   9
ENDBRANCH   6   8
ENDBRANCH   3   6
TORSDOF 3
ENDMDL
MODEL 7
REMARK VINA RESULT:      -3.6      1.849      4.396
REMARK  3 active torsions:
REMARK  status: ('A' for Active; 'I' for Inactive)
REMARK    1  A    between atoms: C3_3  and  C8_8 
REMARK    2  A    between atoms: C6_6  and  C7_7 
REMARK    3  A    between atoms: C7_7  and  C8_8 
ROOT
HETATM    1  C1  UNL     1     -33.081   9.332   2.093  1.00 20.00     0.197 C 
HETATM    2  C2  UNL     1     -32.206   8.570   1.135  1.00 20.00     0.197 C 
HETATM    3  C3  UNL     1     -32.027   7.652   3.188  1.00 20.00     0.263 C 
HETATM    4  O9  UNL     1     -32.569   8.966   3.374  1.00 20.00    -0.359 OA
HETATM    5  O10 UNL     1     -32.019   7.319   1.793  1.00 20.00    -0.359 OA
ENDROOT
BRANCH   3   6
HETATM    6  C8  UNL     1     -32.861   6.635   3.944  1.00 20.00     0.037 C 
HETATM    7  C5  UNL     1     -33.397   5.584   2.972  1.00 20.00     0.015 C 
BRANCH   6   8
HETATM    8  C7  UNL     1     -33.985   7.351   4.715  1.00 20.00     0.009 C 
BRANCH   8   9
HETATM    9  C6  UNL     1     -34.063   6.952   6.190  1.00 20.00    -0.004 C 
HETATM   10  C4  UNL     1     -34.559   5.521   6.351  1.00 20.00     0.005 C 
ENDBRANCH   8   9
ENDBRANCH   6   8
ENDBRANCH   3   6
TORSDOF 3
ENDMDL
MODEL 8
REMARK VINA RESULT:      -3.6      1.744      4.163
REMARK  3 active torsions:
REMARK  status: ('A' for Active; 'I' for Inactive)
REMARK    1  A    between atoms: C3_3  and  C8_8 
REMARK    2  A    between atoms: C6_6  and  C7_7 
REMARK    3  A    between atoms: C7_7  and  C8_8 
ROOT
HETATM    1  C1  UNL     1     -31.886   8.543   4.854  1.00 20.00     0.197 C 
HETATM    2  C2  UNL     1     -33.268   9.114   4.687  1.00 20.00     0.197 C 
HETATM    3  C3  UNL     1     -33.067   7.279   3.391  1.00 20.00     0.263 C 
HETATM    4  O9  UNL     1     -31.735   7.700   3.712  1.00 20.00    -0.359 OA
HETATM    5  O10 UNL     1     -34.015   8.010   4.180  1.00 20.00    -0.359 OA
ENDROOT
BRANCH   3   6
HETATM    6  C8  UNL     1     -33.221   5.795   3.667  1.00 20.00     0.037 C 
HETATM    7  C5  UNL     1     -32.940   5.003   2.390  1.00 20.00     0.015 C 
BRANCH   6   8
HETATM    8  C7  UNL     1     -34.623   5.512   4.237  1.00 20.00     0.009 C 
BRANCH   8   9
HETATM    9  C6  UNL     1     -34.602   4.998   5.679  1.00 20.00    -0.004 C 
HETATM   10  C4  UNL     1     -34.351   6.128   6.667  1.00 20.00     0.005 C 
ENDBRANCH   8   9
ENDBRANCH   6   8
ENDBRANCH   3   6
TORSDOF 3
ENDMDL
MODEL 9
REMARK VINA RESULT:      -3.5      1.625      2.620
REMARK  3 active torsions:
REMARK  status: ('A' for Active; 'I' for Inactive)
REMARK    1  A    between atoms: C3_3  and  C8_8 
REMARK    2  A    between atoms: C6_6  and  C7_7 
REMARK    3  A    between atoms: C7_7  and  C8_8 
ROOT
HETATM    1  C1  UNL     1     -33.702   3.928   3.985  1.00 20.00     0.197 C 
HETATM    2  C2  UNL     1     -33.242   4.743   2.807  1.00 20.00     0.197 C 
HETATM    3  C3  UNL     1     -34.238   6.106   4.304  1.00 20.00     0.263 C 
HETATM    4  O9  UNL     1     -34.660   4.773   4.620  1.00 20.00    -0.359 OA
HETATM    5  O10 UNL     1     -33.183   6.067   3.334  1.00 20.00    -0.359 OA
ENDROOT
BRANCH   3   6
HETATM    6  C8  UNL     1     -33.744   6.804   5.558  1.00 20.00     0.037 C 
HETATM    7  C5  UNL     1     -34.605   6.389   6.751  1.00 20.00     0.015 C 
BRANCH   6   8
HETATM    8  C7  UNL     1     -33.737   8.327   5.339  1.00 20.00     0.009 C 
BRANCH   8   9
HETATM    9  C6  UNL     1     -32.393   8.865   4.843  1.00 20.00    -0.004 C 
HETATM   10  C4  UNL     1     -32.440   9.190   3.356  1.00 20.00     0.005 C 
ENDBRANCH   8   9
ENDBRANCH   6   8
ENDBRANCH   3   6
TORSDOF 3
ENDMDL
