MODEL 1
REMARK VINA RESULT:      -4.2      0.000      0.000
REMARK  2 active torsions:
REMARK  status: ('A' for Active; 'I' for Inactive)
REMARK    1  A    between atoms: C1_1  and  C7_7 
REMARK    2  A    between atoms: C7_7  and  C8_8 
ROOT
HETATM    1  C3  UNL     1     -32.699   6.247   2.879  1.00 20.00     0.018 C 
HETATM    2  C7  UNL     1     -33.079   6.545   4.333  1.00 20.00     0.058 C 
ENDROOT
BRANCH   2   3
HETATM    3  C1  UNL     1     -33.224   8.063   4.476  1.00 20.00     0.127 C 
HETATM    4  C2  UNL     1     -32.719   8.906   3.332  1.00 20.00     0.091 C 
HETATM    5  O9  UNL     1     -33.746   8.585   5.461  1.00 20.00    -0.298 OA
ENDBRANCH   2   3
BRANCH   2   6
HETATM    6  C8  UNL     1     -34.316   5.755   4.871  1.00 20.00    -0.041 C 
HETATM    7  C4  UNL     1     -34.419   5.906   6.404  1.00 20.00     0.015 C 
HETATM    8  C5  UNL     1     -35.647   6.216   4.247  1.00 20.00     0.015 C 
HETATM    9  C6  UNL     1     -34.145   4.250   4.567  1.00 20.00     0.015 C 
ENDBRANCH   2   6
TORSDOF 2
ENDMDL
MODEL 2
REMARK VINA RESULT:      -4.2      0.040      1.440
REMARK  2 active torsions:
REMARK  status: ('A' for Active; 'I' for Inactive)
REMARK    1  A    between atoms: C1_1  and  C7_7 
REMARK    2  A    between atoms: C7_7  and  C8_8 
ROOT
HETATM    1  C3  UNL     1     -32.750   6.224   2.844  1.00 20.00     0.018 C 
HETATM    2  C7  UNL     1     -33.073   6.526   4.310  1.00 20.00     0.058 C 
ENDROOT
BRANCH   2   3
HETATM    3  C1  UNL     1     -33.212   8.045   4.455  1.00 20.00     0.127 C 
HETATM    4  C2  UNL     1     -32.720   8.886   3.304  1.00 20.00     0.091 C 
HETATM    5  O9  UNL     1     -33.719   8.568   5.447  1.00 20.00    -0.298 OA
ENDBRANCH   2   3
BRANCH   2   6
HETATM    6  C8  UNL     1     -34.289   5.737   4.898  1.00 20.00    -0.041 C 
HETATM    7  C4  UNL     1     -34.152   4.234   4.578  1.00 20.00     0.015 C 
HETATM    8  C5  UNL     1     -34.435   5.898   6.423  1.00 20.00     0.015 C 
HETATM    9  C6  UNL     1     -35.597   6.231   4.240  1.00 20.00     0.015 C 
ENDBRANCH   2   6
TORSDOF 2
ENDMDL
MODEL 3
REMARK VINA RESULT:      -4.1      1.311      1.614
REMARK  2 active torsions:
REMARK  status: ('A' for Active; 'I' for Inactive)
REMARK    1  A    between atoms: C1_1  and  C7_7 
REMARK    2  A    between atoms: C7_7  and  C8_8 
ROOT
HETATM    1  C3  UNL     1     -33.288   5.303   2.869  1.00 20.00     0.018 C 
HETATM    2  C7  UNL     1     -33.005   6.174   4.096  1.00 20.00     0.058 C 
ENDROOT
BRANCH   2   3
HETATM    3  C1  UNL     1     -32.360   7.475   3.607  1.00 20.00     0.127 C 
HETATM    4  C2  UNL     1     -32.396   7.736   2.121  1.00 20.00     0.091 C 
HETATM    5  O9  UNL     1     -31.853   8.290   4.378  1.00 20.00    -0.298 OA
ENDBRANCH   2   3
BRANCH   2   6
HETATM    6  C8  UNL     1     -34.230   6.411   5.039  1.00 20.00    -0.041 C 
HETATM    7  C4  UNL     1     -34.161   5.456   6.250  1.00 20.00     0.015 C 
HETATM    8  C5  UNL     1     -34.319   7.856   5.564  1.00 20.00     0.015 C 
HETATM    9  C6  UNL     1     -35.539   6.099   4.280  1.00 20.00     0.015 C 
ENDBRANCH   2   6
TORSDOF 2
ENDMDL
MODEL 4
REMARK VINA RESULT:      -4.0      1.297      2.232
REMARK  2 active torsions:
REMARK  status: ('A' for Active; 'I' for Inactive)
REMARK    1  A    between atoms: C1_1  and  C7_7 
REMARK    2  A    between atoms: C7_7  and  C8_8 
ROOT
HETATM    1  C3  UNL     1     -33.694   8.427   5.778  1.00 20.00     0.018 C 
HETATM    2  C7  UNL     1     -33.822   7.618   4.483  1.00 20.00     0.058 C 
ENDROOT
BRANCH   2   3
HETATM    3  C1  UNL     1     -32.489   7.720   3.735  1.00 20.00     0.127 C 
HETATM    4  C2  UNL     1     -32.531   7.528   2.240  1.00 20.00     0.091 C 
HETATM    5  O9  UNL     1     -31.429   7.968   4.310  1.00 20.00    -0.298 OA
ENDBRANCH   2   3
BRANCH   2   6
HETATM    6  C8  UNL     1     -34.314   6.145   4.666  1.00 20.00    -0.041 C 
HETATM    7  C4  UNL     1     -35.792   6.021   4.239  1.00 20.00     0.015 C 
HETATM    8  C5  UNL     1     -33.488   5.126   3.858  1.00 20.00     0.015 C 
HETATM    9  C6  UNL     1     -34.230   5.750   6.157  1.00 20.00     0.015 C 
ENDBRANCH   2   6
TORSDOF 2
ENDMDL
MODEL 5
REMARK VINA RESULT:      -3.9      1.503      3.568
REMARK  2 active torsions:
REMARK  status: ('A' for Active; 'I' for Inactive)
REMARK    1  A    between atoms: C1_1  and  C7_7 
REMARK    2  A    between atoms: C7_7  and  C8_8 
ROOT
HETATM    1  C3  UNL     1     -34.194   7.161   6.571  1.00 20.00     0.018 C 
HETATM    2  C7  UNL     1     -33.535   6.654   5.284  1.00 20.00     0.058 C 
ENDROOT
BRANCH   2   3
HETATM    3  C1  UNL     1     -34.503   5.669   4.621  1.00 20.00     0.127 C 
HETATM    4  C2  UNL     1     -33.933   4.341   4.188  1.00 20.00     0.091 C 
HETATM    5  O9  UNL     1     -35.697   5.925   4.461  1.00 20.00    -0.298 OA
ENDBRANCH   2   3
BRANCH   2   6
HETATM    6  C8  UNL     1     -33.032   7.771   4.312  1.00 20.00    -0.041 C 
HETATM    7  C4  UNL     1     -32.073   8.727   5.053  1.00 20.00     0.015 C 
HETATM    8  C5  UNL     1     -32.301   7.213   3.076  1.00 20.00     0.015 C 
HETATM    9  C6  UNL     1     -34.230   8.610   3.818  1.00 20.00     0.015 C 
ENDBRANCH   2   6
TORSDOF 2
ENDMDL
MODEL 6
REMARK VINA RESULT:      -3.8      1.490      3.591
REMARK  2 active torsions:
REMARK  status: ('A' for Active; 'I' for Inactive)
REMARK    1  A    between atoms: C1_1  and  C7_7 
REMARK    2  A    between atoms: C7_7  and  C8_8 
ROOT
HETATM    1  C3  UNL     1     -34.159   7.171   6.581  1.00 20.00     0.018 C 
HETATM    2  C7  UNL     1     -33.527   6.679   5.275  1.00 20.00     0.058 C 
ENDROOT
BRANCH   2   3
HETATM    3  C1  UNL     1     -34.503   5.693   4.626  1.00 20.00     0.127 C 
HETATM    4  C2  UNL     1     -33.949   4.347   4.229  1.00 20.00     0.091 C 
HETATM    5  O9  UNL     1     -35.692   5.961   4.451  1.00 20.00    -0.298 OA
ENDBRANCH   2   3
BRANCH   2   6
HETATM    6  C8  UNL     1     -33.054   7.807   4.300  1.00 20.00    -0.041 C 
HETATM    7  C4  UNL     1     -32.297   7.193   3.104  1.00 20.00     0.015 C 
HETATM    8  C5  UNL     1     -34.214   8.661   3.755  1.00 20.00     0.015 C 
HETATM    9  C6  UNL     1     -32.072   8.749   5.032  1.00 20.00     0.015 C 
ENDBRANCH   2   6
TORSDOF 2
ENDMDL
MODEL 7
REMARK VINA RESULT:      -3.7     15.926     16.986
REMARK  2 active torsions:
REMARK  status: ('A' for Active; 'I' for Inactive)
REMARK    1  A    between atoms: C1_1  and  C7_7 
REMARK    2  A    between atoms: C7_7  and  C8_8 
ROOT
HETATM    1  C3  UNL     1     -25.117  18.950   9.948  1.00 20.00     0.018 C 
HETATM    2  C7  UNL     1     -23.637  18.904  10.342  1.00 20.00     0.058 C 
ENDROOT
BRANCH   2   3
HETATM    3  C1  UNL     1     -23.501  17.958  11.538  1.00 20.00     0.127 C 
HETATM    4  C2  UNL     1     -24.652  17.018  11.798  1.00 20.00     0.091 C 
HETATM    5  O9  UNL     1     -22.498  17.938  12.251  1.00 20.00    -0.298 OA
ENDBRANCH   2   3
BRANCH   2   6
HETATM    6  C8  UNL     1     -22.651  18.569   9.176  1.00 20.00    -0.041 C 
HETATM    7  C4  UNL     1     -21.293  19.263   9.412  1.00 20.00     0.015 C 
HETATM    8  C5  UNL     1     -22.401  17.058   9.010  1.00 20.00     0.015 C 
HETATM    9  C6  UNL     1     -23.217  19.106   7.843  1.00 20.00     0.015 C 
ENDBRANCH   2   6
TORSDOF 2
ENDMDL
MODEL 8
REMARK VINA RESULT:      -3.5      1.911      3.398
REMARK  2 active torsions:
REMARK  status: ('A' for Active; 'I' for Inactive)
REMARK    1  A    between atoms: C1_1  and  C7_7 
REMARK    2  A    between atoms: C7_7  and  C8_8 
ROOT
HETATM    1  C3  UNL     1     -32.917   5.696   2.813  1.00 20.00     0.018 C 
HETATM    2  C7  UNL     1     -33.890   6.218   3.874  1.00 20.00     0.058 C 
ENDROOT
BRANCH   2   3
HETATM    3  C1  UNL     1     -34.293   5.036   4.760  1.00 20.00     0.127 C 
HETATM    4  C2  UNL     1     -35.116   5.351   5.984  1.00 20.00     0.091 C 
HETATM    5  O9  UNL     1     -33.987   3.874   4.489  1.00 20.00    -0.298 OA
ENDBRANCH   2   3
BRANCH   2   6
HETATM    6  C8  UNL     1     -33.383   7.453   4.689  1.00 20.00    -0.041 C 
HETATM    7  C4  UNL     1     -34.391   8.616   4.573  1.00 20.00     0.015 C 
HETATM    8  C5  UNL     1     -33.165   7.145   6.182  1.00 20.00     0.015 C 
HETATM    9  C6  UNL     1     -32.041   7.947   4.104  1.00 20.00     0.015 C 
ENDBRANCH   2   6
TORSDOF 2
ENDMDL
MODEL 9
REMARK VINA RESULT:      -3.4     12.168     13.655
REMARK  2 active torsions:
REMARK  status: ('A' for Active; 'I' for Inactive)
REMARK    1  A    between atoms: C1_1  and  C7_7 
REMARK    2  A    between atoms: C7_7  and  C8_8 
ROOT
HETATM    1  C3  UNL     1     -35.991  14.025  -5.060  1.00 20.00     0.018 C 
HETATM    2  C7  UNL     1     -35.156  15.309  -5.073  1.00 20.00     0.058 C 
ENDROOT
BRANCH   2   3
HETATM    3  C1  UNL     1     -33.867  15.036  -4.292  1.00 20.00     0.127 C 
HETATM    4  C2  UNL     1     -33.355  16.149  -3.413  1.00 20.00     0.091 C 
HETATM    5  O9  UNL     1     -33.278  13.957  -4.350  1.00 20.00    -0.298 OA
ENDBRANCH   2   3
BRANCH   2   6
HETATM    6  C8  UNL     1     -34.899  15.917  -6.491  1.00 20.00    -0.041 C 
HETATM    7  C4  UNL     1     -34.674  17.441  -6.382  1.00 20.00     0.015 C 
HETATM    8  C5  UNL     1     -33.683  15.297  -7.205  1.00 20.00     0.015 C 
HETATM    9  C6  UNL     1     -36.139  15.697  -7.385  1.00 20.00     0.015 C 
ENDBRANCH   2   6
TORSDOF 2
ENDMDL
