MODEL 1
REMARK VINA RESULT:      -6.3      0.000      0.000
REMARK  1 active torsions:
REMARK  status: ('A' for Active; 'I' for Inactive)
REMARK    1  A    between atoms: C1_1  and  C7_7 
ROOT
HETATM    1  C2  UNL     1     -34.080   5.399   6.511  1.00 20.00     0.001 C 
HETATM    2  C3  UNL     1     -32.668   6.529   2.952  1.00 20.00     0.016 C 
HETATM    3  C4  UNL     1     -34.942   4.885   5.366  1.00 20.00     0.005 C 
HETATM    4  C5  UNL     1     -34.121   6.910   6.326  1.00 20.00     0.006 C 
HETATM    5  C6  UNL     1     -33.436   5.275   3.332  1.00 20.00     0.006 C 
HETATM    6  C7  UNL     1     -32.684   7.340   4.242  1.00 20.00     0.091 C 
HETATM    7  C8  UNL     1     -34.591   5.794   4.191  1.00 20.00    -0.010 C 
HETATM    8  C9  UNL     1     -34.093   7.119   4.809  1.00 20.00     0.004 C 
ENDROOT
BRANCH   6   9
HETATM    9  C1  UNL     1     -32.421   8.784   3.958  1.00 20.00     0.177 C 
HETATM   10  O10 UNL     1     -32.048   9.470   4.949  1.00 20.00    -0.648 OA
HETATM   11  O11 UNL     1     -32.608   9.131   2.757  1.00 20.00    -0.648 OA
ENDBRANCH   6   9
TORSDOF 1
ENDMDL
MODEL 2
REMARK VINA RESULT:      -5.9      0.912      1.333
REMARK  1 active torsions:
REMARK  status: ('A' for Active; 'I' for Inactive)
REMARK    1  A    between atoms: C1_1  and  C7_7 
ROOT
HETATM    1  C2  UNL     1     -33.959   6.170   6.796  1.00 20.00     0.001 C 
HETATM    2  C3  UNL     1     -33.030   5.643   2.950  1.00 20.00     0.016 C 
HETATM    3  C4  UNL     1     -35.049   5.417   6.045  1.00 20.00     0.005 C 
HETATM    4  C5  UNL     1     -33.863   7.488   6.039  1.00 20.00     0.006 C 
HETATM    5  C6  UNL     1     -33.861   4.767   3.871  1.00 20.00     0.006 C 
HETATM    6  C7  UNL     1     -32.746   6.867   3.812  1.00 20.00     0.091 C 
HETATM    7  C8  UNL     1     -34.796   5.751   4.577  1.00 20.00    -0.010 C 
HETATM    8  C9  UNL     1     -34.059   7.110   4.568  1.00 20.00     0.004 C 
ENDROOT
BRANCH   6   9
HETATM    9  C1  UNL     1     -32.375   8.037   2.958  1.00 20.00     0.177 C 
HETATM   10  O10 UNL     1     -32.076   7.760   1.764  1.00 20.00    -0.648 OA
HETATM   11  O11 UNL     1     -32.409   9.154   3.547  1.00 20.00    -0.648 OA
ENDBRANCH   6   9
TORSDOF 1
ENDMDL
MODEL 3
REMARK VINA RESULT:      -4.9      2.083      3.620
REMARK  1 active torsions:
REMARK  status: ('A' for Active; 'I' for Inactive)
REMARK    1  A    between atoms: C1_1  and  C7_7 
ROOT
HETATM    1  C2  UNL     1     -32.967   8.895   2.603  1.00 20.00     0.001 C 
HETATM    2  C3  UNL     1     -34.026   5.268   3.893  1.00 20.00     0.016 C 
HETATM    3  C4  UNL     1     -32.011   7.815   2.115  1.00 20.00     0.005 C 
HETATM    4  C5  UNL     1     -32.884   8.774   4.119  1.00 20.00     0.006 C 
HETATM    5  C6  UNL     1     -33.316   5.668   2.611  1.00 20.00     0.006 C 
HETATM    6  C7  UNL     1     -34.116   6.585   4.655  1.00 20.00     0.091 C 
HETATM    7  C8  UNL     1     -32.237   6.649   3.074  1.00 20.00    -0.010 C 
HETATM    8  C9  UNL     1     -32.769   7.270   4.385  1.00 20.00     0.004 C 
ENDROOT
BRANCH   6   9
HETATM    9  C1  UNL     1     -34.327   6.335   6.114  1.00 20.00     0.177 C 
HETATM   10  O10 UNL     1     -34.328   7.365   6.843  1.00 20.00    -0.648 OA
HETATM   11  O11 UNL     1     -34.477   5.120   6.427  1.00 20.00    -0.648 OA
ENDBRANCH   6   9
TORSDOF 1
ENDMDL
MODEL 4
REMARK VINA RESULT:      -4.8      1.168      2.320
REMARK  1 active torsions:
REMARK  status: ('A' for Active; 'I' for Inactive)
REMARK    1  A    between atoms: C1_1  and  C7_7 
ROOT
HETATM    1  C2  UNL     1     -35.403   5.284   5.039  1.00 20.00     0.001 C 
HETATM    2  C3  UNL     1     -33.363   8.692   5.433  1.00 20.00     0.016 C 
HETATM    3  C4  UNL     1     -34.684   5.366   6.379  1.00 20.00     0.005 C 
HETATM    4  C5  UNL     1     -34.270   5.399   4.029  1.00 20.00     0.006 C 
HETATM    5  C6  UNL     1     -34.034   7.840   6.497  1.00 20.00     0.006 C 
HETATM    6  C7  UNL     1     -33.531   7.854   4.172  1.00 20.00     0.091 C 
HETATM    7  C8  UNL     1     -33.596   6.413   6.160  1.00 20.00    -0.010 C 
HETATM    8  C9  UNL     1     -33.300   6.412   4.643  1.00 20.00     0.004 C 
ENDROOT
BRANCH   6   9
HETATM    9  C1  UNL     1     -32.538   8.263   3.132  1.00 20.00     0.177 C 
HETATM   10  O10 UNL     1     -32.721   9.406   2.630  1.00 20.00    -0.648 OA
HETATM   11  O11 UNL     1     -31.640   7.406   2.891  1.00 20.00    -0.648 OA
ENDBRANCH   6   9
TORSDOF 1
ENDMDL
MODEL 5
REMARK VINA RESULT:      -4.7      2.594      4.166
REMARK  1 active torsions:
REMARK  status: ('A' for Active; 'I' for Inactive)
REMARK    1  A    between atoms: C1_1  and  C7_7 
ROOT
HETATM    1  C2  UNL     1     -31.509   8.052   3.836  1.00 20.00     0.001 C 
HETATM    2  C3  UNL     1     -34.218   6.621   6.395  1.00 20.00     0.016 C 
HETATM    3  C4  UNL     1     -32.437   9.143   4.351  1.00 20.00     0.005 C 
HETATM    4  C5  UNL     1     -32.464   7.066   3.175  1.00 20.00     0.006 C 
HETATM    5  C6  UNL     1     -33.574   7.996   6.339  1.00 20.00     0.006 C 
HETATM    6  C7  UNL     1     -33.685   5.947   5.137  1.00 20.00     0.091 C 
HETATM    7  C8  UNL     1     -33.661   8.387   4.862  1.00 20.00    -0.010 C 
HETATM    8  C9  UNL     1     -33.701   7.057   4.077  1.00 20.00     0.004 C 
ENDROOT
BRANCH   6   9
HETATM    9  C1  UNL     1     -34.559   4.797   4.747  1.00 20.00     0.177 C 
HETATM   10  O10 UNL     1     -33.949   3.732   4.453  1.00 20.00    -0.648 OA
HETATM   11  O11 UNL     1     -35.798   5.044   4.764  1.00 20.00    -0.648 OA
ENDBRANCH   6   9
TORSDOF 1
ENDMDL
MODEL 6
REMARK VINA RESULT:      -4.6      2.577      4.217
REMARK  1 active torsions:
REMARK  status: ('A' for Active; 'I' for Inactive)
REMARK    1  A    between atoms: C1_1  and  C7_7 
ROOT
HETATM    1  C2  UNL     1     -31.756   7.391   2.916  1.00 20.00     0.001 C 
HETATM    2  C3  UNL     1     -33.821   7.442   6.332  1.00 20.00     0.016 C 
HETATM    3  C4  UNL     1     -32.526   8.692   3.096  1.00 20.00     0.005 C 
HETATM    4  C5  UNL     1     -32.849   6.332   2.946  1.00 20.00     0.006 C 
HETATM    5  C6  UNL     1     -33.190   8.594   5.568  1.00 20.00     0.006 C 
HETATM    6  C7  UNL     1     -33.601   6.257   5.400  1.00 20.00     0.091 C 
HETATM    7  C8  UNL     1     -33.609   8.351   4.117  1.00 20.00    -0.010 C 
HETATM    8  C9  UNL     1     -33.846   6.828   3.997  1.00 20.00     0.004 C 
ENDROOT
BRANCH   6   9
HETATM    9  C1  UNL     1     -34.555   5.151   5.722  1.00 20.00     0.177 C 
HETATM   10  O10 UNL     1     -34.731   4.305   4.802  1.00 20.00    -0.648 OA
HETATM   11  O11 UNL     1     -35.063   5.209   6.877  1.00 20.00    -0.648 OA
ENDBRANCH   6   9
TORSDOF 1
ENDMDL
MODEL 7
REMARK VINA RESULT:      -4.2      2.595      3.796
REMARK  1 active torsions:
REMARK  status: ('A' for Active; 'I' for Inactive)
REMARK    1  A    between atoms: C1_1  and  C7_7 
ROOT
HETATM    1  C2  UNL     1     -33.690   9.176   4.534  1.00 20.00     0.001 C 
HETATM    2  C3  UNL     1     -33.089   5.615   2.833  1.00 20.00     0.016 C 
HETATM    3  C4  UNL     1     -32.248   8.998   4.080  1.00 20.00     0.005 C 
HETATM    4  C5  UNL     1     -33.892   8.027   5.513  1.00 20.00     0.006 C 
HETATM    5  C6  UNL     1     -32.406   6.944   2.559  1.00 20.00     0.006 C 
HETATM    6  C7  UNL     1     -33.977   5.931   4.031  1.00 20.00     0.091 C 
HETATM    7  C8  UNL     1     -32.077   7.487   3.951  1.00 20.00    -0.010 C 
HETATM    8  C9  UNL     1     -33.116   6.855   4.905  1.00 20.00     0.004 C 
ENDROOT
BRANCH   6   9
HETATM    9  C1  UNL     1     -34.351   4.677   4.754  1.00 20.00     0.177 C 
HETATM   10  O10 UNL     1     -33.893   3.611   4.258  1.00 20.00    -0.648 OA
HETATM   11  O11 UNL     1     -35.081   4.850   5.771  1.00 20.00    -0.648 OA
ENDBRANCH   6   9
TORSDOF 1
ENDMDL
MODEL 8
REMARK VINA RESULT:      -4.2     12.386     13.708
REMARK  1 active torsions:
REMARK  status: ('A' for Active; 'I' for Inactive)
REMARK    1  A    between atoms: C1_1  and  C7_7 
ROOT
HETATM    1  C2  UNL     1     -33.552  16.401  -2.503  1.00 20.00     0.001 C 
HETATM    2  C3  UNL     1     -36.160  16.908  -5.483  1.00 20.00     0.016 C 
HETATM    3  C4  UNL     1     -33.646  17.858  -2.936  1.00 20.00     0.005 C 
HETATM    4  C5  UNL     1     -33.120  15.687  -3.777  1.00 20.00     0.006 C 
HETATM    5  C6  UNL     1     -35.769  17.864  -4.369  1.00 20.00     0.006 C 
HETATM    6  C7  UNL     1     -35.202  15.741  -5.279  1.00 20.00     0.091 C 
HETATM    7  C8  UNL     1     -34.240  17.797  -4.341  1.00 20.00    -0.010 C 
HETATM    8  C9  UNL     1     -33.871  16.405  -4.902  1.00 20.00     0.004 C 
ENDROOT
BRANCH   6   9
HETATM    9  C1  UNL     1     -35.083  14.934  -6.532  1.00 20.00     0.177 C 
HETATM   10  O10 UNL     1     -33.994  15.063  -7.155  1.00 20.00    -0.648 OA
HETATM   11  O11 UNL     1     -36.093  14.224  -6.803  1.00 20.00    -0.648 OA
ENDBRANCH   6   9
TORSDOF 1
ENDMDL
MODEL 9
REMARK VINA RESULT:      -4.1     11.914     13.425
REMARK  1 active torsions:
REMARK  status: ('A' for Active; 'I' for Inactive)
REMARK    1  A    between atoms: C1_1  and  C7_7 
ROOT
HETATM    1  C2  UNL     1     -34.121  18.064  -1.609  1.00 20.00     0.001 C 
HETATM    2  C3  UNL     1     -34.569  17.308  -5.503  1.00 20.00     0.016 C 
HETATM    3  C4  UNL     1     -33.385  19.078  -2.475  1.00 20.00     0.005 C 
HETATM    4  C5  UNL     1     -33.492  16.738  -2.017  1.00 20.00     0.006 C 
HETATM    5  C6  UNL     1     -34.380  18.637  -4.794  1.00 20.00     0.006 C 
HETATM    6  C7  UNL     1     -34.403  16.296  -4.376  1.00 20.00     0.091 C 
HETATM    7  C8  UNL     1     -33.226  18.379  -3.822  1.00 20.00    -0.010 C 
HETATM    8  C9  UNL     1     -33.259  16.863  -3.525  1.00 20.00     0.004 C 
ENDROOT
BRANCH   6   9
HETATM    9  C1  UNL     1     -34.067  14.947  -4.926  1.00 20.00     0.177 C 
HETATM   10  O10 UNL     1     -34.086  14.002  -4.089  1.00 20.00    -0.648 OA
HETATM   11  O11 UNL     1     -33.807  14.928  -6.163  1.00 20.00    -0.648 OA
ENDBRANCH   6   9
TORSDOF 1
ENDMDL
