MODEL 1
REMARK VINA RESULT:      -3.7      0.000      0.000
REMARK  2 active torsions:
REMARK  status: ('A' for Active; 'I' for Inactive)
REMARK    1  A    between atoms: C3_3  and  C6_6 
REMARK    2  A    between atoms: C6_6  and  C7_7 
ROOT
HETATM    1  C1  UNL     1     -35.779  13.639  -4.764  1.00 20.00     0.281 C 
HETATM    2  C2  UNL     1     -36.064  14.767  -5.743  1.00 20.00     0.106 C 
HETATM    3  C3  UNL     1     -33.664  14.662  -4.661  1.00 20.00     0.282 C 
HETATM    4  N8  UNL     1     -34.741  14.101  -3.833  1.00 20.00     0.098 N 
HETATM    5  S9  UNL     1     -34.427  15.427  -6.126  1.00 20.00    -0.132 SA
HETATM    6  H24 UNL     1     -35.138  14.845  -3.258  1.00 20.00     0.317 HD
ENDROOT
BRANCH   3   7
HETATM    7  C6  UNL     1     -32.847  15.684  -3.883  1.00 20.00     0.050 C 
BRANCH   7   8
HETATM    8  C7  UNL     1     -33.694  16.823  -3.287  1.00 20.00    -0.020 C 
HETATM    9  C4  UNL     1     -33.544  16.928  -1.769  1.00 20.00     0.009 C 
HETATM   10  C5  UNL     1     -33.308  18.153  -3.939  1.00 20.00     0.009 C 
ENDBRANCH   7   8
ENDBRANCH   3   7
TORSDOF 2
ENDMDL
MODEL 2
REMARK VINA RESULT:      -3.6      2.468      3.493
REMARK  2 active torsions:
REMARK  status: ('A' for Active; 'I' for Inactive)
REMARK    1  A    between atoms: C3_3  and  C6_6 
REMARK    2  A    between atoms: C6_6  and  C7_7 
ROOT
HETATM    1  C1  UNL     1     -33.728  15.880  -4.165  1.00 20.00     0.281 C 
HETATM    2  C2  UNL     1     -34.255  17.202  -4.701  1.00 20.00     0.106 C 
HETATM    3  C3  UNL     1     -33.165  17.201  -2.302  1.00 20.00     0.282 C 
HETATM    4  N8  UNL     1     -33.790  15.930  -2.699  1.00 20.00     0.098 N 
HETATM    5  S9  UNL     1     -33.539  18.432  -3.590  1.00 20.00    -0.132 SA
HETATM    6  H24 UNL     1     -34.773  15.945  -2.422  1.00 20.00     0.317 HD
ENDROOT
BRANCH   3   7
HETATM    7  C6  UNL     1     -33.677  17.666  -0.946  1.00 20.00     0.050 C 
BRANCH   7   8
HETATM    8  C7  UNL     1     -32.822  18.779  -0.315  1.00 20.00    -0.020 C 
HETATM    9  C4  UNL     1     -33.170  19.018   1.155  1.00 20.00     0.009 C 
HETATM   10  C5  UNL     1     -31.337  18.431  -0.445  1.00 20.00     0.009 C 
ENDBRANCH   7   8
ENDBRANCH   3   7
TORSDOF 2
ENDMDL
MODEL 3
REMARK VINA RESULT:      -3.6     17.103     18.224
REMARK  2 active torsions:
REMARK  status: ('A' for Active; 'I' for Inactive)
REMARK    1  A    between atoms: C3_3  and  C6_6 
REMARK    2  A    between atoms: C6_6  and  C7_7 
ROOT
HETATM    1  C1  UNL     1     -24.733  16.249  11.802  1.00 20.00     0.281 C 
HETATM    2  C2  UNL     1     -25.414  17.501  12.332  1.00 20.00     0.106 C 
HETATM    3  C3  UNL     1     -23.779  17.770  10.282  1.00 20.00     0.282 C 
HETATM    4  N8  UNL     1     -23.463  16.652  11.184  1.00 20.00     0.098 N 
HETATM    5  S9  UNL     1     -25.138  18.723  11.031  1.00 20.00    -0.132 SA
HETATM    6  H24 UNL     1     -22.842  16.988  11.922  1.00 20.00     0.317 HD
ENDROOT
BRANCH   3   7
HETATM    7  C6  UNL     1     -22.561  18.653  10.055  1.00 20.00     0.050 C 
BRANCH   7   8
HETATM    8  C7  UNL     1     -22.252  18.904   8.568  1.00 20.00    -0.020 C 
HETATM    9  C4  UNL     1     -21.586  17.700   7.900  1.00 20.00     0.009 C 
HETATM   10  C5  UNL     1     -23.540  19.262   7.822  1.00 20.00     0.009 C 
ENDBRANCH   7   8
ENDBRANCH   3   7
TORSDOF 2
ENDMDL
MODEL 4
REMARK VINA RESULT:      -3.6      1.550      2.071
REMARK  2 active torsions:
REMARK  status: ('A' for Active; 'I' for Inactive)
REMARK    1  A    between atoms: C3_3  and  C6_6 
REMARK    2  A    between atoms: C6_6  and  C7_7 
ROOT
HETATM    1  C1  UNL     1     -34.003  15.151  -6.890  1.00 20.00     0.281 C 
HETATM    2  C2  UNL     1     -35.492  15.126  -6.582  1.00 20.00     0.106 C 
HETATM    3  C3  UNL     1     -33.891  16.221  -4.798  1.00 20.00     0.282 C 
HETATM    4  N8  UNL     1     -33.278  15.161  -5.613  1.00 20.00     0.098 N 
HETATM    5  S9  UNL     1     -35.665  16.281  -5.204  1.00 20.00    -0.132 SA
HETATM    6  H24 UNL     1     -33.430  14.262  -5.153  1.00 20.00     0.317 HD
ENDROOT
BRANCH   3   7
HETATM    7  C6  UNL     1     -33.685  15.962  -3.313  1.00 20.00     0.050 C 
BRANCH   7   8
HETATM    8  C7  UNL     1     -33.034  17.140  -2.568  1.00 20.00    -0.020 C 
HETATM    9  C4  UNL     1     -33.071  18.435  -3.379  1.00 20.00     0.009 C 
HETATM   10  C5  UNL     1     -33.730  17.352  -1.221  1.00 20.00     0.009 C 
ENDBRANCH   7   8
ENDBRANCH   3   7
TORSDOF 2
ENDMDL
MODEL 5
REMARK VINA RESULT:      -3.6      4.292      6.317
REMARK  2 active torsions:
REMARK  status: ('A' for Active; 'I' for Inactive)
REMARK    1  A    between atoms: C3_3  and  C6_6 
REMARK    2  A    between atoms: C6_6  and  C7_7 
ROOT
HETATM    1  C1  UNL     1     -32.171  19.191   2.275  1.00 20.00     0.281 C 
HETATM    2  C2  UNL     1     -30.882  18.594   1.731  1.00 20.00     0.106 C 
HETATM    3  C3  UNL     1     -32.936  18.772   0.090  1.00 20.00     0.282 C 
HETATM    4  N8  UNL     1     -33.289  18.623   1.510  1.00 20.00     0.098 N 
HETATM    5  S9  UNL     1     -31.130  18.593  -0.058  1.00 20.00    -0.132 SA
HETATM    6  H24 UNL     1     -33.354  17.629   1.731  1.00 20.00     0.317 HD
ENDROOT
BRANCH   3   7
HETATM    7  C6  UNL     1     -33.653  17.739  -0.766  1.00 20.00     0.050 C 
BRANCH   7   8
HETATM    8  C7  UNL     1     -33.040  17.569  -2.167  1.00 20.00    -0.020 C 
HETATM    9  C4  UNL     1     -33.458  16.256  -2.831  1.00 20.00     0.009 C 
HETATM   10  C5  UNL     1     -33.438  18.749  -3.057  1.00 20.00     0.009 C 
ENDBRANCH   7   8
ENDBRANCH   3   7
TORSDOF 2
ENDMDL
MODEL 6
REMARK VINA RESULT:      -3.3     12.631     13.550
REMARK  2 active torsions:
REMARK  status: ('A' for Active; 'I' for Inactive)
REMARK    1  A    between atoms: C3_3  and  C6_6 
REMARK    2  A    between atoms: C6_6  and  C7_7 
ROOT
HETATM    1  C1  UNL     1     -43.223  12.376   7.965  1.00 20.00     0.281 C 
HETATM    2  C2  UNL     1     -42.638  13.577   8.692  1.00 20.00     0.106 C 
HETATM    3  C3  UNL     1     -42.116  13.328   6.121  1.00 20.00     0.282 C 
HETATM    4  N8  UNL     1     -42.343  12.061   6.832  1.00 20.00     0.098 N 
HETATM    5  S9  UNL     1     -42.097  14.665   7.356  1.00 20.00    -0.132 SA
HETATM    6  H24 UNL     1     -41.453  11.727   7.203  1.00 20.00     0.317 HD
ENDROOT
BRANCH   3   7
HETATM    7  C6  UNL     1     -40.809  13.295   5.341  1.00 20.00     0.050 C 
BRANCH   7   8
HETATM    8  C7  UNL     1     -40.017  11.989   5.525  1.00 20.00    -0.020 C 
HETATM    9  C4  UNL     1     -39.293  11.562   4.247  1.00 20.00     0.009 C 
HETATM   10  C5  UNL     1     -39.006  12.149   6.663  1.00 20.00     0.009 C 
ENDBRANCH   7   8
ENDBRANCH   3   7
TORSDOF 2
ENDMDL
MODEL 7
REMARK VINA RESULT:      -3.3     12.201     13.196
REMARK  2 active torsions:
REMARK  status: ('A' for Active; 'I' for Inactive)
REMARK    1  A    between atoms: C3_3  and  C6_6 
REMARK    2  A    between atoms: C6_6  and  C7_7 
ROOT
HETATM    1  C1  UNL     1     -42.195  15.074   7.821  1.00 20.00     0.281 C 
HETATM    2  C2  UNL     1     -43.417  14.190   7.629  1.00 20.00     0.106 C 
HETATM    3  C3  UNL     1     -41.131  13.355   6.619  1.00 20.00     0.282 C 
HETATM    4  N8  UNL     1     -41.271  14.816   6.708  1.00 20.00     0.098 N 
HETATM    5  S9  UNL     1     -42.725  12.612   7.090  1.00 20.00    -0.132 SA
HETATM    6  H24 UNL     1     -41.703  15.159   5.850  1.00 20.00     0.317 HD
ENDROOT
BRANCH   3   7
HETATM    7  C6  UNL     1     -40.730  12.926   5.215  1.00 20.00     0.050 C 
BRANCH   7   8
HETATM    8  C7  UNL     1     -39.649  11.830   5.193  1.00 20.00    -0.020 C 
HETATM    9  C4  UNL     1     -38.954  11.726   3.835  1.00 20.00     0.009 C 
HETATM   10  C5  UNL     1     -38.612  12.100   6.286  1.00 20.00     0.009 C 
ENDBRANCH   7   8
ENDBRANCH   3   7
TORSDOF 2
ENDMDL
MODEL 8
REMARK VINA RESULT:      -3.1      2.206      4.153
REMARK  2 active torsions:
REMARK  status: ('A' for Active; 'I' for Inactive)
REMARK    1  A    between atoms: C3_3  and  C6_6 
REMARK    2  A    between atoms: C6_6  and  C7_7 
ROOT
HETATM    1  C1  UNL     1     -34.380  18.335  -1.938  1.00 20.00     0.281 C 
HETATM    2  C2  UNL     1     -33.641  17.027  -1.697  1.00 20.00     0.106 C 
HETATM    3  C3  UNL     1     -34.500  17.518  -4.140  1.00 20.00     0.282 C 
HETATM    4  N8  UNL     1     -35.296  18.135  -3.069  1.00 20.00     0.098 N 
HETATM    5  S9  UNL     1     -33.256  16.440  -3.361  1.00 20.00    -0.132 SA
HETATM    6  H24 UNL     1     -36.022  17.480  -2.778  1.00 20.00     0.317 HD
ENDROOT
BRANCH   3   7
HETATM    7  C6  UNL     1     -35.382  16.724  -5.093  1.00 20.00     0.050 C 
BRANCH   7   8
HETATM    8  C7  UNL     1     -34.825  15.329  -5.428  1.00 20.00    -0.020 C 
HETATM    9  C4  UNL     1     -35.883  14.233  -5.297  1.00 20.00     0.009 C 
HETATM   10  C5  UNL     1     -34.249  15.325  -6.846  1.00 20.00     0.009 C 
ENDBRANCH   7   8
ENDBRANCH   3   7
TORSDOF 2
ENDMDL
MODEL 9
REMARK VINA RESULT:      -3.1      2.732      3.792
REMARK  2 active torsions:
REMARK  status: ('A' for Active; 'I' for Inactive)
REMARK    1  A    between atoms: C3_3  and  C6_6 
REMARK    2  A    between atoms: C6_6  and  C7_7 
ROOT
HETATM    1  C1  UNL     1     -35.247  17.922  -4.046  1.00 20.00     0.281 C 
HETATM    2  C2  UNL     1     -34.375  16.860  -4.698  1.00 20.00     0.106 C 
HETATM    3  C3  UNL     1     -33.727  17.656  -2.270  1.00 20.00     0.282 C 
HETATM    4  N8  UNL     1     -34.415  18.665  -3.089  1.00 20.00     0.098 N 
HETATM    5  S9  UNL     1     -33.391  16.213  -3.329  1.00 20.00    -0.132 SA
HETATM    6  H24 UNL     1     -33.718  19.193  -3.617  1.00 20.00     0.317 HD
ENDROOT
BRANCH   3   7
HETATM    7  C6  UNL     1     -32.435  18.209  -1.687  1.00 20.00     0.050 C 
BRANCH   7   8
HETATM    8  C7  UNL     1     -32.593  18.764  -0.260  1.00 20.00    -0.020 C 
HETATM    9  C4  UNL     1     -33.775  18.138   0.481  1.00 20.00     0.009 C 
HETATM   10  C5  UNL     1     -31.304  18.534   0.533  1.00 20.00     0.009 C 
ENDBRANCH   7   8
ENDBRANCH   3   7
TORSDOF 2
ENDMDL
