MODEL 1
REMARK VINA RESULT:      -5.5      0.000      0.000
REMARK  1 active torsions:
REMARK  status: ('A' for Active; 'I' for Inactive)
REMARK    1  A    between atoms: C6_6  and  O11_11 
ROOT
HETATM    1  C1  UNL     1     -33.506   7.574   5.554  1.00 20.00     0.011 A 
HETATM    2  C2  UNL     1     -34.287   6.750   6.369  1.00 20.00     0.037 A 
HETATM    3  C3  UNL     1     -34.228   4.974   4.709  1.00 20.00     0.044 A 
HETATM    4  C4  UNL     1     -33.106   7.093   4.316  1.00 20.00    -0.048 A 
HETATM    5  C5  UNL     1     -33.464   5.802   3.902  1.00 20.00    -0.049 A 
HETATM    6  C6  UNL     1     -34.645   5.459   5.949  1.00 20.00     0.066 A 
HETATM    7  C7  UNL     1     -32.881   5.488   2.561  1.00 20.00     0.040 C 
HETATM    8  C8  UNL     1     -32.561   6.897   2.042  1.00 20.00     0.014 C 
HETATM    9  C9  UNL     1     -32.237   7.755   3.283  1.00 20.00     0.015 C 
HETATM   10  C10 UNL     1     -32.520   9.231   3.051  1.00 20.00     0.015 C 
ENDROOT
BRANCH   6  11
HETATM   11  O11 UNL     1     -35.401   4.672   6.764  1.00 20.00    -0.361 OA
HETATM   12  H23 UNL     1     -35.701   5.178   7.535  1.00 20.00     0.217 HD
ENDBRANCH   6  11
TORSDOF 1
ENDMDL
MODEL 2
REMARK VINA RESULT:      -5.4      0.773      2.302
REMARK  1 active torsions:
REMARK  status: ('A' for Active; 'I' for Inactive)
REMARK    1  A    between atoms: C6_6  and  O11_11 
ROOT
HETATM    1  C1  UNL     1     -34.031   5.803   3.773  1.00 20.00     0.011 A 
HETATM    2  C2  UNL     1     -34.629   5.031   4.772  1.00 20.00     0.037 A 
HETATM    3  C3  UNL     1     -34.172   6.744   6.435  1.00 20.00     0.044 A 
HETATM    4  C4  UNL     1     -33.496   7.035   4.120  1.00 20.00    -0.048 A 
HETATM    5  C5  UNL     1     -33.570   7.498   5.442  1.00 20.00    -0.049 A 
HETATM    6  C6  UNL     1     -34.699   5.498   6.093  1.00 20.00     0.066 A 
HETATM    7  C7  UNL     1     -32.972   8.864   5.566  1.00 20.00     0.040 C 
HETATM    8  C8  UNL     1     -32.120   8.929   4.291  1.00 20.00     0.014 C 
HETATM    9  C9  UNL     1     -32.844   8.063   3.238  1.00 20.00     0.015 C 
HETATM   10  C10 UNL     1     -31.888   7.507   2.194  1.00 20.00     0.015 C 
ENDROOT
BRANCH   6  11
HETATM   11  O11 UNL     1     -35.294   4.730   7.048  1.00 20.00    -0.361 OA
HETATM   12  H23 UNL     1     -35.133   5.104   7.928  1.00 20.00     0.217 HD
ENDBRANCH   6  11
TORSDOF 1
ENDMDL
MODEL 3
REMARK VINA RESULT:      -5.2      2.357      3.899
REMARK  1 active torsions:
REMARK  status: ('A' for Active; 'I' for Inactive)
REMARK    1  A    between atoms: C6_6  and  O11_11 
ROOT
HETATM    1  C1  UNL     1     -33.434   8.215   4.449  1.00 20.00     0.011 A 
HETATM    2  C2  UNL     1     -32.683   8.531   3.314  1.00 20.00     0.037 A 
HETATM    3  C3  UNL     1     -32.773   6.224   2.555  1.00 20.00     0.044 A 
HETATM    4  C4  UNL     1     -33.836   6.900   4.632  1.00 20.00    -0.048 A 
HETATM    5  C5  UNL     1     -33.507   5.916   3.689  1.00 20.00    -0.049 A 
HETATM    6  C6  UNL     1     -32.355   7.542   2.374  1.00 20.00     0.066 A 
HETATM    7  C7  UNL     1     -34.086   4.591   4.073  1.00 20.00     0.040 C 
HETATM    8  C8  UNL     1     -34.364   4.813   5.566  1.00 20.00     0.014 C 
HETATM    9  C9  UNL     1     -34.676   6.316   5.732  1.00 20.00     0.015 C 
HETATM   10  C10 UNL     1     -34.354   6.818   7.130  1.00 20.00     0.015 C 
ENDROOT
BRANCH   6  11
HETATM   11  O11 UNL     1     -31.628   7.877   1.272  1.00 20.00    -0.361 OA
HETATM   12  H23 UNL     1     -30.684   7.922   1.493  1.00 20.00     0.217 HD
ENDBRANCH   6  11
TORSDOF 1
ENDMDL
MODEL 4
REMARK VINA RESULT:      -4.9      2.425      4.439
REMARK  1 active torsions:
REMARK  status: ('A' for Active; 'I' for Inactive)
REMARK    1  A    between atoms: C6_6  and  O11_11 
ROOT
HETATM    1  C1  UNL     1     -33.215   5.657   3.380  1.00 20.00     0.011 A 
HETATM    2  C2  UNL     1     -32.715   6.220   2.203  1.00 20.00     0.037 A 
HETATM    3  C3  UNL     1     -32.542   8.400   3.264  1.00 20.00     0.044 A 
HETATM    4  C4  UNL     1     -33.386   6.477   4.485  1.00 20.00    -0.048 A 
HETATM    5  C5  UNL     1     -33.049   7.837   4.424  1.00 20.00    -0.049 A 
HETATM    6  C6  UNL     1     -32.382   7.582   2.146  1.00 20.00     0.066 A 
HETATM    7  C7  UNL     1     -33.273   8.505   5.744  1.00 20.00     0.040 C 
HETATM    8  C8  UNL     1     -34.223   7.507   6.421  1.00 20.00     0.014 C 
HETATM    9  C9  UNL     1     -33.860   6.114   5.865  1.00 20.00     0.015 C 
HETATM   10  C10 UNL     1     -35.036   5.151   5.913  1.00 20.00     0.015 C 
ENDROOT
BRANCH   6  11
HETATM   11  O11 UNL     1     -31.890   8.106   0.989  1.00 20.00    -0.361 OA
HETATM   12  H23 UNL     1     -31.440   7.418   0.474  1.00 20.00     0.217 HD
ENDBRANCH   6  11
TORSDOF 1
ENDMDL
MODEL 5
REMARK VINA RESULT:      -4.7      2.300      3.757
REMARK  1 active torsions:
REMARK  status: ('A' for Active; 'I' for Inactive)
REMARK    1  A    between atoms: C6_6  and  O11_11 
ROOT
HETATM    1  C1  UNL     1     -34.077   7.752   5.684  1.00 20.00     0.011 A 
HETATM    2  C2  UNL     1     -33.343   8.876   5.295  1.00 20.00     0.037 A 
HETATM    3  C3  UNL     1     -32.491   7.701   3.344  1.00 20.00     0.044 A 
HETATM    4  C4  UNL     1     -33.999   6.608   4.905  1.00 20.00    -0.048 A 
HETATM    5  C5  UNL     1     -33.212   6.587   3.744  1.00 20.00    -0.049 A 
HETATM    6  C6  UNL     1     -32.555   8.850   4.133  1.00 20.00     0.066 A 
HETATM    7  C7  UNL     1     -33.321   5.269   3.045  1.00 20.00     0.040 C 
HETATM    8  C8  UNL     1     -33.861   4.381   4.175  1.00 20.00     0.014 C 
HETATM    9  C9  UNL     1     -34.714   5.298   5.079  1.00 20.00     0.015 C 
HETATM   10  C10 UNL     1     -34.788   4.786   6.509  1.00 20.00     0.015 C 
ENDROOT
BRANCH   6  11
HETATM   11  O11 UNL     1     -31.855   9.960   3.770  1.00 20.00    -0.361 OA
HETATM   12  H23 UNL     1     -32.238  10.749   4.185  1.00 20.00     0.217 HD
ENDBRANCH   6  11
TORSDOF 1
ENDMDL
MODEL 6
REMARK VINA RESULT:      -4.6      1.906      3.402
REMARK  1 active torsions:
REMARK  status: ('A' for Active; 'I' for Inactive)
REMARK    1  A    between atoms: C6_6  and  O11_11 
ROOT
HETATM    1  C1  UNL     1     -32.567   7.373   3.167  1.00 20.00     0.011 A 
HETATM    2  C2  UNL     1     -32.396   6.294   2.296  1.00 20.00     0.037 A 
HETATM    3  C3  UNL     1     -33.772   4.875   3.712  1.00 20.00     0.044 A 
HETATM    4  C4  UNL     1     -33.330   7.187   4.310  1.00 20.00    -0.048 A 
HETATM    5  C5  UNL     1     -33.926   5.947   4.576  1.00 20.00    -0.049 A 
HETATM    6  C6  UNL     1     -32.993   5.053   2.568  1.00 20.00     0.066 A 
HETATM    7  C7  UNL     1     -34.735   5.999   5.834  1.00 20.00     0.040 C 
HETATM    8  C8  UNL     1     -34.148   7.246   6.509  1.00 20.00     0.014 C 
HETATM    9  C9  UNL     1     -33.697   8.187   5.371  1.00 20.00     0.015 C 
HETATM   10  C10 UNL     1     -32.573   9.115   5.803  1.00 20.00     0.015 C 
ENDROOT
BRANCH   6  11
HETATM   11  O11 UNL     1     -32.818   4.017   1.700  1.00 20.00    -0.361 OA
HETATM   12  H23 UNL     1     -32.404   3.266   2.154  1.00 20.00     0.217 HD
ENDBRANCH   6  11
TORSDOF 1
ENDMDL
MODEL 7
REMARK VINA RESULT:      -4.5      0.999      2.509
REMARK  1 active torsions:
REMARK  status: ('A' for Active; 'I' for Inactive)
REMARK    1  A    between atoms: C6_6  and  O11_11 
ROOT
HETATM    1  C1  UNL     1     -34.417   5.215   4.702  1.00 20.00     0.011 A 
HETATM    2  C2  UNL     1     -34.768   5.653   5.982  1.00 20.00     0.037 A 
HETATM    3  C3  UNL     1     -33.585   7.749   5.639  1.00 20.00     0.044 A 
HETATM    4  C4  UNL     1     -33.640   6.046   3.908  1.00 20.00    -0.048 A 
HETATM    5  C5  UNL     1     -33.231   7.302   4.377  1.00 20.00    -0.049 A 
HETATM    6  C6  UNL     1     -34.354   6.911   6.447  1.00 20.00     0.066 A 
HETATM    7  C7  UNL     1     -32.448   8.035   3.333  1.00 20.00     0.040 C 
HETATM    8  C8  UNL     1     -32.041   6.881   2.407  1.00 20.00     0.014 C 
HETATM    9  C9  UNL     1     -33.170   5.831   2.497  1.00 20.00     0.015 C 
HETATM   10  C10 UNL     1     -32.675   4.427   2.186  1.00 20.00     0.015 C 
ENDROOT
BRANCH   6  11
HETATM   11  O11 UNL     1     -34.714   7.318   7.696  1.00 20.00    -0.361 OA
HETATM   12  H23 UNL     1     -34.578   8.274   7.789  1.00 20.00     0.217 HD
ENDBRANCH   6  11
TORSDOF 1
ENDMDL
MODEL 8
REMARK VINA RESULT:      -4.5     12.288     13.681
REMARK  1 active torsions:
REMARK  status: ('A' for Active; 'I' for Inactive)
REMARK    1  A    between atoms: C6_6  and  O11_11 
ROOT
HETATM    1  C1  UNL     1     -33.655  15.256  -3.756  1.00 20.00     0.011 A 
HETATM    2  C2  UNL     1     -34.335  14.404  -4.631  1.00 20.00     0.037 A 
HETATM    3  C3  UNL     1     -35.343  16.301  -5.768  1.00 20.00     0.044 A 
HETATM    4  C4  UNL     1     -33.838  16.624  -3.889  1.00 20.00    -0.048 A 
HETATM    5  C5  UNL     1     -34.675  17.138  -4.889  1.00 20.00    -0.049 A 
HETATM    6  C6  UNL     1     -35.174  14.924  -5.629  1.00 20.00     0.066 A 
HETATM    7  C7  UNL     1     -34.678  18.634  -4.869  1.00 20.00     0.040 C 
HETATM    8  C8  UNL     1     -34.144  18.910  -3.457  1.00 20.00     0.014 C 
HETATM    9  C9  UNL     1     -33.197  17.740  -3.113  1.00 20.00     0.015 C 
HETATM   10  C10 UNL     1     -33.092  17.509  -1.614  1.00 20.00     0.015 C 
ENDROOT
BRANCH   6  11
HETATM   11  O11 UNL     1     -35.820  14.073  -6.474  1.00 20.00    -0.361 OA
HETATM   12  H23 UNL     1     -35.839  13.179  -6.100  1.00 20.00     0.217 HD
ENDBRANCH   6  11
TORSDOF 1
ENDMDL
MODEL 9
REMARK VINA RESULT:      -4.1     12.275     13.366
REMARK  1 active torsions:
REMARK  status: ('A' for Active; 'I' for Inactive)
REMARK    1  A    between atoms: C6_6  and  O11_11 
ROOT
HETATM    1  C1  UNL     1     -35.148  18.171  -3.797  1.00 20.00     0.011 A 
HETATM    2  C2  UNL     1     -34.923  18.584  -2.481  1.00 20.00     0.037 A 
HETATM    3  C3  UNL     1     -33.392  16.732  -2.113  1.00 20.00     0.044 A 
HETATM    4  C4  UNL     1     -34.502  17.032  -4.253  1.00 20.00    -0.048 A 
HETATM    5  C5  UNL     1     -33.631  16.322  -3.414  1.00 20.00    -0.049 A 
HETATM    6  C6  UNL     1     -34.051  17.869  -1.645  1.00 20.00     0.066 A 
HETATM    7  C7  UNL     1     -33.017  15.164  -4.136  1.00 20.00     0.040 C 
HETATM    8  C8  UNL     1     -33.990  15.001  -5.311  1.00 20.00     0.014 C 
HETATM    9  C9  UNL     1     -34.540  16.410  -5.620  1.00 20.00     0.015 C 
HETATM   10  C10 UNL     1     -35.913  16.361  -6.271  1.00 20.00     0.015 C 
ENDROOT
BRANCH   6  11
HETATM   11  O11 UNL     1     -33.842  18.296  -0.368  1.00 20.00    -0.361 OA
HETATM   12  H23 UNL     1     -34.653  18.690  -0.010  1.00 20.00     0.217 HD
ENDBRANCH   6  11
TORSDOF 1
ENDMDL
