MODEL 1
REMARK VINA RESULT:      -3.7      0.000      0.000
REMARK  2 active torsions:
REMARK  status: ('A' for Active; 'I' for Inactive)
REMARK    1  A    between atoms: C3_3  and  C6_6 
REMARK    2  A    between atoms: C6_6  and  C7_7 
ROOT
HETATM    1  C1  UNL     1     -21.298  17.943   8.952  1.00 20.00     0.281 C 
HETATM    2  C2  UNL     1     -22.128  18.628   7.878  1.00 20.00     0.106 C 
HETATM    3  C3  UNL     1     -23.406  17.745  10.009  1.00 20.00     0.282 C 
HETATM    4  N8  UNL     1     -22.172  17.013   9.684  1.00 20.00     0.098 N 
HETATM    5  S9  UNL     1     -23.698  18.975   8.700  1.00 20.00    -0.132 SA
HETATM    6  H24 UNL     1     -22.383  16.196   9.114  1.00 20.00     0.317 HD
ENDROOT
BRANCH   3   7
HETATM    7  C6  UNL     1     -23.292  18.430  11.367  1.00 20.00     0.050 C 
BRANCH   7   8
HETATM    8  C7  UNL     1     -24.438  18.075  12.332  1.00 20.00    -0.020 C 
HETATM    9  C4  UNL     1     -25.606  19.057  12.237  1.00 20.00     0.009 C 
HETATM   10  C5  UNL     1     -24.932  16.654  12.052  1.00 20.00     0.009 C 
ENDBRANCH   7   8
ENDBRANCH   3   7
TORSDOF 2
ENDMDL
MODEL 2
REMARK VINA RESULT:      -3.5     16.461     17.317
REMARK  2 active torsions:
REMARK  status: ('A' for Active; 'I' for Inactive)
REMARK    1  A    between atoms: C3_3  and  C6_6 
REMARK    2  A    between atoms: C6_6  and  C7_7 
ROOT
HETATM    1  C1  UNL     1     -35.005  16.988  -4.984  1.00 20.00     0.281 C 
HETATM    2  C2  UNL     1     -35.001  15.530  -5.413  1.00 20.00     0.106 C 
HETATM    3  C3  UNL     1     -33.144  16.286  -3.701  1.00 20.00     0.282 C 
HETATM    4  N8  UNL     1     -33.636  17.353  -4.587  1.00 20.00     0.098 N 
HETATM    5  S9  UNL     1     -33.932  14.724  -4.201  1.00 20.00    -0.132 SA
HETATM    6  H24 UNL     1     -33.037  17.439  -5.405  1.00 20.00     0.317 HD
ENDROOT
BRANCH   3   7
HETATM    7  C6  UNL     1     -33.462  16.599  -2.242  1.00 20.00     0.050 C 
BRANCH   7   8
HETATM    8  C7  UNL     1     -33.265  18.081  -1.875  1.00 20.00    -0.020 C 
HETATM    9  C4  UNL     1     -34.507  18.691  -1.225  1.00 20.00     0.009 C 
HETATM   10  C5  UNL     1     -32.065  18.228  -0.937  1.00 20.00     0.009 C 
ENDBRANCH   7   8
ENDBRANCH   3   7
TORSDOF 2
ENDMDL
MODEL 3
REMARK VINA RESULT:      -3.5     14.784     15.851
REMARK  2 active torsions:
REMARK  status: ('A' for Active; 'I' for Inactive)
REMARK    1  A    between atoms: C3_3  and  C6_6 
REMARK    2  A    between atoms: C6_6  and  C7_7 
ROOT
HETATM    1  C1  UNL     1     -31.316  18.514  -0.311  1.00 20.00     0.281 C 
HETATM    2  C2  UNL     1     -32.160  18.852   0.908  1.00 20.00     0.106 C 
HETATM    3  C3  UNL     1     -33.442  18.299  -1.330  1.00 20.00     0.282 C 
HETATM    4  N8  UNL     1     -32.092  18.854  -1.514  1.00 20.00     0.098 N 
HETATM    5  S9  UNL     1     -33.820  18.306   0.450  1.00 20.00    -0.132 SA
HETATM    6  H24 UNL     1     -32.136  19.863  -1.638  1.00 20.00     0.317 HD
ENDROOT
BRANCH   3   7
HETATM    7  C6  UNL     1     -33.530  16.882  -1.887  1.00 20.00     0.050 C 
BRANCH   7   8
HETATM    8  C7  UNL     1     -33.318  16.807  -3.410  1.00 20.00    -0.020 C 
HETATM    9  C4  UNL     1     -33.298  15.367  -3.925  1.00 20.00     0.009 C 
HETATM   10  C5  UNL     1     -34.414  17.598  -4.127  1.00 20.00     0.009 C 
ENDBRANCH   7   8
ENDBRANCH   3   7
TORSDOF 2
ENDMDL
MODEL 4
REMARK VINA RESULT:      -3.5     17.573     18.511
REMARK  2 active torsions:
REMARK  status: ('A' for Active; 'I' for Inactive)
REMARK    1  A    between atoms: C3_3  and  C6_6 
REMARK    2  A    between atoms: C6_6  and  C7_7 
ROOT
HETATM    1  C1  UNL     1     -33.765  15.255  -6.803  1.00 20.00     0.281 C 
HETATM    2  C2  UNL     1     -35.158  15.856  -6.901  1.00 20.00     0.106 C 
HETATM    3  C3  UNL     1     -34.287  15.218  -4.495  1.00 20.00     0.282 C 
HETATM    4  N8  UNL     1     -33.708  14.424  -5.590  1.00 20.00     0.098 N 
HETATM    5  S9  UNL     1     -35.548  16.324  -5.200  1.00 20.00    -0.132 SA
HETATM    6  H24 UNL     1     -34.234  13.563  -5.721  1.00 20.00     0.317 HD
ENDROOT
BRANCH   3   7
HETATM    7  C6  UNL     1     -33.210  16.027  -3.779  1.00 20.00     0.050 C 
BRANCH   7   8
HETATM    8  C7  UNL     1     -33.757  17.270  -3.053  1.00 20.00    -0.020 C 
HETATM    9  C4  UNL     1     -33.602  17.173  -1.535  1.00 20.00     0.009 C 
HETATM   10  C5  UNL     1     -33.049  18.525  -3.567  1.00 20.00     0.009 C 
ENDBRANCH   7   8
ENDBRANCH   3   7
TORSDOF 2
ENDMDL
MODEL 5
REMARK VINA RESULT:      -3.5     14.976     15.767
REMARK  2 active torsions:
REMARK  status: ('A' for Active; 'I' for Inactive)
REMARK    1  A    between atoms: C3_3  and  C6_6 
REMARK    2  A    between atoms: C6_6  and  C7_7 
ROOT
HETATM    1  C1  UNL     1     -33.418  16.159  -3.723  1.00 20.00     0.281 C 
HETATM    2  C2  UNL     1     -34.350  17.118  -4.448  1.00 20.00     0.106 C 
HETATM    3  C3  UNL     1     -33.760  17.677  -1.940  1.00 20.00     0.282 C 
HETATM    4  N8  UNL     1     -33.701  16.247  -2.282  1.00 20.00     0.098 N 
HETATM    5  S9  UNL     1     -34.367  18.585  -3.395  1.00 20.00    -0.132 SA
HETATM    6  H24 UNL     1     -34.584  15.793  -2.062  1.00 20.00     0.317 HD
ENDROOT
BRANCH   3   7
HETATM    7  C6  UNL     1     -32.387  18.196  -1.524  1.00 20.00     0.050 C 
BRANCH   7   8
HETATM    8  C7  UNL     1     -32.372  18.843  -0.127  1.00 20.00    -0.020 C 
HETATM    9  C4  UNL     1     -33.547  18.388   0.739  1.00 20.00     0.009 C 
HETATM   10  C5  UNL     1     -31.053  18.523   0.580  1.00 20.00     0.009 C 
ENDBRANCH   7   8
ENDBRANCH   3   7
TORSDOF 2
ENDMDL
MODEL 6
REMARK VINA RESULT:      -3.4     17.928     18.857
REMARK  2 active torsions:
REMARK  status: ('A' for Active; 'I' for Inactive)
REMARK    1  A    between atoms: C3_3  and  C6_6 
REMARK    2  A    between atoms: C6_6  and  C7_7 
ROOT
HETATM    1  C1  UNL     1     -36.347  14.842  -5.326  1.00 20.00     0.281 C 
HETATM    2  C2  UNL     1     -35.756  14.702  -6.720  1.00 20.00     0.106 C 
HETATM    3  C3  UNL     1     -34.544  16.351  -5.056  1.00 20.00     0.282 C 
HETATM    4  N8  UNL     1     -35.982  16.168  -4.804  1.00 20.00     0.098 N 
HETATM    5  S9  UNL     1     -34.112  15.435  -6.568  1.00 20.00    -0.132 SA
HETATM    6  H24 UNL     1     -36.520  16.896  -5.268  1.00 20.00     0.317 HD
ENDROOT
BRANCH   3   7
HETATM    7  C6  UNL     1     -33.715  15.853  -3.877  1.00 20.00     0.050 C 
BRANCH   7   8
HETATM    8  C7  UNL     1     -33.045  16.983  -3.076  1.00 20.00    -0.020 C 
HETATM    9  C4  UNL     1     -33.211  18.349  -3.744  1.00 20.00     0.009 C 
HETATM   10  C5  UNL     1     -33.620  17.027  -1.658  1.00 20.00     0.009 C 
ENDBRANCH   7   8
ENDBRANCH   3   7
TORSDOF 2
ENDMDL
MODEL 7
REMARK VINA RESULT:      -3.3     17.899     19.077
REMARK  2 active torsions:
REMARK  status: ('A' for Active; 'I' for Inactive)
REMARK    1  A    between atoms: C3_3  and  C6_6 
REMARK    2  A    between atoms: C6_6  and  C7_7 
ROOT
HETATM    1  C1  UNL     1     -43.254  13.543   6.675  1.00 20.00     0.281 C 
HETATM    2  C2  UNL     1     -42.700  14.712   7.475  1.00 20.00     0.106 C 
HETATM    3  C3  UNL     1     -40.978  12.894   6.647  1.00 20.00     0.282 C 
HETATM    4  N8  UNL     1     -42.349  12.397   6.850  1.00 20.00     0.098 N 
HETATM    5  S9  UNL     1     -40.920  14.633   7.180  1.00 20.00    -0.132 SA
HETATM    6  H24 UNL     1     -42.448  12.001   7.782  1.00 20.00     0.317 HD
ENDROOT
BRANCH   3   7
HETATM    7  C6  UNL     1     -40.565  12.772   5.184  1.00 20.00     0.050 C 
BRANCH   7   8
HETATM    8  C7  UNL     1     -39.416  11.775   4.951  1.00 20.00    -0.020 C 
HETATM    9  C4  UNL     1     -38.988  11.711   3.484  1.00 20.00     0.009 C 
HETATM   10  C5  UNL     1     -38.217  12.152   5.824  1.00 20.00     0.009 C 
ENDBRANCH   7   8
ENDBRANCH   3   7
TORSDOF 2
ENDMDL
MODEL 8
REMARK VINA RESULT:      -3.3     15.251     16.061
REMARK  2 active torsions:
REMARK  status: ('A' for Active; 'I' for Inactive)
REMARK    1  A    between atoms: C3_3  and  C6_6 
REMARK    2  A    between atoms: C6_6  and  C7_7 
ROOT
HETATM    1  C1  UNL     1     -32.821   9.226   2.402  1.00 20.00     0.281 C 
HETATM    2  C2  UNL     1     -32.217   8.047   1.654  1.00 20.00     0.106 C 
HETATM    3  C3  UNL     1     -32.520   7.794   4.262  1.00 20.00     0.282 C 
HETATM    4  N8  UNL     1     -32.346   9.178   3.793  1.00 20.00     0.098 N 
HETATM    5  S9  UNL     1     -32.332   6.683   2.833  1.00 20.00    -0.132 SA
HETATM    6  H24 UNL     1     -31.368   9.451   3.848  1.00 20.00     0.317 HD
ENDROOT
BRANCH   3   7
HETATM    7  C6  UNL     1     -33.889   7.604   4.907  1.00 20.00     0.050 C 
BRANCH   7   8
HETATM    8  C7  UNL     1     -34.300   6.127   5.051  1.00 20.00    -0.020 C 
HETATM    9  C4  UNL     1     -34.393   5.689   6.513  1.00 20.00     0.009 C 
HETATM   10  C5  UNL     1     -35.640   5.890   4.353  1.00 20.00     0.009 C 
ENDBRANCH   7   8
ENDBRANCH   3   7
TORSDOF 2
ENDMDL
MODEL 9
REMARK VINA RESULT:      -3.3     16.316     17.179
REMARK  2 active torsions:
REMARK  status: ('A' for Active; 'I' for Inactive)
REMARK    1  A    between atoms: C3_3  and  C6_6 
REMARK    2  A    between atoms: C6_6  and  C7_7 
ROOT
HETATM    1  C1  UNL     1     -33.414  14.802  -4.482  1.00 20.00     0.281 C 
HETATM    2  C2  UNL     1     -34.111  15.314  -5.733  1.00 20.00     0.106 C 
HETATM    3  C3  UNL     1     -34.293  16.796  -3.559  1.00 20.00     0.282 C 
HETATM    4  N8  UNL     1     -34.108  15.358  -3.310  1.00 20.00     0.098 N 
HETATM    5  S9  UNL     1     -34.465  17.044  -5.354  1.00 20.00    -0.132 SA
HETATM    6  H24 UNL     1     -35.008  14.902  -3.177  1.00 20.00     0.317 HD
ENDROOT
BRANCH   3   7
HETATM    7  C6  UNL     1     -33.113  17.599  -3.022  1.00 20.00     0.050 C 
BRANCH   7   8
HETATM    8  C7  UNL     1     -33.078  17.687  -1.486  1.00 20.00    -0.020 C 
HETATM    9  C4  UNL     1     -31.806  18.360  -0.969  1.00 20.00     0.009 C 
HETATM   10  C5  UNL     1     -34.307  18.447  -0.981  1.00 20.00     0.009 C 
ENDBRANCH   7   8
ENDBRANCH   3   7
TORSDOF 2
ENDMDL
