MODEL 1
REMARK VINA RESULT:      -4.0      0.000      0.000
REMARK  1 active torsions:
REMARK  status: ('A' for Active; 'I' for Inactive)
REMARK    1  A    between atoms: C2_2  and  O3_3 
ROOT
HETATM    1  C2  UNL     1     -34.852   5.589   4.924  1.00 20.00     0.524 C 
HETATM    2  F4  UNL     1     -35.079   5.493   6.251  1.00 20.00    -0.144 F 
HETATM    3  F5  UNL     1     -36.014   5.900   4.312  1.00 20.00    -0.144 F 
HETATM    4  F6  UNL     1     -34.420   4.392   4.476  1.00 20.00    -0.144 F 
ENDROOT
BRANCH   1   5
HETATM    5  O3  UNL     1     -33.878   6.592   4.691  1.00 20.00    -0.303 OA
HETATM    6  C1  UNL     1     -33.629   7.377   5.848  1.00 20.00     0.211 C 
ENDBRANCH   1   5
TORSDOF 1
ENDMDL
MODEL 2
REMARK VINA RESULT:      -4.0      0.059      1.551
REMARK  1 active torsions:
REMARK  status: ('A' for Active; 'I' for Inactive)
REMARK    1  A    between atoms: C2_2  and  O3_3 
ROOT
HETATM    1  C2  UNL     1     -34.854   5.603   4.927  1.00 20.00     0.524 C 
HETATM    2  F4  UNL     1     -34.438   4.396   4.488  1.00 20.00    -0.144 F 
HETATM    3  F5  UNL     1     -35.070   5.523   6.258  1.00 20.00    -0.144 F 
HETATM    4  F6  UNL     1     -36.013   5.908   4.306  1.00 20.00    -0.144 F 
ENDROOT
BRANCH   1   5
HETATM    5  O3  UNL     1     -33.860   6.570   4.637  1.00 20.00    -0.303 OA
HETATM    6  C1  UNL     1     -33.612   7.432   5.739  1.00 20.00     0.211 C 
ENDBRANCH   1   5
TORSDOF 1
ENDMDL
MODEL 3
REMARK VINA RESULT:      -4.0      0.076      1.538
REMARK  1 active torsions:
REMARK  status: ('A' for Active; 'I' for Inactive)
REMARK    1  A    between atoms: C2_2  and  O3_3 
ROOT
HETATM    1  C2  UNL     1     -34.832   5.546   4.942  1.00 20.00     0.524 C 
HETATM    2  F4  UNL     1     -35.977   5.904   4.323  1.00 20.00    -0.144 F 
HETATM    3  F5  UNL     1     -34.407   4.378   4.414  1.00 20.00    -0.144 F 
HETATM    4  F6  UNL     1     -35.090   5.374   6.255  1.00 20.00    -0.144 F 
ENDROOT
BRANCH   1   5
HETATM    5  O3  UNL     1     -33.864   6.564   4.750  1.00 20.00    -0.303 OA
HETATM    6  C1  UNL     1     -33.686   7.361   5.912  1.00 20.00     0.211 C 
ENDBRANCH   1   5
TORSDOF 1
ENDMDL
MODEL 4
REMARK VINA RESULT:      -3.8      1.250      2.096
REMARK  1 active torsions:
REMARK  status: ('A' for Active; 'I' for Inactive)
REMARK    1  A    between atoms: C2_2  and  O3_3 
ROOT
HETATM    1  C2  UNL     1     -34.434   6.137   5.878  1.00 20.00     0.524 C 
HETATM    2  F4  UNL     1     -35.595   5.884   5.237  1.00 20.00    -0.144 F 
HETATM    3  F5  UNL     1     -34.010   4.996   6.462  1.00 20.00    -0.144 F 
HETATM    4  F6  UNL     1     -34.663   7.065   6.829  1.00 20.00    -0.144 F 
ENDROOT
BRANCH   1   5
HETATM    5  O3  UNL     1     -33.479   6.604   4.941  1.00 20.00    -0.303 OA
HETATM    6  C1  UNL     1     -33.199   7.987   5.104  1.00 20.00     0.211 C 
ENDBRANCH   1   5
TORSDOF 1
ENDMDL
MODEL 5
REMARK VINA RESULT:      -3.7      1.101      2.140
REMARK  1 active torsions:
REMARK  status: ('A' for Active; 'I' for Inactive)
REMARK    1  A    between atoms: C2_2  and  O3_3 
ROOT
HETATM    1  C2  UNL     1     -34.728   5.749   4.949  1.00 20.00     0.524 C 
HETATM    2  F4  UNL     1     -35.927   5.945   4.361  1.00 20.00    -0.144 F 
HETATM    3  F5  UNL     1     -34.512   4.420   5.050  1.00 20.00    -0.144 F 
HETATM    4  F6  UNL     1     -34.763   6.289   6.185  1.00 20.00    -0.144 F 
ENDROOT
BRANCH   1   5
HETATM    5  O3  UNL     1     -33.721   6.362   4.163  1.00 20.00    -0.303 OA
HETATM    6  C1  UNL     1     -33.224   5.494   3.154  1.00 20.00     0.211 C 
ENDBRANCH   1   5
TORSDOF 1
ENDMDL
MODEL 6
REMARK VINA RESULT:      -3.6      2.031      2.549
REMARK  1 active torsions:
REMARK  status: ('A' for Active; 'I' for Inactive)
REMARK    1  A    between atoms: C2_2  and  O3_3 
ROOT
HETATM    1  C2  UNL     1     -34.096   6.480   6.278  1.00 20.00     0.524 C 
HETATM    2  F4  UNL     1     -32.970   7.066   5.817  1.00 20.00    -0.144 F 
HETATM    3  F5  UNL     1     -34.685   7.319   7.157  1.00 20.00    -0.144 F 
HETATM    4  F6  UNL     1     -33.756   5.339   6.912  1.00 20.00    -0.144 F 
ENDROOT
BRANCH   1   5
HETATM    5  O3  UNL     1     -34.959   6.210   5.188  1.00 20.00    -0.303 OA
HETATM    6  C1  UNL     1     -34.500   5.123   4.396  1.00 20.00     0.211 C 
ENDBRANCH   1   5
TORSDOF 1
ENDMDL
MODEL 7
REMARK VINA RESULT:      -3.6      2.378      3.036
REMARK  1 active torsions:
REMARK  status: ('A' for Active; 'I' for Inactive)
REMARK    1  A    between atoms: C2_2  and  O3_3 
ROOT
HETATM    1  C2  UNL     1     -33.423   7.566   5.421  1.00 20.00     0.524 C 
HETATM    2  F4  UNL     1     -33.180   6.967   6.606  1.00 20.00    -0.144 F 
HETATM    3  F5  UNL     1     -32.242   7.810   4.814  1.00 20.00    -0.144 F 
HETATM    4  F6  UNL     1     -34.054   8.735   5.653  1.00 20.00    -0.144 F 
ENDROOT
BRANCH   1   5
HETATM    5  O3  UNL     1     -34.227   6.711   4.626  1.00 20.00    -0.303 OA
HETATM    6  C1  UNL     1     -34.809   5.661   5.385  1.00 20.00     0.211 C 
ENDBRANCH   1   5
TORSDOF 1
ENDMDL
MODEL 8
REMARK VINA RESULT:      -3.6      2.355      2.986
REMARK  1 active torsions:
REMARK  status: ('A' for Active; 'I' for Inactive)
REMARK    1  A    between atoms: C2_2  and  O3_3 
ROOT
HETATM    1  C2  UNL     1     -33.463   7.552   5.469  1.00 20.00     0.524 C 
HETATM    2  F4  UNL     1     -34.056   8.742   5.708  1.00 20.00    -0.144 F 
HETATM    3  F5  UNL     1     -33.209   6.955   6.653  1.00 20.00    -0.144 F 
HETATM    4  F6  UNL     1     -32.300   7.775   4.824  1.00 20.00    -0.144 F 
ENDROOT
BRANCH   1   5
HETATM    5  O3  UNL     1     -34.328   6.753   4.681  1.00 20.00    -0.303 OA
HETATM    6  C1  UNL     1     -34.663   5.531   5.322  1.00 20.00     0.211 C 
ENDBRANCH   1   5
TORSDOF 1
ENDMDL
MODEL 9
REMARK VINA RESULT:      -3.5      2.443      2.843
REMARK  1 active torsions:
REMARK  status: ('A' for Active; 'I' for Inactive)
REMARK    1  A    between atoms: C2_2  and  O3_3 
ROOT
HETATM    1  C2  UNL     1     -33.471   7.722   5.369  1.00 20.00     0.524 C 
HETATM    2  F4  UNL     1     -34.068   8.872   5.749  1.00 20.00    -0.144 F 
HETATM    3  F5  UNL     1     -34.323   7.041   4.573  1.00 20.00    -0.144 F 
HETATM    4  F6  UNL     1     -33.211   6.990   6.472  1.00 20.00    -0.144 F 
ENDROOT
BRANCH   1   5
HETATM    5  O3  UNL     1     -32.273   8.028   4.676  1.00 20.00    -0.303 OA
HETATM    6  C1  UNL     1     -32.275   7.518   3.350  1.00 20.00     0.211 C 
ENDBRANCH   1   5
TORSDOF 1
ENDMDL
