MODEL 1
REMARK VINA RESULT:      -5.0      0.000      0.000
REMARK  0 active torsions:
REMARK  status: ('A' for Active; 'I' for Inactive)
ROOT
HETATM    1  C1  UNL     1     -33.709   6.734   5.086  1.00 20.00    -0.002 A 
HETATM    2  C2  UNL     1     -32.894   7.561   4.411  1.00 20.00    -0.064 A 
HETATM    3  C3  UNL     1     -33.969   5.482   4.340  1.00 20.00     0.215 A 
HETATM    4  C4  UNL     1     -32.401   7.106   3.069  1.00 20.00     0.117 A 
HETATM    5  C5  UNL     1     -34.348   6.908   6.421  1.00 20.00     0.053 C 
HETATM    6  C6  UNL     1     -32.419   8.907   4.864  1.00 20.00     0.045 C 
HETATM    7  O7  UNL     1     -34.675   4.566   4.732  1.00 20.00    -0.280 OA
HETATM    8  S8  UNL     1     -33.133   5.474   2.803  1.00 20.00    -0.083 SA
ENDROOT
TORSDOF 0
ENDMDL
MODEL 2
REMARK VINA RESULT:      -4.8      2.064      2.717
REMARK  0 active torsions:
REMARK  status: ('A' for Active; 'I' for Inactive)
ROOT
HETATM    1  C1  UNL     1     -33.833   6.130   4.614  1.00 20.00    -0.002 A 
HETATM    2  C2  UNL     1     -33.078   6.218   3.506  1.00 20.00    -0.064 A 
HETATM    3  C3  UNL     1     -33.699   7.329   5.472  1.00 20.00     0.215 A 
HETATM    4  C4  UNL     1     -32.257   7.459   3.324  1.00 20.00     0.117 A 
HETATM    5  C5  UNL     1     -34.741   5.037   5.062  1.00 20.00     0.053 C 
HETATM    6  C6  UNL     1     -32.971   5.193   2.420  1.00 20.00     0.045 C 
HETATM    7  O7  UNL     1     -34.278   7.499   6.533  1.00 20.00    -0.280 OA
HETATM    8  S8  UNL     1     -32.590   8.488   4.773  1.00 20.00    -0.083 SA
ENDROOT
TORSDOF 0
ENDMDL
MODEL 3
REMARK VINA RESULT:      -4.7      1.647      2.414
REMARK  0 active torsions:
REMARK  status: ('A' for Active; 'I' for Inactive)
ROOT
HETATM    1  C1  UNL     1     -33.386   6.129   3.901  1.00 20.00    -0.002 A 
HETATM    2  C2  UNL     1     -33.230   7.358   4.423  1.00 20.00    -0.064 A 
HETATM    3  C3  UNL     1     -34.136   5.233   4.811  1.00 20.00     0.215 A 
HETATM    4  C4  UNL     1     -33.812   7.614   5.781  1.00 20.00     0.117 A 
HETATM    5  C5  UNL     1     -32.926   5.586   2.593  1.00 20.00     0.053 C 
HETATM    6  C6  UNL     1     -32.526   8.513   3.781  1.00 20.00     0.045 C 
HETATM    7  O7  UNL     1     -34.413   4.068   4.574  1.00 20.00    -0.280 OA
HETATM    8  S8  UNL     1     -34.582   6.058   6.288  1.00 20.00    -0.083 SA
ENDROOT
TORSDOF 0
ENDMDL
MODEL 4
REMARK VINA RESULT:      -4.6      2.336      3.406
REMARK  0 active torsions:
REMARK  status: ('A' for Active; 'I' for Inactive)
ROOT
HETATM    1  C1  UNL     1     -33.356   6.201   3.865  1.00 20.00    -0.002 A 
HETATM    2  C2  UNL     1     -33.929   6.302   5.076  1.00 20.00    -0.064 A 
HETATM    3  C3  UNL     1     -32.589   7.417   3.512  1.00 20.00     0.215 A 
HETATM    4  C4  UNL     1     -33.710   7.573   5.842  1.00 20.00     0.117 A 
HETATM    5  C5  UNL     1     -33.393   5.078   2.886  1.00 20.00     0.053 C 
HETATM    6  C6  UNL     1     -34.773   5.265   5.750  1.00 20.00     0.045 C 
HETATM    7  O7  UNL     1     -31.974   7.579   2.470  1.00 20.00    -0.280 OA
HETATM    8  S8  UNL     1     -32.672   8.612   4.787  1.00 20.00    -0.083 SA
ENDROOT
TORSDOF 0
ENDMDL
MODEL 5
REMARK VINA RESULT:      -4.6      2.086      2.887
REMARK  0 active torsions:
REMARK  status: ('A' for Active; 'I' for Inactive)
ROOT
HETATM    1  C1  UNL     1     -33.590   7.052   5.151  1.00 20.00    -0.002 A 
HETATM    2  C2  UNL     1     -33.804   5.968   4.386  1.00 20.00    -0.064 A 
HETATM    3  C3  UNL     1     -32.688   8.025   4.492  1.00 20.00     0.215 A 
HETATM    4  C4  UNL     1     -33.126   5.917   3.050  1.00 20.00     0.117 A 
HETATM    5  C5  UNL     1     -34.119   7.382   6.504  1.00 20.00     0.053 C 
HETATM    6  C6  UNL     1     -34.661   4.790   4.734  1.00 20.00     0.045 C 
HETATM    7  O7  UNL     1     -32.337   9.090   4.972  1.00 20.00    -0.280 OA
HETATM    8  S8  UNL     1     -32.178   7.452   2.919  1.00 20.00    -0.083 SA
ENDROOT
TORSDOF 0
ENDMDL
MODEL 6
REMARK VINA RESULT:      -4.5      1.507      2.212
REMARK  0 active torsions:
REMARK  status: ('A' for Active; 'I' for Inactive)
ROOT
HETATM    1  C1  UNL     1     -33.789   6.015   4.509  1.00 20.00    -0.002 A 
HETATM    2  C2  UNL     1     -33.618   7.110   5.267  1.00 20.00    -0.064 A 
HETATM    3  C3  UNL     1     -33.034   6.098   3.238  1.00 20.00     0.215 A 
HETATM    4  C4  UNL     1     -32.731   8.194   4.731  1.00 20.00     0.117 A 
HETATM    5  C5  UNL     1     -34.599   4.792   4.772  1.00 20.00     0.053 C 
HETATM    6  C6  UNL     1     -34.228   7.365   6.611  1.00 20.00     0.045 C 
HETATM    7  O7  UNL     1     -33.019   5.235   2.374  1.00 20.00    -0.280 OA
HETATM    8  S8  UNL     1     -32.154   7.606   3.121  1.00 20.00    -0.083 SA
ENDROOT
TORSDOF 0
ENDMDL
MODEL 7
REMARK VINA RESULT:      -4.5      2.114      3.162
REMARK  0 active torsions:
REMARK  status: ('A' for Active; 'I' for Inactive)
ROOT
HETATM    1  C1  UNL     1     -33.297   6.930   4.306  1.00 20.00    -0.002 A 
HETATM    2  C2  UNL     1     -33.459   5.711   3.764  1.00 20.00    -0.064 A 
HETATM    3  C3  UNL     1     -33.954   7.040   5.628  1.00 20.00     0.215 A 
HETATM    4  C4  UNL     1     -34.244   4.703   4.548  1.00 20.00     0.117 A 
HETATM    5  C5  UNL     1     -32.578   8.120   3.772  1.00 20.00     0.053 C 
HETATM    6  C6  UNL     1     -32.930   5.249   2.442  1.00 20.00     0.045 C 
HETATM    7  O7  UNL     1     -33.955   8.039   6.329  1.00 20.00    -0.280 OA
HETATM    8  S8  UNL     1     -34.742   5.541   6.071  1.00 20.00    -0.083 SA
ENDROOT
TORSDOF 0
ENDMDL
MODEL 8
REMARK VINA RESULT:      -4.4      1.598      2.361
REMARK  0 active torsions:
REMARK  status: ('A' for Active; 'I' for Inactive)
ROOT
HETATM    1  C1  UNL     1     -33.157   7.495   4.695  1.00 20.00    -0.002 A 
HETATM    2  C2  UNL     1     -32.962   6.819   3.550  1.00 20.00    -0.064 A 
HETATM    3  C3  UNL     1     -34.049   6.763   5.624  1.00 20.00     0.215 A 
HETATM    4  C4  UNL     1     -33.647   5.494   3.402  1.00 20.00     0.117 A 
HETATM    5  C5  UNL     1     -32.617   8.815   5.125  1.00 20.00     0.053 C 
HETATM    6  C6  UNL     1     -32.120   7.258   2.392  1.00 20.00     0.045 C 
HETATM    7  O7  UNL     1     -34.383   7.158   6.730  1.00 20.00    -0.280 OA
HETATM    8  S8  UNL     1     -34.574   5.243   4.934  1.00 20.00    -0.083 SA
ENDROOT
TORSDOF 0
ENDMDL
MODEL 9
REMARK VINA RESULT:      -4.3      1.520      2.468
REMARK  0 active torsions:
REMARK  status: ('A' for Active; 'I' for Inactive)
ROOT
HETATM    1  C1  UNL     1     -33.066   6.952   3.890  1.00 20.00    -0.002 A 
HETATM    2  C2  UNL     1     -33.628   7.356   5.041  1.00 20.00    -0.064 A 
HETATM    3  C3  UNL     1     -33.430   5.556   3.555  1.00 20.00     0.215 A 
HETATM    4  C4  UNL     1     -34.495   6.374   5.771  1.00 20.00     0.117 A 
HETATM    5  C5  UNL     1     -32.170   7.692   2.957  1.00 20.00     0.053 C 
HETATM    6  C6  UNL     1     -33.478   8.703   5.679  1.00 20.00     0.045 C 
HETATM    7  O7  UNL     1     -33.053   4.952   2.564  1.00 20.00    -0.280 OA
HETATM    8  S8  UNL     1     -34.482   4.867   4.772  1.00 20.00    -0.083 SA
ENDROOT
TORSDOF 0
ENDMDL
