MODEL 1
REMARK VINA RESULT:      -4.7      0.000      0.000
REMARK  3 active torsions:
REMARK  status: ('A' for Active; 'I' for Inactive)
REMARK    1  A    between atoms: C3_3  and  C10_10 
REMARK    2  A    between atoms: C7_7  and  C11_11 
REMARK    3  A    between atoms: C10_10  and  C11_11 
ROOT
HETATM    1  C1  UNL     1     -33.530  18.397   0.879  1.00 20.00    -0.024 C 
HETATM    2  C2  UNL     1     -32.237  18.732   1.029  1.00 20.00    -0.087 C 
HETATM    3  C4  UNL     1     -34.117  17.895  -0.408  1.00 20.00     0.032 C 
HETATM    4  C5  UNL     1     -31.258  18.661  -0.116  1.00 20.00     0.034 C 
HETATM    5  C6  UNL     1     -31.922  18.491  -1.487  1.00 20.00     0.009 C 
HETATM    6  C7  UNL     1     -33.054  17.461  -1.429  1.00 20.00    -0.007 C 
HETATM    7  C8  UNL     1     -31.685  19.198   2.343  1.00 20.00     0.043 C 
ENDROOT
BRANCH   6   8
HETATM    8  C11 UNL     1     -33.678  17.250  -2.807  1.00 20.00    -0.008 C 
HETATM    9  C9  UNL     1     -33.463  18.498  -3.669  1.00 20.00     0.011 C 
BRANCH   8  10
HETATM   10  C10 UNL     1     -33.084  16.001  -3.472  1.00 20.00     0.074 C 
BRANCH  10  11
HETATM   11  C3  UNL     1     -34.096  15.152  -4.207  1.00 20.00     0.231 C 
HETATM   12  O12 UNL     1     -34.244  13.944  -4.055  1.00 20.00    -0.307 OA
ENDBRANCH  10  11
ENDBRANCH   8  10
ENDBRANCH   6   8
TORSDOF 3
ENDMDL
MODEL 2
REMARK VINA RESULT:      -4.6      2.377      5.349
REMARK  3 active torsions:
REMARK  status: ('A' for Active; 'I' for Inactive)
REMARK    1  A    between atoms: C3_3  and  C10_10 
REMARK    2  A    between atoms: C7_7  and  C11_11 
REMARK    3  A    between atoms: C10_10  and  C11_11 
ROOT
HETATM    1  C1  UNL     1     -33.395  15.748  -3.706  1.00 20.00    -0.024 C 
HETATM    2  C2  UNL     1     -34.179  16.093  -4.742  1.00 20.00    -0.087 C 
HETATM    3  C4  UNL     1     -33.218  16.592  -2.478  1.00 20.00     0.032 C 
HETATM    4  C5  UNL     1     -34.933  17.398  -4.770  1.00 20.00     0.034 C 
HETATM    5  C6  UNL     1     -34.481  18.396  -3.699  1.00 20.00     0.009 C 
HETATM    6  C7  UNL     1     -34.274  17.702  -2.349  1.00 20.00    -0.007 C 
HETATM    7  C8  UNL     1     -34.354  15.202  -5.936  1.00 20.00     0.043 C 
ENDROOT
BRANCH   6   8
HETATM    8  C11 UNL     1     -33.877  18.705  -1.268  1.00 20.00    -0.008 C 
HETATM    9  C9  UNL     1     -33.954  18.040   0.110  1.00 20.00     0.011 C 
BRANCH   8  10
HETATM   10  C10 UNL     1     -32.471  19.254  -1.547  1.00 20.00     0.074 C 
BRANCH  10  11
HETATM   11  C3  UNL     1     -31.549  19.225  -0.350  1.00 20.00     0.231 C 
HETATM   12  O12 UNL     1     -30.470  18.642  -0.306  1.00 20.00    -0.307 OA
ENDBRANCH  10  11
ENDBRANCH   8  10
ENDBRANCH   6   8
TORSDOF 3
ENDMDL
MODEL 3
REMARK VINA RESULT:      -4.3      1.916      3.274
REMARK  3 active torsions:
REMARK  status: ('A' for Active; 'I' for Inactive)
REMARK    1  A    between atoms: C3_3  and  C10_10 
REMARK    2  A    between atoms: C7_7  and  C11_11 
REMARK    3  A    between atoms: C10_10  and  C11_11 
ROOT
HETATM    1  C1  UNL     1     -32.814  19.129  -3.074  1.00 20.00    -0.024 C 
HETATM    2  C2  UNL     1     -32.659  18.312  -2.018  1.00 20.00    -0.087 C 
HETATM    3  C4  UNL     1     -33.587  18.761  -4.306  1.00 20.00     0.032 C 
HETATM    4  C5  UNL     1     -33.234  16.918  -1.999  1.00 20.00     0.034 C 
HETATM    5  C6  UNL     1     -33.709  16.427  -3.370  1.00 20.00     0.009 C 
HETATM    6  C7  UNL     1     -34.478  17.523  -4.115  1.00 20.00    -0.007 C 
HETATM    7  C8  UNL     1     -31.906  18.733  -0.792  1.00 20.00     0.043 C 
ENDROOT
BRANCH   6   8
HETATM    8  C11 UNL     1     -35.000  17.016  -5.457  1.00 20.00    -0.008 C 
HETATM    9  C9  UNL     1     -34.480  17.911  -6.586  1.00 20.00     0.011 C 
BRANCH   8  10
HETATM   10  C10 UNL     1     -34.585  15.553  -5.667  1.00 20.00     0.074 C 
BRANCH  10  11
HETATM   11  C3  UNL     1     -35.728  14.635  -6.035  1.00 20.00     0.231 C 
HETATM   12  O12 UNL     1     -36.019  14.296  -7.178  1.00 20.00    -0.307 OA
ENDBRANCH  10  11
ENDBRANCH   8  10
ENDBRANCH   6   8
TORSDOF 3
ENDMDL
MODEL 4
REMARK VINA RESULT:      -4.3      2.175      3.493
REMARK  3 active torsions:
REMARK  status: ('A' for Active; 'I' for Inactive)
REMARK    1  A    between atoms: C3_3  and  C10_10 
REMARK    2  A    between atoms: C7_7  and  C11_11 
REMARK    3  A    between atoms: C10_10  and  C11_11 
ROOT
HETATM    1  C1  UNL     1     -33.361  16.688  -2.284  1.00 20.00    -0.024 C 
HETATM    2  C2  UNL     1     -33.863  17.750  -1.629  1.00 20.00    -0.087 C 
HETATM    3  C4  UNL     1     -33.675  16.367  -3.715  1.00 20.00     0.032 C 
HETATM    4  C5  UNL     1     -34.827  18.706  -2.284  1.00 20.00     0.034 C 
HETATM    5  C6  UNL     1     -35.410  18.188  -3.604  1.00 20.00     0.009 C 
HETATM    6  C7  UNL     1     -34.327  17.537  -4.470  1.00 20.00    -0.007 C 
HETATM    7  C8  UNL     1     -33.494  18.052  -0.208  1.00 20.00     0.043 C 
ENDROOT
BRANCH   6   8
HETATM    8  C11 UNL     1     -34.896  17.072  -5.807  1.00 20.00    -0.008 C 
HETATM    9  C9  UNL     1     -34.377  17.971  -6.933  1.00 20.00     0.011 C 
BRANCH   8  10
HETATM   10  C10 UNL     1     -34.533  15.601  -6.053  1.00 20.00     0.074 C 
BRANCH  10  11
HETATM   11  C3  UNL     1     -35.724  14.704  -6.304  1.00 20.00     0.231 C 
HETATM   12  O12 UNL     1     -36.076  14.293  -7.405  1.00 20.00    -0.307 OA
ENDBRANCH  10  11
ENDBRANCH   8  10
ENDBRANCH   6   8
TORSDOF 3
ENDMDL
MODEL 5
REMARK VINA RESULT:      -4.0      2.189      3.796
REMARK  3 active torsions:
REMARK  status: ('A' for Active; 'I' for Inactive)
REMARK    1  A    between atoms: C3_3  and  C10_10 
REMARK    2  A    between atoms: C7_7  and  C11_11 
REMARK    3  A    between atoms: C10_10  and  C11_11 
ROOT
HETATM    1  C1  UNL     1     -33.068  18.796  -3.162  1.00 20.00    -0.024 C 
HETATM    2  C2  UNL     1     -32.994  17.897  -2.165  1.00 20.00    -0.087 C 
HETATM    3  C4  UNL     1     -33.595  18.480  -4.531  1.00 20.00     0.032 C 
HETATM    4  C5  UNL     1     -33.412  16.461  -2.355  1.00 20.00     0.034 C 
HETATM    5  C6  UNL     1     -33.611  16.065  -3.822  1.00 20.00     0.009 C 
HETATM    6  C7  UNL     1     -34.367  17.152  -4.591  1.00 20.00    -0.007 C 
HETATM    7  C8  UNL     1     -32.492  18.265  -0.800  1.00 20.00     0.043 C 
ENDROOT
BRANCH   6   8
HETATM    8  C11 UNL     1     -34.614  16.733  -6.038  1.00 20.00    -0.008 C 
HETATM    9  C9  UNL     1     -34.196  15.272  -6.233  1.00 20.00     0.011 C 
BRANCH   8  10
HETATM   10  C10 UNL     1     -36.089  16.947  -6.407  1.00 20.00     0.074 C 
BRANCH  10  11
HETATM   11  C3  UNL     1     -37.064  16.453  -5.363  1.00 20.00     0.231 C 
HETATM   12  O12 UNL     1     -37.679  15.393  -5.420  1.00 20.00    -0.307 OA
ENDBRANCH  10  11
ENDBRANCH   8  10
ENDBRANCH   6   8
TORSDOF 3
ENDMDL
MODEL 6
REMARK VINA RESULT:      -3.9     10.903     12.015
REMARK  3 active torsions:
REMARK  status: ('A' for Active; 'I' for Inactive)
REMARK    1  A    between atoms: C3_3  and  C10_10 
REMARK    2  A    between atoms: C7_7  and  C11_11 
REMARK    3  A    between atoms: C10_10  and  C11_11 
ROOT
HETATM    1  C1  UNL     1     -40.457  15.924   8.967  1.00 20.00    -0.024 C 
HETATM    2  C2  UNL     1     -41.035  16.925   8.280  1.00 20.00    -0.087 C 
HETATM    3  C4  UNL     1     -40.364  14.514   8.464  1.00 20.00     0.032 C 
HETATM    4  C5  UNL     1     -41.681  16.699   6.936  1.00 20.00     0.034 C 
HETATM    5  C6  UNL     1     -41.893  15.220   6.594  1.00 20.00     0.009 C 
HETATM    6  C7  UNL     1     -40.664  14.384   6.963  1.00 20.00    -0.007 C 
HETATM    7  C8  UNL     1     -41.075  18.329   8.805  1.00 20.00     0.043 C 
ENDROOT
BRANCH   6   8
HETATM    8  C11 UNL     1     -40.855  12.921   6.571  1.00 20.00    -0.008 C 
HETATM    9  C9  UNL     1     -42.317  12.515   6.779  1.00 20.00     0.011 C 
BRANCH   8  10
HETATM   10  C10 UNL     1     -40.415  12.701   5.117  1.00 20.00     0.074 C 
BRANCH  10  11
HETATM   11  C3  UNL     1     -39.215  11.795   4.965  1.00 20.00     0.231 C 
HETATM   12  O12 UNL     1     -38.051  12.128   5.164  1.00 20.00    -0.307 OA
ENDBRANCH  10  11
ENDBRANCH   8  10
ENDBRANCH   6   8
TORSDOF 3
ENDMDL
MODEL 7
REMARK VINA RESULT:      -3.9      2.530      5.671
REMARK  3 active torsions:
REMARK  status: ('A' for Active; 'I' for Inactive)
REMARK    1  A    between atoms: C3_3  and  C10_10 
REMARK    2  A    between atoms: C7_7  and  C11_11 
REMARK    3  A    between atoms: C10_10  and  C11_11 
ROOT
HETATM    1  C1  UNL     1     -33.833  15.137  -4.856  1.00 20.00    -0.024 C 
HETATM    2  C2  UNL     1     -34.523  15.901  -5.720  1.00 20.00    -0.087 C 
HETATM    3  C4  UNL     1     -33.247  15.650  -3.574  1.00 20.00     0.032 C 
HETATM    4  C5  UNL     1     -34.740  17.375  -5.482  1.00 20.00     0.034 C 
HETATM    5  C6  UNL     1     -33.857  17.957  -4.374  1.00 20.00     0.009 C 
HETATM    6  C7  UNL     1     -33.801  17.023  -3.161  1.00 20.00    -0.007 C 
HETATM    7  C8  UNL     1     -35.121  15.339  -6.975  1.00 20.00     0.043 C 
ENDROOT
BRANCH   6   8
HETATM    8  C11 UNL     1     -32.967  17.629  -2.036  1.00 20.00    -0.008 C 
HETATM    9  C9  UNL     1     -32.642  19.091  -2.361  1.00 20.00     0.011 C 
BRANCH   8  10
HETATM   10  C10 UNL     1     -33.712  17.506  -0.700  1.00 20.00     0.074 C 
BRANCH  10  11
HETATM   11  C3  UNL     1     -33.924  18.822   0.013  1.00 20.00     0.231 C 
HETATM   12  O12 UNL     1     -34.863  19.074   0.761  1.00 20.00    -0.307 OA
ENDBRANCH  10  11
ENDBRANCH   8  10
ENDBRANCH   6   8
TORSDOF 3
ENDMDL
MODEL 8
REMARK VINA RESULT:      -3.9     10.948     11.589
REMARK  3 active torsions:
REMARK  status: ('A' for Active; 'I' for Inactive)
REMARK    1  A    between atoms: C3_3  and  C10_10 
REMARK    2  A    between atoms: C7_7  and  C11_11 
REMARK    3  A    between atoms: C10_10  and  C11_11 
ROOT
HETATM    1  C1  UNL     1     -33.670   7.249   6.124  1.00 20.00    -0.024 C 
HETATM    2  C2  UNL     1     -34.302   6.108   5.798  1.00 20.00    -0.087 C 
HETATM    3  C4  UNL     1     -32.959   8.120   5.131  1.00 20.00     0.032 C 
HETATM    4  C5  UNL     1     -34.319   5.583   4.385  1.00 20.00     0.034 C 
HETATM    5  C6  UNL     1     -33.314   6.273   3.457  1.00 20.00     0.009 C 
HETATM    6  C7  UNL     1     -33.313   7.790   3.672  1.00 20.00    -0.007 C 
HETATM    7  C8  UNL     1     -35.031   5.285   6.818  1.00 20.00     0.043 C 
ENDROOT
BRANCH   6   8
HETATM    8  C11 UNL     1     -32.352   8.483   2.710  1.00 20.00    -0.008 C 
HETATM    9  C9  UNL     1     -31.718   7.448   1.775  1.00 20.00     0.011 C 
BRANCH   8  10
HETATM   10  C10 UNL     1     -33.089   9.573   1.919  1.00 20.00     0.074 C 
BRANCH  10  11
HETATM   11  C3  UNL     1     -32.746   9.608   0.447  1.00 20.00     0.231 C 
HETATM   12  O12 UNL     1     -33.442   9.142  -0.449  1.00 20.00    -0.307 OA
ENDBRANCH  10  11
ENDBRANCH   8  10
ENDBRANCH   6   8
TORSDOF 3
ENDMDL
MODEL 9
REMARK VINA RESULT:      -3.8     23.787     24.517
REMARK  3 active torsions:
REMARK  status: ('A' for Active; 'I' for Inactive)
REMARK    1  A    between atoms: C3_3  and  C10_10 
REMARK    2  A    between atoms: C7_7  and  C11_11 
REMARK    3  A    between atoms: C10_10  and  C11_11 
ROOT
HETATM    1  C1  UNL     1     -23.930  -1.911  11.869  1.00 20.00    -0.024 C 
HETATM    2  C2  UNL     1     -23.836  -2.969  11.045  1.00 20.00    -0.087 C 
HETATM    3  C4  UNL     1     -25.205  -1.161  12.121  1.00 20.00     0.032 C 
HETATM    4  C5  UNL     1     -25.022  -3.478  10.265  1.00 20.00     0.034 C 
HETATM    5  C6  UNL     1     -26.213  -2.513  10.252  1.00 20.00     0.009 C 
HETATM    6  C7  UNL     1     -26.456  -1.915  11.641  1.00 20.00    -0.007 C 
HETATM    7  C8  UNL     1     -22.548  -3.710  10.849  1.00 20.00     0.043 C 
ENDROOT
BRANCH   6   8
HETATM    8  C11 UNL     1     -27.676  -0.997  11.640  1.00 20.00    -0.008 C 
HETATM    9  C9  UNL     1     -28.013  -0.585  10.204  1.00 20.00     0.011 C 
BRANCH   8  10
HETATM   10  C10 UNL     1     -28.864  -1.696  12.315  1.00 20.00     0.074 C 
BRANCH  10  11
HETATM   11  C3  UNL     1     -29.735  -2.488  11.367  1.00 20.00     0.231 C 
HETATM   12  O12 UNL     1     -30.948  -2.355  11.248  1.00 20.00    -0.307 OA
ENDBRANCH  10  11
ENDBRANCH   8  10
ENDBRANCH   6   8
TORSDOF 3
ENDMDL
