MODEL 1
REMARK VINA RESULT:      -3.6      0.000      0.000
REMARK  2 active torsions:
REMARK  status: ('A' for Active; 'I' for Inactive)
REMARK    1  A    between atoms: C2_2  and  C3_3 
REMARK    2  A    between atoms: C3_3  and  N4_4 
ROOT
HETATM    1  C1  UNL     1     -34.482   5.781   6.339  1.00 20.00     0.055 C 
HETATM    2  C3  UNL     1     -34.362   6.134   4.852  1.00 20.00     0.145 C 
HETATM    3 CL7  UNL     1     -36.037   6.281   4.191  1.00 20.00    -0.097 Cl
ENDROOT
BRANCH   2   4
HETATM    4  C2  UNL     1     -33.654   7.476   4.613  1.00 20.00     0.160 C 
HETATM    5 CL6  UNL     1     -32.349   7.380   3.397  1.00 20.00    -0.127 Cl
ENDBRANCH   2   4
BRANCH   2   6
HETATM    6  N4  UNL     1     -33.689   5.059   4.033  1.00 20.00    -0.036 NA
HETATM    7  O5  UNL     1     -34.008   3.907   4.347  1.00 20.00    -0.099 OA
ENDBRANCH   2   6
TORSDOF 2
ENDMDL
MODEL 2
REMARK VINA RESULT:      -3.5      1.310      1.310
REMARK  2 active torsions:
REMARK  status: ('A' for Active; 'I' for Inactive)
REMARK    1  A    between atoms: C2_2  and  C3_3 
REMARK    2  A    between atoms: C3_3  and  N4_4 
ROOT
HETATM    1  C1  UNL     1     -34.471   5.569   6.277  1.00 20.00     0.055 C 
HETATM    2  C3  UNL     1     -34.360   5.824   4.770  1.00 20.00     0.145 C 
HETATM    3 CL7  UNL     1     -36.029   6.119   4.144  1.00 20.00    -0.097 Cl
ENDROOT
BRANCH   2   4
HETATM    4  C2  UNL     1     -33.518   7.066   4.436  1.00 20.00     0.160 C 
HETATM    5 CL6  UNL     1     -33.727   8.397   5.608  1.00 20.00    -0.127 Cl
ENDBRANCH   2   4
BRANCH   2   6
HETATM    6  N4  UNL     1     -33.833   4.639   3.997  1.00 20.00    -0.036 NA
HETATM    7  O5  UNL     1     -33.191   4.939   2.985  1.00 20.00    -0.099 OA
ENDBRANCH   2   6
TORSDOF 2
ENDMDL
MODEL 3
REMARK VINA RESULT:      -3.4      2.412      2.655
REMARK  2 active torsions:
REMARK  status: ('A' for Active; 'I' for Inactive)
REMARK    1  A    between atoms: C2_2  and  C3_3 
REMARK    2  A    between atoms: C3_3  and  N4_4 
ROOT
HETATM    1  C1  UNL     1     -35.854   6.120   4.279  1.00 20.00     0.055 C 
HETATM    2  C3  UNL     1     -34.403   5.908   4.724  1.00 20.00     0.145 C 
HETATM    3 CL7  UNL     1     -34.420   5.591   6.502  1.00 20.00    -0.097 Cl
ENDROOT
BRANCH   2   4
HETATM    4  C2  UNL     1     -33.743   4.697   4.046  1.00 20.00     0.160 C 
HETATM    5 CL6  UNL     1     -32.847   5.119   2.560  1.00 20.00    -0.127 Cl
ENDBRANCH   2   4
BRANCH   2   6
HETATM    6  N4  UNL     1     -33.532   7.126   4.530  1.00 20.00    -0.036 NA
HETATM    7  O5  UNL     1     -33.067   7.588   5.578  1.00 20.00    -0.099 OA
ENDBRANCH   2   6
TORSDOF 2
ENDMDL
MODEL 4
REMARK VINA RESULT:      -3.3     16.937     17.421
REMARK  2 active torsions:
REMARK  status: ('A' for Active; 'I' for Inactive)
REMARK    1  A    between atoms: C2_2  and  C3_3 
REMARK    2  A    between atoms: C3_3  and  N4_4 
ROOT
HETATM    1  C1  UNL     1     -23.249  18.925   8.424  1.00 20.00     0.055 C 
HETATM    2  C3  UNL     1     -22.612  17.851   9.314  1.00 20.00     0.145 C 
HETATM    3 CL7  UNL     1     -21.294  18.643  10.263  1.00 20.00    -0.097 Cl
ENDROOT
BRANCH   2   4
HETATM    4  C2  UNL     1     -23.604  17.246  10.320  1.00 20.00     0.160 C 
HETATM    5 CL6  UNL     1     -23.174  17.578  12.022  1.00 20.00    -0.127 Cl
ENDBRANCH   2   4
BRANCH   2   6
HETATM    6  N4  UNL     1     -21.949  16.741   8.535  1.00 20.00    -0.036 NA
HETATM    7  O5  UNL     1     -21.696  17.029   7.360  1.00 20.00    -0.099 OA
ENDBRANCH   2   6
TORSDOF 2
ENDMDL
MODEL 5
REMARK VINA RESULT:      -3.3      1.829      1.985
REMARK  2 active torsions:
REMARK  status: ('A' for Active; 'I' for Inactive)
REMARK    1  A    between atoms: C2_2  and  C3_3 
REMARK    2  A    between atoms: C3_3  and  N4_4 
ROOT
HETATM    1  C1  UNL     1     -35.834   6.190   4.041  1.00 20.00     0.055 C 
HETATM    2  C3  UNL     1     -34.429   5.904   4.585  1.00 20.00     0.145 C 
HETATM    3 CL7  UNL     1     -33.399   5.396   3.190  1.00 20.00    -0.097 Cl
ENDROOT
BRANCH   2   4
HETATM    4  C2  UNL     1     -33.772   7.141   5.217  1.00 20.00     0.160 C 
HETATM    5 CL6  UNL     1     -32.492   7.859   4.198  1.00 20.00    -0.127 Cl
ENDBRANCH   2   4
BRANCH   2   6
HETATM    6  N4  UNL     1     -34.388   4.759   5.568  1.00 20.00    -0.036 NA
HETATM    7  O5  UNL     1     -34.153   5.098   6.733  1.00 20.00    -0.099 OA
ENDBRANCH   2   6
TORSDOF 2
ENDMDL
MODEL 6
REMARK VINA RESULT:      -3.2      2.073      2.436
REMARK  2 active torsions:
REMARK  status: ('A' for Active; 'I' for Inactive)
REMARK    1  A    between atoms: C2_2  and  C3_3 
REMARK    2  A    between atoms: C3_3  and  N4_4 
ROOT
HETATM    1  C1  UNL     1     -33.636   7.259   4.424  1.00 20.00     0.055 C 
HETATM    2  C3  UNL     1     -34.421   5.981   4.742  1.00 20.00     0.145 C 
HETATM    3 CL7  UNL     1     -36.091   6.190   4.084  1.00 20.00    -0.097 Cl
ENDROOT
BRANCH   2   4
HETATM    4  C2  UNL     1     -33.819   4.732   4.079  1.00 20.00     0.160 C 
HETATM    5 CL6  UNL     1     -32.869   5.099   2.611  1.00 20.00    -0.127 Cl
ENDBRANCH   2   4
BRANCH   2   6
HETATM    6  N4  UNL     1     -34.588   5.732   6.221  1.00 20.00    -0.036 NA
HETATM    7  O5  UNL     1     -34.499   6.748   6.919  1.00 20.00    -0.099 OA
ENDBRANCH   2   6
TORSDOF 2
ENDMDL
MODEL 7
REMARK VINA RESULT:      -3.2      9.289      9.609
REMARK  2 active torsions:
REMARK  status: ('A' for Active; 'I' for Inactive)
REMARK    1  A    between atoms: C2_2  and  C3_3 
REMARK    2  A    between atoms: C3_3  and  N4_4 
ROOT
HETATM    1  C1  UNL     1     -40.785   5.702  -0.479  1.00 20.00     0.055 C 
HETATM    2  C3  UNL     1     -42.231   6.128  -0.197  1.00 20.00     0.145 C 
HETATM    3 CL7  UNL     1     -42.621   5.636   1.497  1.00 20.00    -0.097 Cl
ENDROOT
BRANCH   2   4
HETATM    4  C2  UNL     1     -42.432   7.648  -0.292  1.00 20.00     0.160 C 
HETATM    5 CL6  UNL     1     -40.917   8.576  -0.104  1.00 20.00    -0.127 Cl
ENDBRANCH   2   4
BRANCH   2   6
HETATM    6  N4  UNL     1     -43.244   5.432  -1.073  1.00 20.00    -0.036 NA
HETATM    7  O5  UNL     1     -42.753   4.644  -1.889  1.00 20.00    -0.099 OA
ENDBRANCH   2   6
TORSDOF 2
ENDMDL
MODEL 8
REMARK VINA RESULT:      -3.2     13.388     14.103
REMARK  2 active torsions:
REMARK  status: ('A' for Active; 'I' for Inactive)
REMARK    1  A    between atoms: C2_2  and  C3_3 
REMARK    2  A    between atoms: C3_3  and  N4_4 
ROOT
HETATM    1  C1  UNL     1     -35.190  16.662  -5.635  1.00 20.00     0.055 C 
HETATM    2  C3  UNL     1     -34.771  15.216  -5.926  1.00 20.00     0.145 C 
HETATM    3 CL7  UNL     1     -33.600  15.255  -7.301  1.00 20.00    -0.097 Cl
ENDROOT
BRANCH   2   4
HETATM    4  C2  UNL     1     -34.063  14.550  -4.736  1.00 20.00     0.160 C 
HETATM    5 CL6  UNL     1     -33.405  15.722  -3.559  1.00 20.00    -0.127 Cl
ENDBRANCH   2   4
BRANCH   2   6
HETATM    6  N4  UNL     1     -35.914  14.341  -6.382  1.00 20.00    -0.036 NA
HETATM    7  O5  UNL     1     -36.109  14.356  -7.602  1.00 20.00    -0.099 OA
ENDBRANCH   2   6
TORSDOF 2
ENDMDL
MODEL 9
REMARK VINA RESULT:      -3.1      9.613      9.928
REMARK  2 active torsions:
REMARK  status: ('A' for Active; 'I' for Inactive)
REMARK    1  A    between atoms: C2_2  and  C3_3 
REMARK    2  A    between atoms: C3_3  and  N4_4 
ROOT
HETATM    1  C1  UNL     1     -40.441  14.227   7.170  1.00 20.00     0.055 C 
HETATM    2  C3  UNL     1     -40.768  13.006   6.303  1.00 20.00     0.145 C 
HETATM    3 CL7  UNL     1     -41.283  13.614   4.681  1.00 20.00    -0.097 Cl
ENDROOT
BRANCH   2   4
HETATM    4  C2  UNL     1     -39.556  12.087   6.087  1.00 20.00     0.160 C 
HETATM    5 CL6  UNL     1     -39.239  11.728   4.366  1.00 20.00    -0.127 Cl
ENDBRANCH   2   4
BRANCH   2   6
HETATM    6  N4  UNL     1     -41.927  12.192   6.825  1.00 20.00    -0.036 NA
HETATM    7  O5  UNL     1     -42.390  12.600   7.896  1.00 20.00    -0.099 OA
ENDBRANCH   2   6
TORSDOF 2
ENDMDL
