MODEL 1
REMARK VINA RESULT:      -5.5      0.000      0.000
REMARK  0 active torsions:
REMARK  status: ('A' for Active; 'I' for Inactive)
ROOT
HETATM    1  C1  UNL     1     -33.883   6.315   4.525  1.00 20.00    -0.014 A 
HETATM    2  C2  UNL     1     -33.059   6.254   3.469  1.00 20.00    -0.070 A 
HETATM    3  C3  UNL     1     -33.576   7.591   5.200  1.00 20.00     0.156 A 
HETATM    4  C4  UNL     1     -32.450   8.322   4.533  1.00 20.00     0.092 A 
HETATM    5  C5  UNL     1     -32.150   7.452   3.310  1.00 20.00     0.018 A 
HETATM    6  C6  UNL     1     -34.920   5.387   5.032  1.00 20.00     0.052 C 
HETATM    7  C7  UNL     1     -32.953   5.132   2.488  1.00 20.00     0.044 C 
HETATM    8  C8  UNL     1     -32.397   8.213   2.010  1.00 20.00     0.015 C 
HETATM    9  O9  UNL     1     -34.161   7.986   6.198  1.00 20.00    -0.293 OA
ENDROOT
TORSDOF 0
ENDMDL
MODEL 2
REMARK VINA RESULT:      -5.3      1.286      2.950
REMARK  0 active torsions:
REMARK  status: ('A' for Active; 'I' for Inactive)
ROOT
HETATM    1  C1  UNL     1     -32.889   7.167   3.916  1.00 20.00    -0.014 A 
HETATM    2  C2  UNL     1     -33.724   6.162   4.216  1.00 20.00    -0.070 A 
HETATM    3  C3  UNL     1     -33.037   8.151   5.005  1.00 20.00     0.156 A 
HETATM    4  C4  UNL     1     -34.076   7.733   6.001  1.00 20.00     0.092 A 
HETATM    5  C5  UNL     1     -34.488   6.344   5.508  1.00 20.00     0.018 A 
HETATM    6  C6  UNL     1     -31.963   7.385   2.781  1.00 20.00     0.052 C 
HETATM    7  C7  UNL     1     -33.970   4.937   3.397  1.00 20.00     0.044 C 
HETATM    8  C8  UNL     1     -34.166   5.267   6.542  1.00 20.00     0.015 C 
HETATM    9  O9  UNL     1     -32.400   9.192   5.067  1.00 20.00    -0.293 OA
ENDROOT
TORSDOF 0
ENDMDL
MODEL 3
REMARK VINA RESULT:      -5.3      1.747      3.603
REMARK  0 active torsions:
REMARK  status: ('A' for Active; 'I' for Inactive)
ROOT
HETATM    1  C1  UNL     1     -32.875   7.735   4.496  1.00 20.00    -0.014 A 
HETATM    2  C2  UNL     1     -33.678   6.961   5.241  1.00 20.00    -0.070 A 
HETATM    3  C3  UNL     1     -32.692   7.014   3.222  1.00 20.00     0.156 A 
HETATM    4  C4  UNL     1     -33.391   5.689   3.222  1.00 20.00     0.092 A 
HETATM    5  C5  UNL     1     -34.127   5.686   4.564  1.00 20.00     0.018 A 
HETATM    6  C6  UNL     1     -32.231   9.043   4.758  1.00 20.00     0.052 C 
HETATM    7  C7  UNL     1     -34.129   7.236   6.639  1.00 20.00     0.044 C 
HETATM    8  C8  UNL     1     -35.640   5.620   4.371  1.00 20.00     0.015 C 
HETATM    9  O9  UNL     1     -32.029   7.446   2.290  1.00 20.00    -0.293 OA
ENDROOT
TORSDOF 0
ENDMDL
MODEL 4
REMARK VINA RESULT:      -5.2      1.619      2.985
REMARK  0 active torsions:
REMARK  status: ('A' for Active; 'I' for Inactive)
ROOT
HETATM    1  C1  UNL     1     -33.224   6.041   3.380  1.00 20.00    -0.014 A 
HETATM    2  C2  UNL     1     -34.046   6.099   4.438  1.00 20.00    -0.070 A 
HETATM    3  C3  UNL     1     -32.582   7.367   3.297  1.00 20.00     0.156 A 
HETATM    4  C4  UNL     1     -33.096   8.305   4.347  1.00 20.00     0.092 A 
HETATM    5  C5  UNL     1     -34.034   7.421   5.171  1.00 20.00     0.018 A 
HETATM    6  C6  UNL     1     -32.922   4.960   2.413  1.00 20.00     0.052 C 
HETATM    7  C7  UNL     1     -34.955   5.014   4.916  1.00 20.00     0.044 C 
HETATM    8  C8  UNL     1     -33.553   7.291   6.615  1.00 20.00     0.015 C 
HETATM    9  O9  UNL     1     -31.747   7.663   2.455  1.00 20.00    -0.293 OA
ENDROOT
TORSDOF 0
ENDMDL
MODEL 5
REMARK VINA RESULT:      -5.0      1.565      2.835
REMARK  0 active torsions:
REMARK  status: ('A' for Active; 'I' for Inactive)
ROOT
HETATM    1  C1  UNL     1     -33.403   5.959   3.813  1.00 20.00    -0.014 A 
HETATM    2  C2  UNL     1     -32.882   7.126   4.220  1.00 20.00    -0.070 A 
HETATM    3  C3  UNL     1     -34.295   5.517   4.902  1.00 20.00     0.156 A 
HETATM    4  C4  UNL     1     -34.266   6.457   6.068  1.00 20.00     0.092 A 
HETATM    5  C5  UNL     1     -33.366   7.592   5.574  1.00 20.00     0.018 A 
HETATM    6  C6  UNL     1     -33.218   5.164   2.576  1.00 20.00     0.052 C 
HETATM    7  C7  UNL     1     -31.883   7.957   3.483  1.00 20.00     0.044 C 
HETATM    8  C8  UNL     1     -34.123   8.917   5.508  1.00 20.00     0.015 C 
HETATM    9  O9  UNL     1     -34.960   4.491   4.857  1.00 20.00    -0.293 OA
ENDROOT
TORSDOF 0
ENDMDL
MODEL 6
REMARK VINA RESULT:      -4.9      1.801      2.770
REMARK  0 active torsions:
REMARK  status: ('A' for Active; 'I' for Inactive)
ROOT
HETATM    1  C1  UNL     1     -34.143   6.083   5.260  1.00 20.00    -0.014 A 
HETATM    2  C2  UNL     1     -33.716   7.274   4.818  1.00 20.00    -0.070 A 
HETATM    3  C3  UNL     1     -33.850   5.125   4.176  1.00 20.00     0.156 A 
HETATM    4  C4  UNL     1     -33.256   5.799   2.977  1.00 20.00     0.092 A 
HETATM    5  C5  UNL     1     -33.092   7.248   3.442  1.00 20.00     0.018 A 
HETATM    6  C6  UNL     1     -34.787   5.663   6.526  1.00 20.00     0.052 C 
HETATM    7  C7  UNL     1     -33.826   8.579   5.538  1.00 20.00     0.044 C 
HETATM    8  C8  UNL     1     -31.624   7.669   3.451  1.00 20.00     0.015 C 
HETATM    9  O9  UNL     1     -34.089   3.928   4.249  1.00 20.00    -0.293 OA
ENDROOT
TORSDOF 0
ENDMDL
MODEL 7
REMARK VINA RESULT:      -4.8      0.804      2.596
REMARK  0 active torsions:
REMARK  status: ('A' for Active; 'I' for Inactive)
ROOT
HETATM    1  C1  UNL     1     -33.019   7.732   4.603  1.00 20.00    -0.014 A 
HETATM    2  C2  UNL     1     -32.917   7.179   3.385  1.00 20.00    -0.070 A 
HETATM    3  C3  UNL     1     -33.924   6.853   5.368  1.00 20.00     0.156 A 
HETATM    4  C4  UNL     1     -34.445   5.722   4.534  1.00 20.00     0.092 A 
HETATM    5  C5  UNL     1     -33.700   5.898   3.209  1.00 20.00     0.018 A 
HETATM    6  C6  UNL     1     -32.422   8.951   5.195  1.00 20.00     0.052 C 
HETATM    7  C7  UNL     1     -32.142   7.718   2.227  1.00 20.00     0.044 C 
HETATM    8  C8  UNL     1     -32.808   4.696   2.907  1.00 20.00     0.015 C 
HETATM    9  O9  UNL     1     -34.224   7.045   6.538  1.00 20.00    -0.293 OA
ENDROOT
TORSDOF 0
ENDMDL
MODEL 8
REMARK VINA RESULT:      -4.0      1.136      2.018
REMARK  0 active torsions:
REMARK  status: ('A' for Active; 'I' for Inactive)
ROOT
HETATM    1  C1  UNL     1     -33.583   7.050   5.138  1.00 20.00    -0.014 A 
HETATM    2  C2  UNL     1     -33.626   5.929   4.404  1.00 20.00    -0.070 A 
HETATM    3  C3  UNL     1     -32.666   7.961   4.425  1.00 20.00     0.156 A 
HETATM    4  C4  UNL     1     -32.076   7.321   3.205  1.00 20.00     0.092 A 
HETATM    5  C5  UNL     1     -32.787   5.967   3.147  1.00 20.00     0.018 A 
HETATM    6  C6  UNL     1     -34.246   7.437   6.405  1.00 20.00     0.052 C 
HETATM    7  C7  UNL     1     -34.388   4.685   4.728  1.00 20.00     0.044 C 
HETATM    8  C8  UNL     1     -33.622   5.830   1.875  1.00 20.00     0.015 C 
HETATM    9  O9  UNL     1     -32.409   9.095   4.804  1.00 20.00    -0.293 OA
ENDROOT
TORSDOF 0
ENDMDL
MODEL 9
REMARK VINA RESULT:      -3.9      2.057      3.857
REMARK  0 active torsions:
REMARK  status: ('A' for Active; 'I' for Inactive)
ROOT
HETATM    1  C1  UNL     1     -32.783   6.755   3.159  1.00 20.00    -0.014 A 
HETATM    2  C2  UNL     1     -33.282   6.996   4.380  1.00 20.00    -0.070 A 
HETATM    3  C3  UNL     1     -33.050   5.330   2.890  1.00 20.00     0.156 A 
HETATM    4  C4  UNL     1     -33.709   4.653   4.054  1.00 20.00     0.092 A 
HETATM    5  C5  UNL     1     -33.938   5.804   5.038  1.00 20.00     0.018 A 
HETATM    6  C6  UNL     1     -32.086   7.622   2.180  1.00 20.00     0.052 C 
HETATM    7  C7  UNL     1     -33.224   8.291   5.123  1.00 20.00     0.044 C 
HETATM    8  C8  UNL     1     -35.426   6.020   5.306  1.00 20.00     0.015 C 
HETATM    9  O9  UNL     1     -32.747   4.770   1.846  1.00 20.00    -0.293 OA
ENDROOT
TORSDOF 0
ENDMDL
