MODEL 1
REMARK VINA RESULT:      -3.7      0.000      0.000
REMARK  4 active torsions:
REMARK  status: ('A' for Active; 'I' for Inactive)
REMARK    1  A    between atoms: C2_2  and  C7_7 
REMARK    2  A    between atoms: C7_7  and  C9_9 
REMARK    3  A    between atoms: C8_8  and  C9_9 
REMARK    4  A    between atoms: C9_9  and  O10_10 
ROOT
HETATM    1  C6  UNL     1     -35.239  14.313  -4.951  1.00 20.00     0.047 C 
HETATM    2  C9  UNL     1     -34.342  15.496  -5.363  1.00 20.00     0.064 C 
ENDROOT
BRANCH   2   3
HETATM    3  C7  UNL     1     -34.366  16.617  -4.260  1.00 20.00     0.037 C 
HETATM    4  C3  UNL     1     -34.061  18.025  -4.795  1.00 20.00     0.017 C 
BRANCH   3   5
HETATM    5  C2  UNL     1     -33.387  16.345  -3.135  1.00 20.00    -0.030 C 
HETATM    6  C1  UNL     1     -33.427  16.950  -1.942  1.00 20.00     0.007 C 
ENDBRANCH   3   5
ENDBRANCH   2   3
BRANCH   2   7
HETATM    7  C8  UNL     1     -34.730  16.040  -6.785  1.00 20.00     0.012 C 
HETATM    8  C4  UNL     1     -33.791  15.550  -7.900  1.00 20.00     0.012 C 
HETATM    9  C5  UNL     1     -36.178  15.743  -7.191  1.00 20.00     0.012 C 
ENDBRANCH   2   7
BRANCH   2  10
HETATM   10  O10 UNL     1     -33.001  14.991  -5.468  1.00 20.00    -0.389 OA
HETATM   11  H28 UNL     1     -32.439  15.636  -5.017  1.00 20.00     0.210 HD
ENDBRANCH   2  10
TORSDOF 4
ENDMDL
MODEL 2
REMARK VINA RESULT:      -3.6     12.776     14.175
REMARK  4 active torsions:
REMARK  status: ('A' for Active; 'I' for Inactive)
REMARK    1  A    between atoms: C2_2  and  C7_7 
REMARK    2  A    between atoms: C7_7  and  C9_9 
REMARK    3  A    between atoms: C8_8  and  C9_9 
REMARK    4  A    between atoms: C9_9  and  O10_10 
ROOT
HETATM    1  C6  UNL     1     -35.878   6.415   3.998  1.00 20.00     0.047 C 
HETATM    2  C9  UNL     1     -34.726   5.693   4.724  1.00 20.00     0.064 C 
ENDROOT
BRANCH   2   3
HETATM    3  C7  UNL     1     -33.744   6.735   5.373  1.00 20.00     0.037 C 
HETATM    4  C3  UNL     1     -34.152   7.180   6.787  1.00 20.00     0.017 C 
BRANCH   3   5
HETATM    5  C2  UNL     1     -33.594   7.990   4.536  1.00 20.00    -0.030 C 
HETATM    6  C1  UNL     1     -32.451   8.672   4.404  1.00 20.00     0.007 C 
ENDBRANCH   3   5
ENDBRANCH   2   3
BRANCH   2   7
HETATM    7  C8  UNL     1     -33.992   4.684   3.770  1.00 20.00     0.012 C 
HETATM    8  C4  UNL     1     -33.000   5.365   2.812  1.00 20.00     0.012 C 
HETATM    9  C5  UNL     1     -33.271   3.546   4.501  1.00 20.00     0.012 C 
ENDBRANCH   2   7
BRANCH   2  10
HETATM   10  O10 UNL     1     -35.316   4.910   5.775  1.00 20.00    -0.389 OA
HETATM   11  H28 UNL     1     -35.455   4.029   5.402  1.00 20.00     0.210 HD
ENDBRANCH   2  10
TORSDOF 4
ENDMDL
MODEL 3
REMARK VINA RESULT:      -3.6      1.330      1.802
REMARK  4 active torsions:
REMARK  status: ('A' for Active; 'I' for Inactive)
REMARK    1  A    between atoms: C2_2  and  C7_7 
REMARK    2  A    between atoms: C7_7  and  C9_9 
REMARK    3  A    between atoms: C8_8  and  C9_9 
REMARK    4  A    between atoms: C9_9  and  O10_10 
ROOT
HETATM    1  C6  UNL     1     -33.243  14.497  -4.556  1.00 20.00     0.047 C 
HETATM    2  C9  UNL     1     -34.192  15.559  -5.145  1.00 20.00     0.064 C 
ENDROOT
BRANCH   2   3
HETATM    3  C7  UNL     1     -34.304  16.794  -4.179  1.00 20.00     0.037 C 
HETATM    4  C3  UNL     1     -34.075  18.149  -4.868  1.00 20.00     0.017 C 
BRANCH   3   5
HETATM    5  C2  UNL     1     -33.332  16.714  -3.018  1.00 20.00    -0.030 C 
HETATM    6  C1  UNL     1     -33.622  17.092  -1.768  1.00 20.00     0.007 C 
ENDBRANCH   3   5
ENDBRANCH   2   3
BRANCH   2   7
HETATM    7  C8  UNL     1     -35.592  14.941  -5.500  1.00 20.00     0.012 C 
HETATM    8  C4  UNL     1     -35.969  13.740  -4.616  1.00 20.00     0.012 C 
HETATM    9  C5  UNL     1     -36.743  15.952  -5.478  1.00 20.00     0.012 C 
ENDBRANCH   2   7
BRANCH   2  10
HETATM   10  O10 UNL     1     -33.612  16.002  -6.382  1.00 20.00    -0.389 OA
HETATM   11  H28 UNL     1     -32.682  16.183  -6.189  1.00 20.00     0.210 HD
ENDBRANCH   2  10
TORSDOF 4
ENDMDL
MODEL 4
REMARK VINA RESULT:      -3.5     12.104     13.621
REMARK  4 active torsions:
REMARK  status: ('A' for Active; 'I' for Inactive)
REMARK    1  A    between atoms: C2_2  and  C7_7 
REMARK    2  A    between atoms: C7_7  and  C9_9 
REMARK    3  A    between atoms: C8_8  and  C9_9 
REMARK    4  A    between atoms: C9_9  and  O10_10 
ROOT
HETATM    1  C6  UNL     1     -34.515   8.440   5.491  1.00 20.00     0.047 C 
HETATM    2  C9  UNL     1     -33.516   7.276   5.342  1.00 20.00     0.064 C 
ENDROOT
BRANCH   2   3
HETATM    3  C7  UNL     1     -32.346   7.676   4.371  1.00 20.00     0.037 C 
HETATM    4  C3  UNL     1     -32.243   9.186   4.107  1.00 20.00     0.017 C 
BRANCH   3   5
HETATM    5  C2  UNL     1     -32.452   6.993   3.022  1.00 20.00    -0.030 C 
HETATM    6  C1  UNL     1     -32.184   7.589   1.855  1.00 20.00     0.007 C 
ENDBRANCH   3   5
ENDBRANCH   2   3
BRANCH   2   7
HETATM    7  C8  UNL     1     -34.241   5.953   4.903  1.00 20.00     0.012 C 
HETATM    8  C4  UNL     1     -34.377   4.927   6.041  1.00 20.00     0.012 C 
HETATM    9  C5  UNL     1     -35.620   6.178   4.273  1.00 20.00     0.012 C 
ENDBRANCH   2   7
BRANCH   2  10
HETATM   10  O10 UNL     1     -32.961   7.028   6.644  1.00 20.00    -0.389 OA
HETATM   11  H28 UNL     1     -33.620   7.346   7.277  1.00 20.00     0.210 HD
ENDBRANCH   2  10
TORSDOF 4
ENDMDL
MODEL 5
REMARK VINA RESULT:      -3.5      1.821      2.722
REMARK  4 active torsions:
REMARK  status: ('A' for Active; 'I' for Inactive)
REMARK    1  A    between atoms: C2_2  and  C7_7 
REMARK    2  A    between atoms: C7_7  and  C9_9 
REMARK    3  A    between atoms: C8_8  and  C9_9 
REMARK    4  A    between atoms: C9_9  and  O10_10 
ROOT
HETATM    1  C6  UNL     1     -34.013  18.697  -4.981  1.00 20.00     0.047 C 
HETATM    2  C9  UNL     1     -34.520  17.323  -4.502  1.00 20.00     0.064 C 
ENDROOT
BRANCH   2   3
HETATM    3  C7  UNL     1     -33.394  16.568  -3.705  1.00 20.00     0.037 C 
HETATM    4  C3  UNL     1     -33.358  15.053  -3.963  1.00 20.00     0.017 C 
BRANCH   3   5
HETATM    5  C2  UNL     1     -33.513  16.763  -2.207  1.00 20.00    -0.030 C 
HETATM    6  C1  UNL     1     -32.830  17.681  -1.512  1.00 20.00     0.007 C 
ENDBRANCH   3   5
ENDBRANCH   2   3
BRANCH   2   7
HETATM    7  C8  UNL     1     -35.089  16.475  -5.695  1.00 20.00     0.012 C 
HETATM    8  C4  UNL     1     -36.604  16.229  -5.598  1.00 20.00     0.012 C 
HETATM    9  C5  UNL     1     -34.769  17.053  -7.078  1.00 20.00     0.012 C 
ENDBRANCH   2   7
BRANCH   2  10
HETATM   10  O10 UNL     1     -35.620  17.569  -3.610  1.00 20.00    -0.389 OA
HETATM   11  H28 UNL     1     -35.959  18.444  -3.844  1.00 20.00     0.210 HD
ENDBRANCH   2  10
TORSDOF 4
ENDMDL
MODEL 6
REMARK VINA RESULT:      -3.5     12.156     14.057
REMARK  4 active torsions:
REMARK  status: ('A' for Active; 'I' for Inactive)
REMARK    1  A    between atoms: C2_2  and  C7_7 
REMARK    2  A    between atoms: C7_7  and  C9_9 
REMARK    3  A    between atoms: C8_8  and  C9_9 
REMARK    4  A    between atoms: C9_9  and  O10_10 
ROOT
HETATM    1  C6  UNL     1     -42.652  12.509   6.871  1.00 20.00     0.047 C 
HETATM    2  C9  UNL     1     -41.310  13.188   6.534  1.00 20.00     0.064 C 
ENDROOT
BRANCH   2   3
HETATM    3  C7  UNL     1     -40.268  12.126   6.027  1.00 20.00     0.037 C 
HETATM    4  C3  UNL     1     -38.954  12.112   6.824  1.00 20.00     0.017 C 
BRANCH   3   5
HETATM    5  C2  UNL     1     -39.903  12.322   4.569  1.00 20.00    -0.030 C 
HETATM    6  C1  UNL     1     -38.934  11.648   3.939  1.00 20.00     0.007 C 
ENDBRANCH   3   5
ENDBRANCH   2   3
BRANCH   2   7
HETATM    7  C8  UNL     1     -40.775  14.028   7.748  1.00 20.00     0.012 C 
HETATM    8  C4  UNL     1     -40.410  15.475   7.373  1.00 20.00     0.012 C 
HETATM    9  C5  UNL     1     -41.720  14.054   8.954  1.00 20.00     0.012 C 
ENDBRANCH   2   7
BRANCH   2  10
HETATM   10  O10 UNL     1     -41.566  14.119   5.470  1.00 20.00    -0.389 OA
HETATM   11  H28 UNL     1     -42.374  13.812   5.038  1.00 20.00     0.210 HD
ENDBRANCH   2  10
TORSDOF 4
ENDMDL
MODEL 7
REMARK VINA RESULT:      -3.5     12.272     13.856
REMARK  4 active torsions:
REMARK  status: ('A' for Active; 'I' for Inactive)
REMARK    1  A    between atoms: C2_2  and  C7_7 
REMARK    2  A    between atoms: C7_7  and  C9_9 
REMARK    3  A    between atoms: C8_8  and  C9_9 
REMARK    4  A    between atoms: C9_9  and  O10_10 
ROOT
HETATM    1  C6  UNL     1     -34.141   4.446   4.888  1.00 20.00     0.047 C 
HETATM    2  C9  UNL     1     -34.234   5.887   4.348  1.00 20.00     0.064 C 
ENDROOT
BRANCH   2   3
HETATM    3  C7  UNL     1     -33.461   6.016   2.985  1.00 20.00     0.037 C 
HETATM    4  C3  UNL     1     -32.878   4.690   2.471  1.00 20.00     0.017 C 
BRANCH   3   5
HETATM    5  C2  UNL     1     -32.318   7.008   3.058  1.00 20.00    -0.030 C 
HETATM    6  C1  UNL     1     -32.069   7.937   2.127  1.00 20.00     0.007 C 
ENDBRANCH   3   5
ENDBRANCH   2   3
BRANCH   2   7
HETATM    7  C8  UNL     1     -33.751   6.930   5.418  1.00 20.00     0.012 C 
HETATM    8  C4  UNL     1     -34.146   8.378   5.078  1.00 20.00     0.012 C 
HETATM    9  C5  UNL     1     -34.209   6.616   6.847  1.00 20.00     0.012 C 
ENDBRANCH   2   7
BRANCH   2  10
HETATM   10  O10 UNL     1     -35.625   6.157   4.109  1.00 20.00    -0.389 OA
HETATM   11  H28 UNL     1     -36.087   5.904   4.920  1.00 20.00     0.210 HD
ENDBRANCH   2  10
TORSDOF 4
ENDMDL
MODEL 8
REMARK VINA RESULT:      -3.5     11.917     13.598
REMARK  4 active torsions:
REMARK  status: ('A' for Active; 'I' for Inactive)
REMARK    1  A    between atoms: C2_2  and  C7_7 
REMARK    2  A    between atoms: C7_7  and  C9_9 
REMARK    3  A    between atoms: C8_8  and  C9_9 
REMARK    4  A    between atoms: C9_9  and  O10_10 
ROOT
HETATM    1  C6  UNL     1     -33.656   7.097   6.318  1.00 20.00     0.047 C 
HETATM    2  C9  UNL     1     -33.781   7.307   4.797  1.00 20.00     0.064 C 
ENDROOT
BRANCH   2   3
HETATM    3  C7  UNL     1     -34.120   5.950   4.079  1.00 20.00     0.037 C 
HETATM    4  C3  UNL     1     -34.654   4.861   5.024  1.00 20.00     0.017 C 
BRANCH   3   5
HETATM    5  C2  UNL     1     -32.926   5.363   3.353  1.00 20.00    -0.030 C 
HETATM    6  C1  UNL     1     -32.969   4.879   2.106  1.00 20.00     0.007 C 
ENDBRANCH   3   5
ENDBRANCH   2   3
BRANCH   2   7
HETATM    7  C8  UNL     1     -32.499   7.998   4.208  1.00 20.00     0.012 C 
HETATM    8  C4  UNL     1     -32.700   8.540   2.783  1.00 20.00     0.012 C 
HETATM    9  C5  UNL     1     -31.935   9.119   5.089  1.00 20.00     0.012 C 
ENDBRANCH   2   7
BRANCH   2  10
HETATM   10  O10 UNL     1     -34.872   8.217   4.586  1.00 20.00    -0.389 OA
HETATM   11  H28 UNL     1     -35.275   7.956   3.747  1.00 20.00     0.210 HD
ENDBRANCH   2  10
TORSDOF 4
ENDMDL
MODEL 9
REMARK VINA RESULT:      -3.4     11.997     13.593
REMARK  4 active torsions:
REMARK  status: ('A' for Active; 'I' for Inactive)
REMARK    1  A    between atoms: C2_2  and  C7_7 
REMARK    2  A    between atoms: C7_7  and  C9_9 
REMARK    3  A    between atoms: C8_8  and  C9_9 
REMARK    4  A    between atoms: C9_9  and  O10_10 
ROOT
HETATM    1  C6  UNL     1     -33.870   5.333   3.589  1.00 20.00     0.047 C 
HETATM    2  C9  UNL     1     -33.693   6.629   4.403  1.00 20.00     0.064 C 
ENDROOT
BRANCH   2   3
HETATM    3  C7  UNL     1     -32.402   7.398   3.942  1.00 20.00     0.037 C 
HETATM    4  C3  UNL     1     -32.443   8.909   4.219  1.00 20.00     0.017 C 
BRANCH   3   5
HETATM    5  C2  UNL     1     -32.120   7.223   2.463  1.00 20.00    -0.030 C 
HETATM    6  C1  UNL     1     -32.176   8.213   1.565  1.00 20.00     0.007 C 
ENDBRANCH   3   5
ENDBRANCH   2   3
BRANCH   2   7
HETATM    7  C8  UNL     1     -33.705   6.340   5.947  1.00 20.00     0.012 C 
HETATM    8  C4  UNL     1     -34.165   7.544   6.788  1.00 20.00     0.012 C 
HETATM    9  C5  UNL     1     -34.533   5.114   6.346  1.00 20.00     0.012 C 
ENDBRANCH   2   7
BRANCH   2  10
HETATM   10  O10 UNL     1     -34.836   7.457   4.131  1.00 20.00    -0.389 OA
HETATM   11  H28 UNL     1     -35.337   6.997   3.444  1.00 20.00     0.210 HD
ENDBRANCH   2  10
TORSDOF 4
ENDMDL
