MODEL 1
REMARK VINA RESULT:      -3.9      0.000      0.000
REMARK  2 active torsions:
REMARK  status: ('A' for Active; 'I' for Inactive)
REMARK    1  A    between atoms: C1_1  and  C5_5 
REMARK    2  A    between atoms: C2_2  and  C6_6 
ROOT
HETATM    1  C1  UNL     1     -33.267  17.344  -1.931  1.00 20.00    -0.063 C 
HETATM    2  C2  UNL     1     -33.497  16.676  -2.902  1.00 20.00    -0.063 C 
ENDROOT
BRANCH   1   3
HETATM    3  C5  UNL     1     -32.992  18.140  -0.773  1.00 20.00     0.141 A 
HETATM    4  C3  UNL     1     -34.073  19.047  -0.236  1.00 20.00     0.221 A 
HETATM    5  O9  UNL     1     -33.790  17.774   0.361  1.00 20.00    -0.362 OA
HETATM    6  C7  UNL     1     -31.562  18.413  -0.436  1.00 20.00     0.063 C 
ENDBRANCH   1   3
BRANCH   2   7
HETATM    7  C6  UNL     1     -33.779  15.863  -4.084  1.00 20.00     0.141 A 
HETATM    8  C4  UNL     1     -32.858  14.724  -4.386  1.00 20.00     0.221 A 
HETATM    9  O10 UNL     1     -34.121  14.526  -3.738  1.00 20.00    -0.362 OA
HETATM   10  C8  UNL     1     -34.621  16.478  -5.133  1.00 20.00     0.063 C 
ENDBRANCH   2   7
TORSDOF 2
ENDMDL
MODEL 2
REMARK VINA RESULT:      -3.9      0.015      4.862
REMARK  2 active torsions:
REMARK  status: ('A' for Active; 'I' for Inactive)
REMARK    1  A    between atoms: C1_1  and  C5_5 
REMARK    2  A    between atoms: C2_2  and  C6_6 
ROOT
HETATM    1  C1  UNL     1     -33.497  16.672  -2.905  1.00 20.00    -0.063 C 
HETATM    2  C2  UNL     1     -33.270  17.340  -1.934  1.00 20.00    -0.063 C 
ENDROOT
BRANCH   1   3
HETATM    3  C5  UNL     1     -33.768  15.875  -4.064  1.00 20.00     0.141 A 
HETATM    4  C3  UNL     1     -32.858  14.714  -4.383  1.00 20.00     0.221 A 
HETATM    5  O9  UNL     1     -34.127  14.524  -3.744  1.00 20.00    -0.362 OA
HETATM    6  C7  UNL     1     -34.606  16.477  -5.145  1.00 20.00     0.063 C 
ENDBRANCH   1   3
BRANCH   2   7
HETATM    7  C6  UNL     1     -32.993  18.153  -0.751  1.00 20.00     0.141 A 
HETATM    8  C4  UNL     1     -34.082  19.041  -0.241  1.00 20.00     0.221 A 
HETATM    9  O10 UNL     1     -33.800  17.769   0.356  1.00 20.00    -0.362 OA
HETATM   10  C8  UNL     1     -31.570  18.410  -0.435  1.00 20.00     0.063 C 
ENDBRANCH   2   7
TORSDOF 2
ENDMDL
MODEL 3
REMARK VINA RESULT:      -3.9      0.961      4.838
REMARK  2 active torsions:
REMARK  status: ('A' for Active; 'I' for Inactive)
REMARK    1  A    between atoms: C1_1  and  C5_5 
REMARK    2  A    between atoms: C2_2  and  C6_6 
ROOT
HETATM    1  C1  UNL     1     -33.411  16.517  -2.982  1.00 20.00    -0.063 C 
HETATM    2  C2  UNL     1     -33.121  17.221  -2.054  1.00 20.00    -0.063 C 
ENDROOT
BRANCH   1   3
HETATM    3  C5  UNL     1     -33.757  15.678  -4.090  1.00 20.00     0.141 A 
HETATM    4  C3  UNL     1     -32.831  14.549  -4.470  1.00 20.00     0.221 A 
HETATM    5  O9  UNL     1     -34.022  14.322  -3.706  1.00 20.00    -0.362 OA
HETATM    6  C7  UNL     1     -34.722  16.214  -5.097  1.00 20.00     0.063 C 
ENDBRANCH   1   3
BRANCH   2   7
HETATM    7  C6  UNL     1     -32.767  18.076  -0.922  1.00 20.00     0.141 A 
HETATM    8  C4  UNL     1     -31.317  18.270  -0.617  1.00 20.00     0.221 A 
HETATM    9  O10 UNL     1     -32.076  19.248  -1.340  1.00 20.00    -0.362 OA
HETATM   10  C8  UNL     1     -33.811  18.292   0.105  1.00 20.00     0.063 C 
ENDBRANCH   2   7
TORSDOF 2
ENDMDL
MODEL 4
REMARK VINA RESULT:      -3.9      1.008      1.527
REMARK  2 active torsions:
REMARK  status: ('A' for Active; 'I' for Inactive)
REMARK    1  A    between atoms: C1_1  and  C5_5 
REMARK    2  A    between atoms: C2_2  and  C6_6 
ROOT
HETATM    1  C1  UNL     1     -32.960  17.373  -1.932  1.00 20.00    -0.063 C 
HETATM    2  C2  UNL     1     -33.294  16.721  -2.883  1.00 20.00    -0.063 C 
ENDROOT
BRANCH   1   3
HETATM    3  C5  UNL     1     -32.561  18.150  -0.797  1.00 20.00     0.141 A 
HETATM    4  C3  UNL     1     -31.100  18.197  -0.421  1.00 20.00     0.221 A 
HETATM    5  O9  UNL     1     -31.726  19.263  -1.146  1.00 20.00    -0.362 OA
HETATM    6  C7  UNL     1     -33.599  18.477   0.226  1.00 20.00     0.063 C 
ENDBRANCH   1   3
BRANCH   2   7
HETATM    7  C6  UNL     1     -33.702  15.927  -4.041  1.00 20.00     0.141 A 
HETATM    8  C4  UNL     1     -32.842  14.769  -4.433  1.00 20.00     0.221 A 
HETATM    9  O10 UNL     1     -34.046  14.595  -3.675  1.00 20.00    -0.362 OA
HETATM   10  C8  UNL     1     -34.620  16.573  -5.005  1.00 20.00     0.063 C 
ENDBRANCH   2   7
TORSDOF 2
ENDMDL
MODEL 5
REMARK VINA RESULT:      -3.6      1.019      4.813
REMARK  2 active torsions:
REMARK  status: ('A' for Active; 'I' for Inactive)
REMARK    1  A    between atoms: C1_1  and  C5_5 
REMARK    2  A    between atoms: C2_2  and  C6_6 
ROOT
HETATM    1  C1  UNL     1     -33.545  17.011  -2.907  1.00 20.00    -0.063 C 
HETATM    2  C2  UNL     1     -33.244  17.620  -1.917  1.00 20.00    -0.063 C 
ENDROOT
BRANCH   1   3
HETATM    3  C5  UNL     1     -33.904  16.286  -4.088  1.00 20.00     0.141 A 
HETATM    4  C3  UNL     1     -35.207  16.611  -4.778  1.00 20.00     0.221 A 
HETATM    5  O9  UNL     1     -33.953  17.112  -5.260  1.00 20.00    -0.362 OA
HETATM    6  C7  UNL     1     -33.257  14.959  -4.318  1.00 20.00     0.063 C 
ENDBRANCH   1   3
BRANCH   2   7
HETATM    7  C6  UNL     1     -32.878  18.360  -0.711  1.00 20.00     0.141 A 
HETATM    8  C4  UNL     1     -33.931  19.193  -0.054  1.00 20.00     0.221 A 
HETATM    9  O10 UNL     1     -33.582  17.891   0.433  1.00 20.00    -0.362 OA
HETATM   10  C8  UNL     1     -31.437  18.624  -0.499  1.00 20.00     0.063 C 
ENDBRANCH   2   7
TORSDOF 2
ENDMDL
MODEL 6
REMARK VINA RESULT:      -3.3      2.152      2.890
REMARK  2 active torsions:
REMARK  status: ('A' for Active; 'I' for Inactive)
REMARK    1  A    between atoms: C1_1  and  C5_5 
REMARK    2  A    between atoms: C2_2  and  C6_6 
ROOT
HETATM    1  C1  UNL     1     -34.046  16.963  -4.111  1.00 20.00    -0.063 C 
HETATM    2  C2  UNL     1     -34.398  16.278  -5.032  1.00 20.00    -0.063 C 
ENDROOT
BRANCH   1   3
HETATM    3  C5  UNL     1     -33.627  17.781  -3.013  1.00 20.00     0.141 A 
HETATM    4  C3  UNL     1     -32.890  19.067  -3.298  1.00 20.00     0.221 A 
HETATM    5  O9  UNL     1     -34.288  19.054  -2.978  1.00 20.00    -0.362 OA
HETATM    6  C7  UNL     1     -33.498  17.136  -1.671  1.00 20.00     0.063 C 
ENDBRANCH   1   3
BRANCH   2   7
HETATM    7  C6  UNL     1     -34.826  15.443  -6.154  1.00 20.00     0.141 A 
HETATM    8  C4  UNL     1     -34.531  15.927  -7.537  1.00 20.00     0.221 A 
HETATM    9  O10 UNL     1     -33.718  14.939  -6.891  1.00 20.00    -0.362 OA
HETATM   10  C8  UNL     1     -35.904  14.465  -5.887  1.00 20.00     0.063 C 
ENDBRANCH   2   7
TORSDOF 2
ENDMDL
MODEL 7
REMARK VINA RESULT:      -3.2      1.944      5.259
REMARK  2 active torsions:
REMARK  status: ('A' for Active; 'I' for Inactive)
REMARK    1  A    between atoms: C1_1  and  C5_5 
REMARK    2  A    between atoms: C2_2  and  C6_6 
ROOT
HETATM    1  C1  UNL     1     -34.420  16.250  -4.778  1.00 20.00    -0.063 C 
HETATM    2  C2  UNL     1     -33.995  16.997  -3.940  1.00 20.00    -0.063 C 
ENDROOT
BRANCH   1   3
HETATM    3  C5  UNL     1     -34.927  15.357  -5.777  1.00 20.00     0.141 A 
HETATM    4  C3  UNL     1     -34.847  15.764  -7.228  1.00 20.00     0.221 A 
HETATM    5  O9  UNL     1     -33.906  14.852  -6.648  1.00 20.00    -0.362 OA
HETATM    6  C7  UNL     1     -35.917  14.323  -5.351  1.00 20.00     0.063 C 
ENDBRANCH   1   3
BRANCH   2   7
HETATM    7  C6  UNL     1     -33.477  17.908  -2.920  1.00 20.00     0.141 A 
HETATM    8  C4  UNL     1     -33.997  17.766  -1.526  1.00 20.00     0.221 A 
HETATM    9  O10 UNL     1     -32.734  17.217  -1.922  1.00 20.00    -0.362 OA
HETATM   10  C8  UNL     1     -32.870  19.170  -3.397  1.00 20.00     0.063 C 
ENDBRANCH   2   7
TORSDOF 2
ENDMDL
MODEL 8
REMARK VINA RESULT:      -3.2     23.891     24.687
REMARK  2 active torsions:
REMARK  status: ('A' for Active; 'I' for Inactive)
REMARK    1  A    between atoms: C1_1  and  C5_5 
REMARK    2  A    between atoms: C2_2  and  C6_6 
ROOT
HETATM    1  C1  UNL     1     -26.129  -2.525  10.122  1.00 20.00    -0.063 C 
HETATM    2  C2  UNL     1     -25.031  -2.930   9.857  1.00 20.00    -0.063 C 
ENDROOT
BRANCH   1   3
HETATM    3  C5  UNL     1     -27.440  -2.043  10.440  1.00 20.00     0.141 A 
HETATM    4  C3  UNL     1     -27.588  -0.954  11.474  1.00 20.00     0.221 A 
HETATM    5  O9  UNL     1     -27.638  -0.671  10.070  1.00 20.00    -0.362 OA
HETATM    6  C7  UNL     1     -28.605  -2.923  10.120  1.00 20.00     0.063 C 
ENDBRANCH   1   3
BRANCH   2   7
HETATM    7  C6  UNL     1     -23.693  -3.422   9.533  1.00 20.00     0.141 A 
HETATM    8  C4  UNL     1     -22.721  -3.599  10.655  1.00 20.00     0.221 A 
HETATM    9  O10 UNL     1     -23.448  -4.703  10.101  1.00 20.00    -0.362 OA
HETATM   10  C8  UNL     1     -23.240  -3.256   8.134  1.00 20.00     0.063 C 
ENDBRANCH   2   7
TORSDOF 2
ENDMDL
MODEL 9
REMARK VINA RESULT:      -3.2     23.885     24.799
REMARK  2 active torsions:
REMARK  status: ('A' for Active; 'I' for Inactive)
REMARK    1  A    between atoms: C1_1  and  C5_5 
REMARK    2  A    between atoms: C2_2  and  C6_6 
ROOT
HETATM    1  C1  UNL     1     -25.038  -2.925   9.860  1.00 20.00    -0.063 C 
HETATM    2  C2  UNL     1     -26.138  -2.524  10.124  1.00 20.00    -0.063 C 
ENDROOT
BRANCH   1   3
HETATM    3  C5  UNL     1     -23.726  -3.404   9.544  1.00 20.00     0.141 A 
HETATM    4  C3  UNL     1     -22.725  -3.582  10.659  1.00 20.00     0.221 A 
HETATM    5  O9  UNL     1     -23.447  -4.692  10.110  1.00 20.00    -0.362 OA
HETATM    6  C7  UNL     1     -23.247  -3.252   8.137  1.00 20.00     0.063 C 
ENDBRANCH   1   3
BRANCH   2   7
HETATM    7  C6  UNL     1     -27.478  -2.036  10.447  1.00 20.00     0.141 A 
HETATM    8  C4  UNL     1     -27.601  -0.953  11.470  1.00 20.00     0.221 A 
HETATM    9  O10 UNL     1     -27.654  -0.677  10.064  1.00 20.00    -0.362 OA
HETATM   10  C8  UNL     1     -28.611  -2.933  10.127  1.00 20.00     0.063 C 
ENDBRANCH   2   7
TORSDOF 2
ENDMDL
