MODEL 1
REMARK VINA RESULT:      -6.4      0.000      0.000
REMARK  0 active torsions:
REMARK  status: ('A' for Active; 'I' for Inactive)
ROOT
HETATM    1  C1  UNL     1     -32.067   8.550   3.472  1.00 20.00     0.002 A 
HETATM    2  C2  UNL     1     -32.176   7.402   2.679  1.00 20.00     0.016 A 
HETATM    3  C3  UNL     1     -32.691   8.625   4.735  1.00 20.00     0.007 A 
HETATM    4  C4  UNL     1     -32.947   6.372   3.171  1.00 20.00     0.017 A 
HETATM    5  C5  UNL     1     -33.469   7.563   5.210  1.00 20.00    -0.051 A 
HETATM    6  C6  UNL     1     -33.612   6.464   4.381  1.00 20.00    -0.033 A 
HETATM    7  C7  UNL     1     -33.138   5.009   2.686  1.00 20.00     0.160 C 
HETATM    8  C8  UNL     1     -34.027   7.518   6.607  1.00 20.00     0.039 C 
HETATM    9  C9  UNL     1     -33.839   4.195   3.763  1.00 20.00     0.093 C 
HETATM   10  C10 UNL     1     -34.930   6.297   6.889  1.00 20.00     0.005 C 
HETATM   11  C11 UNL     1     -34.459   5.013   6.178  1.00 20.00     0.010 C 
HETATM   12  C12 UNL     1     -34.455   5.265   4.677  1.00 20.00     0.027 C 
HETATM   13  O13 UNL     1     -32.733   4.597   1.615  1.00 20.00    -0.292 OA
ENDROOT
TORSDOF 0
ENDMDL
MODEL 2
REMARK VINA RESULT:      -6.3      1.729      3.972
REMARK  0 active torsions:
REMARK  status: ('A' for Active; 'I' for Inactive)
ROOT
HETATM    1  C1  UNL     1     -33.466   4.259   3.040  1.00 20.00     0.002 A 
HETATM    2  C2  UNL     1     -34.103   4.344   4.282  1.00 20.00     0.016 A 
HETATM    3  C3  UNL     1     -32.829   5.381   2.469  1.00 20.00     0.007 A 
HETATM    4  C4  UNL     1     -34.112   5.576   4.899  1.00 20.00     0.017 A 
HETATM    5  C5  UNL     1     -32.854   6.621   3.117  1.00 20.00    -0.051 A 
HETATM    6  C6  UNL     1     -33.543   6.695   4.315  1.00 20.00    -0.033 A 
HETATM    7  C7  UNL     1     -34.540   5.970   6.238  1.00 20.00     0.160 C 
HETATM    8  C8  UNL     1     -32.065   7.811   2.640  1.00 20.00     0.039 C 
HETATM    9  C9  UNL     1     -34.050   7.382   6.518  1.00 20.00     0.093 C 
HETATM   10  C10 UNL     1     -32.311   9.101   3.452  1.00 20.00     0.005 C 
HETATM   11  C11 UNL     1     -32.529   8.843   4.956  1.00 20.00     0.010 C 
HETATM   12  C12 UNL     1     -33.744   7.939   5.120  1.00 20.00     0.027 C 
HETATM   13  O13 UNL     1     -35.134   5.241   7.011  1.00 20.00    -0.292 OA
ENDROOT
TORSDOF 0
ENDMDL
MODEL 3
REMARK VINA RESULT:      -6.2      0.773      3.101
REMARK  0 active torsions:
REMARK  status: ('A' for Active; 'I' for Inactive)
ROOT
HETATM    1  C1  UNL     1     -34.859   5.141   5.879  1.00 20.00     0.002 A 
HETATM    2  C2  UNL     1     -34.375   4.643   4.666  1.00 20.00     0.016 A 
HETATM    3  C3  UNL     1     -34.545   6.448   6.309  1.00 20.00     0.007 A 
HETATM    4  C4  UNL     1     -33.551   5.469   3.932  1.00 20.00     0.017 A 
HETATM    5  C5  UNL     1     -33.706   7.267   5.545  1.00 20.00    -0.051 A 
HETATM    6  C6  UNL     1     -33.189   6.729   4.378  1.00 20.00    -0.033 A 
HETATM    7  C7  UNL     1     -33.015   5.328   2.583  1.00 20.00     0.160 C 
HETATM    8  C8  UNL     1     -33.461   8.716   5.866  1.00 20.00     0.039 C 
HETATM    9  C9  UNL     1     -32.424   6.659   2.144  1.00 20.00     0.093 C 
HETATM   10  C10 UNL     1     -32.431   9.404   4.944  1.00 20.00     0.005 C 
HETATM   11  C11 UNL     1     -32.495   8.913   3.484  1.00 20.00     0.010 C 
HETATM   12  C12 UNL     1     -32.224   7.415   3.465  1.00 20.00     0.027 C 
HETATM   13  O13 UNL     1     -33.099   4.315   1.913  1.00 20.00    -0.292 OA
ENDROOT
TORSDOF 0
ENDMDL
MODEL 4
REMARK VINA RESULT:      -6.0      1.110      1.681
REMARK  0 active torsions:
REMARK  status: ('A' for Active; 'I' for Inactive)
ROOT
HETATM    1  C1  UNL     1     -32.532   9.327   5.236  1.00 20.00     0.002 A 
HETATM    2  C2  UNL     1     -32.215   8.905   3.941  1.00 20.00     0.016 A 
HETATM    3  C3  UNL     1     -33.287   8.511   6.105  1.00 20.00     0.007 A 
HETATM    4  C4  UNL     1     -32.704   7.680   3.543  1.00 20.00     0.017 A 
HETATM    5  C5  UNL     1     -33.771   7.270   5.675  1.00 20.00    -0.051 A 
HETATM    6  C6  UNL     1     -33.497   6.901   4.369  1.00 20.00    -0.033 A 
HETATM    7  C7  UNL     1     -32.438   6.889   2.346  1.00 20.00     0.160 C 
HETATM    8  C8  UNL     1     -34.444   6.290   6.598  1.00 20.00     0.039 C 
HETATM    9  C9  UNL     1     -32.988   5.485   2.549  1.00 20.00     0.093 C 
HETATM   10  C10 UNL     1     -34.980   5.024   5.895  1.00 20.00     0.005 C 
HETATM   11  C11 UNL     1     -34.081   4.541   4.739  1.00 20.00     0.010 C 
HETATM   12  C12 UNL     1     -33.985   5.654   3.705  1.00 20.00     0.027 C 
HETATM   13  O13 UNL     1     -31.815   7.292   1.382  1.00 20.00    -0.292 OA
ENDROOT
TORSDOF 0
ENDMDL
MODEL 5
REMARK VINA RESULT:      -5.9      1.839      3.226
REMARK  0 active torsions:
REMARK  status: ('A' for Active; 'I' for Inactive)
ROOT
HETATM    1  C1  UNL     1     -32.486   6.250   1.924  1.00 20.00     0.002 A 
HETATM    2  C2  UNL     1     -32.189   7.497   2.484  1.00 20.00     0.016 A 
HETATM    3  C3  UNL     1     -33.186   5.269   2.657  1.00 20.00     0.007 A 
HETATM    4  C4  UNL     1     -32.577   7.706   3.789  1.00 20.00     0.017 A 
HETATM    5  C5  UNL     1     -33.568   5.508   3.982  1.00 20.00    -0.051 A 
HETATM    6  C6  UNL     1     -33.209   6.726   4.535  1.00 20.00    -0.033 A 
HETATM    7  C7  UNL     1     -32.565   8.916   4.606  1.00 20.00     0.160 C 
HETATM    8  C8  UNL     1     -34.449   4.570   4.762  1.00 20.00     0.039 C 
HETATM    9  C9  UNL     1     -33.385   8.671   5.863  1.00 20.00     0.093 C 
HETATM   10  C10 UNL     1     -34.670   4.985   6.233  1.00 20.00     0.005 C 
HETATM   11  C11 UNL     1     -34.762   6.511   6.430  1.00 20.00     0.010 C 
HETATM   12  C12 UNL     1     -33.462   7.140   5.949  1.00 20.00     0.027 C 
HETATM   13  O13 UNL     1     -32.033   9.960   4.278  1.00 20.00    -0.292 OA
ENDROOT
TORSDOF 0
ENDMDL
MODEL 6
REMARK VINA RESULT:      -5.8      1.148      3.040
REMARK  0 active torsions:
REMARK  status: ('A' for Active; 'I' for Inactive)
ROOT
HETATM    1  C1  UNL     1     -33.559   4.223   3.042  1.00 20.00     0.002 A 
HETATM    2  C2  UNL     1     -32.919   5.246   2.334  1.00 20.00     0.016 A 
HETATM    3  C3  UNL     1     -34.067   4.441   4.340  1.00 20.00     0.007 A 
HETATM    4  C4  UNL     1     -32.775   6.457   2.975  1.00 20.00     0.017 A 
HETATM    5  C5  UNL     1     -33.907   5.682   4.968  1.00 20.00    -0.051 A 
HETATM    6  C6  UNL     1     -33.216   6.659   4.272  1.00 20.00    -0.033 A 
HETATM    7  C7  UNL     1     -32.310   7.748   2.481  1.00 20.00     0.160 C 
HETATM    8  C8  UNL     1     -34.559   6.026   6.280  1.00 20.00     0.039 C 
HETATM    9  C9  UNL     1     -32.642   8.820   3.508  1.00 20.00     0.093 C 
HETATM   10  C10 UNL     1     -34.175   7.415   6.833  1.00 20.00     0.005 C 
HETATM   11  C11 UNL     1     -33.989   8.480   5.734  1.00 20.00     0.010 C 
HETATM   12  C12 UNL     1     -32.882   8.019   4.796  1.00 20.00     0.027 C 
HETATM   13  O13 UNL     1     -31.801   7.923   1.389  1.00 20.00    -0.292 OA
ENDROOT
TORSDOF 0
ENDMDL
MODEL 7
REMARK VINA RESULT:      -5.7      1.811      4.080
REMARK  0 active torsions:
REMARK  status: ('A' for Active; 'I' for Inactive)
ROOT
HETATM    1  C1  UNL     1     -34.678   6.447   6.871  1.00 20.00     0.002 A 
HETATM    2  C2  UNL     1     -33.958   7.606   6.564  1.00 20.00     0.016 A 
HETATM    3  C3  UNL     1     -34.759   5.375   5.957  1.00 20.00     0.007 A 
HETATM    4  C4  UNL     1     -33.367   7.667   5.321  1.00 20.00     0.017 A 
HETATM    5  C5  UNL     1     -34.149   5.463   4.700  1.00 20.00    -0.051 A 
HETATM    6  C6  UNL     1     -33.494   6.645   4.396  1.00 20.00    -0.033 A 
HETATM    7  C7  UNL     1     -32.436   8.637   4.754  1.00 20.00     0.160 C 
HETATM    8  C8  UNL     1     -34.065   4.302   3.747  1.00 20.00     0.039 C 
HETATM    9  C9  UNL     1     -31.855   8.070   3.467  1.00 20.00     0.093 C 
HETATM   10  C10 UNL     1     -33.430   4.646   2.383  1.00 20.00     0.005 C 
HETATM   11  C11 UNL     1     -32.287   5.676   2.484  1.00 20.00     0.010 C 
HETATM   12  C12 UNL     1     -32.844   6.958   3.086  1.00 20.00     0.027 C 
HETATM   13  O13 UNL     1     -32.139   9.693   5.280  1.00 20.00    -0.292 OA
ENDROOT
TORSDOF 0
ENDMDL
MODEL 8
REMARK VINA RESULT:      -5.0      1.183      2.107
REMARK  0 active torsions:
REMARK  status: ('A' for Active; 'I' for Inactive)
ROOT
HETATM    1  C1  UNL     1     -32.106   6.809   2.097  1.00 20.00     0.002 A 
HETATM    2  C2  UNL     1     -32.716   5.613   2.489  1.00 20.00     0.016 A 
HETATM    3  C3  UNL     1     -32.192   7.968   2.896  1.00 20.00     0.007 A 
HETATM    4  C4  UNL     1     -33.433   5.632   3.666  1.00 20.00     0.017 A 
HETATM    5  C5  UNL     1     -32.926   7.959   4.087  1.00 20.00    -0.051 A 
HETATM    6  C6  UNL     1     -33.573   6.782   4.423  1.00 20.00    -0.033 A 
HETATM    7  C7  UNL     1     -34.046   4.548   4.426  1.00 20.00     0.160 C 
HETATM    8  C8  UNL     1     -32.927   9.109   5.058  1.00 20.00     0.039 C 
HETATM    9  C9  UNL     1     -34.440   5.069   5.800  1.00 20.00     0.093 C 
HETATM   10  C10 UNL     1     -33.877   8.922   6.261  1.00 20.00     0.005 C 
HETATM   11  C11 UNL     1     -33.956   7.464   6.755  1.00 20.00     0.010 C 
HETATM   12  C12 UNL     1     -34.459   6.593   5.612  1.00 20.00     0.027 C 
HETATM   13  O13 UNL     1     -34.151   3.403   4.027  1.00 20.00    -0.292 OA
ENDROOT
TORSDOF 0
ENDMDL
MODEL 9
REMARK VINA RESULT:      -4.9      2.081      4.513
REMARK  0 active torsions:
REMARK  status: ('A' for Active; 'I' for Inactive)
ROOT
HETATM    1  C1  UNL     1     -34.794   5.143   6.075  1.00 20.00     0.002 A 
HETATM    2  C2  UNL     1     -34.587   6.480   6.431  1.00 20.00     0.016 A 
HETATM    3  C3  UNL     1     -34.346   4.640   4.835  1.00 20.00     0.007 A 
HETATM    4  C4  UNL     1     -33.964   7.286   5.503  1.00 20.00     0.017 A 
HETATM    5  C5  UNL     1     -33.716   5.481   3.911  1.00 20.00    -0.051 A 
HETATM    6  C6  UNL     1     -33.578   6.814   4.260  1.00 20.00    -0.033 A 
HETATM    7  C7  UNL     1     -33.465   8.653   5.609  1.00 20.00     0.160 C 
HETATM    8  C8  UNL     1     -33.079   4.975   2.645  1.00 20.00     0.039 C 
HETATM    9  C9  UNL     1     -32.590   8.955   4.402  1.00 20.00     0.093 C 
HETATM   10  C10 UNL     1     -32.521   6.086   1.729  1.00 20.00     0.005 C 
HETATM   11  C11 UNL     1     -31.914   7.271   2.507  1.00 20.00     0.010 C 
HETATM   12  C12 UNL     1     -32.999   7.879   3.385  1.00 20.00     0.027 C 
HETATM   13  O13 UNL     1     -33.674   9.389   6.555  1.00 20.00    -0.292 OA
ENDROOT
TORSDOF 0
ENDMDL
