MODEL 1
REMARK VINA RESULT:      -3.9      0.000      0.000
REMARK  2 active torsions:
REMARK  status: ('A' for Active; 'I' for Inactive)
REMARK    1  A    between atoms: C1_1  and  C5_5 
REMARK    2  A    between atoms: C2_2  and  C6_6 
ROOT
HETATM    1  C1  UNL     1     -33.479  16.700  -2.896  1.00 20.00    -0.063 C 
HETATM    2  C2  UNL     1     -33.207  17.342  -1.918  1.00 20.00    -0.063 C 
ENDROOT
BRANCH   1   3
HETATM    3  C5  UNL     1     -33.803  15.935  -4.063  1.00 20.00     0.141 A 
HETATM    4  C3  UNL     1     -34.023  14.448  -3.922  1.00 20.00     0.221 A 
HETATM    5  O9  UNL     1     -32.785  14.984  -4.409  1.00 20.00    -0.362 OA
HETATM    6  C7  UNL     1     -34.372  16.659  -5.238  1.00 20.00     0.063 C 
ENDBRANCH   1   3
BRANCH   2   7
HETATM    7  C6  UNL     1     -32.876  18.124  -0.728  1.00 20.00     0.141 A 
HETATM    8  C4  UNL     1     -33.853  18.124   0.404  1.00 20.00     0.221 A 
HETATM    9  O10 UNL     1     -33.782  19.204  -0.536  1.00 20.00    -0.362 OA
HETATM   10  C8  UNL     1     -31.449  18.454  -0.520  1.00 20.00     0.063 C 
ENDBRANCH   2   7
TORSDOF 2
ENDMDL
MODEL 2
REMARK VINA RESULT:      -3.9      0.024      4.865
REMARK  2 active torsions:
REMARK  status: ('A' for Active; 'I' for Inactive)
REMARK    1  A    between atoms: C1_1  and  C5_5 
REMARK    2  A    between atoms: C2_2  and  C6_6 
ROOT
HETATM    1  C1  UNL     1     -33.210  17.345  -1.899  1.00 20.00    -0.063 C 
HETATM    2  C2  UNL     1     -33.480  16.707  -2.881  1.00 20.00    -0.063 C 
ENDROOT
BRANCH   1   3
HETATM    3  C5  UNL     1     -32.888  18.106  -0.730  1.00 20.00     0.141 A 
HETATM    4  C3  UNL     1     -33.862  18.115   0.425  1.00 20.00     0.221 A 
HETATM    5  O9  UNL     1     -33.789  19.201  -0.510  1.00 20.00    -0.362 OA
HETATM    6  C7  UNL     1     -31.455  18.450  -0.491  1.00 20.00     0.063 C 
ENDBRANCH   1   3
BRANCH   2   7
HETATM    7  C6  UNL     1     -33.808  15.932  -4.076  1.00 20.00     0.141 A 
HETATM    8  C4  UNL     1     -34.003  14.457  -3.922  1.00 20.00     0.221 A 
HETATM    9  O10 UNL     1     -32.775  15.013  -4.411  1.00 20.00    -0.362 OA
HETATM   10  C8  UNL     1     -34.386  16.675  -5.218  1.00 20.00     0.063 C 
ENDBRANCH   2   7
TORSDOF 2
ENDMDL
MODEL 3
REMARK VINA RESULT:      -3.7      0.943      4.804
REMARK  2 active torsions:
REMARK  status: ('A' for Active; 'I' for Inactive)
REMARK    1  A    between atoms: C1_1  and  C5_5 
REMARK    2  A    between atoms: C2_2  and  C6_6 
ROOT
HETATM    1  C1  UNL     1     -33.237  17.456  -1.949  1.00 20.00    -0.063 C 
HETATM    2  C2  UNL     1     -33.528  16.873  -2.958  1.00 20.00    -0.063 C 
ENDROOT
BRANCH   1   3
HETATM    3  C5  UNL     1     -32.890  18.152  -0.747  1.00 20.00     0.141 A 
HETATM    4  C3  UNL     1     -33.859  18.135   0.411  1.00 20.00     0.221 A 
HETATM    5  O9  UNL     1     -33.758  19.261  -0.471  1.00 20.00    -0.362 OA
HETATM    6  C7  UNL     1     -31.447  18.443  -0.499  1.00 20.00     0.063 C 
ENDBRANCH   1   3
BRANCH   2   7
HETATM    7  C6  UNL     1     -33.881  16.163  -4.187  1.00 20.00     0.141 A 
HETATM    8  C4  UNL     1     -34.256  16.977  -5.383  1.00 20.00     0.221 A 
HETATM    9  O10 UNL     1     -35.243  16.365  -4.542  1.00 20.00    -0.362 OA
HETATM   10  C8  UNL     1     -33.396  14.771  -4.318  1.00 20.00     0.063 C 
ENDBRANCH   2   7
TORSDOF 2
ENDMDL
MODEL 4
REMARK VINA RESULT:      -3.6      1.256      2.015
REMARK  2 active torsions:
REMARK  status: ('A' for Active; 'I' for Inactive)
REMARK    1  A    between atoms: C1_1  and  C5_5 
REMARK    2  A    between atoms: C2_2  and  C6_6 
ROOT
HETATM    1  C1  UNL     1     -33.517  16.592  -3.105  1.00 20.00    -0.063 C 
HETATM    2  C2  UNL     1     -33.258  17.244  -2.131  1.00 20.00    -0.063 C 
ENDROOT
BRANCH   1   3
HETATM    3  C5  UNL     1     -33.828  15.813  -4.266  1.00 20.00     0.141 A 
HETATM    4  C3  UNL     1     -34.272  16.524  -5.523  1.00 20.00     0.221 A 
HETATM    5  O9  UNL     1     -35.211  15.894  -4.640  1.00 20.00    -0.362 OA
HETATM    6  C7  UNL     1     -33.261  14.435  -4.358  1.00 20.00     0.063 C 
ENDBRANCH   1   3
BRANCH   2   7
HETATM    7  C6  UNL     1     -32.942  18.039  -0.945  1.00 20.00     0.141 A 
HETATM    8  C4  UNL     1     -32.086  19.252  -1.122  1.00 20.00     0.221 A 
HETATM    9  O10 UNL     1     -31.552  18.011  -0.643  1.00 20.00    -0.362 OA
HETATM   10  C8  UNL     1     -33.842  17.889   0.220  1.00 20.00     0.063 C 
ENDBRANCH   2   7
TORSDOF 2
ENDMDL
MODEL 5
REMARK VINA RESULT:      -3.4      1.466      4.725
REMARK  2 active torsions:
REMARK  status: ('A' for Active; 'I' for Inactive)
REMARK    1  A    between atoms: C1_1  and  C5_5 
REMARK    2  A    between atoms: C2_2  and  C6_6 
ROOT
HETATM    1  C1  UNL     1     -33.704  16.982  -2.335  1.00 20.00    -0.063 C 
HETATM    2  C2  UNL     1     -33.578  16.103  -3.143  1.00 20.00    -0.063 C 
ENDROOT
BRANCH   1   3
HETATM    3  C5  UNL     1     -33.855  18.031  -1.371  1.00 20.00     0.141 A 
HETATM    4  C3  UNL     1     -32.693  18.363  -0.466  1.00 20.00     0.221 A 
HETATM    5  O9  UNL     1     -33.793  17.560  -0.017  1.00 20.00    -0.362 OA
HETATM    6  C7  UNL     1     -34.924  19.047  -1.605  1.00 20.00     0.063 C 
ENDBRANCH   1   3
BRANCH   2   7
HETATM    7  C6  UNL     1     -33.425  15.033  -4.128  1.00 20.00     0.141 A 
HETATM    8  C4  UNL     1     -34.517  14.845  -5.132  1.00 20.00     0.221 A 
HETATM    9  O10 UNL     1     -34.410  14.019  -3.965  1.00 20.00    -0.362 OA
HETATM   10  C8  UNL     1     -32.052  14.542  -4.375  1.00 20.00     0.063 C 
ENDBRANCH   2   7
TORSDOF 2
ENDMDL
MODEL 6
REMARK VINA RESULT:      -3.2     23.900     24.813
REMARK  2 active torsions:
REMARK  status: ('A' for Active; 'I' for Inactive)
REMARK    1  A    between atoms: C1_1  and  C5_5 
REMARK    2  A    between atoms: C2_2  and  C6_6 
ROOT
HETATM    1  C1  UNL     1     -25.060  -2.915   9.836  1.00 20.00    -0.063 C 
HETATM    2  C2  UNL     1     -26.171  -2.542  10.099  1.00 20.00    -0.063 C 
ENDROOT
BRANCH   1   3
HETATM    3  C5  UNL     1     -23.735  -3.359   9.524  1.00 20.00     0.141 A 
HETATM    4  C3  UNL     1     -23.052  -4.329  10.458  1.00 20.00     0.221 A 
HETATM    5  O9  UNL     1     -22.759  -2.925  10.482  1.00 20.00    -0.362 OA
HETATM    6  C7  UNL     1     -23.275  -3.248   8.107  1.00 20.00     0.063 C 
ENDBRANCH   1   3
BRANCH   2   7
HETATM    7  C6  UNL     1     -27.524  -2.088  10.419  1.00 20.00     0.141 A 
HETATM    8  C4  UNL     1     -28.422  -3.029  11.157  1.00 20.00     0.221 A 
HETATM    9  O10 UNL     1     -28.513  -2.851   9.737  1.00 20.00    -0.362 OA
HETATM   10  C8  UNL     1     -27.753  -0.627  10.433  1.00 20.00     0.063 C 
ENDBRANCH   2   7
TORSDOF 2
ENDMDL
MODEL 7
REMARK VINA RESULT:      -3.2      2.446      3.404
REMARK  2 active torsions:
REMARK  status: ('A' for Active; 'I' for Inactive)
REMARK    1  A    between atoms: C1_1  and  C5_5 
REMARK    2  A    between atoms: C2_2  and  C6_6 
ROOT
HETATM    1  C1  UNL     1     -34.671  16.279  -5.739  1.00 20.00    -0.063 C 
HETATM    2  C2  UNL     1     -34.457  16.804  -4.679  1.00 20.00    -0.063 C 
ENDROOT
BRANCH   1   3
HETATM    3  C5  UNL     1     -34.927  15.654  -7.001  1.00 20.00     0.141 A 
HETATM    4  C3  UNL     1     -36.329  15.688  -7.560  1.00 20.00     0.221 A 
HETATM    5  O9  UNL     1     -35.809  14.526  -6.898  1.00 20.00    -0.362 OA
HETATM    6  C7  UNL     1     -33.770  15.429  -7.918  1.00 20.00     0.063 C 
ENDBRANCH   1   3
BRANCH   2   7
HETATM    7  C6  UNL     1     -34.197  17.443  -3.391  1.00 20.00     0.141 A 
HETATM    8  C4  UNL     1     -35.117  18.539  -2.954  1.00 20.00     0.221 A 
HETATM    9  O10 UNL     1     -33.838  18.812  -3.541  1.00 20.00    -0.362 OA
HETATM   10  C8  UNL     1     -33.383  16.682  -2.418  1.00 20.00     0.063 C 
ENDBRANCH   2   7
TORSDOF 2
ENDMDL
MODEL 8
REMARK VINA RESULT:      -3.1      2.441      5.737
REMARK  2 active torsions:
REMARK  status: ('A' for Active; 'I' for Inactive)
REMARK    1  A    between atoms: C1_1  and  C5_5 
REMARK    2  A    between atoms: C2_2  and  C6_6 
ROOT
HETATM    1  C1  UNL     1     -34.449  16.807  -4.662  1.00 20.00    -0.063 C 
HETATM    2  C2  UNL     1     -34.667  16.291  -5.725  1.00 20.00    -0.063 C 
ENDROOT
BRANCH   1   3
HETATM    3  C5  UNL     1     -34.189  17.421  -3.395  1.00 20.00     0.141 A 
HETATM    4  C3  UNL     1     -35.096  18.534  -2.925  1.00 20.00     0.221 A 
HETATM    5  O9  UNL     1     -33.814  18.802  -3.509  1.00 20.00    -0.362 OA
HETATM    6  C7  UNL     1     -33.377  16.659  -2.401  1.00 20.00     0.063 C 
ENDBRANCH   1   3
BRANCH   2   7
HETATM    7  C6  UNL     1     -34.932  15.662  -7.018  1.00 20.00     0.141 A 
HETATM    8  C4  UNL     1     -36.331  15.704  -7.543  1.00 20.00     0.221 A 
HETATM    9  O10 UNL     1     -35.801  14.542  -6.894  1.00 20.00    -0.362 OA
HETATM   10  C8  UNL     1     -33.773  15.464  -7.915  1.00 20.00     0.063 C 
ENDBRANCH   2   7
TORSDOF 2
ENDMDL
MODEL 9
REMARK VINA RESULT:      -3.1     23.890     24.863
REMARK  2 active torsions:
REMARK  status: ('A' for Active; 'I' for Inactive)
REMARK    1  A    between atoms: C1_1  and  C5_5 
REMARK    2  A    between atoms: C2_2  and  C6_6 
ROOT
HETATM    1  C1  UNL     1     -26.167  -2.520  10.092  1.00 20.00    -0.063 C 
HETATM    2  C2  UNL     1     -25.059  -2.908   9.838  1.00 20.00    -0.063 C 
ENDROOT
BRANCH   1   3
HETATM    3  C5  UNL     1     -27.488  -2.057  10.395  1.00 20.00     0.141 A 
HETATM    4  C3  UNL     1     -28.430  -2.976  11.136  1.00 20.00     0.221 A 
HETATM    5  O9  UNL     1     -28.510  -2.800   9.715  1.00 20.00    -0.362 OA
HETATM    6  C7  UNL     1     -27.727  -0.584  10.411  1.00 20.00     0.063 C 
ENDBRANCH   1   3
BRANCH   2   7
HETATM    7  C6  UNL     1     -23.711  -3.380   9.527  1.00 20.00     0.141 A 
HETATM    8  C4  UNL     1     -23.067  -4.335  10.481  1.00 20.00     0.221 A 
HETATM    9  O10 UNL     1     -22.760  -2.935  10.487  1.00 20.00    -0.362 OA
HETATM   10  C8  UNL     1     -23.276  -3.283   8.116  1.00 20.00     0.063 C 
ENDBRANCH   2   7
TORSDOF 2
ENDMDL
