MODEL 1
REMARK VINA RESULT:      -4.6      0.000      0.000
REMARK  1 active torsions:
REMARK  status: ('A' for Active; 'I' for Inactive)
REMARK    1  A    between atoms: C4_4  and  C11_11 
ROOT
HETATM    1  C1  UNL     1     -33.540   7.382   6.349  1.00 20.00     0.053 C 
HETATM    2  C2  UNL     1     -34.361   6.362   6.073  1.00 20.00    -0.072 C 
HETATM    3  C3  UNL     1     -32.911   7.762   5.080  1.00 20.00     0.155 C 
HETATM    4  C4  UNL     1     -33.534   7.031   3.916  1.00 20.00     0.075 C 
HETATM    5  C5  UNL     1     -34.344   5.903   4.620  1.00 20.00    -0.013 C 
HETATM    6  C6  UNL     1     -35.204   5.683   7.103  1.00 20.00     0.044 C 
HETATM    7  C7  UNL     1     -35.759   5.839   4.024  1.00 20.00     0.020 C 
HETATM    8  C8  UNL     1     -33.691   4.513   4.522  1.00 20.00     0.020 C 
HETATM    9  O12 UNL     1     -32.028   8.602   5.004  1.00 20.00    -0.293 OA
ENDROOT
BRANCH   4  10
HETATM   10  C11 UNL     1     -32.493   6.607   2.891  1.00 20.00    -0.010 C 
HETATM   11  C9  UNL     1     -32.938   5.341   2.157  1.00 20.00     0.010 C 
HETATM   12  C10 UNL     1     -32.223   7.734   1.893  1.00 20.00     0.010 C 
ENDBRANCH   4  10
TORSDOF 1
ENDMDL
MODEL 2
REMARK VINA RESULT:      -4.5     12.234     13.757
REMARK  1 active torsions:
REMARK  status: ('A' for Active; 'I' for Inactive)
REMARK    1  A    between atoms: C4_4  and  C11_11 
ROOT
HETATM    1  C1  UNL     1     -33.358  15.956  -3.032  1.00 20.00     0.053 C 
HETATM    2  C2  UNL     1     -33.720  17.240  -3.126  1.00 20.00    -0.072 C 
HETATM    3  C3  UNL     1     -33.779  15.315  -4.282  1.00 20.00     0.155 C 
HETATM    4  C4  UNL     1     -34.274  16.331  -5.283  1.00 20.00     0.075 C 
HETATM    5  C5  UNL     1     -34.464  17.603  -4.405  1.00 20.00    -0.013 C 
HETATM    6  C6  UNL     1     -33.463  18.247  -2.053  1.00 20.00     0.044 C 
HETATM    7  C7  UNL     1     -33.832  18.813  -5.112  1.00 20.00     0.020 C 
HETATM    8  C8  UNL     1     -35.934  17.920  -4.079  1.00 20.00     0.020 C 
HETATM    9  O12 UNL     1     -33.684  14.113  -4.475  1.00 20.00    -0.293 OA
ENDROOT
BRANCH   4  10
HETATM   10  C11 UNL     1     -35.484  15.825  -6.051  1.00 20.00    -0.010 C 
HETATM   11  C9  UNL     1     -35.101  15.448  -7.482  1.00 20.00     0.010 C 
HETATM   12  C10 UNL     1     -36.121  14.631  -5.339  1.00 20.00     0.010 C 
ENDBRANCH   4  10
TORSDOF 1
ENDMDL
MODEL 3
REMARK VINA RESULT:      -4.5     12.455     14.194
REMARK  1 active torsions:
REMARK  status: ('A' for Active; 'I' for Inactive)
REMARK    1  A    between atoms: C4_4  and  C11_11 
ROOT
HETATM    1  C1  UNL     1     -33.512  15.737  -3.521  1.00 20.00     0.053 C 
HETATM    2  C2  UNL     1     -33.550  16.996  -3.069  1.00 20.00    -0.072 C 
HETATM    3  C3  UNL     1     -34.143  15.755  -4.844  1.00 20.00     0.155 C 
HETATM    4  C4  UNL     1     -34.422  17.165  -5.304  1.00 20.00     0.075 C 
HETATM    5  C5  UNL     1     -34.246  17.987  -3.993  1.00 20.00    -0.013 C 
HETATM    6  C6  UNL     1     -32.996  17.411  -1.744  1.00 20.00     0.044 C 
HETATM    7  C7  UNL     1     -33.372  19.219  -4.275  1.00 20.00     0.020 C 
HETATM    8  C8  UNL     1     -35.573  18.443  -3.361  1.00 20.00     0.020 C 
HETATM    9  O12 UNL     1     -34.358  14.740  -5.488  1.00 20.00    -0.293 OA
ENDROOT
BRANCH   4  10
HETATM   10  C11 UNL     1     -35.759  17.272  -6.021  1.00 20.00    -0.010 C 
HETATM   11  C9  UNL     1     -35.565  17.241  -7.537  1.00 20.00     0.010 C 
HETATM   12  C10 UNL     1     -36.703  16.152  -5.582  1.00 20.00     0.010 C 
ENDBRANCH   4  10
TORSDOF 1
ENDMDL
MODEL 4
REMARK VINA RESULT:      -4.2     12.406     14.146
REMARK  1 active torsions:
REMARK  status: ('A' for Active; 'I' for Inactive)
REMARK    1  A    between atoms: C4_4  and  C11_11 
ROOT
HETATM    1  C1  UNL     1     -36.432  17.893  -5.287  1.00 20.00     0.053 C 
HETATM    2  C2  UNL     1     -36.355  16.904  -6.185  1.00 20.00    -0.072 C 
HETATM    3  C3  UNL     1     -35.297  17.712  -4.376  1.00 20.00     0.155 C 
HETATM    4  C4  UNL     1     -34.360  16.636  -4.869  1.00 20.00     0.075 C 
HETATM    5  C5  UNL     1     -35.211  15.923  -5.961  1.00 20.00    -0.013 C 
HETATM    6  C6  UNL     1     -37.331  16.732  -7.303  1.00 20.00     0.044 C 
HETATM    7  C7  UNL     1     -34.362  15.733  -7.228  1.00 20.00     0.020 C 
HETATM    8  C8  UNL     1     -35.773  14.560  -5.521  1.00 20.00     0.020 C 
HETATM    9  O12 UNL     1     -35.134  18.396  -3.377  1.00 20.00    -0.293 OA
ENDROOT
BRANCH   4  10
HETATM   10  C11 UNL     1     -33.830  15.781  -3.728  1.00 20.00    -0.010 C 
HETATM   11  C9  UNL     1     -32.710  14.860  -4.214  1.00 20.00     0.010 C 
HETATM   12  C10 UNL     1     -33.336  16.657  -2.576  1.00 20.00     0.010 C 
ENDBRANCH   4  10
TORSDOF 1
ENDMDL
MODEL 5
REMARK VINA RESULT:      -4.1     10.768     11.789
REMARK  1 active torsions:
REMARK  status: ('A' for Active; 'I' for Inactive)
REMARK    1  A    between atoms: C4_4  and  C11_11 
ROOT
HETATM    1  C1  UNL     1     -43.242  13.831   8.523  1.00 20.00     0.053 C 
HETATM    2  C2  UNL     1     -42.570  14.939   8.858  1.00 20.00    -0.072 C 
HETATM    3  C3  UNL     1     -42.338  13.037   7.686  1.00 20.00     0.155 C 
HETATM    4  C4  UNL     1     -40.948  13.625   7.662  1.00 20.00     0.075 C 
HETATM    5  C5  UNL     1     -41.175  15.047   8.256  1.00 20.00    -0.013 C 
HETATM    6  C6  UNL     1     -43.140  16.017   9.721  1.00 20.00     0.044 C 
HETATM    7  C7  UNL     1     -40.109  15.332   9.326  1.00 20.00     0.020 C 
HETATM    8  C8  UNL     1     -41.149  16.172   7.205  1.00 20.00     0.020 C 
HETATM    9  O12 UNL     1     -42.684  12.006   7.130  1.00 20.00    -0.293 OA
ENDROOT
BRANCH   4  10
HETATM   10  C11 UNL     1     -40.320  13.538   6.280  1.00 20.00    -0.010 C 
HETATM   11  C9  UNL     1     -39.495  12.258   6.139  1.00 20.00     0.010 C 
HETATM   12  C10 UNL     1     -41.391  13.604   5.191  1.00 20.00     0.010 C 
ENDBRANCH   4  10
TORSDOF 1
ENDMDL
MODEL 6
REMARK VINA RESULT:      -4.1      1.673      4.286
REMARK  1 active torsions:
REMARK  status: ('A' for Active; 'I' for Inactive)
REMARK    1  A    between atoms: C4_4  and  C11_11 
ROOT
HETATM    1  C1  UNL     1     -32.940   5.683   2.587  1.00 20.00     0.053 C 
HETATM    2  C2  UNL     1     -32.685   6.996   2.619  1.00 20.00    -0.072 C 
HETATM    3  C3  UNL     1     -33.658   5.371   3.827  1.00 20.00     0.155 C 
HETATM    4  C4  UNL     1     -34.022   6.625   4.584  1.00 20.00     0.075 C 
HETATM    5  C5  UNL     1     -33.145   7.706   3.886  1.00 20.00    -0.013 C 
HETATM    6  C6  UNL     1     -31.969   7.722   1.526  1.00 20.00     0.044 C 
HETATM    7  C7  UNL     1     -34.005   8.940   3.572  1.00 20.00     0.020 C 
HETATM    8  C8  UNL     1     -31.920   8.141   4.711  1.00 20.00     0.020 C 
HETATM    9  O12 UNL     1     -33.950   4.231   4.154  1.00 20.00    -0.293 OA
ENDROOT
BRANCH   4  10
HETATM   10  C11 UNL     1     -33.852   6.450   6.085  1.00 20.00    -0.010 C 
HETATM   11  C9  UNL     1     -34.169   7.752   6.822  1.00 20.00     0.010 C 
HETATM   12  C10 UNL     1     -34.738   5.316   6.604  1.00 20.00     0.010 C 
ENDBRANCH   4  10
TORSDOF 1
ENDMDL
MODEL 7
REMARK VINA RESULT:      -4.1     12.534     13.606
REMARK  1 active torsions:
REMARK  status: ('A' for Active; 'I' for Inactive)
REMARK    1  A    between atoms: C4_4  and  C11_11 
ROOT
HETATM    1  C1  UNL     1     -26.186  -0.647  12.250  1.00 20.00     0.053 C 
HETATM    2  C2  UNL     1     -27.323  -1.246  11.878  1.00 20.00    -0.072 C 
HETATM    3  C3  UNL     1     -25.099  -1.376  11.589  1.00 20.00     0.155 C 
HETATM    4  C4  UNL     1     -25.633  -2.382  10.598  1.00 20.00     0.075 C 
HETATM    5  C5  UNL     1     -27.141  -2.463  10.980  1.00 20.00    -0.013 C 
HETATM    6  C6  UNL     1     -28.674  -0.798  12.332  1.00 20.00     0.044 C 
HETATM    7  C7  UNL     1     -27.997  -2.369   9.707  1.00 20.00     0.020 C 
HETATM    8  C8  UNL     1     -27.520  -3.739  11.751  1.00 20.00     0.020 C 
HETATM    9  O12 UNL     1     -23.920  -1.142  11.800  1.00 20.00    -0.293 OA
ENDROOT
BRANCH   4  10
HETATM   10  C11 UNL     1     -24.837  -3.677  10.622  1.00 20.00    -0.010 C 
HETATM   11  C9  UNL     1     -23.792  -3.693   9.506  1.00 20.00     0.010 C 
HETATM   12  C10 UNL     1     -24.166  -3.878  11.982  1.00 20.00     0.010 C 
ENDBRANCH   4  10
TORSDOF 1
ENDMDL
MODEL 8
REMARK VINA RESULT:      -4.0     12.273     14.015
REMARK  1 active torsions:
REMARK  status: ('A' for Active; 'I' for Inactive)
REMARK    1  A    between atoms: C4_4  and  C11_11 
ROOT
HETATM    1  C1  UNL     1     -35.905  14.635  -6.034  1.00 20.00     0.053 C 
HETATM    2  C2  UNL     1     -36.071  15.891  -6.463  1.00 20.00    -0.072 C 
HETATM    3  C3  UNL     1     -35.095  14.718  -4.815  1.00 20.00     0.155 C 
HETATM    4  C4  UNL     1     -34.906  16.149  -4.374  1.00 20.00     0.075 C 
HETATM    5  C5  UNL     1     -35.359  16.951  -5.630  1.00 20.00    -0.013 C 
HETATM    6  C6  UNL     1     -36.853  16.246  -7.685  1.00 20.00     0.044 C 
HETATM    7  C7  UNL     1     -36.312  18.078  -5.202  1.00 20.00     0.020 C 
HETATM    8  C8  UNL     1     -34.196  17.552  -6.438  1.00 20.00     0.020 C 
HETATM    9  O12 UNL     1     -34.679  13.731  -4.228  1.00 20.00    -0.293 OA
ENDROOT
BRANCH   4  10
HETATM   10  C11 UNL     1     -33.499  16.401  -3.855  1.00 20.00    -0.010 C 
HETATM   11  C9  UNL     1     -33.515  16.670  -2.350  1.00 20.00     0.010 C 
HETATM   12  C10 UNL     1     -32.582  15.220  -4.175  1.00 20.00     0.010 C 
ENDBRANCH   4  10
TORSDOF 1
ENDMDL
MODEL 9
REMARK VINA RESULT:      -3.9     11.304     12.324
REMARK  1 active torsions:
REMARK  status: ('A' for Active; 'I' for Inactive)
REMARK    1  A    between atoms: C4_4  and  C11_11 
ROOT
HETATM    1  C1  UNL     1     -40.459  15.290   9.294  1.00 20.00     0.053 C 
HETATM    2  C2  UNL     1     -41.243  16.311   8.931  1.00 20.00    -0.072 C 
HETATM    3  C3  UNL     1     -40.421  14.372   8.152  1.00 20.00     0.155 C 
HETATM    4  C4  UNL     1     -41.091  14.972   6.939  1.00 20.00     0.075 C 
HETATM    5  C5  UNL     1     -41.862  16.181   7.545  1.00 20.00    -0.013 C 
HETATM    6  C6  UNL     1     -41.537  17.478   9.818  1.00 20.00     0.044 C 
HETATM    7  C7  UNL     1     -41.611  17.431   6.686  1.00 20.00     0.020 C 
HETATM    8  C8  UNL     1     -43.378  15.953   7.672  1.00 20.00     0.020 C 
HETATM    9  O12 UNL     1     -39.869  13.283   8.195  1.00 20.00    -0.293 OA
ENDROOT
BRANCH   4  10
HETATM   10  C11 UNL     1     -41.902  13.940   6.172  1.00 20.00    -0.010 C 
HETATM   11  C9  UNL     1     -41.063  13.304   5.063  1.00 20.00     0.010 C 
HETATM   12  C10 UNL     1     -42.442  12.862   7.114  1.00 20.00     0.010 C 
ENDBRANCH   4  10
TORSDOF 1
ENDMDL
