MODEL 1
REMARK VINA RESULT:      -4.3      0.000      0.000
REMARK  3 active torsions:
REMARK  status: ('A' for Active; 'I' for Inactive)
REMARK    1  A    between atoms: C4_4  and  C11_11 
REMARK    2  A    between atoms: C5_5  and  C9_9 
REMARK    3  A    between atoms: C8_8  and  C11_11 
ROOT
HETATM    1  C1  UNL     1     -32.531   8.907   5.222  1.00 20.00    -0.030 C 
HETATM    2  C2  UNL     1     -32.155   8.012   4.297  1.00 20.00    -0.025 C 
HETATM    3  C6  UNL     1     -33.739   8.732   6.089  1.00 20.00     0.027 C 
HETATM    4  C7  UNL     1     -34.274   7.300   6.076  1.00 20.00     0.016 C 
HETATM    5  C8  UNL     1     -32.924   6.749   3.995  1.00 20.00     0.025 C 
HETATM    6  C9  UNL     1     -34.322   6.738   4.653  1.00 20.00     0.055 C 
ENDROOT
BRANCH   5   7
HETATM    7  C11 UNL     1     -33.044   6.565   2.477  1.00 20.00     0.011 C 
HETATM    8  C10 UNL     1     -32.757   5.116   2.092  1.00 20.00     0.015 C 
BRANCH   7   9
HETATM    9  C4  UNL     1     -32.096   7.494   1.768  1.00 20.00    -0.032 C 
HETATM   10  C3  UNL     1     -32.484   8.448   0.915  1.00 20.00     0.007 C 
ENDBRANCH   7   9
ENDBRANCH   5   7
BRANCH   6  11
HETATM   11  C5  UNL     1     -34.865   5.341   4.715  1.00 20.00     0.236 C 
HETATM   12  O12 UNL     1     -34.214   4.380   5.111  1.00 20.00    -0.306 OA
ENDBRANCH   6  11
TORSDOF 3
ENDMDL
MODEL 2
REMARK VINA RESULT:      -4.3      1.770      2.785
REMARK  3 active torsions:
REMARK  status: ('A' for Active; 'I' for Inactive)
REMARK    1  A    between atoms: C4_4  and  C11_11 
REMARK    2  A    between atoms: C5_5  and  C9_9 
REMARK    3  A    between atoms: C8_8  and  C11_11 
ROOT
HETATM    1  C1  UNL     1     -34.859   5.054   5.655  1.00 20.00    -0.030 C 
HETATM    2  C2  UNL     1     -34.817   5.416   4.365  1.00 20.00    -0.025 C 
HETATM    3  C6  UNL     1     -34.228   5.854   6.752  1.00 20.00     0.027 C 
HETATM    4  C7  UNL     1     -33.866   7.274   6.316  1.00 20.00     0.016 C 
HETATM    5  C8  UNL     1     -34.098   6.646   3.865  1.00 20.00     0.025 C 
HETATM    6  C9  UNL     1     -33.189   7.277   4.943  1.00 20.00     0.055 C 
ENDROOT
BRANCH   5   7
HETATM    7  C11 UNL     1     -33.284   6.298   2.613  1.00 20.00     0.011 C 
HETATM    8  C10 UNL     1     -32.711   4.887   2.726  1.00 20.00     0.015 C 
BRANCH   7   9
HETATM    9  C4  UNL     1     -32.177   7.300   2.422  1.00 20.00    -0.032 C 
HETATM   10  C3  UNL     1     -32.045   8.068   1.335  1.00 20.00     0.007 C 
ENDBRANCH   7   9
ENDBRANCH   5   7
BRANCH   6  11
HETATM   11  C5  UNL     1     -32.853   8.694   4.586  1.00 20.00     0.236 C 
HETATM   12  O12 UNL     1     -32.089   9.393   5.242  1.00 20.00    -0.306 OA
ENDBRANCH   6  11
TORSDOF 3
ENDMDL
MODEL 3
REMARK VINA RESULT:      -4.2      1.393      2.810
REMARK  3 active torsions:
REMARK  status: ('A' for Active; 'I' for Inactive)
REMARK    1  A    between atoms: C4_4  and  C11_11 
REMARK    2  A    between atoms: C5_5  and  C9_9 
REMARK    3  A    between atoms: C8_8  and  C11_11 
ROOT
HETATM    1  C1  UNL     1     -34.446   6.673   6.355  1.00 20.00    -0.030 C 
HETATM    2  C2  UNL     1     -33.307   7.259   5.960  1.00 20.00    -0.025 C 
HETATM    3  C6  UNL     1     -35.175   5.657   5.532  1.00 20.00     0.027 C 
HETATM    4  C7  UNL     1     -34.320   5.092   4.397  1.00 20.00     0.016 C 
HETATM    5  C8  UNL     1     -32.649   6.993   4.628  1.00 20.00     0.025 C 
HETATM    6  C9  UNL     1     -33.565   6.205   3.665  1.00 20.00     0.055 C 
ENDROOT
BRANCH   5   7
HETATM    7  C11 UNL     1     -32.215   8.318   3.991  1.00 20.00     0.011 C 
HETATM    8  C10 UNL     1     -32.149   9.420   5.045  1.00 20.00     0.015 C 
BRANCH   7   9
HETATM    9  C4  UNL     1     -33.170   8.700   2.891  1.00 20.00    -0.032 C 
HETATM   10  C3  UNL     1     -32.803   9.330   1.770  1.00 20.00     0.007 C 
ENDBRANCH   7   9
ENDBRANCH   5   7
BRANCH   6  11
HETATM   11  C5  UNL     1     -32.761   5.583   2.562  1.00 20.00     0.236 C 
HETATM   12  O12 UNL     1     -32.813   4.392   2.278  1.00 20.00    -0.306 OA
ENDBRANCH   6  11
TORSDOF 3
ENDMDL
MODEL 4
REMARK VINA RESULT:      -4.2     11.769     13.522
REMARK  3 active torsions:
REMARK  status: ('A' for Active; 'I' for Inactive)
REMARK    1  A    between atoms: C4_4  and  C11_11 
REMARK    2  A    between atoms: C5_5  and  C9_9 
REMARK    3  A    between atoms: C8_8  and  C11_11 
ROOT
HETATM    1  C1  UNL     1     -34.023  14.568  -4.097  1.00 20.00    -0.030 C 
HETATM    2  C2  UNL     1     -33.400  15.671  -3.658  1.00 20.00    -0.025 C 
HETATM    3  C6  UNL     1     -35.123  14.596  -5.112  1.00 20.00     0.027 C 
HETATM    4  C7  UNL     1     -35.209  15.929  -5.855  1.00 20.00     0.016 C 
HETATM    5  C8  UNL     1     -33.760  17.068  -4.105  1.00 20.00     0.025 C 
HETATM    6  C9  UNL     1     -35.090  17.111  -4.889  1.00 20.00     0.055 C 
ENDROOT
BRANCH   5   7
HETATM    7  C11 UNL     1     -33.822  18.001  -2.890  1.00 20.00     0.011 C 
HETATM    8  C10 UNL     1     -32.772  19.102  -3.010  1.00 20.00     0.015 C 
BRANCH   7   9
HETATM    9  C4  UNL     1     -33.616  17.214  -1.624  1.00 20.00    -0.032 C 
HETATM   10  C3  UNL     1     -33.726  17.734  -0.396  1.00 20.00     0.007 C 
ENDBRANCH   7   9
ENDBRANCH   5   7
BRANCH   6  11
HETATM   11  C5  UNL     1     -35.193  18.380  -5.682  1.00 20.00     0.236 C 
HETATM   12  O12 UNL     1     -34.269  18.842  -6.342  1.00 20.00    -0.306 OA
ENDBRANCH   6  11
TORSDOF 3
ENDMDL
MODEL 5
REMARK VINA RESULT:      -3.9     11.546     13.190
REMARK  3 active torsions:
REMARK  status: ('A' for Active; 'I' for Inactive)
REMARK    1  A    between atoms: C4_4  and  C11_11 
REMARK    2  A    between atoms: C5_5  and  C9_9 
REMARK    3  A    between atoms: C8_8  and  C11_11 
ROOT
HETATM    1  C1  UNL     1     -34.315  18.963  -2.494  1.00 20.00    -0.030 C 
HETATM    2  C2  UNL     1     -34.249  18.845  -3.828  1.00 20.00    -0.025 C 
HETATM    3  C6  UNL     1     -34.012  17.837  -1.555  1.00 20.00     0.027 C 
HETATM    4  C7  UNL     1     -33.279  16.680  -2.235  1.00 20.00     0.016 C 
HETATM    5  C8  UNL     1     -33.902  17.558  -4.537  1.00 20.00     0.025 C 
HETATM    6  C9  UNL     1     -33.912  16.340  -3.587  1.00 20.00     0.055 C 
ENDROOT
BRANCH   5   7
HETATM    7  C11 UNL     1     -34.868  17.334  -5.707  1.00 20.00     0.011 C 
HETATM    8  C10 UNL     1     -34.857  18.539  -6.645  1.00 20.00     0.015 C 
BRANCH   7   9
HETATM    9  C4  UNL     1     -36.259  17.086  -5.188  1.00 20.00    -0.032 C 
HETATM   10  C3  UNL     1     -37.028  16.062  -5.573  1.00 20.00     0.007 C 
ENDBRANCH   7   9
ENDBRANCH   5   7
BRANCH   6  11
HETATM   11  C5  UNL     1     -33.153  15.195  -4.189  1.00 20.00     0.236 C 
HETATM   12  O12 UNL     1     -33.579  14.045  -4.222  1.00 20.00    -0.306 OA
ENDBRANCH   6  11
TORSDOF 3
ENDMDL
MODEL 6
REMARK VINA RESULT:      -3.8      9.250     11.119
REMARK  3 active torsions:
REMARK  status: ('A' for Active; 'I' for Inactive)
REMARK    1  A    between atoms: C4_4  and  C11_11 
REMARK    2  A    between atoms: C5_5  and  C9_9 
REMARK    3  A    between atoms: C8_8  and  C11_11 
ROOT
HETATM    1  C1  UNL     1     -39.123  11.952   6.252  1.00 20.00    -0.030 C 
HETATM    2  C2  UNL     1     -39.779  12.893   6.945  1.00 20.00    -0.025 C 
HETATM    3  C6  UNL     1     -39.340  11.708   4.791  1.00 20.00     0.027 C 
HETATM    4  C7  UNL     1     -40.086  12.853   4.105  1.00 20.00     0.016 C 
HETATM    5  C8  UNL     1     -40.837  13.788   6.346  1.00 20.00     0.025 C 
HETATM    6  C9  UNL     1     -41.281  13.317   4.943  1.00 20.00     0.055 C 
ENDROOT
BRANCH   5   7
HETATM    7  C11 UNL     1     -42.042  13.871   7.290  1.00 20.00     0.011 C 
HETATM    8  C10 UNL     1     -41.585  14.198   8.709  1.00 20.00     0.015 C 
BRANCH   7   9
HETATM    9  C4  UNL     1     -42.803  12.573   7.270  1.00 20.00    -0.032 C 
HETATM   10  C3  UNL     1     -43.417  12.051   8.338  1.00 20.00     0.007 C 
ENDBRANCH   7   9
ENDBRANCH   5   7
BRANCH   6  11
HETATM   11  C5  UNL     1     -41.969  14.428   4.207  1.00 20.00     0.236 C 
HETATM   12  O12 UNL     1     -41.946  14.546   2.987  1.00 20.00    -0.306 OA
ENDBRANCH   6  11
TORSDOF 3
ENDMDL
MODEL 7
REMARK VINA RESULT:      -3.8     11.893     13.766
REMARK  3 active torsions:
REMARK  status: ('A' for Active; 'I' for Inactive)
REMARK    1  A    between atoms: C4_4  and  C11_11 
REMARK    2  A    between atoms: C5_5  and  C9_9 
REMARK    3  A    between atoms: C8_8  and  C11_11 
ROOT
HETATM    1  C1  UNL     1     -33.530  17.655  -3.309  1.00 20.00    -0.030 C 
HETATM    2  C2  UNL     1     -34.096  18.132  -4.426  1.00 20.00    -0.025 C 
HETATM    3  C6  UNL     1     -33.355  16.193  -3.037  1.00 20.00     0.027 C 
HETATM    4  C7  UNL     1     -33.540  15.333  -4.288  1.00 20.00     0.016 C 
HETATM    5  C8  UNL     1     -34.658  17.255  -5.519  1.00 20.00     0.025 C 
HETATM    6  C9  UNL     1     -34.768  15.776  -5.089  1.00 20.00     0.055 C 
ENDROOT
BRANCH   5   7
HETATM    7  C11 UNL     1     -36.025  17.789  -5.961  1.00 20.00     0.011 C 
HETATM    8  C10 UNL     1     -35.923  19.263  -6.345  1.00 20.00     0.015 C 
BRANCH   7   9
HETATM    9  C4  UNL     1     -37.033  17.603  -4.858  1.00 20.00    -0.032 C 
HETATM   10  C3  UNL     1     -38.205  16.978  -5.016  1.00 20.00     0.007 C 
ENDBRANCH   7   9
ENDBRANCH   5   7
BRANCH   6  11
HETATM   11  C5  UNL     1     -34.893  14.885  -6.289  1.00 20.00     0.236 C 
HETATM   12  O12 UNL     1     -35.928  14.301  -6.592  1.00 20.00    -0.306 OA
ENDBRANCH   6  11
TORSDOF 3
ENDMDL
MODEL 8
REMARK VINA RESULT:      -3.6     10.071     11.724
REMARK  3 active torsions:
REMARK  status: ('A' for Active; 'I' for Inactive)
REMARK    1  A    between atoms: C4_4  and  C11_11 
REMARK    2  A    between atoms: C5_5  and  C9_9 
REMARK    3  A    between atoms: C8_8  and  C11_11 
ROOT
HETATM    1  C1  UNL     1     -43.417  12.766   8.494  1.00 20.00    -0.030 C 
HETATM    2  C2  UNL     1     -43.047  13.236   7.294  1.00 20.00    -0.025 C 
HETATM    3  C6  UNL     1     -42.774  13.191   9.777  1.00 20.00     0.027 C 
HETATM    4  C7  UNL     1     -41.930  14.457   9.624  1.00 20.00     0.016 C 
HETATM    5  C8  UNL     1     -41.915  14.215   7.094  1.00 20.00     0.025 C 
HETATM    6  C9  UNL     1     -41.058  14.394   8.367  1.00 20.00     0.055 C 
ENDROOT
BRANCH   5   7
HETATM    7  C11 UNL     1     -41.041  13.764   5.918  1.00 20.00     0.011 C 
HETATM    8  C10 UNL     1     -41.773  13.985   4.596  1.00 20.00     0.015 C 
BRANCH   7   9
HETATM    9  C4  UNL     1     -40.670  12.314   6.077  1.00 20.00    -0.032 C 
HETATM   10  C3  UNL     1     -39.414  11.856   6.029  1.00 20.00     0.007 C 
ENDBRANCH   7   9
ENDBRANCH   5   7
BRANCH   6  11
HETATM   11  C5  UNL     1     -40.253  15.657   8.288  1.00 20.00     0.236 C 
HETATM   12  O12 UNL     1     -40.752  16.771   8.174  1.00 20.00    -0.306 OA
ENDBRANCH   6  11
TORSDOF 3
ENDMDL
MODEL 9
REMARK VINA RESULT:      -3.6     13.069     13.764
REMARK  3 active torsions:
REMARK  status: ('A' for Active; 'I' for Inactive)
REMARK    1  A    between atoms: C4_4  and  C11_11 
REMARK    2  A    between atoms: C5_5  and  C9_9 
REMARK    3  A    between atoms: C8_8  and  C11_11 
ROOT
HETATM    1  C1  UNL     1     -26.541  -0.256  11.446  1.00 20.00    -0.030 C 
HETATM    2  C2  UNL     1     -25.986  -1.386  11.909  1.00 20.00    -0.025 C 
HETATM    3  C6  UNL     1     -27.737  -0.238  10.546  1.00 20.00     0.027 C 
HETATM    4  C7  UNL     1     -28.471  -1.579  10.511  1.00 20.00     0.016 C 
HETATM    5  C8  UNL     1     -26.477  -2.767  11.547  1.00 20.00     0.025 C 
HETATM    6  C9  UNL     1     -27.488  -2.745  10.379  1.00 20.00     0.055 C 
ENDROOT
BRANCH   5   7
HETATM    7  C11 UNL     1     -25.284  -3.669  11.208  1.00 20.00     0.011 C 
HETATM    8  C10 UNL     1     -24.251  -3.630  12.331  1.00 20.00     0.015 C 
BRANCH   7   9
HETATM    9  C4  UNL     1     -24.663  -3.235   9.907  1.00 20.00    -0.032 C 
HETATM   10  C3  UNL     1     -23.362  -2.959   9.758  1.00 20.00     0.007 C 
ENDBRANCH   7   9
ENDBRANCH   5   7
BRANCH   6  11
HETATM   11  C5  UNL     1     -28.275  -4.022  10.339  1.00 20.00     0.236 C 
HETATM   12  O12 UNL     1     -29.340  -4.141   9.745  1.00 20.00    -0.306 OA
ENDBRANCH   6  11
TORSDOF 3
ENDMDL
