MODEL 1
REMARK VINA RESULT:      -4.1      0.000      0.000
REMARK  4 active torsions:
REMARK  status: ('A' for Active; 'I' for Inactive)
REMARK    1  A    between atoms: C4_4  and  C5_5 
REMARK    2  A    between atoms: C5_5  and  C7_7 
REMARK    3  A    between atoms: C6_6  and  O8_8 
REMARK    4  A    between atoms: C7_7  and  O8_8 
ROOT
HETATM    1  C3  UNL     1     -34.307   5.081   6.645  1.00 20.00     0.039 C 
HETATM    2  C7  UNL     1     -34.557   6.322   5.799  1.00 20.00     0.117 C 
ENDROOT
BRANCH   2   3
HETATM    3  C5  UNL     1     -34.814   5.960   4.333  1.00 20.00     0.031 C 
BRANCH   3   4
HETATM    4  C4  UNL     1     -33.918   4.812   3.857  1.00 20.00    -0.002 C 
HETATM    5  C1  UNL     1     -32.995   5.257   2.733  1.00 20.00     0.005 C 
ENDBRANCH   3   4
ENDBRANCH   2   3
BRANCH   2   6
HETATM    6  O8  UNL     1     -33.422   7.179   5.899  1.00 20.00    -0.387 OA
BRANCH   6   7
HETATM    7  C6  UNL     1     -33.539   8.296   5.031  1.00 20.00     0.163 C 
HETATM    8  C2  UNL     1     -32.187   8.585   4.414  1.00 20.00     0.033 C 
ENDBRANCH   6   7
ENDBRANCH   2   6
TORSDOF 4
ENDMDL
MODEL 2
REMARK VINA RESULT:      -4.0      1.175      2.665
REMARK  4 active torsions:
REMARK  status: ('A' for Active; 'I' for Inactive)
REMARK    1  A    between atoms: C4_4  and  C5_5 
REMARK    2  A    between atoms: C5_5  and  C7_7 
REMARK    3  A    between atoms: C6_6  and  O8_8 
REMARK    4  A    between atoms: C7_7  and  O8_8 
ROOT
HETATM    1  C3  UNL     1     -32.994   5.157   2.640  1.00 20.00     0.039 C 
HETATM    2  C7  UNL     1     -33.379   5.911   3.906  1.00 20.00     0.117 C 
ENDROOT
BRANCH   2   3
HETATM    3  C5  UNL     1     -34.729   5.437   4.453  1.00 20.00     0.031 C 
BRANCH   3   4
HETATM    4  C4  UNL     1     -34.721   5.317   5.980  1.00 20.00    -0.002 C 
HETATM    5  C1  UNL     1     -34.323   6.629   6.639  1.00 20.00     0.005 C 
ENDBRANCH   3   4
ENDBRANCH   2   3
BRANCH   2   6
HETATM    6  O8  UNL     1     -33.432   7.305   3.609  1.00 20.00    -0.387 OA
BRANCH   6   7
HETATM    7  C6  UNL     1     -32.158   7.914   3.752  1.00 20.00     0.163 C 
HETATM    8  C2  UNL     1     -32.244   8.995   4.809  1.00 20.00     0.033 C 
ENDBRANCH   6   7
ENDBRANCH   2   6
TORSDOF 4
ENDMDL
MODEL 3
REMARK VINA RESULT:      -4.0      1.247      3.165
REMARK  4 active torsions:
REMARK  status: ('A' for Active; 'I' for Inactive)
REMARK    1  A    between atoms: C4_4  and  C5_5 
REMARK    2  A    between atoms: C5_5  and  C7_7 
REMARK    3  A    between atoms: C6_6  and  O8_8 
REMARK    4  A    between atoms: C7_7  and  O8_8 
ROOT
HETATM    1  C3  UNL     1     -32.206   8.772   4.763  1.00 20.00     0.039 C 
HETATM    2  C7  UNL     1     -33.527   8.051   4.997  1.00 20.00     0.117 C 
ENDROOT
BRANCH   2   3
HETATM    3  C5  UNL     1     -33.479   7.186   6.260  1.00 20.00     0.031 C 
BRANCH   3   4
HETATM    4  C4  UNL     1     -34.727   6.310   6.407  1.00 20.00    -0.002 C 
HETATM    5  C1  UNL     1     -34.437   4.863   6.035  1.00 20.00     0.005 C 
ENDBRANCH   3   4
ENDBRANCH   2   3
BRANCH   2   6
HETATM    6  O8  UNL     1     -33.813   7.241   3.859  1.00 20.00    -0.387 OA
BRANCH   6   7
HETATM    7  C6  UNL     1     -32.622   6.777   3.241  1.00 20.00     0.163 C 
HETATM    8  C2  UNL     1     -32.859   5.385   2.696  1.00 20.00     0.033 C 
ENDBRANCH   6   7
ENDBRANCH   2   6
TORSDOF 4
ENDMDL
MODEL 4
REMARK VINA RESULT:      -4.0      1.110      2.990
REMARK  4 active torsions:
REMARK  status: ('A' for Active; 'I' for Inactive)
REMARK    1  A    between atoms: C4_4  and  C5_5 
REMARK    2  A    between atoms: C5_5  and  C7_7 
REMARK    3  A    between atoms: C6_6  and  O8_8 
REMARK    4  A    between atoms: C7_7  and  O8_8 
ROOT
HETATM    1  C3  UNL     1     -34.702   5.967   6.595  1.00 20.00     0.039 C 
HETATM    2  C7  UNL     1     -33.901   6.457   5.396  1.00 20.00     0.117 C 
ENDROOT
BRANCH   2   3
HETATM    3  C5  UNL     1     -33.806   7.986   5.370  1.00 20.00     0.031 C 
BRANCH   3   4
HETATM    4  C4  UNL     1     -32.461   8.470   4.819  1.00 20.00    -0.002 C 
HETATM    5  C1  UNL     1     -32.545   8.764   3.329  1.00 20.00     0.005 C 
ENDBRANCH   3   4
ENDBRANCH   2   3
BRANCH   2   6
HETATM    6  O8  UNL     1     -34.527   5.986   4.205  1.00 20.00    -0.387 OA
BRANCH   6   7
HETATM    7  C6  UNL     1     -33.889   4.818   3.711  1.00 20.00     0.163 C 
HETATM    8  C2  UNL     1     -32.894   5.214   2.641  1.00 20.00     0.033 C 
ENDBRANCH   6   7
ENDBRANCH   2   6
TORSDOF 4
ENDMDL
MODEL 5
REMARK VINA RESULT:      -3.8      2.266      3.443
REMARK  4 active torsions:
REMARK  status: ('A' for Active; 'I' for Inactive)
REMARK    1  A    between atoms: C4_4  and  C5_5 
REMARK    2  A    between atoms: C5_5  and  C7_7 
REMARK    3  A    between atoms: C6_6  and  O8_8 
REMARK    4  A    between atoms: C7_7  and  O8_8 
ROOT
HETATM    1  C3  UNL     1     -32.609   6.316   2.953  1.00 20.00     0.039 C 
HETATM    2  C7  UNL     1     -32.505   7.607   3.753  1.00 20.00     0.117 C 
ENDROOT
BRANCH   2   3
HETATM    3  C5  UNL     1     -33.649   7.736   4.764  1.00 20.00     0.031 C 
BRANCH   3   4
HETATM    4  C4  UNL     1     -34.422   6.424   4.930  1.00 20.00    -0.002 C 
HETATM    5  C1  UNL     1     -34.418   5.956   6.377  1.00 20.00     0.005 C 
ENDBRANCH   3   4
ENDBRANCH   2   3
BRANCH   2   6
HETATM    6  O8  UNL     1     -32.524   8.709   2.848  1.00 20.00    -0.387 OA
BRANCH   6   7
HETATM    7  C6  UNL     1     -32.221   8.296   1.524  1.00 20.00     0.163 C 
HETATM    8  C2  UNL     1     -32.699   9.357   0.556  1.00 20.00     0.033 C 
ENDBRANCH   6   7
ENDBRANCH   2   6
TORSDOF 4
ENDMDL
MODEL 6
REMARK VINA RESULT:      -3.7      1.090      2.943
REMARK  4 active torsions:
REMARK  status: ('A' for Active; 'I' for Inactive)
REMARK    1  A    between atoms: C4_4  and  C5_5 
REMARK    2  A    between atoms: C5_5  and  C7_7 
REMARK    3  A    between atoms: C6_6  and  O8_8 
REMARK    4  A    between atoms: C7_7  and  O8_8 
ROOT
HETATM    1  C3  UNL     1     -32.158   9.183   5.114  1.00 20.00     0.039 C 
HETATM    2  C7  UNL     1     -32.790   7.853   4.726  1.00 20.00     0.117 C 
ENDROOT
BRANCH   2   3
HETATM    3  C5  UNL     1     -32.957   7.731   3.208  1.00 20.00     0.031 C 
BRANCH   3   4
HETATM    4  C4  UNL     1     -32.181   6.541   2.636  1.00 20.00    -0.002 C 
HETATM    5  C1  UNL     1     -33.005   5.263   2.690  1.00 20.00     0.005 C 
ENDBRANCH   3   4
ENDBRANCH   2   3
BRANCH   2   6
HETATM    6  O8  UNL     1     -34.058   7.745   5.369  1.00 20.00    -0.387 OA
BRANCH   6   7
HETATM    7  C6  UNL     1     -34.020   6.808   6.435  1.00 20.00     0.163 C 
HETATM    8  C2  UNL     1     -34.685   5.524   5.987  1.00 20.00     0.033 C 
ENDBRANCH   6   7
ENDBRANCH   2   6
TORSDOF 4
ENDMDL
MODEL 7
REMARK VINA RESULT:      -3.7      1.949      3.680
REMARK  4 active torsions:
REMARK  status: ('A' for Active; 'I' for Inactive)
REMARK    1  A    between atoms: C4_4  and  C5_5 
REMARK    2  A    between atoms: C5_5  and  C7_7 
REMARK    3  A    between atoms: C6_6  and  O8_8 
REMARK    4  A    between atoms: C7_7  and  O8_8 
ROOT
HETATM    1  C3  UNL     1     -32.427   8.873   4.822  1.00 20.00     0.039 C 
HETATM    2  C7  UNL     1     -32.498   7.532   4.103  1.00 20.00     0.117 C 
ENDROOT
BRANCH   2   3
HETATM    3  C5  UNL     1     -32.332   7.696   2.589  1.00 20.00     0.031 C 
BRANCH   3   4
HETATM    4  C4  UNL     1     -32.706   9.105   2.118  1.00 20.00    -0.002 C 
HETATM    5  C1  UNL     1     -32.678   9.210   0.601  1.00 20.00     0.005 C 
ENDBRANCH   3   4
ENDBRANCH   2   3
BRANCH   2   6
HETATM    6  O8  UNL     1     -33.753   6.923   4.395  1.00 20.00    -0.387 OA
BRANCH   6   7
HETATM    7  C6  UNL     1     -34.016   6.922   5.791  1.00 20.00     0.163 C 
HETATM    8  C2  UNL     1     -34.603   5.583   6.181  1.00 20.00     0.033 C 
ENDBRANCH   6   7
ENDBRANCH   2   6
TORSDOF 4
ENDMDL
MODEL 8
REMARK VINA RESULT:      -3.5      1.269      3.633
REMARK  4 active torsions:
REMARK  status: ('A' for Active; 'I' for Inactive)
REMARK    1  A    between atoms: C4_4  and  C5_5 
REMARK    2  A    between atoms: C5_5  and  C7_7 
REMARK    3  A    between atoms: C6_6  and  O8_8 
REMARK    4  A    between atoms: C7_7  and  O8_8 
ROOT
HETATM    1  C3  UNL     1     -32.906   4.728   2.845  1.00 20.00     0.039 C 
HETATM    2  C7  UNL     1     -33.388   6.168   2.951  1.00 20.00     0.117 C 
ENDROOT
BRANCH   2   3
HETATM    3  C5  UNL     1     -32.222   7.136   3.175  1.00 20.00     0.031 C 
BRANCH   3   4
HETATM    4  C4  UNL     1     -32.702   8.532   3.586  1.00 20.00    -0.002 C 
HETATM    5  C1  UNL     1     -32.371   8.827   5.041  1.00 20.00     0.005 C 
ENDBRANCH   3   4
ENDBRANCH   2   3
BRANCH   2   6
HETATM    6  O8  UNL     1     -34.316   6.261   4.030  1.00 20.00    -0.387 OA
BRANCH   6   7
HETATM    7  C6  UNL     1     -34.436   5.025   4.717  1.00 20.00     0.163 C 
HETATM    8  C2  UNL     1     -34.527   5.293   6.204  1.00 20.00     0.033 C 
ENDBRANCH   6   7
ENDBRANCH   2   6
TORSDOF 4
ENDMDL
MODEL 9
REMARK VINA RESULT:      -3.3      9.000      9.881
REMARK  4 active torsions:
REMARK  status: ('A' for Active; 'I' for Inactive)
REMARK    1  A    between atoms: C4_4  and  C5_5 
REMARK    2  A    between atoms: C5_5  and  C7_7 
REMARK    3  A    between atoms: C6_6  and  O8_8 
REMARK    4  A    between atoms: C7_7  and  O8_8 
ROOT
HETATM    1  C3  UNL     1     -42.484  12.598   7.019  1.00 20.00     0.039 C 
HETATM    2  C7  UNL     1     -41.265  13.430   6.644  1.00 20.00     0.117 C 
ENDROOT
BRANCH   2   3
HETATM    3  C5  UNL     1     -40.693  13.006   5.287  1.00 20.00     0.031 C 
BRANCH   3   4
HETATM    4  C4  UNL     1     -39.536  12.013   5.435  1.00 20.00    -0.002 C 
HETATM    5  C1  UNL     1     -38.945  11.644   4.083  1.00 20.00     0.005 C 
ENDBRANCH   3   4
ENDBRANCH   2   3
BRANCH   2   6
HETATM    6  O8  UNL     1     -40.278  13.278   7.661  1.00 20.00    -0.387 OA
BRANCH   6   7
HETATM    7  C6  UNL     1     -40.346  14.331   8.610  1.00 20.00     0.163 C 
HETATM    8  C2  UNL     1     -40.398  15.654   7.877  1.00 20.00     0.033 C 
ENDBRANCH   6   7
ENDBRANCH   2   6
TORSDOF 4
ENDMDL
