MODEL 1
REMARK VINA RESULT:      -2.7      0.000      0.000
REMARK  4 active torsions:
REMARK  status: ('A' for Active; 'I' for Inactive)
REMARK    1  A    between atoms: C1_1  and  C3_3 
REMARK    2  A    between atoms: C1_1  and  S4_4 
REMARK    3  A    between atoms: C2_2  and  C3_3 
REMARK    4  A    between atoms: C3_3  and  S5_5 
ROOT
HETATM    1  C3  UNL     1     -33.995   7.142   4.725  1.00 20.00     0.067 C 
ENDROOT
BRANCH   1   2
HETATM    2  C1  UNL     1     -34.228   5.871   3.888  1.00 20.00     0.086 C 
BRANCH   2   3
HETATM    3  S4  UNL     1     -32.874   5.409   2.761  1.00 20.00    -0.181 SA
HETATM    4  H12 UNL     1     -33.557   5.629   1.630  1.00 20.00     0.101 HD
ENDBRANCH   2   3
ENDBRANCH   1   2
BRANCH   1   5
HETATM    5  C2  UNL     1     -33.906   6.942   6.241  1.00 20.00     0.130 C 
HETATM    6 CL6  UNL     1     -34.346   5.280   6.717  1.00 20.00    -0.129 Cl
ENDBRANCH   1   5
BRANCH   1   7
HETATM    7  S5  UNL     1     -32.481   8.015   4.168  1.00 20.00    -0.176 SA
HETATM    8  H13 UNL     1     -31.628   7.172   4.760  1.00 20.00     0.102 HD
ENDBRANCH   1   7
TORSDOF 4
ENDMDL
MODEL 2
REMARK VINA RESULT:      -2.6      2.602      2.893
REMARK  4 active torsions:
REMARK  status: ('A' for Active; 'I' for Inactive)
REMARK    1  A    between atoms: C1_1  and  C3_3 
REMARK    2  A    between atoms: C1_1  and  S4_4 
REMARK    3  A    between atoms: C2_2  and  C3_3 
REMARK    4  A    between atoms: C3_3  and  S5_5 
ROOT
HETATM    1  C3  UNL     1     -32.910   7.114   4.426  1.00 20.00     0.067 C 
ENDROOT
BRANCH   1   2
HETATM    2  C1  UNL     1     -34.362   6.818   4.843  1.00 20.00     0.086 C 
BRANCH   2   3
HETATM    3  S4  UNL     1     -34.573   5.514   6.097  1.00 20.00    -0.181 SA
HETATM    4  H12 UNL     1     -35.823   5.857   6.440  1.00 20.00     0.101 HD
ENDBRANCH   2   3
ENDBRANCH   1   2
BRANCH   1   5
HETATM    5  C2  UNL     1     -32.551   6.802   2.970  1.00 20.00     0.130 C 
HETATM    6 CL6  UNL     1     -32.891   5.101   2.554  1.00 20.00    -0.129 Cl
ENDBRANCH   1   5
BRANCH   1   7
HETATM    7  S5  UNL     1     -32.484   8.865   4.765  1.00 20.00    -0.176 SA
HETATM    8  H13 UNL     1     -33.035   9.345   3.645  1.00 20.00     0.102 HD
ENDBRANCH   1   7
TORSDOF 4
ENDMDL
MODEL 3
REMARK VINA RESULT:      -2.6      2.571      3.096
REMARK  4 active torsions:
REMARK  status: ('A' for Active; 'I' for Inactive)
REMARK    1  A    between atoms: C1_1  and  C3_3 
REMARK    2  A    between atoms: C1_1  and  S4_4 
REMARK    3  A    between atoms: C2_2  and  C3_3 
REMARK    4  A    between atoms: C3_3  and  S5_5 
ROOT
HETATM    1  C3  UNL     1     -34.002   6.708   4.460  1.00 20.00     0.067 C 
ENDROOT
BRANCH   1   2
HETATM    2  C1  UNL     1     -32.802   7.510   3.926  1.00 20.00     0.086 C 
BRANCH   2   3
HETATM    3  S4  UNL     1     -32.327   8.968   4.909  1.00 20.00    -0.181 SA
HETATM    4  H12 UNL     1     -31.122   8.504   5.266  1.00 20.00     0.101 HD
ENDBRANCH   2   3
ENDBRANCH   1   2
BRANCH   1   5
HETATM    5  C2  UNL     1     -34.081   5.243   4.021  1.00 20.00     0.130 C 
HETATM    6 CL6  UNL     1     -33.003   4.906   2.641  1.00 20.00    -0.129 Cl
ENDBRANCH   1   5
BRANCH   1   7
HETATM    7  S5  UNL     1     -34.054   6.766   6.293  1.00 20.00    -0.176 SA
HETATM    8  H13 UNL     1     -34.966   5.796   6.421  1.00 20.00     0.102 HD
ENDBRANCH   1   7
TORSDOF 4
ENDMDL
MODEL 4
REMARK VINA RESULT:      -2.4      2.731      3.202
REMARK  4 active torsions:
REMARK  status: ('A' for Active; 'I' for Inactive)
REMARK    1  A    between atoms: C1_1  and  C3_3 
REMARK    2  A    between atoms: C1_1  and  S4_4 
REMARK    3  A    between atoms: C2_2  and  C3_3 
REMARK    4  A    between atoms: C3_3  and  S5_5 
ROOT
HETATM    1  C3  UNL     1     -33.577   7.066   4.170  1.00 20.00     0.067 C 
ENDROOT
BRANCH   1   2
HETATM    2  C1  UNL     1     -33.917   6.970   5.668  1.00 20.00     0.086 C 
BRANCH   2   3
HETATM    3  S4  UNL     1     -34.595   5.373   6.222  1.00 20.00    -0.181 SA
HETATM    4  H12 UNL     1     -34.575   5.664   7.530  1.00 20.00     0.101 HD
ENDBRANCH   2   3
ENDBRANCH   1   2
BRANCH   1   5
HETATM    5  C2  UNL     1     -32.323   7.872   3.815  1.00 20.00     0.130 C 
HETATM    6 CL6  UNL     1     -32.085   9.248   4.923  1.00 20.00    -0.129 Cl
ENDBRANCH   1   5
BRANCH   1   7
HETATM    7  S5  UNL     1     -33.417   5.393   3.434  1.00 20.00    -0.176 SA
HETATM    8  H13 UNL     1     -33.831   5.755   2.215  1.00 20.00     0.102 HD
ENDBRANCH   1   7
TORSDOF 4
ENDMDL
MODEL 5
REMARK VINA RESULT:      -2.3      1.102      2.405
REMARK  4 active torsions:
REMARK  status: ('A' for Active; 'I' for Inactive)
REMARK    1  A    between atoms: C1_1  and  C3_3 
REMARK    2  A    between atoms: C1_1  and  S4_4 
REMARK    3  A    between atoms: C2_2  and  C3_3 
REMARK    4  A    between atoms: C3_3  and  S5_5 
ROOT
HETATM    1  C3  UNL     1     -33.582   6.334   4.318  1.00 20.00     0.067 C 
ENDROOT
BRANCH   1   2
HETATM    2  C1  UNL     1     -33.665   7.857   4.111  1.00 20.00     0.086 C 
BRANCH   2   3
HETATM    3  S4  UNL     1     -32.254   8.818   4.748  1.00 20.00    -0.181 SA
HETATM    4  H12 UNL     1     -32.869  10.008   4.700  1.00 20.00     0.101 HD
ENDBRANCH   2   3
ENDBRANCH   1   2
BRANCH   1   5
HETATM    5  C2  UNL     1     -34.865   5.649   4.797  1.00 20.00     0.130 C 
HETATM    6 CL6  UNL     1     -34.817   5.299   6.545  1.00 20.00    -0.129 Cl
ENDBRANCH   1   5
BRANCH   1   7
HETATM    7  S5  UNL     1     -33.020   5.502   2.783  1.00 20.00    -0.176 SA
HETATM    8  H13 UNL     1     -32.388   4.503   3.408  1.00 20.00     0.102 HD
ENDBRANCH   1   7
TORSDOF 4
ENDMDL
MODEL 6
REMARK VINA RESULT:      -2.3     16.359     16.649
REMARK  4 active torsions:
REMARK  status: ('A' for Active; 'I' for Inactive)
REMARK    1  A    between atoms: C1_1  and  C3_3 
REMARK    2  A    between atoms: C1_1  and  S4_4 
REMARK    3  A    between atoms: C2_2  and  C3_3 
REMARK    4  A    between atoms: C3_3  and  S5_5 
ROOT
HETATM    1  C3  UNL     1     -22.945  18.310  10.225  1.00 20.00     0.067 C 
ENDROOT
BRANCH   1   2
HETATM    2  C1  UNL     1     -23.169  17.750  11.641  1.00 20.00     0.086 C 
BRANCH   2   3
HETATM    3  S4  UNL     1     -24.427  16.440  11.782  1.00 20.00    -0.181 SA
HETATM    4  H12 UNL     1     -25.433  17.254  12.126  1.00 20.00     0.101 HD
ENDBRANCH   2   3
ENDBRANCH   1   2
BRANCH   1   5
HETATM    5  C2  UNL     1     -22.333  17.341   9.208  1.00 20.00     0.130 C 
HETATM    6 CL6  UNL     1     -21.793  18.184   7.733  1.00 20.00    -0.129 Cl
ENDBRANCH   1   5
BRANCH   1   7
HETATM    7  S5  UNL     1     -24.513  18.962   9.531  1.00 20.00    -0.176 SA
HETATM    8  H13 UNL     1     -24.231  20.246   9.776  1.00 20.00     0.102 HD
ENDBRANCH   1   7
TORSDOF 4
ENDMDL
MODEL 7
REMARK VINA RESULT:      -2.3      3.054      3.328
REMARK  4 active torsions:
REMARK  status: ('A' for Active; 'I' for Inactive)
REMARK    1  A    between atoms: C1_1  and  C3_3 
REMARK    2  A    between atoms: C1_1  and  S4_4 
REMARK    3  A    between atoms: C2_2  and  C3_3 
REMARK    4  A    between atoms: C3_3  and  S5_5 
ROOT
HETATM    1  C3  UNL     1     -32.962   6.849   4.268  1.00 20.00     0.067 C 
ENDROOT
BRANCH   1   2
HETATM    2  C1  UNL     1     -34.403   6.620   4.756  1.00 20.00     0.086 C 
BRANCH   2   3
HETATM    3  S4  UNL     1     -34.586   5.499   6.181  1.00 20.00    -0.181 SA
HETATM    4  H12 UNL     1     -33.484   4.780   5.929  1.00 20.00     0.101 HD
ENDBRANCH   2   3
ENDBRANCH   1   2
BRANCH   1   5
HETATM    5  C2  UNL     1     -32.670   6.448   2.819  1.00 20.00     0.130 C 
HETATM    6 CL6  UNL     1     -32.153   7.843   1.837  1.00 20.00    -0.129 Cl
ENDBRANCH   1   5
BRANCH   1   7
HETATM    7  S5  UNL     1     -32.474   8.603   4.492  1.00 20.00    -0.176 SA
HETATM    8  H13 UNL     1     -31.289   8.330   5.050  1.00 20.00     0.102 HD
ENDBRANCH   1   7
TORSDOF 4
ENDMDL
MODEL 8
REMARK VINA RESULT:      -2.3     13.110     13.323
REMARK  4 active torsions:
REMARK  status: ('A' for Active; 'I' for Inactive)
REMARK    1  A    between atoms: C1_1  and  C3_3 
REMARK    2  A    between atoms: C1_1  and  S4_4 
REMARK    3  A    between atoms: C2_2  and  C3_3 
REMARK    4  A    between atoms: C3_3  and  S5_5 
ROOT
HETATM    1  C3  UNL     1     -32.487  18.881  -0.731  1.00 20.00     0.067 C 
ENDROOT
BRANCH   1   2
HETATM    2  C1  UNL     1     -31.104  18.517  -0.162  1.00 20.00     0.086 C 
BRANCH   2   3
HETATM    3  S4  UNL     1     -30.979  18.495   1.655  1.00 20.00    -0.181 SA
HETATM    4  H12 UNL     1     -31.941  17.581   1.845  1.00 20.00     0.101 HD
ENDBRANCH   2   3
ENDBRANCH   1   2
BRANCH   1   5
HETATM    5  C2  UNL     1     -32.795  18.359  -2.137  1.00 20.00     0.130 C 
HETATM    6 CL6  UNL     1     -33.466  16.707  -2.097  1.00 20.00    -0.129 Cl
ENDBRANCH   1   5
BRANCH   1   7
HETATM    7  S5  UNL     1     -33.820  18.322   0.399  1.00 20.00    -0.176 SA
HETATM    8  H13 UNL     1     -34.392  17.497  -0.485  1.00 20.00     0.102 HD
ENDBRANCH   1   7
TORSDOF 4
ENDMDL
MODEL 9
REMARK VINA RESULT:      -2.2     13.439     13.736
REMARK  4 active torsions:
REMARK  status: ('A' for Active; 'I' for Inactive)
REMARK    1  A    between atoms: C1_1  and  C3_3 
REMARK    2  A    between atoms: C1_1  and  S4_4 
REMARK    3  A    between atoms: C2_2  and  C3_3 
REMARK    4  A    between atoms: C3_3  and  S5_5 
ROOT
HETATM    1  C3  UNL     1     -34.397  15.841  -4.808  1.00 20.00     0.067 C 
ENDROOT
BRANCH   1   2
HETATM    2  C1  UNL     1     -34.256  15.191  -6.195  1.00 20.00     0.086 C 
BRANCH   2   3
HETATM    3  S4  UNL     1     -35.693  15.368  -7.300  1.00 20.00    -0.181 SA
HETATM    4  H12 UNL     1     -36.532  14.643  -6.548  1.00 20.00     0.101 HD
ENDBRANCH   2   3
ENDBRANCH   1   2
BRANCH   1   5
HETATM    5  C2  UNL     1     -33.235  15.614  -3.836  1.00 20.00     0.130 C 
HETATM    6 CL6  UNL     1     -33.426  16.566  -2.341  1.00 20.00    -0.129 Cl
ENDBRANCH   1   5
BRANCH   1   7
HETATM    7  S5  UNL     1     -34.675  17.648  -4.964  1.00 20.00    -0.176 SA
HETATM    8  H13 UNL     1     -35.967  17.604  -4.620  1.00 20.00     0.102 HD
ENDBRANCH   1   7
TORSDOF 4
ENDMDL
