MODEL 1
REMARK VINA RESULT:      -4.2      0.000      0.000
REMARK  2 active torsions:
REMARK  status: ('A' for Active; 'I' for Inactive)
REMARK    1  A    between atoms: C1_1  and  C4_4 
REMARK    2  A    between atoms: C4_4  and  C5_5 
ROOT
HETATM    1  C1  UNL     1     -33.049   7.391   5.324  1.00 20.00     0.244 A 
HETATM    2  C3  UNL     1     -32.186   7.867   3.107  1.00 20.00     0.147 C 
HETATM    3  N6  UNL     1     -33.249   8.108   4.075  1.00 20.00    -0.168 NA
HETATM    4  O7  UNL     1     -32.582   8.736   5.200  1.00 20.00    -0.279 OA
ENDROOT
BRANCH   1   5
HETATM    5  C4  UNL     1     -34.189   7.213   6.258  1.00 20.00     0.051 C 
BRANCH   5   6
HETATM    6  C5  UNL     1     -34.572   5.742   6.402  1.00 20.00    -0.001 C 
HETATM    7  C2  UNL     1     -34.694   5.063   5.047  1.00 20.00     0.005 C 
ENDBRANCH   5   6
ENDBRANCH   1   5
TORSDOF 2
ENDMDL
MODEL 2
REMARK VINA RESULT:      -3.8      1.644      3.325
REMARK  2 active torsions:
REMARK  status: ('A' for Active; 'I' for Inactive)
REMARK    1  A    between atoms: C1_1  and  C4_4 
REMARK    2  A    between atoms: C4_4  and  C5_5 
ROOT
HETATM    1  C1  UNL     1     -33.884   7.421   5.367  1.00 20.00     0.244 A 
HETATM    2  C3  UNL     1     -34.636   5.227   6.080  1.00 20.00     0.147 C 
HETATM    3  N6  UNL     1     -33.634   6.276   6.227  1.00 20.00    -0.168 NA
HETATM    4  O7  UNL     1     -34.377   7.425   6.709  1.00 20.00    -0.279 OA
ENDROOT
BRANCH   1   5
HETATM    5  C4  UNL     1     -32.792   8.393   5.104  1.00 20.00     0.051 C 
BRANCH   5   6
HETATM    6  C5  UNL     1     -32.526   8.545   3.608  1.00 20.00    -0.001 C 
HETATM    7  C2  UNL     1     -32.232   7.204   2.955  1.00 20.00     0.005 C 
ENDBRANCH   5   6
ENDBRANCH   1   5
TORSDOF 2
ENDMDL
MODEL 3
REMARK VINA RESULT:      -3.7      1.483      3.158
REMARK  2 active torsions:
REMARK  status: ('A' for Active; 'I' for Inactive)
REMARK    1  A    between atoms: C1_1  and  C4_4 
REMARK    2  A    between atoms: C4_4  and  C5_5 
ROOT
HETATM    1  C1  UNL     1     -33.652   7.434   4.793  1.00 20.00     0.244 A 
HETATM    2  C3  UNL     1     -34.581   5.947   6.471  1.00 20.00     0.147 C 
HETATM    3  N6  UNL     1     -33.490   6.846   6.113  1.00 20.00    -0.168 NA
HETATM    4  O7  UNL     1     -34.123   8.140   5.944  1.00 20.00    -0.279 OA
ENDROOT
BRANCH   1   5
HETATM    5  C4  UNL     1     -32.484   8.056   4.120  1.00 20.00     0.051 C 
BRANCH   5   6
HETATM    6  C5  UNL     1     -32.153   7.349   2.807  1.00 20.00    -0.001 C 
HETATM    7  C2  UNL     1     -32.749   5.951   2.761  1.00 20.00     0.005 C 
ENDBRANCH   5   6
ENDBRANCH   1   5
TORSDOF 2
ENDMDL
MODEL 4
REMARK VINA RESULT:      -3.6      1.503      1.945
REMARK  2 active torsions:
REMARK  status: ('A' for Active; 'I' for Inactive)
REMARK    1  A    between atoms: C1_1  and  C4_4 
REMARK    2  A    between atoms: C4_4  and  C5_5 
ROOT
HETATM    1  C1  UNL     1     -33.479   7.169   3.980  1.00 20.00     0.244 A 
HETATM    2  C3  UNL     1     -32.306   9.109   4.843  1.00 20.00     0.147 C 
HETATM    3  N6  UNL     1     -32.215   7.706   4.457  1.00 20.00    -0.168 NA
HETATM    4  O7  UNL     1     -32.537   7.696   3.042  1.00 20.00    -0.279 OA
ENDROOT
BRANCH   1   5
HETATM    5  C4  UNL     1     -33.669   5.698   3.907  1.00 20.00     0.051 C 
BRANCH   5   6
HETATM    6  C5  UNL     1     -34.830   5.239   4.788  1.00 20.00    -0.001 C 
HETATM    7  C2  UNL     1     -34.606   5.617   6.244  1.00 20.00     0.005 C 
ENDBRANCH   5   6
ENDBRANCH   1   5
TORSDOF 2
ENDMDL
MODEL 5
REMARK VINA RESULT:      -3.6      1.998      2.477
REMARK  2 active torsions:
REMARK  status: ('A' for Active; 'I' for Inactive)
REMARK    1  A    between atoms: C1_1  and  C4_4 
REMARK    2  A    between atoms: C4_4  and  C5_5 
ROOT
HETATM    1  C1  UNL     1     -33.903   5.840   3.732  1.00 20.00     0.244 A 
HETATM    2  C3  UNL     1     -32.363   7.438   2.752  1.00 20.00     0.147 C 
HETATM    3  N6  UNL     1     -32.514   6.173   3.459  1.00 20.00    -0.168 NA
HETATM    4  O7  UNL     1     -33.275   5.335   2.551  1.00 20.00    -0.279 OA
ENDROOT
BRANCH   1   5
HETATM    5  C4  UNL     1     -34.223   4.810   4.752  1.00 20.00     0.051 C 
BRANCH   5   6
HETATM    6  C5  UNL     1     -34.822   5.436   6.011  1.00 20.00    -0.001 C 
HETATM    7  C2  UNL     1     -34.138   6.747   6.360  1.00 20.00     0.005 C 
ENDBRANCH   5   6
ENDBRANCH   1   5
TORSDOF 2
ENDMDL
MODEL 6
REMARK VINA RESULT:      -3.6      2.142      3.369
REMARK  2 active torsions:
REMARK  status: ('A' for Active; 'I' for Inactive)
REMARK    1  A    between atoms: C1_1  and  C4_4 
REMARK    2  A    between atoms: C4_4  and  C5_5 
ROOT
HETATM    1  C1  UNL     1     -34.032   6.673   4.693  1.00 20.00     0.244 A 
HETATM    2  C3  UNL     1     -34.153   4.253   4.575  1.00 20.00     0.147 C 
HETATM    3  N6  UNL     1     -34.290   5.437   5.414  1.00 20.00    -0.168 NA
HETATM    4  O7  UNL     1     -35.373   6.190   4.808  1.00 20.00    -0.279 OA
ENDROOT
BRANCH   1   5
HETATM    5  C4  UNL     1     -33.756   7.920   5.451  1.00 20.00     0.051 C 
BRANCH   5   6
HETATM    6  C5  UNL     1     -32.543   8.659   4.889  1.00 20.00    -0.001 C 
HETATM    7  C2  UNL     1     -32.036   8.008   3.612  1.00 20.00     0.005 C 
ENDBRANCH   5   6
ENDBRANCH   1   5
TORSDOF 2
ENDMDL
MODEL 7
REMARK VINA RESULT:      -3.5      2.504      3.009
REMARK  2 active torsions:
REMARK  status: ('A' for Active; 'I' for Inactive)
REMARK    1  A    between atoms: C1_1  and  C4_4 
REMARK    2  A    between atoms: C4_4  and  C5_5 
ROOT
HETATM    1  C1  UNL     1     -34.440   5.568   4.687  1.00 20.00     0.244 A 
HETATM    2  C3  UNL     1     -33.189   5.167   2.647  1.00 20.00     0.147 C 
HETATM    3  N6  UNL     1     -33.248   4.985   4.092  1.00 20.00    -0.168 NA
HETATM    4  O7  UNL     1     -34.440   4.188   4.311  1.00 20.00    -0.279 OA
ENDROOT
BRANCH   1   5
HETATM    5  C4  UNL     1     -34.484   5.812   6.151  1.00 20.00     0.051 C 
BRANCH   5   6
HETATM    6  C5  UNL     1     -34.198   7.275   6.483  1.00 20.00    -0.001 C 
HETATM    7  C2  UNL     1     -33.538   7.993   5.316  1.00 20.00     0.005 C 
ENDBRANCH   5   6
ENDBRANCH   1   5
TORSDOF 2
ENDMDL
MODEL 8
REMARK VINA RESULT:      -3.5      2.493      4.003
REMARK  2 active torsions:
REMARK  status: ('A' for Active; 'I' for Inactive)
REMARK    1  A    between atoms: C1_1  and  C4_4 
REMARK    2  A    between atoms: C4_4  and  C5_5 
ROOT
HETATM    1  C1  UNL     1     -33.467   5.407   4.207  1.00 20.00     0.244 A 
HETATM    2  C3  UNL     1     -34.864   5.515   6.188  1.00 20.00     0.147 C 
HETATM    3  N6  UNL     1     -34.822   5.473   4.732  1.00 20.00    -0.168 NA
HETATM    4  O7  UNL     1     -34.201   4.199   4.421  1.00 20.00    -0.279 OA
ENDROOT
BRANCH   1   5
HETATM    5  C4  UNL     1     -33.216   5.736   2.781  1.00 20.00     0.051 C 
BRANCH   5   6
HETATM    6  C5  UNL     1     -32.257   6.916   2.639  1.00 20.00    -0.001 C 
HETATM    7  C2  UNL     1     -32.416   7.904   3.783  1.00 20.00     0.005 C 
ENDBRANCH   5   6
ENDBRANCH   1   5
TORSDOF 2
ENDMDL
MODEL 9
REMARK VINA RESULT:      -3.4      8.904      9.622
REMARK  2 active torsions:
REMARK  status: ('A' for Active; 'I' for Inactive)
REMARK    1  A    between atoms: C1_1  and  C4_4 
REMARK    2  A    between atoms: C4_4  and  C5_5 
ROOT
HETATM    1  C1  UNL     1     -40.686  13.352   6.731  1.00 20.00     0.244 A 
HETATM    2  C3  UNL     1     -42.030  14.621   8.303  1.00 20.00     0.147 C 
HETATM    3  N6  UNL     1     -41.542  13.306   7.905  1.00 20.00    -0.168 NA
HETATM    4  O7  UNL     1     -40.100  13.397   8.034  1.00 20.00    -0.279 OA
ENDROOT
BRANCH   1   5
HETATM    5  C4  UNL     1     -40.415  12.106   5.971  1.00 20.00     0.051 C 
BRANCH   5   6
HETATM    6  C5  UNL     1     -38.982  12.072   5.444  1.00 20.00    -0.001 C 
HETATM    7  C2  UNL     1     -38.938  11.672   3.978  1.00 20.00     0.005 C 
ENDBRANCH   5   6
ENDBRANCH   1   5
TORSDOF 2
ENDMDL
