MODEL 1
REMARK VINA RESULT:      -3.7      0.000      0.000
REMARK  2 active torsions:
REMARK  status: ('A' for Active; 'I' for Inactive)
REMARK    1  A    between atoms: C5_5  and  O12_12 
REMARK    2  A    between atoms: C11_11  and  O12_12 
ROOT
HETATM    1  C1  UNL     1     -39.727  13.306   6.887  1.00 20.00     0.036 C 
HETATM    2  C2  UNL     1     -41.178  13.560   4.834  1.00 20.00     0.013 C 
HETATM    3  C3  UNL     1     -41.494  15.125   6.808  1.00 20.00     0.040 C 
HETATM    4  C4  UNL     1     -40.434  12.567   5.741  1.00 20.00    -0.015 C 
HETATM    5  C5  UNL     1     -40.688  14.175   7.697  1.00 20.00     0.122 C 
HETATM    6  C6  UNL     1     -42.184  14.456   5.592  1.00 20.00    -0.045 C 
HETATM    7  C7  UNL     1     -39.423  11.757   4.928  1.00 20.00     0.010 C 
HETATM    8  C8  UNL     1     -42.678  15.564   4.639  1.00 20.00     0.015 C 
HETATM    9  C9  UNL     1     -43.417  13.638   6.023  1.00 20.00     0.015 C 
ENDROOT
BRANCH   5  10
HETATM   10  O12 UNL     1     -41.572  13.358   8.456  1.00 20.00    -0.386 OA
BRANCH  10  11
HETATM   11  C11 UNL     1     -42.002  14.014   9.640  1.00 20.00     0.163 C 
HETATM   12  C10 UNL     1     -40.791  14.390  10.464  1.00 20.00     0.033 C 
ENDBRANCH  10  11
ENDBRANCH   5  10
TORSDOF 2
ENDMDL
MODEL 2
REMARK VINA RESULT:      -3.6     12.285     13.919
REMARK  2 active torsions:
REMARK  status: ('A' for Active; 'I' for Inactive)
REMARK    1  A    between atoms: C5_5  and  O12_12 
REMARK    2  A    between atoms: C11_11  and  O12_12 
ROOT
HETATM    1  C1  UNL     1     -34.834  16.794  -4.346  1.00 20.00     0.036 C 
HETATM    2  C2  UNL     1     -33.335  16.635  -2.319  1.00 20.00     0.013 C 
HETATM    3  C3  UNL     1     -35.044  18.505  -2.484  1.00 20.00     0.040 C 
HETATM    4  C4  UNL     1     -33.440  16.407  -3.836  1.00 20.00    -0.015 C 
HETATM    5  C5  UNL     1     -35.209  18.231  -3.981  1.00 20.00     0.122 C 
HETATM    6  C6  UNL     1     -33.679  18.079  -1.886  1.00 20.00    -0.045 C 
HETATM    7  C7  UNL     1     -33.135  14.947  -4.177  1.00 20.00     0.010 C 
HETATM    8  C8  UNL     1     -33.784  18.124  -0.348  1.00 20.00     0.015 C 
HETATM    9  C9  UNL     1     -32.555  19.049  -2.298  1.00 20.00     0.015 C 
ENDROOT
BRANCH   5  10
HETATM   10  O12 UNL     1     -34.422  19.151  -4.730  1.00 20.00    -0.386 OA
BRANCH  10  11
HETATM   11  C11 UNL     1     -34.884  19.263  -6.068  1.00 20.00     0.163 C 
HETATM   12  C10 UNL     1     -33.700  19.185  -7.007  1.00 20.00     0.033 C 
ENDBRANCH  10  11
ENDBRANCH   5  10
TORSDOF 2
ENDMDL
MODEL 3
REMARK VINA RESULT:      -3.5     11.957     13.178
REMARK  2 active torsions:
REMARK  status: ('A' for Active; 'I' for Inactive)
REMARK    1  A    between atoms: C5_5  and  O12_12 
REMARK    2  A    between atoms: C11_11  and  O12_12 
ROOT
HETATM    1  C1  UNL     1     -33.019  16.362  -3.072  1.00 20.00     0.036 C 
HETATM    2  C2  UNL     1     -34.362  16.704  -5.184  1.00 20.00     0.013 C 
HETATM    3  C3  UNL     1     -33.373  18.706  -3.976  1.00 20.00     0.040 C 
HETATM    4  C4  UNL     1     -34.201  15.857  -3.912  1.00 20.00    -0.015 C 
HETATM    5  C5  UNL     1     -33.140  17.847  -2.731  1.00 20.00     0.122 C 
HETATM    6  C6  UNL     1     -34.513  18.217  -4.905  1.00 20.00    -0.045 C 
HETATM    7  C7  UNL     1     -34.006  14.384  -4.273  1.00 20.00     0.010 C 
HETATM    8  C8  UNL     1     -34.416  18.980  -6.242  1.00 20.00     0.015 C 
HETATM    9  C9  UNL     1     -35.900  18.519  -4.304  1.00 20.00     0.015 C 
ENDROOT
BRANCH   5  10
HETATM   10  O12 UNL     1     -34.195  18.053  -1.798  1.00 20.00    -0.386 OA
BRANCH  10  11
HETATM   11  C11 UNL     1     -33.761  17.830  -0.464  1.00 20.00     0.163 C 
HETATM   12  C10 UNL     1     -32.480  18.599  -0.226  1.00 20.00     0.033 C 
ENDBRANCH  10  11
ENDBRANCH   5  10
TORSDOF 2
ENDMDL
MODEL 4
REMARK VINA RESULT:      -3.4      1.712      3.745
REMARK  2 active torsions:
REMARK  status: ('A' for Active; 'I' for Inactive)
REMARK    1  A    between atoms: C5_5  and  O12_12 
REMARK    2  A    between atoms: C11_11  and  O12_12 
ROOT
HETATM    1  C1  UNL     1     -42.281  12.506   6.699  1.00 20.00     0.036 C 
HETATM    2  C2  UNL     1     -43.001  14.679   7.767  1.00 20.00     0.013 C 
HETATM    3  C3  UNL     1     -41.850  14.703   5.504  1.00 20.00     0.040 C 
HETATM    4  C4  UNL     1     -42.467  13.260   8.022  1.00 20.00    -0.015 C 
HETATM    5  C5  UNL     1     -41.381  13.262   5.721  1.00 20.00     0.122 C 
HETATM    6  C6  UNL     1     -42.120  15.506   6.802  1.00 20.00    -0.045 C 
HETATM    7  C7  UNL     1     -43.418  12.492   8.943  1.00 20.00     0.010 C 
HETATM    8  C8  UNL     1     -42.873  16.799   6.428  1.00 20.00     0.015 C 
HETATM    9  C9  UNL     1     -40.806  15.923   7.491  1.00 20.00     0.015 C 
ENDROOT
BRANCH   5  10
HETATM   10  O12 UNL     1     -40.035  13.257   6.185  1.00 20.00    -0.386 OA
BRANCH  10  11
HETATM   11  C11 UNL     1     -39.415  11.998   5.969  1.00 20.00     0.163 C 
HETATM   12  C10 UNL     1     -39.309  11.748   4.481  1.00 20.00     0.033 C 
ENDBRANCH  10  11
ENDBRANCH   5  10
TORSDOF 2
ENDMDL
MODEL 5
REMARK VINA RESULT:      -3.3      1.546      3.781
REMARK  2 active torsions:
REMARK  status: ('A' for Active; 'I' for Inactive)
REMARK    1  A    between atoms: C5_5  and  O12_12 
REMARK    2  A    between atoms: C11_11  and  O12_12 
ROOT
HETATM    1  C1  UNL     1     -41.992  12.823   6.478  1.00 20.00     0.036 C 
HETATM    2  C2  UNL     1     -40.034  13.732   7.789  1.00 20.00     0.013 C 
HETATM    3  C3  UNL     1     -42.378  14.581   8.267  1.00 20.00     0.040 C 
HETATM    4  C4  UNL     1     -40.505  13.198   6.427  1.00 20.00    -0.015 C 
HETATM    5  C5  UNL     1     -42.869  13.984   6.946  1.00 20.00     0.122 C 
HETATM    6  C6  UNL     1     -40.867  14.925   8.308  1.00 20.00    -0.045 C 
HETATM    7  C7  UNL     1     -39.666  11.990   6.008  1.00 20.00     0.010 C 
HETATM    8  C8  UNL     1     -40.470  15.210   9.771  1.00 20.00     0.015 C 
HETATM    9  C9  UNL     1     -40.556  16.196   7.493  1.00 20.00     0.015 C 
ENDROOT
BRANCH   5  10
HETATM   10  O12 UNL     1     -42.919  14.998   5.947  1.00 20.00    -0.386 OA
BRANCH  10  11
HETATM   11  C11 UNL     1     -43.411  14.492   4.715  1.00 20.00     0.163 C 
HETATM   12  C10 UNL     1     -42.499  14.943   3.596  1.00 20.00     0.033 C 
ENDBRANCH  10  11
ENDBRANCH   5  10
TORSDOF 2
ENDMDL
MODEL 6
REMARK VINA RESULT:      -3.1      1.641      3.594
REMARK  2 active torsions:
REMARK  status: ('A' for Active; 'I' for Inactive)
REMARK    1  A    between atoms: C5_5  and  O12_12 
REMARK    2  A    between atoms: C11_11  and  O12_12 
ROOT
HETATM    1  C1  UNL     1     -41.288  13.632   4.451  1.00 20.00     0.036 C 
HETATM    2  C2  UNL     1     -41.308  12.146   6.493  1.00 20.00     0.013 C 
HETATM    3  C3  UNL     1     -43.282  13.670   6.020  1.00 20.00     0.040 C 
HETATM    4  C4  UNL     1     -40.433  12.987   5.550  1.00 20.00    -0.015 C 
HETATM    5  C5  UNL     1     -42.437  14.464   5.022  1.00 20.00     0.122 C 
HETATM    6  C6  UNL     1     -42.476  12.938   7.123  1.00 20.00    -0.045 C 
HETATM    7  C7  UNL     1     -39.335  12.122   4.929  1.00 20.00     0.010 C 
HETATM    8  C8  UNL     1     -43.417  11.947   7.840  1.00 20.00     0.015 C 
HETATM    9  C9  UNL     1     -41.951  13.922   8.186  1.00 20.00     0.015 C 
ENDROOT
BRANCH   5  10
HETATM   10  O12 UNL     1     -41.931  15.640   5.645  1.00 20.00    -0.386 OA
BRANCH  10  11
HETATM   11  C11 UNL     1     -42.879  16.697   5.610  1.00 20.00     0.163 C 
HETATM   12  C10 UNL     1     -43.008  17.198   4.189  1.00 20.00     0.033 C 
ENDBRANCH  10  11
ENDBRANCH   5  10
TORSDOF 2
ENDMDL
MODEL 7
REMARK VINA RESULT:      -3.1      1.490      4.385
REMARK  2 active torsions:
REMARK  status: ('A' for Active; 'I' for Inactive)
REMARK    1  A    between atoms: C5_5  and  O12_12 
REMARK    2  A    between atoms: C11_11  and  O12_12 
ROOT
HETATM    1  C1  UNL     1     -41.336  15.364   6.850  1.00 20.00     0.036 C 
HETATM    2  C2  UNL     1     -42.218  16.182   9.071  1.00 20.00     0.013 C 
HETATM    3  C3  UNL     1     -40.171  14.681   8.998  1.00 20.00     0.040 C 
HETATM    4  C4  UNL     1     -42.592  15.740   7.648  1.00 20.00    -0.015 C 
HETATM    5  C5  UNL     1     -40.498  14.297   7.553  1.00 20.00     0.122 C 
HETATM    6  C6  UNL     1     -41.387  15.134   9.846  1.00 20.00    -0.045 C 
HETATM    7  C7  UNL     1     -43.365  16.848   6.932  1.00 20.00     0.010 C 
HETATM    8  C8  UNL     1     -40.864  15.778  11.147  1.00 20.00     0.015 C 
HETATM    9  C9  UNL     1     -42.270  13.937  10.250  1.00 20.00     0.015 C 
ENDROOT
BRANCH   5  10
HETATM   10  O12 UNL     1     -41.174  13.044   7.528  1.00 20.00    -0.386 OA
BRANCH  10  11
HETATM   11  C11 UNL     1     -41.136  12.458   6.235  1.00 20.00     0.163 C 
HETATM   12  C10 UNL     1     -39.729  11.981   5.951  1.00 20.00     0.033 C 
ENDBRANCH  10  11
ENDBRANCH   5  10
TORSDOF 2
ENDMDL
MODEL 8
REMARK VINA RESULT:      -3.0     12.608     13.879
REMARK  2 active torsions:
REMARK  status: ('A' for Active; 'I' for Inactive)
REMARK    1  A    between atoms: C5_5  and  O12_12 
REMARK    2  A    between atoms: C11_11  and  O12_12 
ROOT
HETATM    1  C1  UNL     1     -34.680  18.140  -3.874  1.00 20.00     0.036 C 
HETATM    2  C2  UNL     1     -33.662  15.930  -4.551  1.00 20.00     0.013 C 
HETATM    3  C3  UNL     1     -35.137  17.196  -6.185  1.00 20.00     0.040 C 
HETATM    4  C4  UNL     1     -34.245  16.750  -3.390  1.00 20.00    -0.015 C 
HETATM    5  C5  UNL     1     -35.663  18.068  -5.042  1.00 20.00     0.122 C 
HETATM    6  C6  UNL     1     -34.620  15.799  -5.757  1.00 20.00    -0.045 C 
HETATM    7  C7  UNL     1     -33.221  16.877  -2.261  1.00 20.00     0.010 C 
HETATM    8  C8  UNL     1     -33.847  15.181  -6.940  1.00 20.00     0.015 C 
HETATM    9  C9  UNL     1     -35.784  14.845  -5.422  1.00 20.00     0.015 C 
ENDROOT
BRANCH   5  10
HETATM   10  O12 UNL     1     -36.921  17.571  -4.597  1.00 20.00    -0.386 OA
BRANCH  10  11
HETATM   11  C11 UNL     1     -37.960  17.888  -5.512  1.00 20.00     0.163 C 
HETATM   12  C10 UNL     1     -38.991  16.781  -5.490  1.00 20.00     0.033 C 
ENDBRANCH  10  11
ENDBRANCH   5  10
TORSDOF 2
ENDMDL
MODEL 9
REMARK VINA RESULT:      -2.9      1.716      4.425
REMARK  2 active torsions:
REMARK  status: ('A' for Active; 'I' for Inactive)
REMARK    1  A    between atoms: C5_5  and  O12_12 
REMARK    2  A    between atoms: C11_11  and  O12_12 
ROOT
HETATM    1  C1  UNL     1     -41.817  13.853  10.388  1.00 20.00     0.036 C 
HETATM    2  C2  UNL     1     -40.960  16.217  10.152  1.00 20.00     0.013 C 
HETATM    3  C3  UNL     1     -42.626  15.302   8.469  1.00 20.00     0.040 C 
HETATM    4  C4  UNL     1     -40.614  14.784  10.587  1.00 20.00    -0.015 C 
HETATM    5  C5  UNL     1     -42.341  13.878   8.952  1.00 20.00     0.122 C 
HETATM    6  C6  UNL     1     -41.475  16.314   8.697  1.00 20.00    -0.045 C 
HETATM    7  C7  UNL     1     -40.163  14.766  12.049  1.00 20.00     0.010 C 
HETATM    8  C8  UNL     1     -42.019  17.737   8.457  1.00 20.00     0.015 C 
HETATM    9  C9  UNL     1     -40.321  16.090   7.700  1.00 20.00     0.015 C 
ENDROOT
BRANCH   5  10
HETATM   10  O12 UNL     1     -41.411  13.248   8.078  1.00 20.00    -0.386 OA
BRANCH  10  11
HETATM   11  C11 UNL     1     -42.018  12.886   6.846  1.00 20.00     0.163 C 
HETATM   12  C10 UNL     1     -40.969  12.904   5.755  1.00 20.00     0.033 C 
ENDBRANCH  10  11
ENDBRANCH   5  10
TORSDOF 2
ENDMDL
