MODEL 1
REMARK VINA RESULT:      -4.4      0.000      0.000
REMARK  0 active torsions:
REMARK  status: ('A' for Active; 'I' for Inactive)
ROOT
HETATM    1  C1  UNL     1     -32.542  18.890  -2.305  1.00 20.00     0.095 C 
HETATM    2  C2  UNL     1     -34.195  15.430  -6.601  1.00 20.00     0.095 C 
HETATM    3  C3  UNL     1     -33.495  19.076  -4.525  1.00 20.00    -0.007 C 
HETATM    4  C4  UNL     1     -33.412  15.243  -4.317  1.00 20.00    -0.007 C 
HETATM    5  C5  UNL     1     -33.372  18.434  -3.359  1.00 20.00     0.024 C 
HETATM    6  C6  UNL     1     -34.104  15.885  -5.264  1.00 20.00     0.024 C 
HETATM    7  C7  UNL     1     -34.477  18.417  -5.434  1.00 20.00     0.039 C 
HETATM    8  C8  UNL     1     -33.532  15.902  -2.983  1.00 20.00     0.039 C 
HETATM    9  C9  UNL     1     -34.258  17.222  -3.282  1.00 20.00     0.042 C 
HETATM   10  C10 UNL     1     -34.814  17.097  -4.725  1.00 20.00     0.042 C 
HETATM   11  N11 UNL     1     -31.862  19.263  -1.443  1.00 20.00    -0.192 NA
HETATM   12  N12 UNL     1     -34.270  15.057  -7.698  1.00 20.00    -0.192 NA
ENDROOT
TORSDOF 0
ENDMDL
MODEL 2
REMARK VINA RESULT:      -4.4      1.585      4.619
REMARK  0 active torsions:
REMARK  status: ('A' for Active; 'I' for Inactive)
ROOT
HETATM    1  C1  UNL     1     -35.680  15.346  -5.920  1.00 20.00     0.095 C 
HETATM    2  C2  UNL     1     -34.277  18.458  -1.283  1.00 20.00     0.095 C 
HETATM    3  C3  UNL     1     -36.315  17.437  -4.874  1.00 20.00    -0.007 C 
HETATM    4  C4  UNL     1     -33.522  16.461  -2.427  1.00 20.00    -0.007 C 
HETATM    5  C5  UNL     1     -35.392  16.521  -5.185  1.00 20.00     0.024 C 
HETATM    6  C6  UNL     1     -34.044  17.692  -2.451  1.00 20.00     0.024 C 
HETATM    7  C7  UNL     1     -35.734  18.605  -4.150  1.00 20.00     0.039 C 
HETATM    8  C8  UNL     1     -33.325  15.904  -3.798  1.00 20.00     0.039 C 
HETATM    9  C9  UNL     1     -34.019  16.919  -4.717  1.00 20.00     0.042 C 
HETATM   10  C10 UNL     1     -34.290  18.178  -3.853  1.00 20.00     0.042 C 
HETATM   11  N11 UNL     1     -35.916  14.383  -6.522  1.00 20.00    -0.192 NA
HETATM   12  N12 UNL     1     -34.468  19.086  -0.326  1.00 20.00    -0.192 NA
ENDROOT
TORSDOF 0
ENDMDL
MODEL 3
REMARK VINA RESULT:      -4.3      1.544      2.470
REMARK  0 active torsions:
REMARK  status: ('A' for Active; 'I' for Inactive)
ROOT
HETATM    1  C1  UNL     1     -34.194  18.245  -1.336  1.00 20.00     0.095 C 
HETATM    2  C2  UNL     1     -35.741  15.336  -6.059  1.00 20.00     0.095 C 
HETATM    3  C3  UNL     1     -33.502  16.276  -2.567  1.00 20.00    -0.007 C 
HETATM    4  C4  UNL     1     -36.314  17.399  -4.927  1.00 20.00    -0.007 C 
HETATM    5  C5  UNL     1     -33.997  17.517  -2.535  1.00 20.00     0.024 C 
HETATM    6  C6  UNL     1     -35.415  16.477  -5.286  1.00 20.00     0.024 C 
HETATM    7  C7  UNL     1     -33.339  15.766  -3.959  1.00 20.00     0.039 C 
HETATM    8  C8  UNL     1     -35.696  18.527  -4.170  1.00 20.00     0.039 C 
HETATM    9  C9  UNL     1     -34.256  18.060  -3.914  1.00 20.00     0.042 C 
HETATM   10  C10 UNL     1     -34.026  16.828  -4.828  1.00 20.00     0.042 C 
HETATM   11  N11 UNL     1     -34.357  18.841  -0.354  1.00 20.00    -0.192 NA
HETATM   12  N12 UNL     1     -36.008  14.401  -6.692  1.00 20.00    -0.192 NA
ENDROOT
TORSDOF 0
ENDMDL
MODEL 4
REMARK VINA RESULT:      -4.1      1.689      4.433
REMARK  0 active torsions:
REMARK  status: ('A' for Active; 'I' for Inactive)
ROOT
HETATM    1  C1  UNL     1     -36.866  16.533  -5.560  1.00 20.00     0.095 C 
HETATM    2  C2  UNL     1     -32.814  17.785  -1.665  1.00 20.00     0.095 C 
HETATM    3  C3  UNL     1     -36.165  18.417  -4.207  1.00 20.00    -0.007 C 
HETATM    4  C4  UNL     1     -33.406  15.966  -3.149  1.00 20.00    -0.007 C 
HETATM    5  C5  UNL     1     -35.879  17.324  -4.921  1.00 20.00     0.024 C 
HETATM    6  C6  UNL     1     -33.333  17.273  -2.878  1.00 20.00     0.024 C 
HETATM    7  C7  UNL     1     -34.940  19.097  -3.696  1.00 20.00     0.039 C 
HETATM    8  C8  UNL     1     -33.935  15.700  -4.519  1.00 20.00     0.039 C 
HETATM    9  C9  UNL     1     -34.399  17.078  -5.014  1.00 20.00     0.042 C 
HETATM   10  C10 UNL     1     -33.804  18.119  -4.029  1.00 20.00     0.042 C 
HETATM   11  N11 UNL     1     -37.674  15.885  -6.082  1.00 20.00    -0.192 NA
HETATM   12  N12 UNL     1     -32.389  18.206  -0.670  1.00 20.00    -0.192 NA
ENDROOT
TORSDOF 0
ENDMDL
MODEL 5
REMARK VINA RESULT:      -3.9     11.373     12.985
REMARK  0 active torsions:
REMARK  status: ('A' for Active; 'I' for Inactive)
ROOT
HETATM    1  C1  UNL     1     -34.432   6.179   5.843  1.00 20.00     0.095 C 
HETATM    2  C2  UNL     1     -32.521   8.745   1.056  1.00 20.00     0.095 C 
HETATM    3  C3  UNL     1     -33.838   5.579   3.572  1.00 20.00    -0.007 C 
HETATM    4  C4  UNL     1     -32.944   9.307   3.373  1.00 20.00    -0.007 C 
HETATM    5  C5  UNL     1     -33.653   6.321   4.669  1.00 20.00     0.024 C 
HETATM    6  C6  UNL     1     -32.555   8.436   2.437  1.00 20.00     0.024 C 
HETATM    7  C7  UNL     1     -32.843   5.888   2.504  1.00 20.00     0.039 C 
HETATM    8  C8  UNL     1     -32.827   8.747   4.752  1.00 20.00     0.039 C 
HETATM    9  C9  UNL     1     -32.492   7.266   4.526  1.00 20.00     0.042 C 
HETATM   10  C10 UNL     1     -32.106   7.129   3.029  1.00 20.00     0.042 C 
HETATM   11  N11 UNL     1     -35.071   6.063   6.805  1.00 20.00    -0.192 NA
HETATM   12  N12 UNL     1     -32.493   8.999  -0.076  1.00 20.00    -0.192 NA
ENDROOT
TORSDOF 0
ENDMDL
MODEL 6
REMARK VINA RESULT:      -3.9     11.349     13.068
REMARK  0 active torsions:
REMARK  status: ('A' for Active; 'I' for Inactive)
ROOT
HETATM    1  C1  UNL     1     -32.551   8.819   1.085  1.00 20.00     0.095 C 
HETATM    2  C2  UNL     1     -34.428   6.200   5.857  1.00 20.00     0.095 C 
HETATM    3  C3  UNL     1     -32.972   9.359   3.409  1.00 20.00    -0.007 C 
HETATM    4  C4  UNL     1     -33.836   5.622   3.581  1.00 20.00    -0.007 C 
HETATM    5  C5  UNL     1     -32.579   8.499   2.465  1.00 20.00     0.024 C 
HETATM    6  C6  UNL     1     -33.653   6.357   4.682  1.00 20.00     0.024 C 
HETATM    7  C7  UNL     1     -32.846   8.790   4.782  1.00 20.00     0.039 C 
HETATM    8  C8  UNL     1     -32.847   5.948   2.512  1.00 20.00     0.039 C 
HETATM    9  C9  UNL     1     -32.117   7.190   3.045  1.00 20.00     0.042 C 
HETATM   10  C10 UNL     1     -32.500   7.313   4.543  1.00 20.00     0.042 C 
HETATM   11  N11 UNL     1     -32.529   9.082  -0.045  1.00 20.00    -0.192 NA
HETATM   12  N12 UNL     1     -35.063   6.071   6.820  1.00 20.00    -0.192 NA
ENDROOT
TORSDOF 0
ENDMDL
MODEL 7
REMARK VINA RESULT:      -3.9     11.708     13.427
REMARK  0 active torsions:
REMARK  status: ('A' for Active; 'I' for Inactive)
ROOT
HETATM    1  C1  UNL     1     -39.129  11.968   3.300  1.00 20.00     0.095 C 
HETATM    2  C2  UNL     1     -40.323  14.741   8.202  1.00 20.00     0.095 C 
HETATM    3  C3  UNL     1     -38.332  12.042   5.586  1.00 20.00    -0.007 C 
HETATM    4  C4  UNL     1     -41.230  14.532   5.966  1.00 20.00    -0.007 C 
HETATM    5  C5  UNL     1     -39.326  12.112   4.695  1.00 20.00     0.024 C 
HETATM    6  C6  UNL     1     -40.605  14.007   7.025  1.00 20.00     0.024 C 
HETATM    7  C7  UNL     1     -38.821  12.164   6.990  1.00 20.00     0.039 C 
HETATM    8  C8  UNL     1     -41.456  13.527   4.886  1.00 20.00     0.039 C 
HETATM    9  C9  UNL     1     -40.666  12.295   5.352  1.00 20.00     0.042 C 
HETATM   10  C10 UNL     1     -40.301  12.546   6.838  1.00 20.00     0.042 C 
HETATM   11  N11 UNL     1     -38.967  11.851   2.157  1.00 20.00    -0.192 NA
HETATM   12  N12 UNL     1     -40.093  15.343   9.168  1.00 20.00    -0.192 NA
ENDROOT
TORSDOF 0
ENDMDL
MODEL 8
REMARK VINA RESULT:      -3.9     11.713     12.683
REMARK  0 active torsions:
REMARK  status: ('A' for Active; 'I' for Inactive)
ROOT
HETATM    1  C1  UNL     1     -40.362  14.799   8.180  1.00 20.00     0.095 C 
HETATM    2  C2  UNL     1     -39.169  11.983   3.302  1.00 20.00     0.095 C 
HETATM    3  C3  UNL     1     -41.233  14.618   5.927  1.00 20.00    -0.007 C 
HETATM    4  C4  UNL     1     -38.414  12.032   5.602  1.00 20.00    -0.007 C 
HETATM    5  C5  UNL     1     -40.646  14.074   6.998  1.00 20.00     0.024 C 
HETATM    6  C6  UNL     1     -39.388  12.135   4.692  1.00 20.00     0.024 C 
HETATM    7  C7  UNL     1     -41.472  13.621   4.844  1.00 20.00     0.039 C 
HETATM    8  C8  UNL     1     -38.925  12.173   6.997  1.00 20.00     0.039 C 
HETATM    9  C9  UNL     1     -40.388  12.603   6.817  1.00 20.00     0.042 C 
HETATM   10  C10 UNL     1     -40.733  12.364   5.324  1.00 20.00     0.042 C 
HETATM   11  N11 UNL     1     -40.128  15.394   9.149  1.00 20.00    -0.192 NA
HETATM   12  N12 UNL     1     -38.990  11.859   2.162  1.00 20.00    -0.192 NA
ENDROOT
TORSDOF 0
ENDMDL
MODEL 9
REMARK VINA RESULT:      -3.7     24.699     26.013
REMARK  0 active torsions:
REMARK  status: ('A' for Active; 'I' for Inactive)
ROOT
HETATM    1  C1  UNL     1     -24.679  -2.918  11.152  1.00 20.00     0.095 C 
HETATM    2  C2  UNL     1     -30.404  -2.404  11.477  1.00 20.00     0.095 C 
HETATM    3  C3  UNL     1     -26.633  -4.350  11.202  1.00 20.00    -0.007 C 
HETATM    4  C4  UNL     1     -28.463  -0.976  11.246  1.00 20.00    -0.007 C 
HETATM    5  C5  UNL     1     -26.028  -3.214  10.840  1.00 20.00     0.024 C 
HETATM    6  C6  UNL     1     -29.102  -2.124  11.000  1.00 20.00     0.024 C 
HETATM    7  C7  UNL     1     -28.032  -4.435  10.693  1.00 20.00     0.039 C 
HETATM    8  C8  UNL     1     -27.131  -0.913  10.576  1.00 20.00     0.039 C 
HETATM    9  C9  UNL     1     -26.927  -2.330  10.019  1.00 20.00     0.042 C 
HETATM   10  C10 UNL     1     -28.303  -3.039  10.113  1.00 20.00     0.042 C 
HETATM   11  N11 UNL     1     -23.574  -2.676  11.408  1.00 20.00    -0.192 NA
HETATM   12  N12 UNL     1     -31.473  -2.634  11.869  1.00 20.00    -0.192 NA
ENDROOT
TORSDOF 0
ENDMDL
