MODEL 1
REMARK VINA RESULT:      -5.4      0.000      0.000
REMARK  2 active torsions:
REMARK  status: ('A' for Active; 'I' for Inactive)
REMARK    1  A    between atoms: C2_2  and  C3_3 
REMARK    2  A    between atoms: C3_3  and  O10_10 
ROOT
HETATM    1  C1  UNL     1     -33.576   7.153   4.929  1.00 20.00    -0.074 C 
HETATM    2  C2  UNL     1     -32.820   8.143   4.440  1.00 20.00     0.085 C 
HETATM    3  C4  UNL     1     -34.002   7.035   6.364  1.00 20.00     0.034 C 
HETATM    4  C5  UNL     1     -34.111   6.008   4.117  1.00 20.00     0.034 C 
HETATM    5  C6  UNL     1     -34.554   5.616   6.443  1.00 20.00     0.005 C 
HETATM    6  C7  UNL     1     -35.131   5.371   5.055  1.00 20.00     0.005 C 
ENDROOT
BRANCH   2   7
HETATM    7  C3  UNL     1     -32.460   8.159   3.008  1.00 20.00     0.282 C 
HETATM    8  O9  UNL     1     -31.928   7.241   2.402  1.00 20.00    -0.260 OA
BRANCH   7   9
HETATM    9  O10 UNL     1     -32.829   9.367   2.505  1.00 20.00    -0.323 OA
HETATM   10  C8  UNL     1     -32.795   9.475   1.077  1.00 20.00     0.213 C 
ENDBRANCH   7   9
ENDBRANCH   2   7
TORSDOF 2
ENDMDL
MODEL 2
REMARK VINA RESULT:      -4.7      1.035      1.701
REMARK  2 active torsions:
REMARK  status: ('A' for Active; 'I' for Inactive)
REMARK    1  A    between atoms: C2_2  and  C3_3 
REMARK    2  A    between atoms: C3_3  and  O10_10 
ROOT
HETATM    1  C1  UNL     1     -33.573   6.582   4.361  1.00 20.00    -0.074 C 
HETATM    2  C2  UNL     1     -32.853   7.200   3.418  1.00 20.00     0.085 C 
HETATM    3  C4  UNL     1     -34.029   5.152   4.286  1.00 20.00     0.034 C 
HETATM    4  C5  UNL     1     -34.039   7.224   5.636  1.00 20.00     0.034 C 
HETATM    5  C6  UNL     1     -35.043   5.055   5.420  1.00 20.00     0.005 C 
HETATM    6  C7  UNL     1     -34.521   6.036   6.462  1.00 20.00     0.005 C 
ENDROOT
BRANCH   2   7
HETATM    7  C3  UNL     1     -32.461   8.612   3.596  1.00 20.00     0.282 C 
HETATM    8  O9  UNL     1     -32.040   9.105   4.631  1.00 20.00    -0.260 OA
BRANCH   7   9
HETATM    9  O10 UNL     1     -32.652   9.245   2.407  1.00 20.00    -0.323 OA
HETATM   10  C8  UNL     1     -32.309   8.485   1.243  1.00 20.00     0.213 C 
ENDBRANCH   7   9
ENDBRANCH   2   7
TORSDOF 2
ENDMDL
MODEL 3
REMARK VINA RESULT:      -4.3     11.362     12.097
REMARK  2 active torsions:
REMARK  status: ('A' for Active; 'I' for Inactive)
REMARK    1  A    between atoms: C2_2  and  C3_3 
REMARK    2  A    between atoms: C3_3  and  O10_10 
ROOT
HETATM    1  C1  UNL     1     -33.217  17.923  -0.892  1.00 20.00    -0.074 C 
HETATM    2  C2  UNL     1     -33.937  17.419  -1.899  1.00 20.00     0.085 C 
HETATM    3  C4  UNL     1     -33.726  18.117   0.508  1.00 20.00     0.034 C 
HETATM    4  C5  UNL     1     -31.788  18.374  -1.006  1.00 20.00     0.034 C 
HETATM    5  C6  UNL     1     -32.649  18.985   1.149  1.00 20.00     0.005 C 
HETATM    6  C7  UNL     1     -31.368  18.553   0.448  1.00 20.00     0.005 C 
ENDROOT
BRANCH   2   7
HETATM    7  C3  UNL     1     -33.333  17.273  -3.239  1.00 20.00     0.282 C 
HETATM    8  O9  UNL     1     -33.235  18.162  -4.071  1.00 20.00    -0.260 OA
BRANCH   7   9
HETATM    9  O10 UNL     1     -32.915  15.985  -3.363  1.00 20.00    -0.323 OA
HETATM   10  C8  UNL     1     -33.747  15.142  -4.167  1.00 20.00     0.213 C 
ENDBRANCH   7   9
ENDBRANCH   2   7
TORSDOF 2
ENDMDL
MODEL 4
REMARK VINA RESULT:      -4.2     11.821     12.846
REMARK  2 active torsions:
REMARK  status: ('A' for Active; 'I' for Inactive)
REMARK    1  A    between atoms: C2_2  and  C3_3 
REMARK    2  A    between atoms: C3_3  and  O10_10 
ROOT
HETATM    1  C1  UNL     1     -33.028  18.272  -2.708  1.00 20.00    -0.074 C 
HETATM    2  C2  UNL     1     -32.455  19.262  -2.014  1.00 20.00     0.085 C 
HETATM    3  C4  UNL     1     -33.653  18.433  -4.065  1.00 20.00     0.034 C 
HETATM    4  C5  UNL     1     -33.136  16.850  -2.236  1.00 20.00     0.034 C 
HETATM    5  C6  UNL     1     -34.410  17.123  -4.252  1.00 20.00     0.005 C 
HETATM    6  C7  UNL     1     -33.569  16.104  -3.493  1.00 20.00     0.005 C 
ENDROOT
BRANCH   2   7
HETATM    7  C3  UNL     1     -31.871  18.989  -0.685  1.00 20.00     0.282 C 
HETATM    8  O9  UNL     1     -30.712  18.664  -0.474  1.00 20.00    -0.260 OA
BRANCH   7   9
HETATM    9  O10 UNL     1     -32.852  19.168   0.240  1.00 20.00    -0.323 OA
HETATM   10  C8  UNL     1     -32.416  19.185   1.604  1.00 20.00     0.213 C 
ENDBRANCH   7   9
ENDBRANCH   2   7
TORSDOF 2
ENDMDL
MODEL 5
REMARK VINA RESULT:      -4.0     11.785     12.899
REMARK  2 active torsions:
REMARK  status: ('A' for Active; 'I' for Inactive)
REMARK    1  A    between atoms: C2_2  and  C3_3 
REMARK    2  A    between atoms: C3_3  and  O10_10 
ROOT
HETATM    1  C1  UNL     1     -33.993  16.099  -4.059  1.00 20.00    -0.074 C 
HETATM    2  C2  UNL     1     -34.191  14.906  -4.629  1.00 20.00     0.085 C 
HETATM    3  C4  UNL     1     -33.294  16.313  -2.747  1.00 20.00     0.034 C 
HETATM    4  C5  UNL     1     -34.441  17.409  -4.643  1.00 20.00     0.034 C 
HETATM    5  C6  UNL     1     -33.612  17.767  -2.420  1.00 20.00     0.005 C 
HETATM    6  C7  UNL     1     -33.710  18.435  -3.785  1.00 20.00     0.005 C 
ENDROOT
BRANCH   2   7
HETATM    7  C3  UNL     1     -34.894  14.814  -5.924  1.00 20.00     0.282 C 
HETATM    8  O9  UNL     1     -36.101  14.702  -6.069  1.00 20.00    -0.260 OA
BRANCH   7   9
HETATM    9  O10 UNL     1     -33.955  14.877  -6.907  1.00 20.00    -0.323 OA
HETATM   10  C8  UNL     1     -34.188  15.864  -7.918  1.00 20.00     0.213 C 
ENDBRANCH   7   9
ENDBRANCH   2   7
TORSDOF 2
ENDMDL
MODEL 6
REMARK VINA RESULT:      -4.0     11.595     12.594
REMARK  2 active torsions:
REMARK  status: ('A' for Active; 'I' for Inactive)
REMARK    1  A    between atoms: C2_2  and  C3_3 
REMARK    2  A    between atoms: C3_3  and  O10_10 
ROOT
HETATM    1  C1  UNL     1     -33.676  16.356  -3.466  1.00 20.00    -0.074 C 
HETATM    2  C2  UNL     1     -33.314  16.767  -2.246  1.00 20.00     0.085 C 
HETATM    3  C4  UNL     1     -33.640  14.927  -3.931  1.00 20.00     0.034 C 
HETATM    4  C5  UNL     1     -34.171  17.260  -4.559  1.00 20.00     0.034 C 
HETATM    5  C6  UNL     1     -33.839  15.051  -5.437  1.00 20.00     0.005 C 
HETATM    6  C7  UNL     1     -34.724  16.281  -5.589  1.00 20.00     0.005 C 
ENDROOT
BRANCH   2   7
HETATM    7  C3  UNL     1     -33.389  18.199  -1.897  1.00 20.00     0.282 C 
HETATM    8  O9  UNL     1     -34.417  18.821  -1.676  1.00 20.00    -0.260 OA
BRANCH   7   9
HETATM    9  O10 UNL     1     -32.118  18.682  -1.867  1.00 20.00    -0.323 OA
HETATM   10  C8  UNL     1     -31.485  18.670  -0.583  1.00 20.00     0.213 C 
ENDBRANCH   7   9
ENDBRANCH   2   7
TORSDOF 2
ENDMDL
MODEL 7
REMARK VINA RESULT:      -4.0      9.378     10.210
REMARK  2 active torsions:
REMARK  status: ('A' for Active; 'I' for Inactive)
REMARK    1  A    between atoms: C2_2  and  C3_3 
REMARK    2  A    between atoms: C3_3  and  O10_10 
ROOT
HETATM    1  C1  UNL     1     -40.408  12.953   5.721  1.00 20.00    -0.074 C 
HETATM    2  C2  UNL     1     -41.454  13.626   6.212  1.00 20.00     0.085 C 
HETATM    3  C4  UNL     1     -40.155  12.718   4.259  1.00 20.00     0.034 C 
HETATM    4  C5  UNL     1     -39.327  12.328   6.556  1.00 20.00     0.034 C 
HETATM    5  C6  UNL     1     -39.050  11.668   4.266  1.00 20.00     0.005 C 
HETATM    6  C7  UNL     1     -38.256  11.981   5.528  1.00 20.00     0.005 C 
ENDROOT
BRANCH   2   7
HETATM    7  C3  UNL     1     -41.604  13.796   7.671  1.00 20.00     0.282 C 
HETATM    8  O9  UNL     1     -42.129  12.993   8.427  1.00 20.00    -0.260 OA
BRANCH   7   9
HETATM    9  O10 UNL     1     -41.052  14.994   8.004  1.00 20.00    -0.323 OA
HETATM   10  C8  UNL     1     -40.211  14.983   9.164  1.00 20.00     0.213 C 
ENDBRANCH   7   9
ENDBRANCH   2   7
TORSDOF 2
ENDMDL
MODEL 8
REMARK VINA RESULT:      -4.0     11.357     12.085
REMARK  2 active torsions:
REMARK  status: ('A' for Active; 'I' for Inactive)
REMARK    1  A    between atoms: C2_2  and  C3_3 
REMARK    2  A    between atoms: C3_3  and  O10_10 
ROOT
HETATM    1  C1  UNL     1     -32.731  18.082  -1.312  1.00 20.00    -0.074 C 
HETATM    2  C2  UNL     1     -32.697  17.777  -2.613  1.00 20.00     0.085 C 
HETATM    3  C4  UNL     1     -31.633  18.795  -0.574  1.00 20.00     0.034 C 
HETATM    4  C5  UNL     1     -33.870  17.757  -0.389  1.00 20.00     0.034 C 
HETATM    5  C6  UNL     1     -32.026  18.610   0.888  1.00 20.00     0.005 C 
HETATM    6  C7  UNL     1     -33.548  18.577   0.856  1.00 20.00     0.005 C 
ENDROOT
BRANCH   2   7
HETATM    7  C3  UNL     1     -33.835  17.072  -3.237  1.00 20.00     0.282 C 
HETATM    8  O9  UNL     1     -34.805  17.609  -3.749  1.00 20.00    -0.260 OA
BRANCH   7   9
HETATM    9  O10 UNL     1     -33.598  15.737  -3.134  1.00 20.00    -0.323 OA
HETATM   10  C8  UNL     1     -33.745  14.991  -4.347  1.00 20.00     0.213 C 
ENDBRANCH   7   9
ENDBRANCH   2   7
TORSDOF 2
ENDMDL
MODEL 9
REMARK VINA RESULT:      -3.9     11.759     12.931
REMARK  2 active torsions:
REMARK  status: ('A' for Active; 'I' for Inactive)
REMARK    1  A    between atoms: C2_2  and  C3_3 
REMARK    2  A    between atoms: C3_3  and  O10_10 
ROOT
HETATM    1  C1  UNL     1     -33.797  16.180  -4.084  1.00 20.00    -0.074 C 
HETATM    2  C2  UNL     1     -33.936  15.016  -4.728  1.00 20.00     0.085 C 
HETATM    3  C4  UNL     1     -33.347  16.318  -2.658  1.00 20.00     0.034 C 
HETATM    4  C5  UNL     1     -34.072  17.528  -4.689  1.00 20.00     0.034 C 
HETATM    5  C6  UNL     1     -33.658  17.775  -2.338  1.00 20.00     0.005 C 
HETATM    6  C7  UNL     1     -33.470  18.489  -3.670  1.00 20.00     0.005 C 
ENDROOT
BRANCH   2   7
HETATM    7  C3  UNL     1     -34.388  14.999  -6.134  1.00 20.00     0.282 C 
HETATM    8  O9  UNL     1     -33.657  15.021  -7.112  1.00 20.00    -0.260 OA
BRANCH   7   9
HETATM    9  O10 UNL     1     -35.747  14.953  -6.128  1.00 20.00    -0.323 OA
HETATM   10  C8  UNL     1     -36.397  15.845  -7.041  1.00 20.00     0.213 C 
ENDBRANCH   7   9
ENDBRANCH   2   7
TORSDOF 2
ENDMDL
