MODEL 1
REMARK VINA RESULT:      -4.9      0.000      0.000
REMARK  0 active torsions:
REMARK  status: ('A' for Active; 'I' for Inactive)
ROOT
HETATM    1  C1  UNL     1     -32.872   7.235   3.720  1.00 20.00     0.219 C 
HETATM    2  C2  UNL     1     -33.589   8.280   4.558  1.00 20.00     0.103 C 
HETATM    3  C3  UNL     1     -33.390   8.085   6.057  1.00 20.00     0.009 C 
HETATM    4  C4  UNL     1     -34.297   7.044   6.721  1.00 20.00     0.001 C 
HETATM    5  C5  UNL     1     -33.922   5.593   6.413  1.00 20.00     0.002 C 
HETATM    6  C6  UNL     1     -34.772   4.931   5.327  1.00 20.00     0.020 C 
HETATM    7  C7  UNL     1     -34.853   5.687   4.005  1.00 20.00     0.125 C 
HETATM    8  C8  UNL     1     -32.863   4.992   2.701  1.00 20.00     0.152 C 
HETATM    9  N9  UNL     1     -33.534   6.034   3.470  1.00 20.00    -0.356 N 
HETATM   10  O10 UNL     1     -31.734   7.486   3.310  1.00 20.00    -0.273 OA
ENDROOT
TORSDOF 0
ENDMDL
MODEL 2
REMARK VINA RESULT:      -4.2      1.299      2.952
REMARK  0 active torsions:
REMARK  status: ('A' for Active; 'I' for Inactive)
ROOT
HETATM    1  C1  UNL     1     -32.784   7.801   3.918  1.00 20.00     0.219 C 
HETATM    2  C2  UNL     1     -32.197   6.492   3.415  1.00 20.00     0.103 C 
HETATM    3  C3  UNL     1     -33.248   5.543   2.849  1.00 20.00     0.009 C 
HETATM    4  C4  UNL     1     -34.019   4.711   3.879  1.00 20.00     0.001 C 
HETATM    5  C5  UNL     1     -35.060   5.499   4.676  1.00 20.00     0.002 C 
HETATM    6  C6  UNL     1     -34.608   5.922   6.074  1.00 20.00     0.020 C 
HETATM    7  C7  UNL     1     -33.291   6.689   6.134  1.00 20.00     0.125 C 
HETATM    8  C8  UNL     1     -33.869   9.066   5.733  1.00 20.00     0.152 C 
HETATM    9  N9  UNL     1     -33.263   7.839   5.226  1.00 20.00    -0.356 N 
HETATM   10  O10 UNL     1     -32.825   8.765   3.147  1.00 20.00    -0.273 OA
ENDROOT
TORSDOF 0
ENDMDL
MODEL 3
REMARK VINA RESULT:      -4.1      1.768      3.636
REMARK  0 active torsions:
REMARK  status: ('A' for Active; 'I' for Inactive)
ROOT
HETATM    1  C1  UNL     1     -34.169   5.348   4.426  1.00 20.00     0.219 C 
HETATM    2  C2  UNL     1     -34.008   5.592   2.935  1.00 20.00     0.103 C 
HETATM    3  C3  UNL     1     -32.577   5.937   2.536  1.00 20.00     0.009 C 
HETATM    4  C4  UNL     1     -32.161   7.397   2.741  1.00 20.00     0.001 C 
HETATM    5  C5  UNL     1     -31.920   7.786   4.200  1.00 20.00     0.002 C 
HETATM    6  C6  UNL     1     -33.081   8.531   4.862  1.00 20.00     0.020 C 
HETATM    7  C7  UNL     1     -34.438   7.839   4.778  1.00 20.00     0.125 C 
HETATM    8  C8  UNL     1     -34.519   6.262   6.688  1.00 20.00     0.152 C 
HETATM    9  N9  UNL     1     -34.397   6.452   5.246  1.00 20.00    -0.356 N 
HETATM   10  O10 UNL     1     -34.077   4.191   4.849  1.00 20.00    -0.273 OA
ENDROOT
TORSDOF 0
ENDMDL
MODEL 4
REMARK VINA RESULT:      -3.9     12.459     13.568
REMARK  0 active torsions:
REMARK  status: ('A' for Active; 'I' for Inactive)
ROOT
HETATM    1  C1  UNL     1     -34.142  14.779  -4.477  1.00 20.00     0.219 C 
HETATM    2  C2  UNL     1     -32.965  15.526  -3.875  1.00 20.00     0.103 C 
HETATM    3  C3  UNL     1     -33.380  16.558  -2.832  1.00 20.00     0.009 C 
HETATM    4  C4  UNL     1     -33.855  17.908  -3.382  1.00 20.00     0.001 C 
HETATM    5  C5  UNL     1     -35.250  17.878  -4.010  1.00 20.00     0.002 C 
HETATM    6  C6  UNL     1     -35.261  17.800  -5.537  1.00 20.00     0.020 C 
HETATM    7  C7  UNL     1     -34.449  16.659  -6.142  1.00 20.00     0.125 C 
HETATM    8  C8  UNL     1     -35.949  14.686  -6.150  1.00 20.00     0.152 C 
HETATM    9  N9  UNL     1     -34.790  15.355  -5.568  1.00 20.00    -0.356 N 
HETATM   10  O10 UNL     1     -34.484  13.706  -3.969  1.00 20.00    -0.273 OA
ENDROOT
TORSDOF 0
ENDMDL
MODEL 5
REMARK VINA RESULT:      -3.8      1.838      3.628
REMARK  0 active torsions:
REMARK  status: ('A' for Active; 'I' for Inactive)
ROOT
HETATM    1  C1  UNL     1     -33.894   7.128   5.479  1.00 20.00     0.219 C 
HETATM    2  C2  UNL     1     -34.874   6.182   4.806  1.00 20.00     0.103 C 
HETATM    3  C3  UNL     1     -34.207   4.935   4.235  1.00 20.00     0.009 C 
HETATM    4  C4  UNL     1     -33.546   5.101   2.863  1.00 20.00     0.001 C 
HETATM    5  C5  UNL     1     -32.228   5.878   2.887  1.00 20.00     0.002 C 
HETATM    6  C6  UNL     1     -32.344   7.345   2.469  1.00 20.00     0.020 C 
HETATM    7  C7  UNL     1     -33.387   8.162   3.226  1.00 20.00     0.125 C 
HETATM    8  C8  UNL     1     -32.261   8.963   5.284  1.00 20.00     0.152 C 
HETATM    9  N9  UNL     1     -33.238   8.063   4.680  1.00 20.00    -0.356 N 
HETATM   10  O10 UNL     1     -33.709   7.020   6.695  1.00 20.00    -0.273 OA
ENDROOT
TORSDOF 0
ENDMDL
MODEL 6
REMARK VINA RESULT:      -3.8     12.718     14.030
REMARK  0 active torsions:
REMARK  status: ('A' for Active; 'I' for Inactive)
ROOT
HETATM    1  C1  UNL     1     -35.867  15.689  -5.487  1.00 20.00     0.219 C 
HETATM    2  C2  UNL     1     -34.595  14.898  -5.740  1.00 20.00     0.103 C 
HETATM    3  C3  UNL     1     -33.871  14.502  -4.458  1.00 20.00     0.009 C 
HETATM    4  C4  UNL     1     -32.982  15.582  -3.833  1.00 20.00     0.001 C 
HETATM    5  C5  UNL     1     -33.750  16.705  -3.134  1.00 20.00     0.002 C 
HETATM    6  C6  UNL     1     -33.896  17.987  -3.956  1.00 20.00     0.020 C 
HETATM    7  C7  UNL     1     -34.490  17.808  -5.350  1.00 20.00     0.125 C 
HETATM    8  C8  UNL     1     -36.950  17.861  -5.054  1.00 20.00     0.152 C 
HETATM    9  N9  UNL     1     -35.756  17.071  -5.336  1.00 20.00    -0.356 N 
HETATM   10  O10 UNL     1     -36.938  15.079  -5.411  1.00 20.00    -0.273 OA
ENDROOT
TORSDOF 0
ENDMDL
MODEL 7
REMARK VINA RESULT:      -3.6     12.948     13.970
REMARK  0 active torsions:
REMARK  status: ('A' for Active; 'I' for Inactive)
ROOT
HETATM    1  C1  UNL     1     -34.575  17.597  -5.764  1.00 20.00     0.219 C 
HETATM    2  C2  UNL     1     -34.877  18.015  -4.335  1.00 20.00     0.103 C 
HETATM    3  C3  UNL     1     -33.689  17.839  -3.395  1.00 20.00     0.009 C 
HETATM    4  C4  UNL     1     -33.473  16.423  -2.851  1.00 20.00     0.001 C 
HETATM    5  C5  UNL     1     -32.901  15.436  -3.871  1.00 20.00     0.002 C 
HETATM    6  C6  UNL     1     -33.936  14.509  -4.512  1.00 20.00     0.020 C 
HETATM    7  C7  UNL     1     -35.133  15.206  -5.152  1.00 20.00     0.125 C 
HETATM    8  C8  UNL     1     -34.424  15.806  -7.450  1.00 20.00     0.152 C 
HETATM    9  N9  UNL     1     -34.740  16.253  -6.097  1.00 20.00    -0.356 N 
HETATM   10  O10 UNL     1     -34.184  18.455  -6.561  1.00 20.00    -0.273 OA
ENDROOT
TORSDOF 0
ENDMDL
MODEL 8
REMARK VINA RESULT:      -3.5     12.974     14.248
REMARK  0 active torsions:
REMARK  status: ('A' for Active; 'I' for Inactive)
ROOT
HETATM    1  C1  UNL     1     -35.708  17.237  -4.941  1.00 20.00     0.219 C 
HETATM    2  C2  UNL     1     -34.776  16.260  -5.637  1.00 20.00     0.103 C 
HETATM    3  C3  UNL     1     -34.259  15.163  -4.713  1.00 20.00     0.009 C 
HETATM    4  C4  UNL     1     -33.069  15.545  -3.825  1.00 20.00     0.001 C 
HETATM    5  C5  UNL     1     -33.424  16.461  -2.653  1.00 20.00     0.002 C 
HETATM    6  C6  UNL     1     -33.107  17.940  -2.880  1.00 20.00     0.020 C 
HETATM    7  C7  UNL     1     -33.695  18.550  -4.149  1.00 20.00     0.125 C 
HETATM    8  C8  UNL     1     -35.996  19.258  -3.560  1.00 20.00     0.152 C 
HETATM    9  N9  UNL     1     -35.136  18.319  -4.273  1.00 20.00    -0.356 N 
HETATM   10  O10 UNL     1     -36.924  17.026  -4.983  1.00 20.00    -0.273 OA
ENDROOT
TORSDOF 0
ENDMDL
MODEL 9
REMARK VINA RESULT:      -3.4     13.005     14.272
REMARK  0 active torsions:
REMARK  status: ('A' for Active; 'I' for Inactive)
ROOT
HETATM    1  C1  UNL     1     -33.846  17.957  -4.196  1.00 20.00     0.219 C 
HETATM    2  C2  UNL     1     -33.756  16.831  -3.180  1.00 20.00     0.103 C 
HETATM    3  C3  UNL     1     -33.025  15.603  -3.711  1.00 20.00     0.009 C 
HETATM    4  C4  UNL     1     -33.859  14.651  -4.575  1.00 20.00     0.001 C 
HETATM    5  C5  UNL     1     -34.153  15.171  -5.983  1.00 20.00     0.002 C 
HETATM    6  C6  UNL     1     -35.545  15.778  -6.163  1.00 20.00     0.020 C 
HETATM    7  C7  UNL     1     -35.916  16.875  -5.170  1.00 20.00     0.125 C 
HETATM    8  C8  UNL     1     -35.008  18.980  -6.113  1.00 20.00     0.152 C 
HETATM    9  N9  UNL     1     -34.909  17.937  -5.098  1.00 20.00    -0.356 N 
HETATM   10  O10 UNL     1     -32.972  18.830  -4.190  1.00 20.00    -0.273 OA
ENDROOT
TORSDOF 0
ENDMDL
