MODEL 1
REMARK VINA RESULT:      -4.0      0.000      0.000
REMARK  2 active torsions:
REMARK  status: ('A' for Active; 'I' for Inactive)
REMARK    1  A    between atoms: C4_4  and  C8_8 
REMARK    2  A    between atoms: C8_8  and  N9_9 
ROOT
HETATM    1  C1  UNL     1     -34.515   5.401   6.508  1.00 20.00    -0.003 A 
HETATM    2  C2  UNL     1     -34.044   6.758   6.418  1.00 20.00     0.004 A 
HETATM    3  C3  UNL     1     -34.734   4.919   5.275  1.00 20.00    -0.022 A 
HETATM    4  C4  UNL     1     -33.967   7.121   5.129  1.00 20.00    -0.049 A 
HETATM    5  C5  UNL     1     -34.404   5.974   4.259  1.00 20.00     0.063 A 
ENDROOT
BRANCH   4   6
HETATM    6  C8  UNL     1     -33.532   8.423   4.566  1.00 20.00     0.306 C 
BRANCH   6   7
HETATM    7  N9  UNL     1     -32.739   8.158   3.394  1.00 20.00     0.083 N 
HETATM    8  C6  UNL     1     -31.340   7.879   3.748  1.00 20.00     0.309 C 
HETATM    9  C7  UNL     1     -32.793   9.282   2.447  1.00 20.00     0.309 C 
ENDBRANCH   6   7
ENDBRANCH   4   6
TORSDOF 2
ENDMDL
MODEL 2
REMARK VINA RESULT:      -4.0      0.783      1.479
REMARK  2 active torsions:
REMARK  status: ('A' for Active; 'I' for Inactive)
REMARK    1  A    between atoms: C4_4  and  C8_8 
REMARK    2  A    between atoms: C8_8  and  N9_9 
ROOT
HETATM    1  C1  UNL     1     -34.491   4.603   5.055  1.00 20.00    -0.003 A 
HETATM    2  C2  UNL     1     -34.274   5.735   4.191  1.00 20.00     0.004 A 
HETATM    3  C3  UNL     1     -34.521   5.012   6.331  1.00 20.00    -0.022 A 
HETATM    4  C4  UNL     1     -34.171   6.850   4.931  1.00 20.00    -0.049 A 
HETATM    5  C5  UNL     1     -34.320   6.499   6.387  1.00 20.00     0.063 A 
ENDROOT
BRANCH   4   6
HETATM    6  C8  UNL     1     -33.948   8.241   4.469  1.00 20.00     0.306 C 
BRANCH   6   7
HETATM    7  N9  UNL     1     -32.572   8.359   4.063  1.00 20.00     0.083 N 
HETATM    8  C6  UNL     1     -31.836   9.289   4.932  1.00 20.00     0.309 C 
HETATM    9  C7  UNL     1     -32.464   8.802   2.665  1.00 20.00     0.309 C 
ENDBRANCH   6   7
ENDBRANCH   4   6
TORSDOF 2
ENDMDL
MODEL 3
REMARK VINA RESULT:      -3.7      1.765      3.708
REMARK  2 active torsions:
REMARK  status: ('A' for Active; 'I' for Inactive)
REMARK    1  A    between atoms: C4_4  and  C8_8 
REMARK    2  A    between atoms: C8_8  and  N9_9 
ROOT
HETATM    1  C1  UNL     1     -32.397   8.682   4.872  1.00 20.00    -0.003 A 
HETATM    2  C2  UNL     1     -33.657   8.119   5.281  1.00 20.00     0.004 A 
HETATM    3  C3  UNL     1     -31.931   8.013   3.807  1.00 20.00    -0.022 A 
HETATM    4  C4  UNL     1     -33.977   7.100   4.468  1.00 20.00    -0.049 A 
HETATM    5  C5  UNL     1     -32.898   6.926   3.435  1.00 20.00     0.063 A 
ENDROOT
BRANCH   4   6
HETATM    6  C8  UNL     1     -35.180   6.233   4.512  1.00 20.00     0.306 C 
BRANCH   6   7
HETATM    7  N9  UNL     1     -34.830   5.021   5.205  1.00 20.00     0.083 N 
HETATM    8  C6  UNL     1     -34.265   5.308   6.532  1.00 20.00     0.309 C 
HETATM    9  C7  UNL     1     -33.875   4.218   4.427  1.00 20.00     0.309 C 
ENDBRANCH   6   7
ENDBRANCH   4   6
TORSDOF 2
ENDMDL
MODEL 4
REMARK VINA RESULT:      -3.5     12.162     12.763
REMARK  2 active torsions:
REMARK  status: ('A' for Active; 'I' for Inactive)
REMARK    1  A    between atoms: C4_4  and  C8_8 
REMARK    2  A    between atoms: C8_8  and  N9_9 
ROOT
HETATM    1  C1  UNL     1     -32.092  18.814   1.601  1.00 20.00    -0.003 A 
HETATM    2  C2  UNL     1     -33.284  18.513   0.851  1.00 20.00     0.004 A 
HETATM    3  C3  UNL     1     -31.033  18.815   0.780  1.00 20.00    -0.022 A 
HETATM    4  C4  UNL     1     -32.965  18.329  -0.440  1.00 20.00    -0.049 A 
HETATM    5  C5  UNL     1     -31.482  18.504  -0.619  1.00 20.00     0.063 A 
ENDROOT
BRANCH   4   6
HETATM    6  C8  UNL     1     -33.868  18.003  -1.571  1.00 20.00     0.306 C 
BRANCH   6   7
HETATM    7  N9  UNL     1     -33.053  17.652  -2.703  1.00 20.00     0.083 N 
HETATM    8  C6  UNL     1     -33.293  18.558  -3.836  1.00 20.00     0.309 C 
HETATM    9  C7  UNL     1     -33.292  16.264  -3.125  1.00 20.00     0.309 C 
ENDBRANCH   6   7
ENDBRANCH   4   6
TORSDOF 2
ENDMDL
MODEL 5
REMARK VINA RESULT:      -3.4      8.931      9.795
REMARK  2 active torsions:
REMARK  status: ('A' for Active; 'I' for Inactive)
REMARK    1  A    between atoms: C4_4  and  C8_8 
REMARK    2  A    between atoms: C8_8  and  N9_9 
ROOT
HETATM    1  C1  UNL     1     -38.642  11.862   5.255  1.00 20.00    -0.003 A 
HETATM    2  C2  UNL     1     -39.108  12.343   6.530  1.00 20.00     0.004 A 
HETATM    3  C3  UNL     1     -39.527  12.187   4.302  1.00 20.00    -0.022 A 
HETATM    4  C4  UNL     1     -40.283  12.971   6.368  1.00 20.00    -0.049 A 
HETATM    5  C5  UNL     1     -40.675  12.934   4.916  1.00 20.00     0.063 A 
ENDROOT
BRANCH   4   6
HETATM    6  C8  UNL     1     -41.126  13.621   7.401  1.00 20.00     0.306 C 
BRANCH   6   7
HETATM    7  N9  UNL     1     -40.293  14.523   8.151  1.00 20.00     0.083 N 
HETATM    8  C6  UNL     1     -40.581  14.445   9.591  1.00 20.00     0.309 C 
HETATM    9  C7  UNL     1     -40.458  15.911   7.692  1.00 20.00     0.309 C 
ENDBRANCH   6   7
ENDBRANCH   4   6
TORSDOF 2
ENDMDL
MODEL 6
REMARK VINA RESULT:      -3.4     12.081     12.781
REMARK  2 active torsions:
REMARK  status: ('A' for Active; 'I' for Inactive)
REMARK    1  A    between atoms: C4_4  and  C8_8 
REMARK    2  A    between atoms: C8_8  and  N9_9 
ROOT
HETATM    1  C1  UNL     1     -31.023  18.457   1.119  1.00 20.00    -0.003 A 
HETATM    2  C2  UNL     1     -31.020  18.440  -0.320  1.00 20.00     0.004 A 
HETATM    3  C3  UNL     1     -32.278  18.619   1.563  1.00 20.00    -0.022 A 
HETATM    4  C4  UNL     1     -32.274  18.588  -0.773  1.00 20.00    -0.049 A 
HETATM    5  C5  UNL     1     -33.215  18.719   0.394  1.00 20.00     0.063 A 
ENDROOT
BRANCH   4   6
HETATM    6  C8  UNL     1     -32.745  18.628  -2.179  1.00 20.00     0.306 C 
BRANCH   6   7
HETATM    7  N9  UNL     1     -33.862  17.730  -2.300  1.00 20.00     0.083 N 
HETATM    8  C6  UNL     1     -33.434  16.402  -2.763  1.00 20.00     0.309 C 
HETATM    9  C7  UNL     1     -34.881  18.265  -3.215  1.00 20.00     0.309 C 
ENDBRANCH   6   7
ENDBRANCH   4   6
TORSDOF 2
ENDMDL
MODEL 7
REMARK VINA RESULT:      -3.4      8.839      9.754
REMARK  2 active torsions:
REMARK  status: ('A' for Active; 'I' for Inactive)
REMARK    1  A    between atoms: C4_4  and  C8_8 
REMARK    2  A    between atoms: C8_8  and  N9_9 
ROOT
HETATM    1  C1  UNL     1     -39.419  12.120   4.191  1.00 20.00    -0.003 A 
HETATM    2  C2  UNL     1     -40.507  12.819   4.824  1.00 20.00     0.004 A 
HETATM    3  C3  UNL     1     -38.513  11.769   5.115  1.00 20.00    -0.022 A 
HETATM    4  C4  UNL     1     -40.279  12.901   6.144  1.00 20.00    -0.049 A 
HETATM    5  C5  UNL     1     -38.970  12.233   6.468  1.00 20.00     0.063 A 
ENDROOT
BRANCH   4   6
HETATM    6  C8  UNL     1     -41.127  13.531   7.185  1.00 20.00     0.306 C 
BRANCH   6   7
HETATM    7  N9  UNL     1     -40.386  14.619   7.765  1.00 20.00     0.083 N 
HETATM    8  C6  UNL     1     -40.366  14.530   9.233  1.00 20.00     0.309 C 
HETATM    9  C7  UNL     1     -40.938  15.919   7.359  1.00 20.00     0.309 C 
ENDBRANCH   6   7
ENDBRANCH   4   6
TORSDOF 2
ENDMDL
MODEL 8
REMARK VINA RESULT:      -3.3     12.123     13.186
REMARK  2 active torsions:
REMARK  status: ('A' for Active; 'I' for Inactive)
REMARK    1  A    between atoms: C4_4  and  C8_8 
REMARK    2  A    between atoms: C8_8  and  N9_9 
ROOT
HETATM    1  C1  UNL     1     -33.571  17.952  -1.894  1.00 20.00    -0.003 A 
HETATM    2  C2  UNL     1     -33.337  16.601  -2.332  1.00 20.00     0.004 A 
HETATM    3  C3  UNL     1     -34.142  18.653  -2.884  1.00 20.00    -0.022 A 
HETATM    4  C4  UNL     1     -33.765  16.460  -3.596  1.00 20.00    -0.049 A 
HETATM    5  C5  UNL     1     -34.328  17.767  -4.083  1.00 20.00     0.063 A 
ENDROOT
BRANCH   4   6
HETATM    6  C8  UNL     1     -33.727  15.246  -4.448  1.00 20.00     0.306 C 
BRANCH   6   7
HETATM    7  N9  UNL     1     -34.676  15.422  -5.515  1.00 20.00     0.083 N 
HETATM    8  C6  UNL     1     -35.793  14.473  -5.400  1.00 20.00     0.309 C 
HETATM    9  C7  UNL     1     -34.036  15.271  -6.830  1.00 20.00     0.309 C 
ENDBRANCH   6   7
ENDBRANCH   4   6
TORSDOF 2
ENDMDL
MODEL 9
REMARK VINA RESULT:      -3.2      9.000      9.954
REMARK  2 active torsions:
REMARK  status: ('A' for Active; 'I' for Inactive)
REMARK    1  A    between atoms: C4_4  and  C8_8 
REMARK    2  A    between atoms: C8_8  and  N9_9 
ROOT
HETATM    1  C1  UNL     1     -38.387  11.808   5.208  1.00 20.00    -0.003 A 
HETATM    2  C2  UNL     1     -38.998  12.239   6.439  1.00 20.00     0.004 A 
HETATM    3  C3  UNL     1     -39.208  12.077   4.182  1.00 20.00    -0.022 A 
HETATM    4  C4  UNL     1     -40.199  12.778   6.178  1.00 20.00    -0.049 A 
HETATM    5  C5  UNL     1     -40.458  12.729   4.697  1.00 20.00     0.063 A 
ENDROOT
BRANCH   4   6
HETATM    6  C8  UNL     1     -41.175  13.352   7.136  1.00 20.00     0.306 C 
BRANCH   6   7
HETATM    7  N9  UNL     1     -42.495  13.151   6.600  1.00 20.00     0.083 N 
HETATM    8  C6  UNL     1     -43.307  14.371   6.707  1.00 20.00     0.309 C 
HETATM    9  C7  UNL     1     -43.183  12.041   7.275  1.00 20.00     0.309 C 
ENDBRANCH   6   7
ENDBRANCH   4   6
TORSDOF 2
ENDMDL
