MODEL 1
REMARK VINA RESULT:      -3.8      0.000      0.000
REMARK  1 active torsions:
REMARK  status: ('A' for Active; 'I' for Inactive)
REMARK    1  A    between atoms: C7_7  and  O9_9 
ROOT
HETATM    1  C1  UNL     1     -40.926   8.200   0.075  1.00 20.00    -0.023 C 
HETATM    2  C2  UNL     1     -40.810   7.307   1.071  1.00 20.00    -0.023 C 
HETATM    3  C3  UNL     1     -43.379   8.295   0.302  1.00 20.00     0.012 C 
HETATM    4  C4  UNL     1     -43.244   7.263   1.457  1.00 20.00     0.012 C 
HETATM    5  C5  UNL     1     -42.222   7.899  -0.643  1.00 20.00     0.037 C 
HETATM    6  C6  UNL     1     -42.029   6.415   1.013  1.00 20.00     0.037 C 
HETATM    7  C7  UNL     1     -42.206   6.370  -0.510  1.00 20.00     0.136 C 
ENDROOT
BRANCH   7   8
HETATM    8  O9  UNL     1     -43.416   5.768  -0.922  1.00 20.00    -0.389 OA
HETATM    9  C8  UNL     1     -43.401   4.358  -0.725  1.00 20.00     0.202 C 
ENDBRANCH   7   8
TORSDOF 1
ENDMDL
MODEL 2
REMARK VINA RESULT:      -3.7      1.500      2.546
REMARK  1 active torsions:
REMARK  status: ('A' for Active; 'I' for Inactive)
REMARK    1  A    between atoms: C7_7  and  O9_9 
ROOT
HETATM    1  C1  UNL     1     -41.181   8.183  -0.073  1.00 20.00    -0.023 C 
HETATM    2  C2  UNL     1     -42.475   8.081  -0.420  1.00 20.00    -0.023 C 
HETATM    3  C3  UNL     1     -40.758   5.799  -0.537  1.00 20.00     0.012 C 
HETATM    4  C4  UNL     1     -42.255   5.681  -0.940  1.00 20.00     0.012 C 
HETATM    5  C5  UNL     1     -40.790   6.874   0.573  1.00 20.00     0.037 C 
HETATM    6  C6  UNL     1     -42.940   6.705  -0.003  1.00 20.00     0.037 C 
HETATM    7  C7  UNL     1     -42.115   6.566   1.284  1.00 20.00     0.136 C 
ENDROOT
BRANCH   7   8
HETATM    8  O9  UNL     1     -42.152   5.269   1.843  1.00 20.00    -0.389 OA
HETATM    9  C8  UNL     1     -43.417   4.980   2.428  1.00 20.00     0.202 C 
ENDBRANCH   7   8
TORSDOF 1
ENDMDL
MODEL 3
REMARK VINA RESULT:      -3.7     23.413     24.486
REMARK  1 active torsions:
REMARK  status: ('A' for Active; 'I' for Inactive)
REMARK    1  A    between atoms: C7_7  and  O9_9 
ROOT
HETATM    1  C1  UNL     1     -22.188  18.403  11.953  1.00 20.00    -0.023 C 
HETATM    2  C2  UNL     1     -22.141  18.487  10.614  1.00 20.00    -0.023 C 
HETATM    3  C3  UNL     1     -23.934  16.663  11.890  1.00 20.00     0.012 C 
HETATM    4  C4  UNL     1     -23.878  16.759  10.339  1.00 20.00     0.012 C 
HETATM    5  C5  UNL     1     -23.623  18.112  12.330  1.00 20.00     0.037 C 
HETATM    6  C6  UNL     1     -23.544  18.252  10.104  1.00 20.00     0.037 C 
HETATM    7  C7  UNL     1     -24.317  18.937  11.238  1.00 20.00     0.136 C 
ENDROOT
BRANCH   7   8
HETATM    8  O9  UNL     1     -25.712  18.719  11.185  1.00 20.00    -0.389 OA
HETATM    9  C8  UNL     1     -26.376  19.258  12.323  1.00 20.00     0.202 C 
ENDBRANCH   7   8
TORSDOF 1
ENDMDL
MODEL 4
REMARK VINA RESULT:      -3.6     23.576     24.669
REMARK  1 active torsions:
REMARK  status: ('A' for Active; 'I' for Inactive)
REMARK    1  A    between atoms: C7_7  and  O9_9 
ROOT
HETATM    1  C1  UNL     1     -25.347  18.860  11.058  1.00 20.00    -0.023 C 
HETATM    2  C2  UNL     1     -24.907  18.887  12.327  1.00 20.00    -0.023 C 
HETATM    3  C3  UNL     1     -24.197  16.729  10.593  1.00 20.00     0.012 C 
HETATM    4  C4  UNL     1     -23.690  16.760  12.062  1.00 20.00     0.012 C 
HETATM    5  C5  UNL     1     -24.256  18.229  10.223  1.00 20.00     0.037 C 
HETATM    6  C6  UNL     1     -23.526  18.274  12.332  1.00 20.00     0.037 C 
HETATM    7  C7  UNL     1     -23.041  18.793  10.972  1.00 20.00     0.136 C 
ENDROOT
BRANCH   7   8
HETATM    8  O9  UNL     1     -21.819  18.222  10.551  1.00 20.00    -0.389 OA
HETATM    9  C8  UNL     1     -21.402  18.735   9.290  1.00 20.00     0.202 C 
ENDBRANCH   7   8
TORSDOF 1
ENDMDL
MODEL 5
REMARK VINA RESULT:      -3.6      8.391      9.815
REMARK  1 active torsions:
REMARK  status: ('A' for Active; 'I' for Inactive)
REMARK    1  A    between atoms: C7_7  and  O9_9 
ROOT
HETATM    1  C1  UNL     1     -34.037   6.641   6.532  1.00 20.00    -0.023 C 
HETATM    2  C2  UNL     1     -34.509   5.394   6.372  1.00 20.00    -0.023 C 
HETATM    3  C3  UNL     1     -35.122   7.431   4.464  1.00 20.00     0.012 C 
HETATM    4  C4  UNL     1     -35.670   5.988   4.280  1.00 20.00     0.012 C 
HETATM    5  C5  UNL     1     -33.759   7.191   5.152  1.00 20.00     0.037 C 
HETATM    6  C6  UNL     1     -34.543   5.118   4.887  1.00 20.00     0.037 C 
HETATM    7  C7  UNL     1     -33.283   5.895   4.482  1.00 20.00     0.136 C 
ENDROOT
BRANCH   7   8
HETATM    8  O9  UNL     1     -33.122   6.023   3.084  1.00 20.00    -0.389 OA
HETATM    9  C8  UNL     1     -32.165   7.022   2.751  1.00 20.00     0.202 C 
ENDBRANCH   7   8
TORSDOF 1
ENDMDL
MODEL 6
REMARK VINA RESULT:      -3.4      1.049      2.321
REMARK  1 active torsions:
REMARK  status: ('A' for Active; 'I' for Inactive)
REMARK    1  A    between atoms: C7_7  and  O9_9 
ROOT
HETATM    1  C1  UNL     1     -42.916   6.539   1.793  1.00 20.00    -0.023 C 
HETATM    2  C2  UNL     1     -43.384   7.572   1.073  1.00 20.00    -0.023 C 
HETATM    3  C3  UNL     1     -40.986   6.228   0.291  1.00 20.00     0.012 C 
HETATM    4  C4  UNL     1     -41.527   7.425  -0.542  1.00 20.00     0.012 C 
HETATM    5  C5  UNL     1     -42.281   5.572   0.821  1.00 20.00     0.037 C 
HETATM    6  C6  UNL     1     -43.059   7.288  -0.375  1.00 20.00     0.037 C 
HETATM    7  C7  UNL     1     -43.246   5.765  -0.357  1.00 20.00     0.136 C 
ENDROOT
BRANCH   7   8
HETATM    8  O9  UNL     1     -42.809   5.126  -1.539  1.00 20.00    -0.389 OA
HETATM    9  C8  UNL     1     -43.413   3.848  -1.704  1.00 20.00     0.202 C 
ENDBRANCH   7   8
TORSDOF 1
ENDMDL
MODEL 7
REMARK VINA RESULT:      -3.4      1.356      2.898
REMARK  1 active torsions:
REMARK  status: ('A' for Active; 'I' for Inactive)
REMARK    1  A    between atoms: C7_7  and  O9_9 
ROOT
HETATM    1  C1  UNL     1     -42.638   4.850   0.671  1.00 20.00    -0.023 C 
HETATM    2  C2  UNL     1     -42.758   5.631   1.757  1.00 20.00    -0.023 C 
HETATM    3  C3  UNL     1     -40.780   6.201  -0.226  1.00 20.00     0.012 C 
HETATM    4  C4  UNL     1     -40.919   7.104   1.032  1.00 20.00     0.012 C 
HETATM    5  C5  UNL     1     -42.236   5.746  -0.478  1.00 20.00     0.037 C 
HETATM    6  C6  UNL     1     -42.437   7.044   1.327  1.00 20.00     0.037 C 
HETATM    7  C7  UNL     1     -43.037   6.994  -0.085  1.00 20.00     0.136 C 
ENDROOT
BRANCH   7   8
HETATM    8  O9  UNL     1     -42.722   8.123  -0.874  1.00 20.00    -0.389 OA
HETATM    9  C8  UNL     1     -43.417   9.286  -0.436  1.00 20.00     0.202 C 
ENDBRANCH   7   8
TORSDOF 1
ENDMDL
MODEL 8
REMARK VINA RESULT:      -3.2     13.490     14.417
REMARK  1 active torsions:
REMARK  status: ('A' for Active; 'I' for Inactive)
REMARK    1  A    between atoms: C7_7  and  O9_9 
ROOT
HETATM    1  C1  UNL     1     -31.935  18.853  -0.918  1.00 20.00    -0.023 C 
HETATM    2  C2  UNL     1     -32.763  18.420   0.047  1.00 20.00    -0.023 C 
HETATM    3  C3  UNL     1     -33.799  19.260  -2.480  1.00 20.00     0.012 C 
HETATM    4  C4  UNL     1     -34.757  18.761  -1.362  1.00 20.00     0.012 C 
HETATM    5  C5  UNL     1     -32.527  18.416  -2.239  1.00 20.00     0.037 C 
HETATM    6  C6  UNL     1     -33.901  17.696  -0.634  1.00 20.00     0.037 C 
HETATM    7  C7  UNL     1     -33.113  17.070  -1.792  1.00 20.00     0.136 C 
ENDROOT
BRANCH   7   8
HETATM    8  O9  UNL     1     -33.931  16.470  -2.775  1.00 20.00    -0.389 OA
HETATM    9  C8  UNL     1     -33.164  15.771  -3.749  1.00 20.00     0.202 C 
ENDBRANCH   7   8
TORSDOF 1
ENDMDL
MODEL 9
REMARK VINA RESULT:      -3.0      8.936      9.822
REMARK  1 active torsions:
REMARK  status: ('A' for Active; 'I' for Inactive)
REMARK    1  A    between atoms: C7_7  and  O9_9 
ROOT
HETATM    1  C1  UNL     1     -42.278  14.934   5.615  1.00 20.00    -0.023 C 
HETATM    2  C2  UNL     1     -41.913  15.612   6.715  1.00 20.00    -0.023 C 
HETATM    3  C3  UNL     1     -42.685  12.866   6.895  1.00 20.00     0.012 C 
HETATM    4  C4  UNL     1     -42.264  13.652   8.169  1.00 20.00     0.012 C 
HETATM    5  C5  UNL     1     -41.809  13.508   5.796  1.00 20.00     0.037 C 
HETATM    6  C6  UNL     1     -41.202  14.636   7.624  1.00 20.00     0.037 C 
HETATM    7  C7  UNL     1     -40.503  13.792   6.549  1.00 20.00     0.136 C 
ENDROOT
BRANCH   7   8
HETATM    8  O9  UNL     1     -39.892  12.623   7.056  1.00 20.00    -0.389 OA
HETATM    9  C8  UNL     1     -39.177  11.918   6.046  1.00 20.00     0.202 C 
ENDBRANCH   7   8
TORSDOF 1
ENDMDL
