MODEL 1
REMARK VINA RESULT:      -4.2      0.000      0.000
REMARK  1 active torsions:
REMARK  status: ('A' for Active; 'I' for Inactive)
REMARK    1  A    between atoms: C3_3  and  C6_6 
ROOT
HETATM    1  C1  UNL     1     -32.398   6.759   3.379  1.00 20.00     0.202 C 
HETATM    2  C2  UNL     1     -33.155   7.919   3.977  1.00 20.00     0.144 C 
HETATM    3  C3  UNL     1     -34.421   6.055   4.118  1.00 20.00     0.260 C 
HETATM    4  C4  UNL     1     -32.294   8.863   4.787  1.00 20.00     0.042 C 
HETATM    5  O7  UNL     1     -33.422   5.797   3.122  1.00 20.00    -0.359 OA
HETATM    6  O8  UNL     1     -34.116   7.270   4.814  1.00 20.00    -0.354 OA
ENDROOT
BRANCH   3   7
HETATM    7  C6  UNL     1     -34.472   4.908   5.109  1.00 20.00     0.056 C 
HETATM    8  C5  UNL     1     -34.533   5.391   6.525  1.00 20.00     0.010 C 
ENDBRANCH   3   7
TORSDOF 1
ENDMDL
MODEL 2
REMARK VINA RESULT:      -4.1      1.088      3.593
REMARK  1 active torsions:
REMARK  status: ('A' for Active; 'I' for Inactive)
REMARK    1  A    between atoms: C3_3  and  C6_6 
ROOT
HETATM    1  C1  UNL     1     -34.168   5.972   6.425  1.00 20.00     0.202 C 
HETATM    2  C2  UNL     1     -34.639   5.673   5.022  1.00 20.00     0.144 C 
HETATM    3  C3  UNL     1     -34.027   7.842   5.153  1.00 20.00     0.260 C 
HETATM    4  C4  UNL     1     -34.203   4.319   4.504  1.00 20.00     0.042 C 
HETATM    5  O7  UNL     1     -34.243   7.396   6.499  1.00 20.00    -0.359 OA
HETATM    6  O8  UNL     1     -34.039   6.722   4.259  1.00 20.00    -0.354 OA
ENDROOT
BRANCH   3   7
HETATM    7  C6  UNL     1     -32.690   8.551   5.052  1.00 20.00     0.056 C 
HETATM    8  C5  UNL     1     -31.907   8.106   3.855  1.00 20.00     0.010 C 
ENDBRANCH   3   7
TORSDOF 1
ENDMDL
MODEL 3
REMARK VINA RESULT:      -3.7      1.649      2.905
REMARK  1 active torsions:
REMARK  status: ('A' for Active; 'I' for Inactive)
REMARK    1  A    between atoms: C3_3  and  C6_6 
ROOT
HETATM    1  C1  UNL     1     -33.742   4.282   4.803  1.00 20.00     0.202 C 
HETATM    2  C2  UNL     1     -34.015   5.106   3.569  1.00 20.00     0.144 C 
HETATM    3  C3  UNL     1     -34.775   6.214   5.383  1.00 20.00     0.260 C 
HETATM    4  C4  UNL     1     -32.898   5.073   2.548  1.00 20.00     0.042 C 
HETATM    5  O7  UNL     1     -34.629   4.841   5.773  1.00 20.00    -0.359 OA
HETATM    6  O8  UNL     1     -34.174   6.424   4.099  1.00 20.00    -0.354 OA
ENDROOT
BRANCH   3   7
HETATM    7  C6  UNL     1     -34.107   7.115   6.404  1.00 20.00     0.056 C 
HETATM    8  C5  UNL     1     -33.256   8.164   5.756  1.00 20.00     0.010 C 
ENDBRANCH   3   7
TORSDOF 1
ENDMDL
MODEL 4
REMARK VINA RESULT:      -3.6      1.250      2.074
REMARK  1 active torsions:
REMARK  status: ('A' for Active; 'I' for Inactive)
REMARK    1  A    between atoms: C3_3  and  C6_6 
ROOT
HETATM    1  C1  UNL     1     -32.682   8.671   4.006  1.00 20.00     0.202 C 
HETATM    2  C2  UNL     1     -32.106   7.662   3.042  1.00 20.00     0.144 C 
HETATM    3  C3  UNL     1     -33.213   6.574   4.682  1.00 20.00     0.260 C 
HETATM    4  C4  UNL     1     -32.195   8.080   1.591  1.00 20.00     0.042 C 
HETATM    5  O7  UNL     1     -32.944   7.893   5.176  1.00 20.00    -0.359 OA
HETATM    6  O8  UNL     1     -32.909   6.503   3.283  1.00 20.00    -0.354 OA
ENDROOT
BRANCH   3   7
HETATM    7  C6  UNL     1     -34.675   6.229   4.896  1.00 20.00     0.056 C 
HETATM    8  C5  UNL     1     -34.881   5.390   6.119  1.00 20.00     0.010 C 
ENDBRANCH   3   7
TORSDOF 1
ENDMDL
MODEL 5
REMARK VINA RESULT:      -3.5      9.037      9.748
REMARK  1 active torsions:
REMARK  status: ('A' for Active; 'I' for Inactive)
REMARK    1  A    between atoms: C3_3  and  C6_6 
ROOT
HETATM    1  C1  UNL     1     -41.085  14.290   6.142  1.00 20.00     0.202 C 
HETATM    2  C2  UNL     1     -40.859  13.830   7.561  1.00 20.00     0.144 C 
HETATM    3  C3  UNL     1     -40.099  12.250   6.139  1.00 20.00     0.260 C 
HETATM    4  C4  UNL     1     -40.415  14.930   8.500  1.00 20.00     0.042 C 
HETATM    5  O7  UNL     1     -40.994  13.081   5.387  1.00 20.00    -0.359 OA
HETATM    6  O8  UNL     1     -39.831  12.848   7.414  1.00 20.00    -0.354 OA
ENDROOT
BRANCH   3   7
HETATM    7  C6  UNL     1     -38.797  12.075   5.382  1.00 20.00     0.056 C 
HETATM    8  C5  UNL     1     -39.024  11.638   3.967  1.00 20.00     0.010 C 
ENDBRANCH   3   7
TORSDOF 1
ENDMDL
MODEL 6
REMARK VINA RESULT:      -3.3      9.538     10.243
REMARK  1 active torsions:
REMARK  status: ('A' for Active; 'I' for Inactive)
REMARK    1  A    between atoms: C3_3  and  C6_6 
ROOT
HETATM    1  C1  UNL     1     -42.307  12.971   6.706  1.00 20.00     0.202 C 
HETATM    2  C2  UNL     1     -42.041  14.053   5.687  1.00 20.00     0.144 C 
HETATM    3  C3  UNL     1     -40.171  12.818   5.963  1.00 20.00     0.260 C 
HETATM    4  C4  UNL     1     -43.198  14.307   4.745  1.00 20.00     0.042 C 
HETATM    5  O7  UNL     1     -40.996  12.574   7.111  1.00 20.00    -0.359 OA
HETATM    6  O8  UNL     1     -40.913  13.542   4.973  1.00 20.00    -0.354 OA
ENDROOT
BRANCH   3   7
HETATM    7  C6  UNL     1     -39.700  11.502   5.375  1.00 20.00     0.056 C 
HETATM    8  C5  UNL     1     -38.987  11.692   4.072  1.00 20.00     0.010 C 
ENDBRANCH   3   7
TORSDOF 1
ENDMDL
MODEL 7
REMARK VINA RESULT:      -3.3     12.255     12.842
REMARK  1 active torsions:
REMARK  status: ('A' for Active; 'I' for Inactive)
REMARK    1  A    between atoms: C3_3  and  C6_6 
ROOT
HETATM    1  C1  UNL     1     -30.972  18.591  -0.263  1.00 20.00     0.202 C 
HETATM    2  C2  UNL     1     -31.879  18.971   0.883  1.00 20.00     0.144 C 
HETATM    3  C3  UNL     1     -33.137  18.442  -0.916  1.00 20.00     0.260 C 
HETATM    4  C4  UNL     1     -31.414  18.461   2.229  1.00 20.00     0.042 C 
HETATM    5  O7  UNL     1     -31.818  18.719  -1.407  1.00 20.00    -0.359 OA
HETATM    6  O8  UNL     1     -33.120  18.365   0.515  1.00 20.00    -0.354 OA
ENDROOT
BRANCH   3   7
HETATM    7  C6  UNL     1     -33.634  17.126  -1.484  1.00 20.00     0.056 C 
HETATM    8  C5  UNL     1     -33.260  16.959  -2.924  1.00 20.00     0.010 C 
ENDBRANCH   3   7
TORSDOF 1
ENDMDL
MODEL 8
REMARK VINA RESULT:      -3.3     12.576     13.096
REMARK  1 active torsions:
REMARK  status: ('A' for Active; 'I' for Inactive)
REMARK    1  A    between atoms: C3_3  and  C6_6 
ROOT
HETATM    1  C1  UNL     1     -31.900  19.060  -0.891  1.00 20.00     0.202 C 
HETATM    2  C2  UNL     1     -32.929  18.434   0.018  1.00 20.00     0.144 C 
HETATM    3  C3  UNL     1     -30.896  18.291   0.989  1.00 20.00     0.260 C 
HETATM    4  C4  UNL     1     -34.245  19.181   0.064  1.00 20.00     0.042 C 
HETATM    5  O7  UNL     1     -30.667  18.525  -0.407  1.00 20.00    -0.359 OA
HETATM    6  O8  UNL     1     -32.285  18.469   1.294  1.00 20.00    -0.354 OA
ENDROOT
BRANCH   3   7
HETATM    7  C6  UNL     1     -30.072  19.257   1.818  1.00 20.00     0.056 C 
HETATM    8  C5  UNL     1     -29.489  18.601   3.032  1.00 20.00     0.010 C 
ENDBRANCH   3   7
TORSDOF 1
ENDMDL
MODEL 9
REMARK VINA RESULT:      -3.3      8.765      9.524
REMARK  1 active torsions:
REMARK  status: ('A' for Active; 'I' for Inactive)
REMARK    1  A    between atoms: C3_3  and  C6_6 
ROOT
HETATM    1  C1  UNL     1     -38.797  12.078   6.249  1.00 20.00     0.202 C 
HETATM    2  C2  UNL     1     -39.682  11.738   5.074  1.00 20.00     0.144 C 
HETATM    3  C3  UNL     1     -40.827  13.051   6.511  1.00 20.00     0.260 C 
HETATM    4  C4  UNL     1     -38.963  11.736   3.743  1.00 20.00     0.042 C 
HETATM    5  O7  UNL     1     -39.727  12.501   7.248  1.00 20.00    -0.359 OA
HETATM    6  O8  UNL     1     -40.669  12.771   5.114  1.00 20.00    -0.354 OA
ENDROOT
BRANCH   3   7
HETATM    7  C6  UNL     1     -40.891  14.552   6.719  1.00 20.00     0.056 C 
HETATM    8  C5  UNL     1     -40.420  14.950   8.083  1.00 20.00     0.010 C 
ENDBRANCH   3   7
TORSDOF 1
ENDMDL
