MODEL 1
REMARK VINA RESULT:      -2.9      0.000      0.000
REMARK  1 active torsions:
REMARK  status: ('A' for Active; 'I' for Inactive)
REMARK       I    between atoms: C1_1  and  N3_3 
REMARK    1  A    between atoms: C1_1  and  S5_5 
ROOT
HETATM    1  C1  UNL     1     -34.024   6.809   5.441  1.00 20.00     0.276 C 
HETATM    2  C2  UNL     1     -32.457   8.610   4.759  1.00 20.00     0.150 C 
HETATM    3  N3  UNL     1     -33.214   7.407   4.505  1.00 20.00    -0.356 N 
HETATM    4  O4  UNL     1     -34.233   7.172   6.590  1.00 20.00    -0.261 OA
HETATM    5  H9  UNL     1     -33.136   6.975   3.588  1.00 20.00     0.162 HD
ENDROOT
BRANCH   1   6
HETATM    6  S5  UNL     1     -34.782   5.369   4.777  1.00 20.00    -0.082 SA
HETATM    7  H10 UNL     1     -34.325   4.508   5.698  1.00 20.00     0.112 HD
ENDBRANCH   1   6
TORSDOF 1
ENDMDL
MODEL 2
REMARK VINA RESULT:      -2.8      2.019      2.611
REMARK  1 active torsions:
REMARK  status: ('A' for Active; 'I' for Inactive)
REMARK       I    between atoms: C1_1  and  N3_3 
REMARK    1  A    between atoms: C1_1  and  S5_5 
ROOT
HETATM    1  C1  UNL     1     -33.697   7.253   5.412  1.00 20.00     0.276 C 
HETATM    2  C2  UNL     1     -34.816   5.138   4.746  1.00 20.00     0.150 C 
HETATM    3  N3  UNL     1     -33.956   6.269   4.487  1.00 20.00    -0.356 N 
HETATM    4  O4  UNL     1     -34.129   7.337   6.553  1.00 20.00    -0.261 OA
HETATM    5  H9  UNL     1     -33.526   6.344   3.569  1.00 20.00     0.162 HD
ENDROOT
BRANCH   1   6
HETATM    6  S5  UNL     1     -32.612   8.463   4.744  1.00 20.00    -0.082 SA
HETATM    7  H10 UNL     1     -31.809   7.613   4.088  1.00 20.00     0.112 HD
ENDBRANCH   1   6
TORSDOF 1
ENDMDL
MODEL 3
REMARK VINA RESULT:      -2.6     15.183     15.311
REMARK  1 active torsions:
REMARK  status: ('A' for Active; 'I' for Inactive)
REMARK       I    between atoms: C1_1  and  N3_3 
REMARK    1  A    between atoms: C1_1  and  S5_5 
ROOT
HETATM    1  C1  UNL     1     -23.945  17.350  10.424  1.00 20.00     0.276 C 
HETATM    2  C2  UNL     1     -22.121  17.425   8.741  1.00 20.00     0.150 C 
HETATM    3  N3  UNL     1     -22.777  16.855   9.894  1.00 20.00    -0.356 N 
HETATM    4  O4  UNL     1     -24.596  18.308  10.033  1.00 20.00    -0.261 OA
HETATM    5  H9  UNL     1     -22.346  16.051  10.341  1.00 20.00     0.162 HD
ENDROOT
BRANCH   1   6
HETATM    6  S5  UNL     1     -24.443  16.403  11.819  1.00 20.00    -0.082 SA
HETATM    7  H10 UNL     1     -23.412  16.730  12.611  1.00 20.00     0.112 HD
ENDBRANCH   1   6
TORSDOF 1
ENDMDL
MODEL 4
REMARK VINA RESULT:      -2.6      2.555      3.002
REMARK  1 active torsions:
REMARK  status: ('A' for Active; 'I' for Inactive)
REMARK       I    between atoms: C1_1  and  N3_3 
REMARK    1  A    between atoms: C1_1  and  S5_5 
ROOT
HETATM    1  C1  UNL     1     -33.329   7.094   4.675  1.00 20.00     0.276 C 
HETATM    2  C2  UNL     1     -34.671   5.715   6.246  1.00 20.00     0.150 C 
HETATM    3  N3  UNL     1     -33.909   6.894   5.905  1.00 20.00    -0.356 N 
HETATM    4  O4  UNL     1     -33.356   6.347   3.707  1.00 20.00    -0.261 OA
HETATM    5  H9  UNL     1     -33.789   7.609   6.618  1.00 20.00     0.162 HD
ENDROOT
BRANCH   1   6
HETATM    6  S5  UNL     1     -32.485   8.634   4.629  1.00 20.00    -0.082 SA
HETATM    7  H10 UNL     1     -31.241   8.138   4.681  1.00 20.00     0.112 HD
ENDBRANCH   1   6
TORSDOF 1
ENDMDL
MODEL 5
REMARK VINA RESULT:      -2.5      1.677      1.677
REMARK  1 active torsions:
REMARK  status: ('A' for Active; 'I' for Inactive)
REMARK       I    between atoms: C1_1  and  N3_3 
REMARK    1  A    between atoms: C1_1  and  S5_5 
ROOT
HETATM    1  C1  UNL     1     -33.813   6.376   4.767  1.00 20.00     0.276 C 
HETATM    2  C2  UNL     1     -32.516   8.392   4.117  1.00 20.00     0.150 C 
HETATM    3  N3  UNL     1     -33.257   7.598   5.068  1.00 20.00    -0.356 N 
HETATM    4  O4  UNL     1     -33.778   5.783   3.699  1.00 20.00    -0.261 OA
HETATM    5  H9  UNL     1     -33.382   7.966   6.007  1.00 20.00     0.162 HD
ENDROOT
BRANCH   1   6
HETATM    6  S5  UNL     1     -34.637   5.707   6.168  1.00 20.00    -0.082 SA
HETATM    7  H10 UNL     1     -35.746   6.455   6.074  1.00 20.00     0.112 HD
ENDBRANCH   1   6
TORSDOF 1
ENDMDL
MODEL 6
REMARK VINA RESULT:      -2.5     15.583     15.839
REMARK  1 active torsions:
REMARK  status: ('A' for Active; 'I' for Inactive)
REMARK       I    between atoms: C1_1  and  N3_3 
REMARK    1  A    between atoms: C1_1  and  S5_5 
ROOT
HETATM    1  C1  UNL     1     -22.954  17.642  10.349  1.00 20.00     0.276 C 
HETATM    2  C2  UNL     1     -24.395  16.288  11.852  1.00 20.00     0.150 C 
HETATM    3  N3  UNL     1     -23.602  16.469  10.659  1.00 20.00    -0.356 N 
HETATM    4  O4  UNL     1     -22.939  18.680  10.995  1.00 20.00    -0.261 OA
HETATM    5  H9  UNL     1     -23.527  15.691  10.010  1.00 20.00     0.162 HD
ENDROOT
BRANCH   1   6
HETATM    6  S5  UNL     1     -22.092  17.491   8.825  1.00 20.00    -0.082 SA
HETATM    7  H10 UNL     1     -21.169  16.615   9.249  1.00 20.00     0.112 HD
ENDBRANCH   1   6
TORSDOF 1
ENDMDL
MODEL 7
REMARK VINA RESULT:      -2.5      2.444      2.577
REMARK  1 active torsions:
REMARK  status: ('A' for Active; 'I' for Inactive)
REMARK       I    between atoms: C1_1  and  N3_3 
REMARK    1  A    between atoms: C1_1  and  S5_5 
ROOT
HETATM    1  C1  UNL     1     -34.171   5.641   4.850  1.00 20.00     0.276 C 
HETATM    2  C2  UNL     1     -33.044   5.398   2.650  1.00 20.00     0.150 C 
HETATM    3  N3  UNL     1     -33.305   6.099   3.885  1.00 20.00    -0.356 N 
HETATM    4  O4  UNL     1     -34.836   4.615   4.831  1.00 20.00    -0.261 OA
HETATM    5  H9  UNL     1     -32.829   6.983   4.044  1.00 20.00     0.162 HD
ENDROOT
BRANCH   1   6
HETATM    6  S5  UNL     1     -34.233   6.755   6.208  1.00 20.00    -0.082 SA
HETATM    7  H10 UNL     1     -35.538   6.610   6.475  1.00 20.00     0.112 HD
ENDBRANCH   1   6
TORSDOF 1
ENDMDL
MODEL 8
REMARK VINA RESULT:      -2.5     12.682     12.768
REMARK  1 active torsions:
REMARK  status: ('A' for Active; 'I' for Inactive)
REMARK       I    between atoms: C1_1  and  N3_3 
REMARK    1  A    between atoms: C1_1  and  S5_5 
ROOT
HETATM    1  C1  UNL     1     -31.187  18.624   0.851  1.00 20.00     0.276 C 
HETATM    2  C2  UNL     1     -33.547  18.214   0.194  1.00 20.00     0.150 C 
HETATM    3  N3  UNL     1     -32.504  18.394   1.176  1.00 20.00    -0.356 N 
HETATM    4  O4  UNL     1     -30.698  18.711  -0.266  1.00 20.00    -0.261 OA
HETATM    5  H9  UNL     1     -32.756  18.338   2.159  1.00 20.00     0.162 HD
ENDROOT
BRANCH   1   6
HETATM    6  S5  UNL     1     -30.210  18.790   2.302  1.00 20.00    -0.082 SA
HETATM    7  H10 UNL     1     -31.143  18.379   3.172  1.00 20.00     0.112 HD
ENDBRANCH   1   6
TORSDOF 1
ENDMDL
MODEL 9
REMARK VINA RESULT:      -2.4     12.821     12.889
REMARK  1 active torsions:
REMARK  status: ('A' for Active; 'I' for Inactive)
REMARK       I    between atoms: C1_1  and  N3_3 
REMARK    1  A    between atoms: C1_1  and  S5_5 
ROOT
HETATM    1  C1  UNL     1     -33.934  15.091  -4.698  1.00 20.00     0.276 C 
HETATM    2  C2  UNL     1     -33.254  16.526  -2.788  1.00 20.00     0.150 C 
HETATM    3  N3  UNL     1     -33.538  16.305  -4.187  1.00 20.00    -0.356 N 
HETATM    4  O4  UNL     1     -34.104  14.044  -4.090  1.00 20.00    -0.261 OA
HETATM    5  H9  UNL     1     -33.431  17.087  -4.827  1.00 20.00     0.162 HD
ENDROOT
BRANCH   1   6
HETATM    6  S5  UNL     1     -34.186  15.202  -6.434  1.00 20.00    -0.082 SA
HETATM    7  H10 UNL     1     -35.517  15.039  -6.413  1.00 20.00     0.112 HD
ENDBRANCH   1   6
TORSDOF 1
ENDMDL
