MODEL 1
REMARK VINA RESULT:      -3.9      0.000      0.000
REMARK  5 active torsions:
REMARK  status: ('A' for Active; 'I' for Inactive)
REMARK    1  A    between atoms: C1_1  and  C6_6 
REMARK    2  A    between atoms: C1_1  and  S11_11 
REMARK    3  A    between atoms: C6_6  and  C8_8 
REMARK    4  A    between atoms: C7_7  and  C9_9 
REMARK    5  A    between atoms: C9_9  and  S11_11 
ROOT
HETATM    1  C1  UNL     1     -41.704  13.090   6.346  1.00 20.00     0.186 C 
HETATM    2  O10 UNL     1     -42.170  12.119   6.927  1.00 20.00    -0.285 OA
ENDROOT
BRANCH   1   3
HETATM    3  C6  UNL     1     -40.761  13.003   5.159  1.00 20.00     0.094 C 
BRANCH   3   4
HETATM    4  C8  UNL     1     -39.759  11.841   5.267  1.00 20.00    -0.015 C 
HETATM    5  C3  UNL     1     -39.016  11.665   3.941  1.00 20.00     0.010 C 
HETATM    6  C4  UNL     1     -38.753  12.074   6.397  1.00 20.00     0.010 C 
ENDBRANCH   3   4
ENDBRANCH   1   3
BRANCH   1   7
HETATM    7  S11 UNL     1     -42.118  14.751   6.787  1.00 20.00    -0.088 SA
BRANCH   7   8
HETATM    8  C9  UNL     1     -40.577  15.279   7.566  1.00 20.00     0.051 C 
HETATM    9  C5  UNL     1     -40.680  16.767   7.895  1.00 20.00     0.022 C 
BRANCH   8  10
HETATM   10  C7  UNL     1     -40.265  14.462   8.828  1.00 20.00     0.011 C 
HETATM   11  C2  UNL     1     -40.215  15.293  10.105  1.00 20.00     0.006 C 
ENDBRANCH   8  10
ENDBRANCH   7   8
ENDBRANCH   1   7
TORSDOF 5
ENDMDL
MODEL 2
REMARK VINA RESULT:      -3.6     11.405     13.567
REMARK  5 active torsions:
REMARK  status: ('A' for Active; 'I' for Inactive)
REMARK    1  A    between atoms: C1_1  and  C6_6 
REMARK    2  A    between atoms: C1_1  and  S11_11 
REMARK    3  A    between atoms: C6_6  and  C8_8 
REMARK    4  A    between atoms: C7_7  and  C9_9 
REMARK    5  A    between atoms: C9_9  and  S11_11 
ROOT
HETATM    1  C1  UNL     1     -33.505  16.805  -3.536  1.00 20.00     0.186 C 
HETATM    2  O10 UNL     1     -33.581  17.856  -4.158  1.00 20.00    -0.285 OA
ENDROOT
BRANCH   1   3
HETATM    3  C6  UNL     1     -33.455  16.710  -2.021  1.00 20.00     0.094 C 
BRANCH   3   4
HETATM    4  C8  UNL     1     -33.244  18.070  -1.337  1.00 20.00    -0.015 C 
HETATM    5  C3  UNL     1     -34.052  18.135  -0.039  1.00 20.00     0.010 C 
HETATM    6  C4  UNL     1     -31.765  18.322  -1.038  1.00 20.00     0.010 C 
ENDBRANCH   3   4
ENDBRANCH   1   3
BRANCH   1   7
HETATM    7  S11 UNL     1     -33.497  15.227  -4.334  1.00 20.00    -0.088 SA
BRANCH   7   8
HETATM    8  C9  UNL     1     -34.604  15.555  -5.722  1.00 20.00     0.051 C 
HETATM    9  C5  UNL     1     -33.842  15.311  -7.023  1.00 20.00     0.022 C 
BRANCH   8  10
HETATM   10  C7  UNL     1     -35.871  14.688  -5.661  1.00 20.00     0.011 C 
HETATM   11  C2  UNL     1     -35.858  13.653  -4.543  1.00 20.00     0.006 C 
ENDBRANCH   8  10
ENDBRANCH   7   8
ENDBRANCH   1   7
TORSDOF 5
ENDMDL
MODEL 3
REMARK VINA RESULT:      -3.5     11.596     13.768
REMARK  5 active torsions:
REMARK  status: ('A' for Active; 'I' for Inactive)
REMARK    1  A    between atoms: C1_1  and  C6_6 
REMARK    2  A    between atoms: C1_1  and  S11_11 
REMARK    3  A    between atoms: C6_6  and  C8_8 
REMARK    4  A    between atoms: C7_7  and  C9_9 
REMARK    5  A    between atoms: C9_9  and  S11_11 
ROOT
HETATM    1  C1  UNL     1     -33.401  17.840  -3.564  1.00 20.00     0.186 C 
HETATM    2  O10 UNL     1     -32.837  18.826  -4.022  1.00 20.00    -0.285 OA
ENDROOT
BRANCH   1   3
HETATM    3  C6  UNL     1     -33.103  17.242  -2.201  1.00 20.00     0.094 C 
BRANCH   3   4
HETATM    4  C8  UNL     1     -32.949  18.301  -1.097  1.00 20.00    -0.015 C 
HETATM    5  C3  UNL     1     -33.863  17.965   0.084  1.00 20.00     0.010 C 
HETATM    6  C4  UNL     1     -31.500  18.401  -0.616  1.00 20.00     0.010 C 
ENDBRANCH   3   4
ENDBRANCH   1   3
BRANCH   1   7
HETATM    7  S11 UNL     1     -34.696  17.001  -4.426  1.00 20.00    -0.088 SA
BRANCH   7   8
HETATM    8  C9  UNL     1     -33.814  15.532  -4.997  1.00 20.00     0.051 C 
HETATM    9  C5  UNL     1     -34.202  14.352  -4.109  1.00 20.00     0.022 C 
BRANCH   8  10
HETATM   10  C7  UNL     1     -34.109  15.225  -6.473  1.00 20.00     0.011 C 
HETATM   11  C2  UNL     1     -35.595  15.152  -6.803  1.00 20.00     0.006 C 
ENDBRANCH   8  10
ENDBRANCH   7   8
ENDBRANCH   1   7
TORSDOF 5
ENDMDL
MODEL 4
REMARK VINA RESULT:      -3.4     12.161     13.842
REMARK  5 active torsions:
REMARK  status: ('A' for Active; 'I' for Inactive)
REMARK    1  A    between atoms: C1_1  and  C6_6 
REMARK    2  A    between atoms: C1_1  and  S11_11 
REMARK    3  A    between atoms: C6_6  and  C8_8 
REMARK    4  A    between atoms: C7_7  and  C9_9 
REMARK    5  A    between atoms: C9_9  and  S11_11 
ROOT
HETATM    1  C1  UNL     1     -33.955  14.811  -4.545  1.00 20.00     0.186 C 
HETATM    2  O10 UNL     1     -34.542  13.890  -3.991  1.00 20.00    -0.285 OA
ENDROOT
BRANCH   1   3
HETATM    3  C6  UNL     1     -33.018  15.774  -3.838  1.00 20.00     0.094 C 
BRANCH   3   4
HETATM    4  C8  UNL     1     -33.747  16.970  -3.204  1.00 20.00    -0.015 C 
HETATM    5  C3  UNL     1     -33.535  16.971  -1.689  1.00 20.00     0.010 C 
HETATM    6  C4  UNL     1     -33.263  18.297  -3.794  1.00 20.00     0.010 C 
ENDBRANCH   3   4
ENDBRANCH   1   3
BRANCH   1   7
HETATM    7  S11 UNL     1     -34.082  15.110  -6.283  1.00 20.00    -0.088 SA
BRANCH   7   8
HETATM    8  C9  UNL     1     -35.177  16.546  -6.290  1.00 20.00     0.051 C 
HETATM    9  C5  UNL     1     -35.234  17.111  -7.707  1.00 20.00     0.022 C 
BRANCH   8  10
HETATM   10  C7  UNL     1     -36.585  16.194  -5.787  1.00 20.00     0.011 C 
HETATM   11  C2  UNL     1     -37.218  17.274  -4.916  1.00 20.00     0.006 C 
ENDBRANCH   8  10
ENDBRANCH   7   8
ENDBRANCH   1   7
TORSDOF 5
ENDMDL
MODEL 5
REMARK VINA RESULT:      -3.4      9.918     10.895
REMARK  5 active torsions:
REMARK  status: ('A' for Active; 'I' for Inactive)
REMARK    1  A    between atoms: C1_1  and  C6_6 
REMARK    2  A    between atoms: C1_1  and  S11_11 
REMARK    3  A    between atoms: C6_6  and  C8_8 
REMARK    4  A    between atoms: C7_7  and  C9_9 
REMARK    5  A    between atoms: C9_9  and  S11_11 
ROOT
HETATM    1  C1  UNL     1     -33.188   5.908   3.209  1.00 20.00     0.186 C 
HETATM    2  O10 UNL     1     -33.135   4.746   2.826  1.00 20.00    -0.285 OA
ENDROOT
BRANCH   1   3
HETATM    3  C6  UNL     1     -34.221   6.438   4.188  1.00 20.00     0.094 C 
BRANCH   3   4
HETATM    4  C8  UNL     1     -33.890   6.108   5.653  1.00 20.00    -0.015 C 
HETATM    5  C3  UNL     1     -34.191   7.316   6.543  1.00 20.00     0.010 C 
HETATM    6  C4  UNL     1     -34.682   4.894   6.145  1.00 20.00     0.010 C 
ENDBRANCH   3   4
ENDBRANCH   1   3
BRANCH   1   7
HETATM    7  S11 UNL     1     -32.014   7.130   2.704  1.00 20.00    -0.088 SA
BRANCH   7   8
HETATM    8  C9  UNL     1     -32.861   8.636   3.228  1.00 20.00     0.051 C 
HETATM    9  C5  UNL     1     -32.136   9.207   4.444  1.00 20.00     0.022 C 
BRANCH   8  10
HETATM   10  C7  UNL     1     -32.933   9.675   2.099  1.00 20.00     0.011 C 
HETATM   11  C2  UNL     1     -32.610   9.112   0.720  1.00 20.00     0.006 C 
ENDBRANCH   8  10
ENDBRANCH   7   8
ENDBRANCH   1   7
TORSDOF 5
ENDMDL
MODEL 6
REMARK VINA RESULT:      -3.3     11.207     13.166
REMARK  5 active torsions:
REMARK  status: ('A' for Active; 'I' for Inactive)
REMARK    1  A    between atoms: C1_1  and  C6_6 
REMARK    2  A    between atoms: C1_1  and  S11_11 
REMARK    3  A    between atoms: C6_6  and  C8_8 
REMARK    4  A    between atoms: C7_7  and  C9_9 
REMARK    5  A    between atoms: C9_9  and  S11_11 
ROOT
HETATM    1  C1  UNL     1     -34.383  18.015  -2.663  1.00 20.00     0.186 C 
HETATM    2  O10 UNL     1     -35.467  18.503  -2.373  1.00 20.00    -0.285 OA
ENDROOT
BRANCH   1   3
HETATM    3  C6  UNL     1     -33.395  17.464  -1.649  1.00 20.00     0.094 C 
BRANCH   3   4
HETATM    4  C8  UNL     1     -32.912  18.519  -0.641  1.00 20.00    -0.015 C 
HETATM    5  C3  UNL     1     -33.625  18.329   0.699  1.00 20.00     0.010 C 
HETATM    6  C4  UNL     1     -31.397  18.443  -0.436  1.00 20.00     0.010 C 
ENDBRANCH   3   4
ENDBRANCH   1   3
BRANCH   1   7
HETATM    7  S11 UNL     1     -33.837  17.838  -4.335  1.00 20.00    -0.088 SA
BRANCH   7   8
HETATM    8  C9  UNL     1     -35.024  16.619  -4.941  1.00 20.00     0.051 C 
HETATM    9  C5  UNL     1     -35.776  17.217  -6.128  1.00 20.00     0.022 C 
BRANCH   8  10
HETATM   10  C7  UNL     1     -34.340  15.302  -5.337  1.00 20.00     0.011 C 
HETATM   11  C2  UNL     1     -33.338  14.793  -4.307  1.00 20.00     0.006 C 
ENDBRANCH   8  10
ENDBRANCH   7   8
ENDBRANCH   1   7
TORSDOF 5
ENDMDL
MODEL 7
REMARK VINA RESULT:      -3.2      1.396      1.846
REMARK  5 active torsions:
REMARK  status: ('A' for Active; 'I' for Inactive)
REMARK    1  A    between atoms: C1_1  and  C6_6 
REMARK    2  A    between atoms: C1_1  and  S11_11 
REMARK    3  A    between atoms: C6_6  and  C8_8 
REMARK    4  A    between atoms: C7_7  and  C9_9 
REMARK    5  A    between atoms: C9_9  and  S11_11 
ROOT
HETATM    1  C1  UNL     1     -41.565  12.967   6.713  1.00 20.00     0.186 C 
HETATM    2  O10 UNL     1     -42.352  12.094   7.057  1.00 20.00    -0.285 OA
ENDROOT
BRANCH   1   3
HETATM    3  C6  UNL     1     -40.755  12.929   5.429  1.00 20.00     0.094 C 
BRANCH   3   4
HETATM    4  C8  UNL     1     -39.691  11.820   5.418  1.00 20.00    -0.015 C 
HETATM    5  C3  UNL     1     -39.144  11.632   4.002  1.00 20.00     0.010 C 
HETATM    6  C4  UNL     1     -38.543  12.138   6.378  1.00 20.00     0.010 C 
ENDBRANCH   3   4
ENDBRANCH   1   3
BRANCH   1   7
HETATM    7  S11 UNL     1     -41.305  14.438   7.659  1.00 20.00    -0.088 SA
BRANCH   7   8
HETATM    8  C9  UNL     1     -41.956  15.680   6.521  1.00 20.00     0.051 C 
HETATM    9  C5  UNL     1     -43.417  15.353   6.223  1.00 20.00     0.022 C 
BRANCH   8  10
HETATM   10  C7  UNL     1     -41.820  17.102   7.086  1.00 20.00     0.011 C 
HETATM   11  C2  UNL     1     -40.782  17.229   8.195  1.00 20.00     0.006 C 
ENDBRANCH   8  10
ENDBRANCH   7   8
ENDBRANCH   1   7
TORSDOF 5
ENDMDL
MODEL 8
REMARK VINA RESULT:      -3.2      9.488     10.983
REMARK  5 active torsions:
REMARK  status: ('A' for Active; 'I' for Inactive)
REMARK    1  A    between atoms: C1_1  and  C6_6 
REMARK    2  A    between atoms: C1_1  and  S11_11 
REMARK    3  A    between atoms: C6_6  and  C8_8 
REMARK    4  A    between atoms: C7_7  and  C9_9 
REMARK    5  A    between atoms: C9_9  and  S11_11 
ROOT
HETATM    1  C1  UNL     1     -32.925   8.306   4.878  1.00 20.00     0.186 C 
HETATM    2  O10 UNL     1     -31.836   8.556   5.377  1.00 20.00    -0.285 OA
ENDROOT
BRANCH   1   3
HETATM    3  C6  UNL     1     -34.082   7.670   5.628  1.00 20.00     0.094 C 
BRANCH   3   4
HETATM    4  C8  UNL     1     -34.266   6.179   5.306  1.00 20.00    -0.015 C 
HETATM    5  C3  UNL     1     -34.387   5.373   6.601  1.00 20.00     0.010 C 
HETATM    6  C4  UNL     1     -35.501   5.944   4.433  1.00 20.00     0.010 C 
ENDBRANCH   3   4
ENDBRANCH   1   3
BRANCH   1   7
HETATM    7  S11 UNL     1     -33.318   8.707   3.201  1.00 20.00    -0.088 SA
BRANCH   7   8
HETATM    8  C9  UNL     1     -32.092   7.708   2.328  1.00 20.00     0.051 C 
HETATM    9  C5  UNL     1     -32.478   6.236   2.460  1.00 20.00     0.022 C 
BRANCH   8  10
HETATM   10  C7  UNL     1     -31.973   8.110   0.851  1.00 20.00     0.011 C 
HETATM   11  C2  UNL     1     -32.739   9.378   0.492  1.00 20.00     0.006 C 
ENDBRANCH   8  10
ENDBRANCH   7   8
ENDBRANCH   1   7
TORSDOF 5
ENDMDL
MODEL 9
REMARK VINA RESULT:      -3.2     11.781     13.942
REMARK  5 active torsions:
REMARK  status: ('A' for Active; 'I' for Inactive)
REMARK    1  A    between atoms: C1_1  and  C6_6 
REMARK    2  A    between atoms: C1_1  and  S11_11 
REMARK    3  A    between atoms: C6_6  and  C8_8 
REMARK    4  A    between atoms: C7_7  and  C9_9 
REMARK    5  A    between atoms: C9_9  and  S11_11 
ROOT
HETATM    1  C1  UNL     1     -33.554  16.881  -3.509  1.00 20.00     0.186 C 
HETATM    2  O10 UNL     1     -33.283  15.724  -3.213  1.00 20.00    -0.285 OA
ENDROOT
BRANCH   1   3
HETATM    3  C6  UNL     1     -33.104  18.094  -2.715  1.00 20.00     0.094 C 
BRANCH   3   4
HETATM    4  C8  UNL     1     -32.818  17.778  -1.238  1.00 20.00    -0.015 C 
HETATM    5  C3  UNL     1     -31.583  18.548  -0.766  1.00 20.00     0.010 C 
HETATM    6  C4  UNL     1     -34.015  18.128  -0.351  1.00 20.00     0.010 C 
ENDBRANCH   3   4
ENDBRANCH   1   3
BRANCH   1   7
HETATM    7  S11 UNL     1     -34.479  17.298  -4.957  1.00 20.00    -0.088 SA
BRANCH   7   8
HETATM    8  C9  UNL     1     -34.837  15.651  -5.605  1.00 20.00     0.051 C 
HETATM    9  C5  UNL     1     -36.352  15.480  -5.695  1.00 20.00     0.022 C 
BRANCH   8  10
HETATM   10  C7  UNL     1     -34.180  15.420  -6.974  1.00 20.00     0.011 C 
HETATM   11  C2  UNL     1     -34.192  16.646  -7.880  1.00 20.00     0.006 C 
ENDBRANCH   8  10
ENDBRANCH   7   8
ENDBRANCH   1   7
TORSDOF 5
ENDMDL
