MODEL 1
REMARK VINA RESULT:      -5.1      0.000      0.000
REMARK  0 active torsions:
REMARK  status: ('A' for Active; 'I' for Inactive)
ROOT
HETATM    1  C1  UNL     1     -32.457   7.060   3.269  1.00 20.00     0.130 C 
HETATM    2  C2  UNL     1     -33.116   5.774   2.823  1.00 20.00     0.079 C 
HETATM    3  C3  UNL     1     -33.581   4.963   4.026  1.00 20.00     0.016 C 
HETATM    4  C4  UNL     1     -33.709   7.053   5.432  1.00 20.00     0.020 C 
HETATM    5  C5  UNL     1     -33.247   7.917   4.251  1.00 20.00     0.052 C 
HETATM    6  C6  UNL     1     -34.459   5.768   5.011  1.00 20.00    -0.047 C 
HETATM    7  C7  UNL     1     -32.424   9.104   4.747  1.00 20.00     0.018 C 
HETATM    8  C8  UNL     1     -35.823   6.106   4.380  1.00 20.00     0.015 C 
HETATM    9  C9  UNL     1     -34.718   4.909   6.264  1.00 20.00     0.015 C 
HETATM   10  O10 UNL     1     -31.386   7.422   2.782  1.00 20.00    -0.298 OA
ENDROOT
TORSDOF 0
ENDMDL
MODEL 2
REMARK VINA RESULT:      -4.7      1.754      3.504
REMARK  0 active torsions:
REMARK  status: ('A' for Active; 'I' for Inactive)
ROOT
HETATM    1  C1  UNL     1     -34.112   5.125   4.567  1.00 20.00     0.130 C 
HETATM    2  C2  UNL     1     -34.692   5.994   5.660  1.00 20.00     0.079 C 
HETATM    3  C3  UNL     1     -33.738   7.132   6.004  1.00 20.00     0.016 C 
HETATM    4  C4  UNL     1     -32.688   6.994   3.715  1.00 20.00     0.020 C 
HETATM    5  C5  UNL     1     -33.628   5.847   3.316  1.00 20.00     0.052 C 
HETATM    6  C6  UNL     1     -33.285   7.951   4.774  1.00 20.00    -0.047 C 
HETATM    7  C7  UNL     1     -32.925   4.892   2.354  1.00 20.00     0.018 C 
HETATM    8  C8  UNL     1     -34.458   8.759   4.189  1.00 20.00     0.015 C 
HETATM    9  C9  UNL     1     -32.195   8.948   5.214  1.00 20.00     0.015 C 
HETATM   10  O10 UNL     1     -34.128   3.898   4.663  1.00 20.00    -0.298 OA
ENDROOT
TORSDOF 0
ENDMDL
MODEL 3
REMARK VINA RESULT:      -4.1     12.215     13.420
REMARK  0 active torsions:
REMARK  status: ('A' for Active; 'I' for Inactive)
ROOT
HETATM    1  C1  UNL     1     -33.979  17.699  -4.133  1.00 20.00     0.130 C 
HETATM    2  C2  UNL     1     -33.864  19.104  -3.585  1.00 20.00     0.079 C 
HETATM    3  C3  UNL     1     -34.204  19.130  -2.099  1.00 20.00     0.016 C 
HETATM    4  C4  UNL     1     -33.591  16.693  -1.878  1.00 20.00     0.020 C 
HETATM    5  C5  UNL     1     -33.232  16.613  -3.369  1.00 20.00     0.052 C 
HETATM    6  C6  UNL     1     -33.406  18.102  -1.266  1.00 20.00    -0.047 C 
HETATM    7  C7  UNL     1     -33.544  15.224  -3.919  1.00 20.00     0.018 C 
HETATM    8  C8  UNL     1     -31.916  18.485  -1.201  1.00 20.00     0.015 C 
HETATM    9  C9  UNL     1     -33.956  18.094   0.174  1.00 20.00     0.015 C 
HETATM   10  O10 UNL     1     -34.568  17.482  -5.192  1.00 20.00    -0.298 OA
ENDROOT
TORSDOF 0
ENDMDL
MODEL 4
REMARK VINA RESULT:      -3.9      1.887      3.528
REMARK  0 active torsions:
REMARK  status: ('A' for Active; 'I' for Inactive)
ROOT
HETATM    1  C1  UNL     1     -33.903   5.368   4.331  1.00 20.00     0.130 C 
HETATM    2  C2  UNL     1     -33.022   5.372   3.102  1.00 20.00     0.079 C 
HETATM    3  C3  UNL     1     -33.023   6.747   2.445  1.00 20.00     0.016 C 
HETATM    4  C4  UNL     1     -33.639   7.834   4.636  1.00 20.00     0.020 C 
HETATM    5  C5  UNL     1     -33.648   6.474   5.348  1.00 20.00     0.052 C 
HETATM    6  C6  UNL     1     -32.685   7.897   3.421  1.00 20.00    -0.047 C 
HETATM    7  C7  UNL     1     -34.691   6.462   6.463  1.00 20.00     0.018 C 
HETATM    8  C8  UNL     1     -31.213   7.822   3.869  1.00 20.00     0.015 C 
HETATM    9  C9  UNL     1     -32.890   9.241   2.696  1.00 20.00     0.015 C 
HETATM   10  O10 UNL     1     -34.709   4.458   4.526  1.00 20.00    -0.298 OA
ENDROOT
TORSDOF 0
ENDMDL
MODEL 5
REMARK VINA RESULT:      -3.8     12.356     13.545
REMARK  0 active torsions:
REMARK  status: ('A' for Active; 'I' for Inactive)
ROOT
HETATM    1  C1  UNL     1     -34.527  17.002  -4.627  1.00 20.00     0.130 C 
HETATM    2  C2  UNL     1     -34.954  18.405  -4.257  1.00 20.00     0.079 C 
HETATM    3  C3  UNL     1     -35.025  18.564  -2.743  1.00 20.00     0.016 C 
HETATM    4  C4  UNL     1     -33.377  16.680  -2.431  1.00 20.00     0.020 C 
HETATM    5  C5  UNL     1     -33.266  16.481  -3.949  1.00 20.00     0.052 C 
HETATM    6  C6  UNL     1     -33.734  18.127  -2.015  1.00 20.00    -0.047 C 
HETATM    7  C7  UNL     1     -33.021  15.010  -4.277  1.00 20.00     0.018 C 
HETATM    8  C8  UNL     1     -32.575  19.092  -2.326  1.00 20.00     0.015 C 
HETATM    9  C9  UNL     1     -33.983  18.161  -0.495  1.00 20.00     0.015 C 
HETATM   10  O10 UNL     1     -35.124  16.371  -5.498  1.00 20.00    -0.298 OA
ENDROOT
TORSDOF 0
ENDMDL
MODEL 6
REMARK VINA RESULT:      -3.8     12.495     13.205
REMARK  0 active torsions:
REMARK  status: ('A' for Active; 'I' for Inactive)
ROOT
HETATM    1  C1  UNL     1     -32.414  19.154   1.022  1.00 20.00     0.130 C 
HETATM    2  C2  UNL     1     -31.299  19.041   0.007  1.00 20.00     0.079 C 
HETATM    3  C3  UNL     1     -31.593  17.928  -0.992  1.00 20.00     0.016 C 
HETATM    4  C4  UNL     1     -34.068  18.135  -0.551  1.00 20.00     0.020 C 
HETATM    5  C5  UNL     1     -33.827  19.263   0.463  1.00 20.00     0.052 C 
HETATM    6  C6  UNL     1     -32.986  18.044  -1.652  1.00 20.00    -0.047 C 
HETATM    7  C7  UNL     1     -34.875  19.216   1.573  1.00 20.00     0.018 C 
HETATM    8  C8  UNL     1     -33.049  19.263  -2.591  1.00 20.00     0.015 C 
HETATM    9  C9  UNL     1     -33.242  16.781  -2.498  1.00 20.00     0.015 C 
HETATM   10  O10 UNL     1     -32.165  19.248   2.224  1.00 20.00    -0.298 OA
ENDROOT
TORSDOF 0
ENDMDL
MODEL 7
REMARK VINA RESULT:      -3.7     12.037     13.299
REMARK  0 active torsions:
REMARK  status: ('A' for Active; 'I' for Inactive)
ROOT
HETATM    1  C1  UNL     1     -33.337  16.804  -3.443  1.00 20.00     0.130 C 
HETATM    2  C2  UNL     1     -32.886  15.410  -3.816  1.00 20.00     0.079 C 
HETATM    3  C3  UNL     1     -34.059  14.584  -4.328  1.00 20.00     0.016 C 
HETATM    4  C4  UNL     1     -35.292  16.681  -4.996  1.00 20.00     0.020 C 
HETATM    5  C5  UNL     1     -34.136  17.560  -4.499  1.00 20.00     0.052 C 
HETATM    6  C6  UNL     1     -34.851  15.273  -5.463  1.00 20.00    -0.047 C 
HETATM    7  C7  UNL     1     -34.668  18.885  -3.958  1.00 20.00     0.018 C 
HETATM    8  C8  UNL     1     -34.009  15.357  -6.749  1.00 20.00     0.015 C 
HETATM    9  C9  UNL     1     -36.107  14.436  -5.773  1.00 20.00     0.015 C 
HETATM   10  O10 UNL     1     -32.988  17.317  -2.380  1.00 20.00    -0.298 OA
ENDROOT
TORSDOF 0
ENDMDL
MODEL 8
REMARK VINA RESULT:      -3.6      9.288     10.776
REMARK  0 active torsions:
REMARK  status: ('A' for Active; 'I' for Inactive)
ROOT
HETATM    1  C1  UNL     1     -43.318   4.806   0.872  1.00 20.00     0.130 C 
HETATM    2  C2  UNL     1     -43.301   5.907   1.908  1.00 20.00     0.079 C 
HETATM    3  C3  UNL     1     -42.180   6.899   1.621  1.00 20.00     0.016 C 
HETATM    4  C4  UNL     1     -42.193   6.263  -0.820  1.00 20.00     0.020 C 
HETATM    5  C5  UNL     1     -43.324   5.252  -0.585  1.00 20.00     0.052 C 
HETATM    6  C6  UNL     1     -42.196   7.447   0.176  1.00 20.00    -0.047 C 
HETATM    7  C7  UNL     1     -43.184   4.065  -1.535  1.00 20.00     0.018 C 
HETATM    8  C8  UNL     1     -43.417   8.357  -0.053  1.00 20.00     0.015 C 
HETATM    9  C9  UNL     1     -40.927   8.291  -0.051  1.00 20.00     0.015 C 
HETATM   10  O10 UNL     1     -43.416   3.626   1.207  1.00 20.00    -0.298 OA
ENDROOT
TORSDOF 0
ENDMDL
MODEL 9
REMARK VINA RESULT:      -3.6     12.629     13.949
REMARK  0 active torsions:
REMARK  status: ('A' for Active; 'I' for Inactive)
ROOT
HETATM    1  C1  UNL     1     -34.011  15.087  -4.750  1.00 20.00     0.130 C 
HETATM    2  C2  UNL     1     -34.509  15.016  -6.175  1.00 20.00     0.079 C 
HETATM    3  C3  UNL     1     -35.714  15.928  -6.370  1.00 20.00     0.016 C 
HETATM    4  C4  UNL     1     -34.985  17.367  -4.431  1.00 20.00     0.020 C 
HETATM    5  C5  UNL     1     -33.753  16.483  -4.194  1.00 20.00     0.052 C 
HETATM    6  C6  UNL     1     -35.471  17.380  -5.900  1.00 20.00    -0.047 C 
HETATM    7  C7  UNL     1     -33.405  16.439  -2.708  1.00 20.00     0.018 C 
HETATM    8  C8  UNL     1     -34.455  18.091  -6.812  1.00 20.00     0.015 C 
HETATM    9  C9  UNL     1     -36.800  18.157  -5.977  1.00 20.00     0.015 C 
HETATM   10  O10 UNL     1     -33.745  14.062  -4.123  1.00 20.00    -0.298 OA
ENDROOT
TORSDOF 0
ENDMDL
