MODEL 1
REMARK VINA RESULT:      -4.3      0.000      0.000
REMARK  1 active torsions:
REMARK  status: ('A' for Active; 'I' for Inactive)
REMARK    1  A    between atoms: C5_5  and  C10_10 
ROOT
HETATM    1  C1  UNL     1     -33.494   8.057   4.396  1.00 20.00    -0.018 C 
HETATM    2  C2  UNL     1     -32.593   8.417   3.471  1.00 20.00    -0.025 C 
HETATM    3  C3  UNL     1     -33.443   5.721   3.525  1.00 20.00     0.135 C 
HETATM    4  C4  UNL     1     -33.029   6.295   2.189  1.00 20.00     0.087 C 
HETATM    5  C5  UNL     1     -34.109   6.688   4.504  1.00 20.00     0.081 C 
HETATM    6  C6  UNL     1     -32.099   7.495   2.389  1.00 20.00     0.010 C 
HETATM    7  C7  UNL     1     -31.930   8.247   1.069  1.00 20.00     0.014 C 
HETATM    8  O11 UNL     1     -33.329   4.518   3.758  1.00 20.00    -0.297 OA
ENDROOT
BRANCH   5   9
HETATM    9  C10 UNL     1     -34.001   6.167   5.935  1.00 20.00    -0.008 C 
HETATM   10  C8  UNL     1     -34.118   7.315   6.937  1.00 20.00     0.010 C 
HETATM   11  C9  UNL     1     -35.070   5.110   6.207  1.00 20.00     0.010 C 
ENDBRANCH   5   9
TORSDOF 1
ENDMDL
MODEL 2
REMARK VINA RESULT:      -4.3     11.875     13.134
REMARK  1 active torsions:
REMARK  status: ('A' for Active; 'I' for Inactive)
REMARK    1  A    between atoms: C5_5  and  C10_10 
ROOT
HETATM    1  C1  UNL     1     -34.999  17.498  -4.577  1.00 20.00    -0.018 C 
HETATM    2  C2  UNL     1     -34.609  17.908  -3.363  1.00 20.00    -0.025 C 
HETATM    3  C3  UNL     1     -33.937  15.280  -4.164  1.00 20.00     0.135 C 
HETATM    4  C4  UNL     1     -32.997  15.980  -3.207  1.00 20.00     0.087 C 
HETATM    5  C5  UNL     1     -34.652  16.166  -5.184  1.00 20.00     0.081 C 
HETATM    6  C6  UNL     1     -33.734  17.089  -2.452  1.00 20.00     0.010 C 
HETATM    7  C7  UNL     1     -32.727  17.978  -1.722  1.00 20.00     0.014 C 
HETATM    8  O11 UNL     1     -34.035  14.053  -4.168  1.00 20.00    -0.297 OA
ENDROOT
BRANCH   5   9
HETATM    9  C10 UNL     1     -35.908  15.477  -5.712  1.00 20.00    -0.008 C 
HETATM   10  C8  UNL     1     -37.142  16.345  -5.471  1.00 20.00     0.010 C 
HETATM   11  C9  UNL     1     -35.763  15.153  -7.198  1.00 20.00     0.010 C 
ENDBRANCH   5   9
TORSDOF 1
ENDMDL
MODEL 3
REMARK VINA RESULT:      -4.0     11.995     13.287
REMARK  1 active torsions:
REMARK  status: ('A' for Active; 'I' for Inactive)
REMARK    1  A    between atoms: C5_5  and  C10_10 
ROOT
HETATM    1  C1  UNL     1     -34.897  17.481  -4.719  1.00 20.00    -0.018 C 
HETATM    2  C2  UNL     1     -35.037  17.274  -6.036  1.00 20.00    -0.025 C 
HETATM    3  C3  UNL     1     -33.516  15.412  -4.547  1.00 20.00     0.135 C 
HETATM    4  C4  UNL     1     -34.248  14.898  -5.767  1.00 20.00     0.087 C 
HETATM    5  C5  UNL     1     -34.193  16.545  -3.775  1.00 20.00     0.081 C 
HETATM    6  C6  UNL     1     -34.529  16.045  -6.741  1.00 20.00     0.010 C 
HETATM    7  C7  UNL     1     -35.518  15.585  -7.813  1.00 20.00     0.014 C 
HETATM    8  O11 UNL     1     -32.482  14.871  -4.157  1.00 20.00    -0.297 OA
ENDROOT
BRANCH   5   9
HETATM    9  C10 UNL     1     -33.175  17.306  -2.930  1.00 20.00    -0.008 C 
HETATM   10  C8  UNL     1     -33.041  18.749  -3.415  1.00 20.00     0.010 C 
HETATM   11  C9  UNL     1     -33.566  17.273  -1.453  1.00 20.00     0.010 C 
ENDBRANCH   5   9
TORSDOF 1
ENDMDL
MODEL 4
REMARK VINA RESULT:      -4.0     12.431     13.982
REMARK  1 active torsions:
REMARK  status: ('A' for Active; 'I' for Inactive)
REMARK    1  A    between atoms: C5_5  and  C10_10 
ROOT
HETATM    1  C1  UNL     1     -34.103  15.520  -4.470  1.00 20.00    -0.018 C 
HETATM    2  C2  UNL     1     -33.365  15.987  -3.453  1.00 20.00    -0.025 C 
HETATM    3  C3  UNL     1     -35.092  17.788  -4.785  1.00 20.00     0.135 C 
HETATM    4  C4  UNL     1     -34.811  18.044  -3.322  1.00 20.00     0.087 C 
HETATM    5  C5  UNL     1     -35.128  16.323  -5.224  1.00 20.00     0.081 C 
HETATM    6  C6  UNL     1     -33.493  17.385  -2.909  1.00 20.00     0.010 C 
HETATM    7  C7  UNL     1     -33.365  17.387  -1.385  1.00 20.00     0.014 C 
HETATM    8  O11 UNL     1     -35.369  18.714  -5.547  1.00 20.00    -0.297 OA
ENDROOT
BRANCH   5   9
HETATM    9  C10 UNL     1     -34.896  16.205  -6.729  1.00 20.00    -0.008 C 
HETATM   10  C8  UNL     1     -33.757  15.230  -7.024  1.00 20.00     0.010 C 
HETATM   11  C9  UNL     1     -36.175  15.765  -7.440  1.00 20.00     0.010 C 
ENDBRANCH   5   9
TORSDOF 1
ENDMDL
MODEL 5
REMARK VINA RESULT:      -4.0     12.185     13.274
REMARK  1 active torsions:
REMARK  status: ('A' for Active; 'I' for Inactive)
REMARK    1  A    between atoms: C5_5  and  C10_10 
ROOT
HETATM    1  C1  UNL     1     -32.897  16.353  -3.141  1.00 20.00    -0.018 C 
HETATM    2  C2  UNL     1     -33.642  15.508  -3.867  1.00 20.00    -0.025 C 
HETATM    3  C3  UNL     1     -34.284  18.261  -3.947  1.00 20.00     0.135 C 
HETATM    4  C4  UNL     1     -34.587  17.438  -5.179  1.00 20.00     0.087 C 
HETATM    5  C5  UNL     1     -33.053  17.849  -3.140  1.00 20.00     0.081 C 
HETATM    6  C6  UNL     1     -34.725  15.959  -4.811  1.00 20.00     0.010 C 
HETATM    7  C7  UNL     1     -34.729  15.105  -6.079  1.00 20.00     0.014 C 
HETATM    8  O11 UNL     1     -34.948  19.263  -3.678  1.00 20.00    -0.297 OA
ENDROOT
BRANCH   5   9
HETATM    9  C10 UNL     1     -33.145  18.375  -1.709  1.00 20.00    -0.008 C 
HETATM   10  C8  UNL     1     -33.979  17.433  -0.841  1.00 20.00     0.010 C 
HETATM   11  C9  UNL     1     -31.751  18.559  -1.111  1.00 20.00     0.010 C 
ENDBRANCH   5   9
TORSDOF 1
ENDMDL
MODEL 6
REMARK VINA RESULT:      -4.0      1.619      2.353
REMARK  1 active torsions:
REMARK  status: ('A' for Active; 'I' for Inactive)
REMARK    1  A    between atoms: C5_5  and  C10_10 
ROOT
HETATM    1  C1  UNL     1     -33.185   5.918   3.471  1.00 20.00    -0.018 C 
HETATM    2  C2  UNL     1     -32.959   6.524   2.297  1.00 20.00    -0.025 C 
HETATM    3  C3  UNL     1     -33.224   8.140   4.602  1.00 20.00     0.135 C 
HETATM    4  C4  UNL     1     -32.336   8.652   3.490  1.00 20.00     0.087 C 
HETATM    5  C5  UNL     1     -33.266   6.624   4.797  1.00 20.00     0.081 C 
HETATM    6  C6  UNL     1     -32.723   8.004   2.158  1.00 20.00     0.010 C 
HETATM    7  C7  UNL     1     -31.646   8.287   1.110  1.00 20.00     0.014 C 
HETATM    8  O11 UNL     1     -33.800   8.921   5.359  1.00 20.00    -0.297 OA
ENDROOT
BRANCH   5   9
HETATM    9  C10 UNL     1     -34.531   6.211   5.544  1.00 20.00    -0.008 C 
HETATM   10  C8  UNL     1     -35.592   5.701   4.569  1.00 20.00     0.010 C 
HETATM   11  C9  UNL     1     -34.215   5.147   6.594  1.00 20.00     0.010 C 
ENDBRANCH   5   9
TORSDOF 1
ENDMDL
MODEL 7
REMARK VINA RESULT:      -3.8      9.592     10.827
REMARK  1 active torsions:
REMARK  status: ('A' for Active; 'I' for Inactive)
REMARK    1  A    between atoms: C5_5  and  C10_10 
ROOT
HETATM    1  C1  UNL     1     -40.297  13.157   7.084  1.00 20.00    -0.018 C 
HETATM    2  C2  UNL     1     -40.832  14.257   7.631  1.00 20.00    -0.025 C 
HETATM    3  C3  UNL     1     -41.426  13.691   4.925  1.00 20.00     0.135 C 
HETATM    4  C4  UNL     1     -42.470  14.433   5.728  1.00 20.00     0.087 C 
HETATM    5  C5  UNL     1     -40.580  12.671   5.688  1.00 20.00     0.081 C 
HETATM    6  C6  UNL     1     -41.822  15.141   6.920  1.00 20.00     0.010 C 
HETATM    7  C7  UNL     1     -42.904  15.630   7.885  1.00 20.00     0.014 C 
HETATM    8  O11 UNL     1     -41.340  13.842   3.707  1.00 20.00    -0.297 OA
ENDROOT
BRANCH   5   9
HETATM    9  C10 UNL     1     -39.275  12.390   4.947  1.00 20.00    -0.008 C 
HETATM   10  C8  UNL     1     -38.122  12.209   5.934  1.00 20.00     0.010 C 
HETATM   11  C9  UNL     1     -39.414  11.156   4.057  1.00 20.00     0.010 C 
ENDBRANCH   5   9
TORSDOF 1
ENDMDL
MODEL 8
REMARK VINA RESULT:      -3.8     11.939     13.175
REMARK  1 active torsions:
REMARK  status: ('A' for Active; 'I' for Inactive)
REMARK    1  A    between atoms: C5_5  and  C10_10 
ROOT
HETATM    1  C1  UNL     1     -33.733  19.066   0.635  1.00 20.00    -0.018 C 
HETATM    2  C2  UNL     1     -33.327  18.755   1.874  1.00 20.00    -0.025 C 
HETATM    3  C3  UNL     1     -31.379  18.896  -0.171  1.00 20.00     0.135 C 
HETATM    4  C4  UNL     1     -30.939  19.236   1.235  1.00 20.00     0.087 C 
HETATM    5  C5  UNL     1     -32.816  19.263  -0.541  1.00 20.00     0.081 C 
HETATM    6  C6  UNL     1     -31.880  18.592   2.258  1.00 20.00     0.010 C 
HETATM    7  C7  UNL     1     -31.617  19.177   3.646  1.00 20.00     0.014 C 
HETATM    8  O11 UNL     1     -30.581  18.437  -0.988  1.00 20.00    -0.297 OA
ENDROOT
BRANCH   5   9
HETATM    9  C10 UNL     1     -33.294  18.437  -1.733  1.00 20.00    -0.008 C 
HETATM   10  C8  UNL     1     -33.611  17.004  -1.305  1.00 20.00     0.010 C 
HETATM   11  C9  UNL     1     -34.517  19.083  -2.383  1.00 20.00     0.010 C 
ENDBRANCH   5   9
TORSDOF 1
ENDMDL
MODEL 9
REMARK VINA RESULT:      -3.7      1.052      4.114
REMARK  1 active torsions:
REMARK  status: ('A' for Active; 'I' for Inactive)
REMARK    1  A    between atoms: C5_5  and  C10_10 
ROOT
HETATM    1  C1  UNL     1     -32.937   8.341   3.994  1.00 20.00    -0.018 C 
HETATM    2  C2  UNL     1     -33.773   7.907   4.947  1.00 20.00    -0.025 C 
HETATM    3  C3  UNL     1     -33.053   6.111   2.885  1.00 20.00     0.135 C 
HETATM    4  C4  UNL     1     -33.373   5.523   4.242  1.00 20.00     0.087 C 
HETATM    5  C5  UNL     1     -32.392   7.489   2.880  1.00 20.00     0.081 C 
HETATM    6  C6  UNL     1     -34.255   6.484   5.043  1.00 20.00     0.010 C 
HETATM    7  C7  UNL     1     -34.324   6.032   6.502  1.00 20.00     0.014 C 
HETATM    8  O11 UNL     1     -33.233   5.459   1.857  1.00 20.00    -0.297 OA
ENDROOT
BRANCH   5   9
HETATM    9  C10 UNL     1     -32.594   8.180   1.533  1.00 20.00    -0.008 C 
HETATM   10  C8  UNL     1     -32.936   9.657   1.730  1.00 20.00     0.010 C 
HETATM   11  C9  UNL     1     -31.351   8.031   0.658  1.00 20.00     0.010 C 
ENDBRANCH   5   9
TORSDOF 1
ENDMDL
