MODEL 1
REMARK VINA RESULT:      -3.8      0.000      0.000
REMARK  2 active torsions:
REMARK  status: ('A' for Active; 'I' for Inactive)
REMARK    1  A    between atoms: C3_3  and  C5_5 
REMARK    2  A    between atoms: C5_5  and  C6_6 
ROOT
HETATM    1  C1  UNL     1     -33.877   7.670   5.614  1.00 20.00     0.202 C 
HETATM    2  C2  UNL     1     -33.822   6.316   4.948  1.00 20.00     0.144 C 
HETATM    3  C3  UNL     1     -32.372   7.709   3.921  1.00 20.00     0.261 C 
HETATM    4  C4  UNL     1     -35.171   5.646   4.802  1.00 20.00     0.042 C 
HETATM    5  O7  UNL     1     -32.658   8.288   5.202  1.00 20.00    -0.359 OA
HETATM    6  O8  UNL     1     -33.268   6.619   3.666  1.00 20.00    -0.354 OA
ENDROOT
BRANCH   3   7
HETATM    7  C5  UNL     1     -32.530   8.755   2.834  1.00 20.00     0.075 C 
BRANCH   7   8
HETATM    8  C6  UNL     1     -32.167   8.249   1.440  1.00 20.00     0.119 C 
HETATM    9 CL9  UNL     1     -32.767   9.331   0.163  1.00 20.00    -0.130 Cl
ENDBRANCH   7   8
ENDBRANCH   3   7
TORSDOF 2
ENDMDL
MODEL 2
REMARK VINA RESULT:      -3.7      1.788      2.658
REMARK  2 active torsions:
REMARK  status: ('A' for Active; 'I' for Inactive)
REMARK    1  A    between atoms: C3_3  and  C5_5 
REMARK    2  A    between atoms: C5_5  and  C6_6 
ROOT
HETATM    1  C1  UNL     1     -34.046   4.689   5.681  1.00 20.00     0.202 C 
HETATM    2  C2  UNL     1     -34.730   6.035   5.673  1.00 20.00     0.144 C 
HETATM    3  C3  UNL     1     -34.144   5.487   3.563  1.00 20.00     0.261 C 
HETATM    4  C4  UNL     1     -34.360   6.920   6.845  1.00 20.00     0.042 C 
HETATM    5  O7  UNL     1     -34.135   4.269   4.319  1.00 20.00    -0.359 OA
HETATM    6  O8  UNL     1     -34.278   6.610   4.445  1.00 20.00    -0.354 OA
ENDROOT
BRANCH   3   7
HETATM    7  C5  UNL     1     -32.854   5.618   2.777  1.00 20.00     0.075 C 
BRANCH   7   8
HETATM    8  C6  UNL     1     -32.168   6.971   2.946  1.00 20.00     0.119 C 
HETATM    9 CL9  UNL     1     -32.169   7.910   1.435  1.00 20.00    -0.130 Cl
ENDBRANCH   7   8
ENDBRANCH   3   7
TORSDOF 2
ENDMDL
MODEL 3
REMARK VINA RESULT:      -3.7      2.494      3.950
REMARK  2 active torsions:
REMARK  status: ('A' for Active; 'I' for Inactive)
REMARK    1  A    between atoms: C3_3  and  C5_5 
REMARK    2  A    between atoms: C5_5  and  C6_6 
ROOT
HETATM    1  C1  UNL     1     -32.052   8.723   4.567  1.00 20.00     0.202 C 
HETATM    2  C2  UNL     1     -32.866   8.185   3.413  1.00 20.00     0.144 C 
HETATM    3  C3  UNL     1     -33.957   7.777   5.347  1.00 20.00     0.261 C 
HETATM    4  C4  UNL     1     -32.037   7.535   2.326  1.00 20.00     0.042 C 
HETATM    5  O7  UNL     1     -33.006   8.812   5.625  1.00 20.00    -0.359 OA
HETATM    6  O8  UNL     1     -33.712   7.223   4.047  1.00 20.00    -0.354 OA
ENDROOT
BRANCH   3   7
HETATM    7  C5  UNL     1     -33.849   6.680   6.388  1.00 20.00     0.075 C 
BRANCH   7   8
HETATM    8  C6  UNL     1     -34.804   5.514   6.151  1.00 20.00     0.119 C 
HETATM    9 CL9  UNL     1     -34.262   4.472   4.816  1.00 20.00    -0.130 Cl
ENDBRANCH   7   8
ENDBRANCH   3   7
TORSDOF 2
ENDMDL
MODEL 4
REMARK VINA RESULT:      -3.6      2.307      3.548
REMARK  2 active torsions:
REMARK  status: ('A' for Active; 'I' for Inactive)
REMARK    1  A    between atoms: C3_3  and  C5_5 
REMARK    2  A    between atoms: C5_5  and  C6_6 
ROOT
HETATM    1  C1  UNL     1     -33.306   7.175   6.400  1.00 20.00     0.202 C 
HETATM    2  C2  UNL     1     -33.535   8.121   5.245  1.00 20.00     0.144 C 
HETATM    3  C3  UNL     1     -35.031   6.434   5.132  1.00 20.00     0.261 C 
HETATM    4  C4  UNL     1     -32.261   8.657   4.626  1.00 20.00     0.042 C 
HETATM    5  O7  UNL     1     -34.533   6.450   6.477  1.00 20.00    -0.359 OA
HETATM    6  O8  UNL     1     -34.247   7.308   4.309  1.00 20.00    -0.354 OA
ENDROOT
BRANCH   3   7
HETATM    7  C5  UNL     1     -34.968   5.026   4.573  1.00 20.00     0.075 C 
BRANCH   7   8
HETATM    8  C6  UNL     1     -33.552   4.558   4.250  1.00 20.00     0.119 C 
HETATM    9 CL9  UNL     1     -33.037   5.070   2.626  1.00 20.00    -0.130 Cl
ENDBRANCH   7   8
ENDBRANCH   3   7
TORSDOF 2
ENDMDL
MODEL 5
REMARK VINA RESULT:      -3.5      2.732      4.232
REMARK  2 active torsions:
REMARK  status: ('A' for Active; 'I' for Inactive)
REMARK    1  A    between atoms: C3_3  and  C5_5 
REMARK    2  A    between atoms: C5_5  and  C6_6 
ROOT
HETATM    1  C1  UNL     1     -32.571   6.854   2.207  1.00 20.00     0.202 C 
HETATM    2  C2  UNL     1     -32.094   8.277   2.043  1.00 20.00     0.144 C 
HETATM    3  C3  UNL     1     -32.587   7.905   4.214  1.00 20.00     0.261 C 
HETATM    4  C4  UNL     1     -32.594   8.952   0.783  1.00 20.00     0.042 C 
HETATM    5  O7  UNL     1     -32.418   6.617   3.607  1.00 20.00    -0.359 OA
HETATM    6  O8  UNL     1     -32.623   8.922   3.204  1.00 20.00    -0.354 OA
ENDROOT
BRANCH   3   7
HETATM    7  C5  UNL     1     -33.880   7.937   5.006  1.00 20.00     0.075 C 
BRANCH   7   8
HETATM    8  C6  UNL     1     -33.867   7.036   6.238  1.00 20.00     0.119 C 
HETATM    9 CL9  UNL     1     -34.771   5.528   5.968  1.00 20.00    -0.130 Cl
ENDBRANCH   7   8
ENDBRANCH   3   7
TORSDOF 2
ENDMDL
MODEL 6
REMARK VINA RESULT:      -3.5     11.058     11.796
REMARK  2 active torsions:
REMARK  status: ('A' for Active; 'I' for Inactive)
REMARK    1  A    between atoms: C3_3  and  C5_5 
REMARK    2  A    between atoms: C5_5  and  C6_6 
ROOT
HETATM    1  C1  UNL     1     -33.690  14.498  -4.496  1.00 20.00     0.202 C 
HETATM    2  C2  UNL     1     -34.561  15.496  -5.222  1.00 20.00     0.144 C 
HETATM    3  C3  UNL     1     -33.295  16.582  -3.701  1.00 20.00     0.261 C 
HETATM    4  C4  UNL     1     -35.964  14.999  -5.501  1.00 20.00     0.042 C 
HETATM    5  O7  UNL     1     -32.667  15.312  -3.924  1.00 20.00    -0.359 OA
HETATM    6  O8  UNL     1     -34.588  16.603  -4.319  1.00 20.00    -0.354 OA
ENDROOT
BRANCH   3   7
HETATM    7  C5  UNL     1     -33.445  16.831  -2.213  1.00 20.00     0.075 C 
BRANCH   7   8
HETATM    8  C6  UNL     1     -33.100  18.257  -1.793  1.00 20.00     0.119 C 
HETATM    9 CL9  UNL     1     -31.689  18.309  -0.712  1.00 20.00    -0.130 Cl
ENDBRANCH   7   8
ENDBRANCH   3   7
TORSDOF 2
ENDMDL
MODEL 7
REMARK VINA RESULT:      -3.5      1.423      1.920
REMARK  2 active torsions:
REMARK  status: ('A' for Active; 'I' for Inactive)
REMARK    1  A    between atoms: C3_3  and  C5_5 
REMARK    2  A    between atoms: C5_5  and  C6_6 
ROOT
HETATM    1  C1  UNL     1     -34.808   6.362   4.632  1.00 20.00     0.202 C 
HETATM    2  C2  UNL     1     -34.450   6.377   6.099  1.00 20.00     0.144 C 
HETATM    3  C3  UNL     1     -33.438   8.113   5.071  1.00 20.00     0.261 C 
HETATM    4  C4  UNL     1     -34.206   5.003   6.686  1.00 20.00     0.042 C 
HETATM    5  O7  UNL     1     -34.503   7.691   4.208  1.00 20.00    -0.359 OA
HETATM    6  O8  UNL     1     -33.253   7.157   6.123  1.00 20.00    -0.354 OA
ENDROOT
BRANCH   3   7
HETATM    7  C5  UNL     1     -32.151   8.243   4.279  1.00 20.00     0.075 C 
BRANCH   7   8
HETATM    8  C6  UNL     1     -32.088   7.330   3.057  1.00 20.00     0.119 C 
HETATM    9 CL9  UNL     1     -32.241   8.241   1.538  1.00 20.00    -0.130 Cl
ENDBRANCH   7   8
ENDBRANCH   3   7
TORSDOF 2
ENDMDL
MODEL 8
REMARK VINA RESULT:      -3.5     11.162     11.645
REMARK  2 active torsions:
REMARK  status: ('A' for Active; 'I' for Inactive)
REMARK    1  A    between atoms: C3_3  and  C5_5 
REMARK    2  A    between atoms: C5_5  and  C6_6 
ROOT
HETATM    1  C1  UNL     1     -33.117  19.020   0.693  1.00 20.00     0.202 C 
HETATM    2  C2  UNL     1     -31.644  18.992   0.360  1.00 20.00     0.144 C 
HETATM    3  C3  UNL     1     -32.828  18.344  -1.450  1.00 20.00     0.261 C 
HETATM    4  C4  UNL     1     -30.769  18.480   1.484  1.00 20.00     0.042 C 
HETATM    5  O7  UNL     1     -33.742  19.038  -0.590  1.00 20.00    -0.359 OA
HETATM    6  O8  UNL     1     -31.593  18.107  -0.762  1.00 20.00    -0.354 OA
ENDROOT
BRANCH   3   7
HETATM    7  C5  UNL     1     -33.426  17.019  -1.880  1.00 20.00     0.075 C 
BRANCH   7   8
HETATM    8  C6  UNL     1     -33.359  16.776  -3.386  1.00 20.00     0.119 C 
HETATM    9 CL9  UNL     1     -33.711  15.083  -3.802  1.00 20.00    -0.130 Cl
ENDBRANCH   7   8
ENDBRANCH   3   7
TORSDOF 2
ENDMDL
MODEL 9
REMARK VINA RESULT:      -3.4      9.601     10.489
REMARK  2 active torsions:
REMARK  status: ('A' for Active; 'I' for Inactive)
REMARK    1  A    between atoms: C3_3  and  C5_5 
REMARK    2  A    between atoms: C5_5  and  C6_6 
ROOT
HETATM    1  C1  UNL     1     -41.951  14.900   8.210  1.00 20.00     0.202 C 
HETATM    2  C2  UNL     1     -40.660  14.648   8.952  1.00 20.00     0.144 C 
HETATM    3  C3  UNL     1     -40.449  13.920   6.827  1.00 20.00     0.261 C 
HETATM    4  C4  UNL     1     -40.853  14.186  10.381  1.00 20.00     0.042 C 
HETATM    5  O7  UNL     1     -41.559  14.826   6.839  1.00 20.00    -0.359 OA
HETATM    6  O8  UNL     1     -40.042  13.625   8.170  1.00 20.00    -0.354 OA
ENDROOT
BRANCH   3   7
HETATM    7  C5  UNL     1     -40.839  12.632   6.127  1.00 20.00     0.075 C 
BRANCH   7   8
HETATM    8  C6  UNL     1     -39.669  11.678   5.902  1.00 20.00     0.119 C 
HETATM    9 CL9  UNL     1     -39.156  11.644   4.200  1.00 20.00    -0.130 Cl
ENDBRANCH   7   8
ENDBRANCH   3   7
TORSDOF 2
ENDMDL
