MODEL 1
REMARK VINA RESULT:      -3.9      0.000      0.000
REMARK  2 active torsions:
REMARK  status: ('A' for Active; 'I' for Inactive)
REMARK    1  A    between atoms: C6_6  and  C11_11 
REMARK    2  A    between atoms: C11_11  and  O12_12 
ROOT
HETATM    1  C1  UNL     1     -41.936  14.387   4.732  1.00 20.00     0.005 C 
HETATM    2  C2  UNL     1     -42.339  15.604   5.576  1.00 20.00     0.006 C 
HETATM    3  C3  UNL     1     -43.417  13.708   6.456  1.00 20.00     0.010 C 
HETATM    4  C4  UNL     1     -42.200  13.202   5.678  1.00 20.00    -0.007 C 
HETATM    5  C5  UNL     1     -42.696  14.975   6.935  1.00 20.00    -0.006 C 
HETATM    6  C6  UNL     1     -41.143  13.114   6.811  1.00 20.00     0.026 C 
HETATM    7  C7  UNL     1     -41.429  14.402   7.657  1.00 20.00    -0.038 C 
HETATM    8  C8  UNL     1     -40.270  15.406   7.736  1.00 20.00     0.015 C 
HETATM    9  C9  UNL     1     -41.784  14.011   9.110  1.00 20.00     0.015 C 
ENDROOT
BRANCH   6  10
HETATM   10  C11 UNL     1     -39.715  12.891   6.330  1.00 20.00     0.119 C 
HETATM   11  C10 UNL     1     -39.656  11.905   5.173  1.00 20.00     0.040 C 
BRANCH  10  12
HETATM   12  O12 UNL     1     -38.930  12.396   7.408  1.00 20.00    -0.396 OA
HETATM   13  H32 UNL     1     -39.509  11.819   7.931  1.00 20.00     0.210 HD
ENDBRANCH  10  12
ENDBRANCH   6  10
TORSDOF 2
ENDMDL
MODEL 2
REMARK VINA RESULT:      -3.7     12.898     14.447
REMARK  2 active torsions:
REMARK  status: ('A' for Active; 'I' for Inactive)
REMARK    1  A    between atoms: C6_6  and  C11_11 
REMARK    2  A    between atoms: C11_11  and  O12_12 
ROOT
HETATM    1  C1  UNL     1     -35.876  17.736  -4.596  1.00 20.00     0.005 C 
HETATM    2  C2  UNL     1     -36.708  17.491  -5.862  1.00 20.00     0.006 C 
HETATM    3  C3  UNL     1     -34.591  18.285  -6.513  1.00 20.00     0.010 C 
HETATM    4  C4  UNL     1     -34.427  17.687  -5.114  1.00 20.00    -0.007 C 
HETATM    5  C5  UNL     1     -35.632  17.239  -6.935  1.00 20.00    -0.006 C 
HETATM    6  C6  UNL     1     -33.980  16.242  -5.462  1.00 20.00     0.026 C 
HETATM    7  C7  UNL     1     -34.881  15.885  -6.693  1.00 20.00    -0.038 C 
HETATM    8  C8  UNL     1     -35.829  14.693  -6.490  1.00 20.00     0.015 C 
HETATM    9  C9  UNL     1     -33.996  15.549  -7.915  1.00 20.00     0.015 C 
ENDROOT
BRANCH   6  10
HETATM   10  C11 UNL     1     -33.984  15.276  -4.284  1.00 20.00     0.119 C 
HETATM   11  C10 UNL     1     -33.403  15.913  -3.030  1.00 20.00     0.040 C 
BRANCH  10  12
HETATM   12  O12 UNL     1     -33.220  14.125  -4.621  1.00 20.00    -0.396 OA
HETATM   13  H32 UNL     1     -33.089  14.151  -5.582  1.00 20.00     0.210 HD
ENDBRANCH  10  12
ENDBRANCH   6  10
TORSDOF 2
ENDMDL
MODEL 3
REMARK VINA RESULT:      -3.5     16.898     18.596
REMARK  2 active torsions:
REMARK  status: ('A' for Active; 'I' for Inactive)
REMARK    1  A    between atoms: C6_6  and  C11_11 
REMARK    2  A    between atoms: C11_11  and  O12_12 
ROOT
HETATM    1  C1  UNL     1     -24.857  18.842  11.839  1.00 20.00     0.005 C 
HETATM    2  C2  UNL     1     -23.404  18.669  12.302  1.00 20.00     0.006 C 
HETATM    3  C3  UNL     1     -24.146  16.618  11.422  1.00 20.00     0.010 C 
HETATM    4  C4  UNL     1     -25.037  17.706  10.816  1.00 20.00    -0.007 C 
HETATM    5  C5  UNL     1     -22.899  17.512  11.420  1.00 20.00    -0.006 C 
HETATM    6  C6  UNL     1     -24.287  17.993   9.488  1.00 20.00     0.026 C 
HETATM    7  C7  UNL     1     -22.781  17.941   9.917  1.00 20.00    -0.038 C 
HETATM    8  C8  UNL     1     -21.996  19.246   9.718  1.00 20.00     0.015 C 
HETATM    9  C9  UNL     1     -22.041  16.847   9.115  1.00 20.00     0.015 C 
ENDROOT
BRANCH   6  10
HETATM   10  C11 UNL     1     -24.765  19.235   8.747  1.00 20.00     0.119 C 
HETATM   11  C10 UNL     1     -26.280  19.263   8.608  1.00 20.00     0.040 C 
BRANCH  10  12
HETATM   12  O12 UNL     1     -24.175  19.263   7.452  1.00 20.00    -0.396 OA
HETATM   13  H32 UNL     1     -23.355  19.775   7.532  1.00 20.00     0.210 HD
ENDBRANCH  10  12
ENDBRANCH   6  10
TORSDOF 2
ENDMDL
MODEL 4
REMARK VINA RESULT:      -3.4     13.109     14.243
REMARK  2 active torsions:
REMARK  status: ('A' for Active; 'I' for Inactive)
REMARK    1  A    between atoms: C6_6  and  C11_11 
REMARK    2  A    between atoms: C11_11  and  O12_12 
ROOT
HETATM    1  C1  UNL     1     -34.029  15.531  -7.264  1.00 20.00     0.005 C 
HETATM    2  C2  UNL     1     -34.421  16.892  -7.855  1.00 20.00     0.006 C 
HETATM    3  C3  UNL     1     -36.354  15.894  -6.962  1.00 20.00     0.010 C 
HETATM    4  C4  UNL     1     -35.158  15.249  -6.256  1.00 20.00    -0.007 C 
HETATM    5  C5  UNL     1     -35.676  17.269  -7.047  1.00 20.00    -0.006 C 
HETATM    6  C6  UNL     1     -35.047  16.142  -4.991  1.00 20.00     0.026 C 
HETATM    7  C7  UNL     1     -35.329  17.578  -5.551  1.00 20.00    -0.038 C 
HETATM    8  C8  UNL     1     -34.178  18.583  -5.391  1.00 20.00     0.015 C 
HETATM    9  C9  UNL     1     -36.558  18.189  -4.842  1.00 20.00     0.015 C 
ENDROOT
BRANCH   6  10
HETATM   10  C11 UNL     1     -33.772  15.939  -4.183  1.00 20.00     0.119 C 
HETATM   11  C10 UNL     1     -33.318  14.488  -4.197  1.00 20.00     0.040 C 
BRANCH  10  12
HETATM   12  O12 UNL     1     -34.001  16.346  -2.839  1.00 20.00    -0.396 OA
HETATM   13  H32 UNL     1     -34.490  17.183  -2.881  1.00 20.00     0.210 HD
ENDBRANCH  10  12
ENDBRANCH   6  10
TORSDOF 2
ENDMDL
MODEL 5
REMARK VINA RESULT:      -3.3     19.880     21.901
REMARK  2 active torsions:
REMARK  status: ('A' for Active; 'I' for Inactive)
REMARK    1  A    between atoms: C6_6  and  C11_11 
REMARK    2  A    between atoms: C11_11  and  O12_12 
ROOT
HETATM    1  C1  UNL     1     -26.489  -3.820  12.006  1.00 20.00     0.005 C 
HETATM    2  C2  UNL     1     -25.754  -2.514  12.332  1.00 20.00     0.006 C 
HETATM    3  C3  UNL     1     -25.923  -2.700   9.993  1.00 20.00     0.010 C 
HETATM    4  C4  UNL     1     -27.032  -3.572  10.587  1.00 20.00    -0.007 C 
HETATM    5  C5  UNL     1     -26.043  -1.640  11.097  1.00 20.00    -0.006 C 
HETATM    6  C6  UNL     1     -28.223  -2.576  10.584  1.00 20.00     0.026 C 
HETATM    7  C7  UNL     1     -27.554  -1.229  11.022  1.00 20.00    -0.038 C 
HETATM    8  C8  UNL     1     -28.084  -0.628  12.332  1.00 20.00     0.015 C 
HETATM    9  C9  UNL     1     -27.753  -0.159   9.925  1.00 20.00     0.015 C 
ENDROOT
BRANCH   6  10
HETATM   10  C11 UNL     1     -29.442  -3.044  11.369  1.00 20.00     0.119 C 
HETATM   11  C10 UNL     1     -29.689  -4.535  11.194  1.00 20.00     0.040 C 
BRANCH  10  12
HETATM   12  O12 UNL     1     -30.587  -2.325  10.926  1.00 20.00    -0.396 OA
HETATM   13  H32 UNL     1     -31.181  -2.252  11.689  1.00 20.00     0.210 HD
ENDBRANCH  10  12
ENDBRANCH   6  10
TORSDOF 2
ENDMDL
MODEL 6
REMARK VINA RESULT:      -3.2     12.116     13.515
REMARK  2 active torsions:
REMARK  status: ('A' for Active; 'I' for Inactive)
REMARK    1  A    between atoms: C6_6  and  C11_11 
REMARK    2  A    between atoms: C11_11  and  O12_12 
ROOT
HETATM    1  C1  UNL     1     -33.791  17.298  -1.873  1.00 20.00     0.005 C 
HETATM    2  C2  UNL     1     -34.725  18.515  -1.814  1.00 20.00     0.006 C 
HETATM    3  C3  UNL     1     -32.916  19.044  -3.221  1.00 20.00     0.010 C 
HETATM    4  C4  UNL     1     -33.015  17.517  -3.185  1.00 20.00    -0.007 C 
HETATM    5  C5  UNL     1     -34.437  19.233  -3.145  1.00 20.00    -0.006 C 
HETATM    6  C6  UNL     1     -33.896  17.249  -4.435  1.00 20.00     0.026 C 
HETATM    7  C7  UNL     1     -34.952  18.405  -4.371  1.00 20.00    -0.038 C 
HETATM    8  C8  UNL     1     -36.413  17.952  -4.227  1.00 20.00     0.015 C 
HETATM    9  C9  UNL     1     -34.874  19.263  -5.654  1.00 20.00     0.015 C 
ENDROOT
BRANCH   6  10
HETATM   10  C11 UNL     1     -34.419  15.823  -4.548  1.00 20.00     0.119 C 
HETATM   11  C10 UNL     1     -33.357  14.800  -4.176  1.00 20.00     0.040 C 
BRANCH  10  12
HETATM   12  O12 UNL     1     -34.848  15.588  -5.884  1.00 20.00    -0.396 OA
HETATM   13  H32 UNL     1     -35.067  14.645  -5.944  1.00 20.00     0.210 HD
ENDBRANCH  10  12
ENDBRANCH   6  10
TORSDOF 2
ENDMDL
MODEL 7
REMARK VINA RESULT:      -3.1     12.676     13.921
REMARK  2 active torsions:
REMARK  status: ('A' for Active; 'I' for Inactive)
REMARK    1  A    between atoms: C6_6  and  C11_11 
REMARK    2  A    between atoms: C11_11  and  O12_12 
ROOT
HETATM    1  C1  UNL     1     -34.446  17.698  -3.025  1.00 20.00     0.005 C 
HETATM    2  C2  UNL     1     -35.673  18.554  -3.366  1.00 20.00     0.006 C 
HETATM    3  C3  UNL     1     -34.010  18.978  -4.974  1.00 20.00     0.010 C 
HETATM    4  C4  UNL     1     -33.698  17.608  -4.367  1.00 20.00    -0.007 C 
HETATM    5  C5  UNL     1     -35.528  18.772  -4.884  1.00 20.00    -0.006 C 
HETATM    6  C6  UNL     1     -34.417  16.670  -5.374  1.00 20.00     0.026 C 
HETATM    7  C7  UNL     1     -35.746  17.441  -5.682  1.00 20.00    -0.038 C 
HETATM    8  C8  UNL     1     -37.037  16.705  -5.293  1.00 20.00     0.015 C 
HETATM    9  C9  UNL     1     -35.842  17.745  -7.194  1.00 20.00     0.015 C 
ENDROOT
BRANCH   6  10
HETATM   10  C11 UNL     1     -34.534  15.221  -4.918  1.00 20.00     0.119 C 
HETATM   11  C10 UNL     1     -33.292  14.763  -4.168  1.00 20.00     0.040 C 
BRANCH  10  12
HETATM   12  O12 UNL     1     -34.729  14.388  -6.054  1.00 20.00    -0.396 OA
HETATM   13  H32 UNL     1     -35.341  14.858  -6.642  1.00 20.00     0.210 HD
ENDBRANCH  10  12
ENDBRANCH   6  10
TORSDOF 2
ENDMDL
MODEL 8
REMARK VINA RESULT:      -3.0      1.343      2.884
REMARK  2 active torsions:
REMARK  status: ('A' for Active; 'I' for Inactive)
REMARK    1  A    between atoms: C6_6  and  C11_11 
REMARK    2  A    between atoms: C11_11  and  O12_12 
ROOT
HETATM    1  C1  UNL     1     -40.357  14.081   8.649  1.00 20.00     0.005 C 
HETATM    2  C2  UNL     1     -41.849  14.255   8.963  1.00 20.00     0.006 C 
HETATM    3  C3  UNL     1     -41.280  15.750   7.239  1.00 20.00     0.010 C 
HETATM    4  C4  UNL     1     -40.234  14.633   7.218  1.00 20.00    -0.007 C 
HETATM    5  C5  UNL     1     -42.417  14.800   7.639  1.00 20.00    -0.006 C 
HETATM    6  C6  UNL     1     -40.851  13.672   6.167  1.00 20.00     0.026 C 
HETATM    7  C7  UNL     1     -42.380  13.717   6.507  1.00 20.00    -0.038 C 
HETATM    8  C8  UNL     1     -42.999  12.376   6.929  1.00 20.00     0.015 C 
HETATM    9  C9  UNL     1     -43.179  14.213   5.280  1.00 20.00     0.015 C 
ENDROOT
BRANCH   6  10
HETATM   10  C11 UNL     1     -40.187  12.302   6.093  1.00 20.00     0.119 C 
HETATM   11  C10 UNL     1     -38.774  12.329   6.654  1.00 20.00     0.040 C 
BRANCH  10  12
HETATM   12  O12 UNL     1     -40.145  11.876   4.737  1.00 20.00    -0.396 OA
HETATM   13  H32 UNL     1     -40.425  12.633   4.199  1.00 20.00     0.210 HD
ENDBRANCH  10  12
ENDBRANCH   6  10
TORSDOF 2
ENDMDL
MODEL 9
REMARK VINA RESULT:      -3.0      1.933      3.457
REMARK  2 active torsions:
REMARK  status: ('A' for Active; 'I' for Inactive)
REMARK    1  A    between atoms: C6_6  and  C11_11 
REMARK    2  A    between atoms: C11_11  and  O12_12 
ROOT
HETATM    1  C1  UNL     1     -41.044  16.312   7.314  1.00 20.00     0.005 C 
HETATM    2  C2  UNL     1     -40.335  15.154   8.030  1.00 20.00     0.006 C 
HETATM    3  C3  UNL     1     -42.636  15.012   8.499  1.00 20.00     0.010 C 
HETATM    4  C4  UNL     1     -42.498  15.819   7.206  1.00 20.00    -0.007 C 
HETATM    5  C5  UNL     1     -41.449  14.099   8.161  1.00 20.00    -0.006 C 
HETATM    6  C6  UNL     1     -42.657  14.699   6.142  1.00 20.00     0.026 C 
HETATM    7  C7  UNL     1     -41.852  13.508   6.766  1.00 20.00    -0.038 C 
HETATM    8  C8  UNL     1     -40.649  13.025   5.942  1.00 20.00     0.015 C 
HETATM    9  C9  UNL     1     -42.781  12.288   6.961  1.00 20.00     0.015 C 
ENDROOT
BRANCH   6  10
HETATM   10  C11 UNL     1     -42.302  15.120   4.722  1.00 20.00     0.119 C 
HETATM   11  C10 UNL     1     -42.821  16.513   4.399  1.00 20.00     0.040 C 
BRANCH  10  12
HETATM   12  O12 UNL     1     -42.862  14.187   3.805  1.00 20.00    -0.396 OA
HETATM   13  H32 UNL     1     -43.459  13.619   4.317  1.00 20.00     0.210 HD
ENDBRANCH  10  12
ENDBRANCH   6  10
TORSDOF 2
ENDMDL
