MODEL 1
REMARK VINA RESULT:      -4.9      0.000      0.000
REMARK  0 active torsions:
REMARK  status: ('A' for Active; 'I' for Inactive)
ROOT
HETATM    1  C1  UNL     1     -33.467   7.627   6.158  1.00 20.00     0.047 C 
HETATM    2  C2  UNL     1     -34.180   6.504   6.016  1.00 20.00    -0.014 C 
HETATM    3  C3  UNL     1     -32.839   8.278   4.982  1.00 20.00     0.152 C 
HETATM    4  C4  UNL     1     -33.321   6.202   3.671  1.00 20.00     0.025 C 
HETATM    5  C5  UNL     1     -33.158   7.724   3.599  1.00 20.00     0.056 C 
HETATM    6  C6  UNL     1     -34.377   5.760   4.713  1.00 20.00    -0.029 C 
HETATM    7  C7  UNL     1     -32.066   8.094   2.597  1.00 20.00     0.018 C 
HETATM    8  C8  UNL     1     -34.216   4.249   4.960  1.00 20.00     0.019 C 
HETATM    9  C9  UNL     1     -35.802   6.027   4.198  1.00 20.00     0.019 C 
HETATM   10  O10 UNL     1     -32.139   9.275   5.155  1.00 20.00    -0.293 OA
ENDROOT
TORSDOF 0
ENDMDL
MODEL 2
REMARK VINA RESULT:      -4.6      2.057      3.943
REMARK  0 active torsions:
REMARK  status: ('A' for Active; 'I' for Inactive)
ROOT
HETATM    1  C1  UNL     1     -32.942   5.790   3.187  1.00 20.00     0.047 C 
HETATM    2  C2  UNL     1     -32.591   7.080   3.250  1.00 20.00    -0.014 C 
HETATM    3  C3  UNL     1     -33.844   5.201   4.206  1.00 20.00     0.152 C 
HETATM    4  C4  UNL     1     -33.502   7.260   5.587  1.00 20.00     0.025 C 
HETATM    5  C5  UNL     1     -34.480   6.136   5.228  1.00 20.00     0.056 C 
HETATM    6  C6  UNL     1     -33.001   8.038   4.347  1.00 20.00    -0.029 C 
HETATM    7  C7  UNL     1     -34.895   5.372   6.484  1.00 20.00     0.018 C 
HETATM    8  C8  UNL     1     -31.785   8.887   4.762  1.00 20.00     0.019 C 
HETATM    9  C9  UNL     1     -34.095   8.975   3.806  1.00 20.00     0.019 C 
HETATM   10  O10 UNL     1     -34.098   3.999   4.155  1.00 20.00    -0.293 OA
ENDROOT
TORSDOF 0
ENDMDL
MODEL 3
REMARK VINA RESULT:      -4.2      1.598      2.168
REMARK  0 active torsions:
REMARK  status: ('A' for Active; 'I' for Inactive)
ROOT
HETATM    1  C1  UNL     1     -32.993   7.769   4.197  1.00 20.00     0.047 C 
HETATM    2  C2  UNL     1     -33.905   7.333   5.073  1.00 20.00    -0.014 C 
HETATM    3  C3  UNL     1     -32.583   6.924   3.048  1.00 20.00     0.152 C 
HETATM    4  C4  UNL     1     -33.743   4.999   4.150  1.00 20.00     0.025 C 
HETATM    5  C5  UNL     1     -33.339   5.622   2.809  1.00 20.00     0.056 C 
HETATM    6  C6  UNL     1     -34.556   5.968   5.041  1.00 20.00    -0.029 C 
HETATM    7  C7  UNL     1     -32.493   4.640   2.001  1.00 20.00     0.018 C 
HETATM    8  C8  UNL     1     -34.607   5.393   6.468  1.00 20.00     0.019 C 
HETATM    9  C9  UNL     1     -35.996   6.116   4.519  1.00 20.00     0.019 C 
HETATM   10  O10 UNL     1     -31.698   7.328   2.296  1.00 20.00    -0.293 OA
ENDROOT
TORSDOF 0
ENDMDL
MODEL 4
REMARK VINA RESULT:      -4.2      1.368      2.424
REMARK  0 active torsions:
REMARK  status: ('A' for Active; 'I' for Inactive)
ROOT
HETATM    1  C1  UNL     1     -32.762   5.945   2.886  1.00 20.00     0.047 C 
HETATM    2  C2  UNL     1     -33.806   5.347   3.471  1.00 20.00    -0.014 C 
HETATM    3  C3  UNL     1     -32.212   7.211   3.431  1.00 20.00     0.152 C 
HETATM    4  C4  UNL     1     -34.259   7.395   4.859  1.00 20.00     0.025 C 
HETATM    5  C5  UNL     1     -32.766   7.723   4.756  1.00 20.00     0.056 C 
HETATM    6  C6  UNL     1     -34.559   5.890   4.667  1.00 20.00    -0.029 C 
HETATM    7  C7  UNL     1     -32.540   9.226   4.897  1.00 20.00     0.018 C 
HETATM    8  C8  UNL     1     -36.072   5.718   4.437  1.00 20.00     0.019 C 
HETATM    9  C9  UNL     1     -34.155   5.086   5.915  1.00 20.00     0.019 C 
HETATM   10  O10 UNL     1     -31.292   7.767   2.834  1.00 20.00    -0.293 OA
ENDROOT
TORSDOF 0
ENDMDL
MODEL 5
REMARK VINA RESULT:      -4.0     12.017     12.962
REMARK  0 active torsions:
REMARK  status: ('A' for Active; 'I' for Inactive)
ROOT
HETATM    1  C1  UNL     1     -31.442  18.629   0.191  1.00 20.00     0.047 C 
HETATM    2  C2  UNL     1     -31.694  18.388  -1.100  1.00 20.00    -0.014 C 
HETATM    3  C3  UNL     1     -32.553  18.799   1.160  1.00 20.00     0.152 C 
HETATM    4  C4  UNL     1     -34.118  18.981  -0.784  1.00 20.00     0.025 C 
HETATM    5  C5  UNL     1     -33.974  18.538   0.675  1.00 20.00     0.056 C 
HETATM    6  C6  UNL     1     -33.074  18.322  -1.717  1.00 20.00    -0.029 C 
HETATM    7  C7  UNL     1     -34.992  19.263   1.553  1.00 20.00     0.018 C 
HETATM    8  C8  UNL     1     -33.070  19.079  -3.058  1.00 20.00     0.019 C 
HETATM    9  C9  UNL     1     -33.429  16.849  -1.985  1.00 20.00     0.019 C 
HETATM   10  O10 UNL     1     -32.288  19.081   2.328  1.00 20.00    -0.293 OA
ENDROOT
TORSDOF 0
ENDMDL
MODEL 6
REMARK VINA RESULT:      -3.9     12.149     12.806
REMARK  0 active torsions:
REMARK  status: ('A' for Active; 'I' for Inactive)
ROOT
HETATM    1  C1  UNL     1     -34.084  18.442   0.607  1.00 20.00     0.047 C 
HETATM    2  C2  UNL     1     -34.122  18.062  -0.675  1.00 20.00    -0.014 C 
HETATM    3  C3  UNL     1     -32.835  18.979   1.201  1.00 20.00     0.152 C 
HETATM    4  C4  UNL     1     -31.613  18.164  -0.825  1.00 20.00     0.025 C 
HETATM    5  C5  UNL     1     -31.650  19.230   0.275  1.00 20.00     0.056 C 
HETATM    6  C6  UNL     1     -32.939  18.073  -1.618  1.00 20.00    -0.029 C 
HETATM    7  C7  UNL     1     -30.338  19.232   1.057  1.00 20.00     0.018 C 
HETATM    8  C8  UNL     1     -32.928  16.770  -2.439  1.00 20.00     0.019 C 
HETATM    9  C9  UNL     1     -33.084  19.263  -2.583  1.00 20.00     0.019 C 
HETATM   10  O10 UNL     1     -32.817  19.263   2.398  1.00 20.00    -0.293 OA
ENDROOT
TORSDOF 0
ENDMDL
MODEL 7
REMARK VINA RESULT:      -3.8     12.292     13.602
REMARK  0 active torsions:
REMARK  status: ('A' for Active; 'I' for Inactive)
ROOT
HETATM    1  C1  UNL     1     -33.601  16.112  -3.588  1.00 20.00     0.047 C 
HETATM    2  C2  UNL     1     -33.176  16.635  -2.432  1.00 20.00    -0.014 C 
HETATM    3  C3  UNL     1     -34.539  16.862  -4.458  1.00 20.00     0.152 C 
HETATM    4  C4  UNL     1     -34.925  18.438  -2.553  1.00 20.00     0.025 C 
HETATM    5  C5  UNL     1     -34.878  18.299  -4.078  1.00 20.00     0.056 C 
HETATM    6  C6  UNL     1     -33.622  17.965  -1.866  1.00 20.00    -0.029 C 
HETATM    7  C7  UNL     1     -36.209  18.727  -4.692  1.00 20.00     0.018 C 
HETATM    8  C8  UNL     1     -33.893  17.812  -0.358  1.00 20.00     0.019 C 
HETATM    9  C9  UNL     1     -32.494  18.993  -2.062  1.00 20.00     0.019 C 
HETATM   10  O10 UNL     1     -34.959  16.328  -5.484  1.00 20.00    -0.293 OA
ENDROOT
TORSDOF 0
ENDMDL
MODEL 8
REMARK VINA RESULT:      -3.7     12.093     13.606
REMARK  0 active torsions:
REMARK  status: ('A' for Active; 'I' for Inactive)
ROOT
HETATM    1  C1  UNL     1     -33.340  16.055  -3.119  1.00 20.00     0.047 C 
HETATM    2  C2  UNL     1     -33.722  17.334  -3.017  1.00 20.00    -0.014 C 
HETATM    3  C3  UNL     1     -33.747  15.235  -4.286  1.00 20.00     0.152 C 
HETATM    4  C4  UNL     1     -35.381  17.034  -4.883  1.00 20.00     0.025 C 
HETATM    5  C5  UNL     1     -34.473  15.930  -5.433  1.00 20.00     0.056 C 
HETATM    6  C6  UNL     1     -34.621  18.052  -3.999  1.00 20.00    -0.029 C 
HETATM    7  C7  UNL     1     -35.288  14.928  -6.248  1.00 20.00     0.018 C 
HETATM    8  C8  UNL     1     -35.653  18.893  -3.225  1.00 20.00     0.019 C 
HETATM    9  C9  UNL     1     -33.763  18.995  -4.861  1.00 20.00     0.019 C 
HETATM   10  O10 UNL     1     -33.431  14.047  -4.320  1.00 20.00    -0.293 OA
ENDROOT
TORSDOF 0
ENDMDL
MODEL 9
REMARK VINA RESULT:      -3.7     12.053     13.464
REMARK  0 active torsions:
REMARK  status: ('A' for Active; 'I' for Inactive)
ROOT
HETATM    1  C1  UNL     1     -33.208  15.286  -3.892  1.00 20.00     0.047 C 
HETATM    2  C2  UNL     1     -33.711  14.885  -5.065  1.00 20.00    -0.014 C 
HETATM    3  C3  UNL     1     -33.558  16.615  -3.334  1.00 20.00     0.152 C 
HETATM    4  C4  UNL     1     -34.521  17.212  -5.564  1.00 20.00     0.025 C 
HETATM    5  C5  UNL     1     -34.621  17.438  -4.052  1.00 20.00     0.056 C 
HETATM    6  C6  UNL     1     -34.606  15.718  -5.955  1.00 20.00    -0.029 C 
HETATM    7  C7  UNL     1     -34.474  18.923  -3.726  1.00 20.00     0.018 C 
HETATM    8  C8  UNL     1     -34.151  15.569  -7.419  1.00 20.00     0.019 C 
HETATM    9  C9  UNL     1     -36.050  15.199  -5.834  1.00 20.00     0.019 C 
HETATM   10  O10 UNL     1     -33.031  16.979  -2.283  1.00 20.00    -0.293 OA
ENDROOT
TORSDOF 0
ENDMDL
