MODEL 1
REMARK VINA RESULT:      -3.6      0.000      0.000
REMARK  1 active torsions:
REMARK  status: ('A' for Active; 'I' for Inactive)
REMARK    1  A    between atoms: C3_3  and  C4_4 
ROOT
HETATM    1  C1  UNL     1     -33.630   7.095   4.789  1.00 20.00     0.086 C 
HETATM    2  C2  UNL     1     -35.840   6.148   4.216  1.00 20.00     0.050 C 
HETATM    3  C4  UNL     1     -34.448   5.869   4.790  1.00 20.00     0.134 C 
HETATM    4  N5  UNL     1     -32.987   8.061   4.785  1.00 20.00    -0.195 NA
HETATM    5 CL7  UNL     1     -34.646   5.404   6.520  1.00 20.00    -0.102 Cl
ENDROOT
BRANCH   3   6
HETATM    6  C3  UNL     1     -33.731   4.713   4.077  1.00 20.00     0.155 C 
HETATM    7 CL6  UNL     1     -32.897   5.218   2.580  1.00 20.00    -0.127 Cl
ENDBRANCH   3   6
TORSDOF 1
ENDMDL
MODEL 2
REMARK VINA RESULT:      -3.5      2.260      2.691
REMARK  1 active torsions:
REMARK  status: ('A' for Active; 'I' for Inactive)
REMARK    1  A    between atoms: C3_3  and  C4_4 
ROOT
HETATM    1  C1  UNL     1     -33.557   5.509   3.606  1.00 20.00     0.086 C 
HETATM    2  C2  UNL     1     -34.373   5.023   5.887  1.00 20.00     0.050 C 
HETATM    3  C4  UNL     1     -34.340   6.034   4.738  1.00 20.00     0.134 C 
HETATM    4  N5  UNL     1     -32.937   5.094   2.716  1.00 20.00    -0.195 NA
HETATM    5 CL7  UNL     1     -36.025   6.234   4.128  1.00 20.00    -0.102 Cl
ENDROOT
BRANCH   3   6
HETATM    6  C3  UNL     1     -33.837   7.417   5.177  1.00 20.00     0.155 C 
HETATM    7 CL6  UNL     1     -32.474   8.017   4.190  1.00 20.00    -0.127 Cl
ENDBRANCH   3   6
TORSDOF 1
ENDMDL
MODEL 3
REMARK VINA RESULT:      -3.1     13.212     13.829
REMARK  1 active torsions:
REMARK  status: ('A' for Active; 'I' for Inactive)
REMARK    1  A    between atoms: C3_3  and  C4_4 
ROOT
HETATM    1  C1  UNL     1     -34.096  15.175  -6.677  1.00 20.00     0.086 C 
HETATM    2  C2  UNL     1     -35.952  14.332  -5.280  1.00 20.00     0.050 C 
HETATM    3  C4  UNL     1     -34.691  15.199  -5.329  1.00 20.00     0.134 C 
HETATM    4  N5  UNL     1     -33.628  15.153  -7.739  1.00 20.00    -0.195 NA
HETATM    5 CL7  UNL     1     -35.182  16.908  -5.031  1.00 20.00    -0.102 Cl
ENDROOT
BRANCH   3   6
HETATM    6  C3  UNL     1     -33.664  14.815  -4.253  1.00 20.00     0.155 C 
HETATM    7 CL6  UNL     1     -33.420  16.091  -3.026  1.00 20.00    -0.127 Cl
ENDBRANCH   3   6
TORSDOF 1
ENDMDL
MODEL 4
REMARK VINA RESULT:      -3.1      1.768      2.638
REMARK  1 active torsions:
REMARK  status: ('A' for Active; 'I' for Inactive)
REMARK    1  A    between atoms: C3_3  and  C4_4 
ROOT
HETATM    1  C1  UNL     1     -33.431   6.725   4.165  1.00 20.00     0.086 C 
HETATM    2  C2  UNL     1     -33.976   4.315   4.197  1.00 20.00     0.050 C 
HETATM    3  C4  UNL     1     -34.352   5.709   4.706  1.00 20.00     0.134 C 
HETATM    4  N5  UNL     1     -32.703   7.523   3.741  1.00 20.00    -0.195 NA
HETATM    5 CL7  UNL     1     -35.982   6.116   4.051  1.00 20.00    -0.102 Cl
ENDROOT
BRANCH   3   6
HETATM    6  C3  UNL     1     -34.435   5.782   6.237  1.00 20.00     0.155 C 
HETATM    7 CL6  UNL     1     -34.216   7.436   6.877  1.00 20.00    -0.127 Cl
ENDBRANCH   3   6
TORSDOF 1
ENDMDL
MODEL 5
REMARK VINA RESULT:      -3.1     13.132     13.984
REMARK  1 active torsions:
REMARK  status: ('A' for Active; 'I' for Inactive)
REMARK    1  A    between atoms: C3_3  and  C4_4 
ROOT
HETATM    1  C1  UNL     1     -31.853  18.473  -1.028  1.00 20.00     0.086 C 
HETATM    2  C2  UNL     1     -33.308  16.828  -2.159  1.00 20.00     0.050 C 
HETATM    3  C4  UNL     1     -33.120  18.293  -1.761  1.00 20.00     0.134 C 
HETATM    4  N5  UNL     1     -30.857  18.613  -0.449  1.00 20.00    -0.195 NA
HETATM    5 CL7  UNL     1     -32.962  19.262  -3.273  1.00 20.00    -0.102 Cl
ENDROOT
BRANCH   3   6
HETATM    6  C3  UNL     1     -34.312  18.854  -0.971  1.00 20.00     0.155 C 
HETATM    7 CL6  UNL     1     -34.204  18.540   0.784  1.00 20.00    -0.127 Cl
ENDBRANCH   3   6
TORSDOF 1
ENDMDL
MODEL 6
REMARK VINA RESULT:      -3.0     12.562     13.359
REMARK  1 active torsions:
REMARK  status: ('A' for Active; 'I' for Inactive)
REMARK    1  A    between atoms: C3_3  and  C4_4 
ROOT
HETATM    1  C1  UNL     1     -35.352  14.186  -4.754  1.00 20.00     0.086 C 
HETATM    2  C2  UNL     1     -35.206  16.643  -4.975  1.00 20.00     0.050 C 
HETATM    3  C4  UNL     1     -34.445  15.315  -5.026  1.00 20.00     0.134 C 
HETATM    4  N5  UNL     1     -36.067  13.298  -4.537  1.00 20.00    -0.195 NA
HETATM    5 CL7  UNL     1     -33.851  15.082  -6.712  1.00 20.00    -0.102 Cl
ENDROOT
BRANCH   3   6
HETATM    6  C3  UNL     1     -33.224  15.293  -4.095  1.00 20.00     0.155 C 
HETATM    7 CL6  UNL     1     -33.400  16.364  -2.676  1.00 20.00    -0.127 Cl
ENDBRANCH   3   6
TORSDOF 1
ENDMDL
MODEL 7
REMARK VINA RESULT:      -3.0      9.400      9.979
REMARK  1 active torsions:
REMARK  status: ('A' for Active; 'I' for Inactive)
REMARK    1  A    between atoms: C3_3  and  C4_4 
ROOT
HETATM    1  C1  UNL     1     -42.744   5.934  -0.593  1.00 20.00     0.086 C 
HETATM    2  C2  UNL     1     -42.460   8.387  -0.489  1.00 20.00     0.050 C 
HETATM    3  C4  UNL     1     -42.353   7.062   0.271  1.00 20.00     0.134 C 
HETATM    4  N5  UNL     1     -43.054   5.048  -1.274  1.00 20.00    -0.195 NA
HETATM    5 CL7  UNL     1     -40.617   6.798   0.680  1.00 20.00    -0.102 Cl
ENDROOT
BRANCH   3   6
HETATM    6  C3  UNL     1     -43.146   7.065   1.586  1.00 20.00     0.155 C 
HETATM    7 CL6  UNL     1     -43.337   5.437   2.297  1.00 20.00    -0.127 Cl
ENDBRANCH   3   6
TORSDOF 1
ENDMDL
MODEL 8
REMARK VINA RESULT:      -3.0     16.424     17.305
REMARK  1 active torsions:
REMARK  status: ('A' for Active; 'I' for Inactive)
REMARK    1  A    between atoms: C3_3  and  C4_4 
ROOT
HETATM    1  C1  UNL     1     -22.817  17.388   9.791  1.00 20.00     0.086 C 
HETATM    2  C2  UNL     1     -24.516  16.505  11.353  1.00 20.00     0.050 C 
HETATM    3  C4  UNL     1     -23.767  17.746  10.860  1.00 20.00     0.134 C 
HETATM    4  N5  UNL     1     -22.068  17.104   8.951  1.00 20.00    -0.195 NA
HETATM    5 CL7  UNL     1     -24.971  18.855  10.105  1.00 20.00    -0.102 Cl
ENDROOT
BRANCH   3   6
HETATM    6  C3  UNL     1     -23.074  18.514  11.995  1.00 20.00     0.155 C 
HETATM    7 CL6  UNL     1     -21.293  18.513  11.861  1.00 20.00    -0.127 Cl
ENDBRANCH   3   6
TORSDOF 1
ENDMDL
MODEL 9
REMARK VINA RESULT:      -3.0     16.248     17.206
REMARK  1 active torsions:
REMARK  status: ('A' for Active; 'I' for Inactive)
REMARK    1  A    between atoms: C3_3  and  C4_4 
ROOT
HETATM    1  C1  UNL     1     -24.960  18.836  11.730  1.00 20.00     0.086 C 
HETATM    2  C2  UNL     1     -22.502  18.605  11.848  1.00 20.00     0.050 C 
HETATM    3  C4  UNL     1     -23.767  18.324  11.032  1.00 20.00     0.134 C 
HETATM    4  N5  UNL     1     -25.898  19.237  12.283  1.00 20.00    -0.195 NA
HETATM    5 CL7  UNL     1     -23.652  19.258   9.494  1.00 20.00    -0.102 Cl
ENDROOT
BRANCH   3   6
HETATM    6  C3  UNL     1     -23.921  16.841  10.666  1.00 20.00     0.155 C 
HETATM    7 CL6  UNL     1     -24.535  15.842  12.014  1.00 20.00    -0.127 Cl
ENDBRANCH   3   6
TORSDOF 1
ENDMDL
