MODEL 1
REMARK VINA RESULT:      -4.2      0.000      0.000
REMARK  3 active torsions:
REMARK  status: ('A' for Active; 'I' for Inactive)
REMARK    1  A    between atoms: C1_1  and  C4_4 
REMARK    2  A    between atoms: C2_2  and  C7_7 
REMARK    3  A    between atoms: C7_7  and  O8_8 
ROOT
HETATM    1  C1  UNL     1     -33.147  16.995  -2.171  1.00 20.00    -0.070 C 
HETATM    2  C2  UNL     1     -33.240  16.285  -3.135  1.00 20.00    -0.070 C 
ENDROOT
BRANCH   2   3
HETATM    3  C7  UNL     1     -33.357  15.418  -4.314  1.00 20.00     0.193 C 
HETATM    4  C6  UNL     1     -34.392  14.327  -4.093  1.00 20.00     0.053 C 
BRANCH   3   5
HETATM    5  O8  UNL     1     -32.105  14.792  -4.585  1.00 20.00    -0.384 OA
HETATM    6  H18 UNL     1     -32.305  13.955  -5.031  1.00 20.00     0.211 HD
ENDBRANCH   3   5
ENDBRANCH   2   3
BRANCH   1   7
HETATM    7  C4  UNL     1     -33.029  17.836  -1.024  1.00 20.00    -0.018 C 
HETATM    8  C3  UNL     1     -34.067  17.947  -0.182  1.00 20.00     0.028 C 
HETATM    9  C5  UNL     1     -31.743  18.573  -0.795  1.00 20.00     0.057 C 
ENDBRANCH   1   7
TORSDOF 3
ENDMDL
MODEL 2
REMARK VINA RESULT:      -4.1      0.083      1.241
REMARK  3 active torsions:
REMARK  status: ('A' for Active; 'I' for Inactive)
REMARK    1  A    between atoms: C1_1  and  C4_4 
REMARK    2  A    between atoms: C2_2  and  C7_7 
REMARK    3  A    between atoms: C7_7  and  O8_8 
ROOT
HETATM    1  C1  UNL     1     -33.109  17.020  -2.186  1.00 20.00    -0.070 C 
HETATM    2  C2  UNL     1     -33.229  16.305  -3.145  1.00 20.00    -0.070 C 
ENDROOT
BRANCH   2   3
HETATM    3  C7  UNL     1     -33.375  15.430  -4.314  1.00 20.00     0.193 C 
HETATM    4  C6  UNL     1     -34.401  14.338  -4.059  1.00 20.00     0.053 C 
BRANCH   3   5
HETATM    5  O8  UNL     1     -32.130  14.804  -4.614  1.00 20.00    -0.384 OA
HETATM    6  H18 UNL     1     -31.730  15.314  -5.336  1.00 20.00     0.211 HD
ENDBRANCH   3   5
ENDBRANCH   2   3
BRANCH   1   7
HETATM    7  C4  UNL     1     -32.973  17.871  -1.050  1.00 20.00    -0.018 C 
HETATM    8  C3  UNL     1     -31.855  18.598  -0.905  1.00 20.00     0.028 C 
HETATM    9  C5  UNL     1     -34.088  17.928  -0.048  1.00 20.00     0.057 C 
ENDBRANCH   1   7
TORSDOF 3
ENDMDL
MODEL 3
REMARK VINA RESULT:      -4.0      1.037      1.081
REMARK  3 active torsions:
REMARK  status: ('A' for Active; 'I' for Inactive)
REMARK    1  A    between atoms: C1_1  and  C4_4 
REMARK    2  A    between atoms: C2_2  and  C7_7 
REMARK    3  A    between atoms: C7_7  and  O8_8 
ROOT
HETATM    1  C1  UNL     1     -33.403  16.698  -2.905  1.00 20.00    -0.070 C 
HETATM    2  C2  UNL     1     -33.537  15.864  -3.759  1.00 20.00    -0.070 C 
ENDROOT
BRANCH   2   3
HETATM    3  C7  UNL     1     -33.704  14.845  -4.803  1.00 20.00     0.193 C 
HETATM    4  C6  UNL     1     -35.155  14.405  -4.914  1.00 20.00     0.053 C 
BRANCH   3   5
HETATM    5  O8  UNL     1     -32.916  13.698  -4.495  1.00 20.00    -0.384 OA
HETATM    6  H18 UNL     1     -32.633  13.795  -3.574  1.00 20.00     0.211 HD
ENDBRANCH   3   5
ENDBRANCH   2   3
BRANCH   1   7
HETATM    7  C4  UNL     1     -33.236  17.688  -1.891  1.00 20.00    -0.018 C 
HETATM    8  C3  UNL     1     -33.732  17.463  -0.666  1.00 20.00     0.028 C 
HETATM    9  C5  UNL     1     -32.509  18.956  -2.229  1.00 20.00     0.057 C 
ENDBRANCH   1   7
TORSDOF 3
ENDMDL
MODEL 4
REMARK VINA RESULT:      -4.0     11.726     12.247
REMARK  3 active torsions:
REMARK  status: ('A' for Active; 'I' for Inactive)
REMARK    1  A    between atoms: C1_1  and  C4_4 
REMARK    2  A    between atoms: C2_2  and  C7_7 
REMARK    3  A    between atoms: C7_7  and  O8_8 
ROOT
HETATM    1  C1  UNL     1     -33.377   7.423   4.282  1.00 20.00    -0.070 C 
HETATM    2  C2  UNL     1     -34.005   6.457   4.623  1.00 20.00    -0.070 C 
ENDROOT
BRANCH   2   3
HETATM    3  C7  UNL     1     -34.771   5.275   5.037  1.00 20.00     0.193 C 
HETATM    4  C6  UNL     1     -34.762   5.118   6.550  1.00 20.00     0.053 C 
BRANCH   3   5
HETATM    5  O8  UNL     1     -34.202   4.099   4.468  1.00 20.00    -0.384 OA
HETATM    6  H18 UNL     1     -34.897   3.424   4.474  1.00 20.00     0.211 HD
ENDBRANCH   3   5
ENDBRANCH   2   3
BRANCH   1   7
HETATM    7  C4  UNL     1     -32.632   8.572   3.885  1.00 20.00    -0.018 C 
HETATM    8  C3  UNL     1     -32.021   9.314   4.821  1.00 20.00     0.028 C 
HETATM    9  C5  UNL     1     -32.555   8.919   2.427  1.00 20.00     0.057 C 
ENDBRANCH   1   7
TORSDOF 3
ENDMDL
MODEL 5
REMARK VINA RESULT:      -3.9     11.735     12.258
REMARK  3 active torsions:
REMARK  status: ('A' for Active; 'I' for Inactive)
REMARK    1  A    between atoms: C1_1  and  C4_4 
REMARK    2  A    between atoms: C2_2  and  C7_7 
REMARK    3  A    between atoms: C7_7  and  O8_8 
ROOT
HETATM    1  C1  UNL     1     -33.368   7.402   4.252  1.00 20.00    -0.070 C 
HETATM    2  C2  UNL     1     -33.992   6.438   4.607  1.00 20.00    -0.070 C 
ENDROOT
BRANCH   2   3
HETATM    3  C7  UNL     1     -34.755   5.261   5.038  1.00 20.00     0.193 C 
HETATM    4  C6  UNL     1     -34.703   5.095   6.548  1.00 20.00     0.053 C 
BRANCH   3   5
HETATM    5  O8  UNL     1     -34.213   4.083   4.445  1.00 20.00    -0.384 OA
HETATM    6  H18 UNL     1     -33.254   4.122   4.579  1.00 20.00     0.211 HD
ENDBRANCH   3   5
ENDBRANCH   2   3
BRANCH   1   7
HETATM    7  C4  UNL     1     -32.621   8.544   3.837  1.00 20.00    -0.018 C 
HETATM    8  C3  UNL     1     -32.522   8.822   2.528  1.00 20.00     0.028 C 
HETATM    9  C5  UNL     1     -31.965   9.401   4.879  1.00 20.00     0.057 C 
ENDBRANCH   1   7
TORSDOF 3
ENDMDL
MODEL 6
REMARK VINA RESULT:      -3.6     11.706     13.028
REMARK  3 active torsions:
REMARK  status: ('A' for Active; 'I' for Inactive)
REMARK    1  A    between atoms: C1_1  and  C4_4 
REMARK    2  A    between atoms: C2_2  and  C7_7 
REMARK    3  A    between atoms: C7_7  and  O8_8 
ROOT
HETATM    1  C1  UNL     1     -40.385  12.199   5.838  1.00 20.00    -0.070 C 
HETATM    2  C2  UNL     1     -41.454  12.351   6.367  1.00 20.00    -0.070 C 
ENDROOT
BRANCH   2   3
HETATM    3  C7  UNL     1     -42.759  12.537   7.011  1.00 20.00     0.193 C 
HETATM    4  C6  UNL     1     -42.688  13.600   8.096  1.00 20.00     0.053 C 
BRANCH   3   5
HETATM    5  O8  UNL     1     -43.184  11.318   7.615  1.00 20.00    -0.384 OA
HETATM    6  H18 UNL     1     -42.937  10.606   7.005  1.00 20.00     0.211 HD
ENDBRANCH   3   5
ENDBRANCH   2   3
BRANCH   1   7
HETATM    7  C4  UNL     1     -39.116  12.012   5.213  1.00 20.00    -0.018 C 
HETATM    8  C3  UNL     1     -37.999  12.152   5.943  1.00 20.00     0.028 C 
HETATM    9  C5  UNL     1     -39.070  11.665   3.755  1.00 20.00     0.057 C 
ENDBRANCH   1   7
TORSDOF 3
ENDMDL
MODEL 7
REMARK VINA RESULT:      -3.5      2.565      4.704
REMARK  3 active torsions:
REMARK  status: ('A' for Active; 'I' for Inactive)
REMARK    1  A    between atoms: C1_1  and  C4_4 
REMARK    2  A    between atoms: C2_2  and  C7_7 
REMARK    3  A    between atoms: C7_7  and  O8_8 
ROOT
HETATM    1  C1  UNL     1     -33.292  17.336  -2.275  1.00 20.00    -0.070 C 
HETATM    2  C2  UNL     1     -32.986  17.904  -1.261  1.00 20.00    -0.070 C 
ENDROOT
BRANCH   2   3
HETATM    3  C7  UNL     1     -32.610  18.598  -0.024  1.00 20.00     0.193 C 
HETATM    4  C6  UNL     1     -31.120  18.466   0.249  1.00 20.00     0.053 C 
BRANCH   3   5
HETATM    5  O8  UNL     1     -33.312  18.038   1.083  1.00 20.00    -0.384 OA
HETATM    6  H18 UNL     1     -32.674  17.497   1.572  1.00 20.00     0.211 HD
ENDBRANCH   3   5
ENDBRANCH   2   3
BRANCH   1   7
HETATM    7  C4  UNL     1     -33.663  16.663  -3.477  1.00 20.00    -0.018 C 
HETATM    8  C3  UNL     1     -33.089  15.488  -3.775  1.00 20.00     0.028 C 
HETATM    9  C5  UNL     1     -34.686  17.293  -4.375  1.00 20.00     0.057 C 
ENDBRANCH   1   7
TORSDOF 3
ENDMDL
MODEL 8
REMARK VINA RESULT:      -3.4     10.847     11.506
REMARK  3 active torsions:
REMARK  status: ('A' for Active; 'I' for Inactive)
REMARK    1  A    between atoms: C1_1  and  C4_4 
REMARK    2  A    between atoms: C2_2  and  C7_7 
REMARK    3  A    between atoms: C7_7  and  O8_8 
ROOT
HETATM    1  C1  UNL     1     -33.479   7.191   4.389  1.00 20.00    -0.070 C 
HETATM    2  C2  UNL     1     -32.909   7.804   3.527  1.00 20.00    -0.070 C 
ENDROOT
BRANCH   2   3
HETATM    3  C7  UNL     1     -32.212   8.553   2.475  1.00 20.00     0.193 C 
HETATM    4  C6  UNL     1     -33.050   9.725   1.989  1.00 20.00     0.053 C 
BRANCH   3   5
HETATM    5  O8  UNL     1     -31.953   7.704   1.360  1.00 20.00    -0.384 OA
HETATM    6  H18 UNL     1     -31.111   7.259   1.540  1.00 20.00     0.211 HD
ENDBRANCH   3   5
ENDBRANCH   2   3
BRANCH   1   7
HETATM    7  C4  UNL     1     -34.157   6.458   5.408  1.00 20.00    -0.018 C 
HETATM    8  C3  UNL     1     -34.244   6.977   6.642  1.00 20.00     0.028 C 
HETATM    9  C5  UNL     1     -34.752   5.124   5.068  1.00 20.00     0.057 C 
ENDBRANCH   1   7
TORSDOF 3
ENDMDL
MODEL 9
REMARK VINA RESULT:      -3.4      3.350      5.208
REMARK  3 active torsions:
REMARK  status: ('A' for Active; 'I' for Inactive)
REMARK    1  A    between atoms: C1_1  and  C4_4 
REMARK    2  A    between atoms: C2_2  and  C7_7 
REMARK    3  A    between atoms: C7_7  and  O8_8 
ROOT
HETATM    1  C1  UNL     1     -33.189  18.158  -0.774  1.00 20.00    -0.070 C 
HETATM    2  C2  UNL     1     -32.633  18.555   0.214  1.00 20.00    -0.070 C 
ENDROOT
BRANCH   2   3
HETATM    3  C7  UNL     1     -31.955  19.038   1.423  1.00 20.00     0.193 C 
HETATM    4  C6  UNL     1     -30.721  18.205   1.730  1.00 20.00     0.053 C 
BRANCH   3   5
HETATM    5  O8  UNL     1     -32.833  18.956   2.542  1.00 20.00    -0.384 OA
HETATM    6  H18 UNL     1     -33.061  18.019   2.647  1.00 20.00     0.211 HD
ENDBRANCH   3   5
ENDBRANCH   2   3
BRANCH   1   7
HETATM    7  C4  UNL     1     -33.846  17.693  -1.952  1.00 20.00    -0.018 C 
HETATM    8  C3  UNL     1     -34.902  18.372  -2.425  1.00 20.00     0.028 C 
HETATM    9  C5  UNL     1     -33.336  16.454  -2.626  1.00 20.00     0.057 C 
ENDBRANCH   1   7
TORSDOF 3
ENDMDL
