MODEL 1
REMARK VINA RESULT:      -5.2      0.000      0.000
REMARK  1 active torsions:
REMARK  status: ('A' for Active; 'I' for Inactive)
REMARK    1  A    between atoms: C3_3  and  C6_6 
ROOT
HETATM    1  C1  UNL     1     -33.731   7.123   6.248  1.00 20.00    -0.024 C 
HETATM    2  C2  UNL     1     -33.204   7.627   5.116  1.00 20.00    -0.076 C 
HETATM    3  C4  UNL     1     -34.713   5.990   6.286  1.00 20.00     0.028 C 
HETATM    4  C5  UNL     1     -35.298   5.656   4.913  1.00 20.00     0.009 C 
HETATM    5  C6  UNL     1     -33.546   7.045   3.760  1.00 20.00     0.079 C 
HETATM    6  C7  UNL     1     -34.223   5.650   3.814  1.00 20.00    -0.004 C 
HETATM    7  C8  UNL     1     -32.321   8.845   5.162  1.00 20.00     0.044 C 
HETATM    8  C9  UNL     1     -33.248   4.481   4.026  1.00 20.00     0.011 C 
ENDROOT
BRANCH   5   9
HETATM    9  C3  UNL     1     -32.326   7.007   2.883  1.00 20.00     0.240 C 
HETATM   10  O10 UNL     1     -32.214   7.661   1.851  1.00 20.00    -0.306 OA
ENDBRANCH   5   9
TORSDOF 1
ENDMDL
MODEL 2
REMARK VINA RESULT:      -5.1      1.868      3.477
REMARK  1 active torsions:
REMARK  status: ('A' for Active; 'I' for Inactive)
REMARK    1  A    between atoms: C3_3  and  C6_6 
ROOT
HETATM    1  C1  UNL     1     -32.153   7.229   3.470  1.00 20.00    -0.024 C 
HETATM    2  C2  UNL     1     -33.102   6.279   3.380  1.00 20.00    -0.076 C 
HETATM    3  C4  UNL     1     -32.245   8.424   4.372  1.00 20.00     0.028 C 
HETATM    4  C5  UNL     1     -33.644   8.630   4.957  1.00 20.00     0.009 C 
HETATM    5  C6  UNL     1     -34.352   6.327   4.236  1.00 20.00     0.079 C 
HETATM    6  C7  UNL     1     -34.270   7.310   5.433  1.00 20.00    -0.004 C 
HETATM    7  C8  UNL     1     -32.986   5.179   2.359  1.00 20.00     0.044 C 
HETATM    8  C9  UNL     1     -33.506   6.764   6.649  1.00 20.00     0.011 C 
ENDROOT
BRANCH   5   9
HETATM    9  C3  UNL     1     -34.718   4.947   4.708  1.00 20.00     0.240 C 
HETATM   10  O10 UNL     1     -33.924   4.012   4.743  1.00 20.00    -0.306 OA
ENDBRANCH   5   9
TORSDOF 1
ENDMDL
MODEL 3
REMARK VINA RESULT:      -4.7      1.168      1.168
REMARK  1 active torsions:
REMARK  status: ('A' for Active; 'I' for Inactive)
REMARK    1  A    between atoms: C3_3  and  C6_6 
ROOT
HETATM    1  C1  UNL     1     -33.525   7.381   6.030  1.00 20.00    -0.024 C 
HETATM    2  C2  UNL     1     -33.183   7.382   4.728  1.00 20.00    -0.076 C 
HETATM    3  C4  UNL     1     -34.504   6.423   6.640  1.00 20.00     0.028 C 
HETATM    4  C5  UNL     1     -35.310   5.642   5.600  1.00 20.00     0.009 C 
HETATM    5  C6  UNL     1     -33.750   6.360   3.762  1.00 20.00     0.079 C 
HETATM    6  C7  UNL     1     -34.429   5.144   4.443  1.00 20.00    -0.004 C 
HETATM    7  C8  UNL     1     -32.287   8.457   4.175  1.00 20.00     0.044 C 
HETATM    8  C9  UNL     1     -33.450   4.070   4.942  1.00 20.00     0.011 C 
ENDROOT
BRANCH   5   9
HETATM    9  C3  UNL     1     -32.689   5.904   2.799  1.00 20.00     0.240 C 
HETATM   10  O10 UNL     1     -32.836   4.961   2.028  1.00 20.00    -0.306 OA
ENDBRANCH   5   9
TORSDOF 1
ENDMDL
MODEL 4
REMARK VINA RESULT:      -4.4      1.157      2.712
REMARK  1 active torsions:
REMARK  status: ('A' for Active; 'I' for Inactive)
REMARK    1  A    between atoms: C3_3  and  C6_6 
ROOT
HETATM    1  C1  UNL     1     -34.443   5.139   4.517  1.00 20.00    -0.024 C 
HETATM    2  C2  UNL     1     -33.479   5.702   3.766  1.00 20.00    -0.076 C 
HETATM    3  C4  UNL     1     -34.831   5.619   5.884  1.00 20.00     0.028 C 
HETATM    4  C5  UNL     1     -33.831   6.613   6.478  1.00 20.00     0.009 C 
HETATM    5  C6  UNL     1     -32.718   6.922   4.244  1.00 20.00     0.079 C 
HETATM    6  C7  UNL     1     -33.371   7.654   5.445  1.00 20.00    -0.004 C 
HETATM    7  C8  UNL     1     -33.070   5.081   2.458  1.00 20.00     0.044 C 
HETATM    8  C9  UNL     1     -34.536   8.580   5.064  1.00 20.00     0.011 C 
ENDROOT
BRANCH   5   9
HETATM    9  C3  UNL     1     -32.486   7.876   3.105  1.00 20.00     0.240 C 
HETATM   10  O10 UNL     1     -32.203   9.059   3.261  1.00 20.00    -0.306 OA
ENDBRANCH   5   9
TORSDOF 1
ENDMDL
MODEL 5
REMARK VINA RESULT:      -4.4      1.514      3.063
REMARK  1 active torsions:
REMARK  status: ('A' for Active; 'I' for Inactive)
REMARK    1  A    between atoms: C3_3  and  C6_6 
ROOT
HETATM    1  C1  UNL     1     -34.338   7.572   5.456  1.00 20.00    -0.024 C 
HETATM    2  C2  UNL     1     -34.039   6.472   4.742  1.00 20.00    -0.076 C 
HETATM    3  C4  UNL     1     -33.493   8.811   5.485  1.00 20.00     0.028 C 
HETATM    4  C5  UNL     1     -32.106   8.607   4.873  1.00 20.00     0.009 C 
HETATM    5  C6  UNL     1     -32.810   6.416   3.857  1.00 20.00     0.079 C 
HETATM    6  C7  UNL     1     -32.165   7.797   3.568  1.00 20.00    -0.004 C 
HETATM    7  C8  UNL     1     -34.878   5.229   4.867  1.00 20.00     0.044 C 
HETATM    8  C9  UNL     1     -32.870   8.606   2.468  1.00 20.00     0.011 C 
ENDROOT
BRANCH   5   9
HETATM    9  C3  UNL     1     -33.119   5.697   2.573  1.00 20.00     0.240 C 
HETATM   10  O10 UNL     1     -32.688   4.581   2.302  1.00 20.00    -0.306 OA
ENDBRANCH   5   9
TORSDOF 1
ENDMDL
MODEL 6
REMARK VINA RESULT:      -4.3      2.035      3.979
REMARK  1 active torsions:
REMARK  status: ('A' for Active; 'I' for Inactive)
REMARK    1  A    between atoms: C3_3  and  C6_6 
ROOT
HETATM    1  C1  UNL     1     -32.695   6.024   2.833  1.00 20.00    -0.024 C 
HETATM    2  C2  UNL     1     -33.521   5.914   3.890  1.00 20.00    -0.076 C 
HETATM    3  C4  UNL     1     -32.223   7.331   2.268  1.00 20.00     0.028 C 
HETATM    4  C5  UNL     1     -33.001   8.534   2.806  1.00 20.00     0.009 C 
HETATM    5  C6  UNL     1     -34.019   7.137   4.633  1.00 20.00     0.079 C 
HETATM    6  C7  UNL     1     -33.235   8.439   4.322  1.00 20.00    -0.004 C 
HETATM    7  C8  UNL     1     -34.043   4.568   4.314  1.00 20.00     0.044 C 
HETATM    8  C9  UNL     1     -31.903   8.571   5.077  1.00 20.00     0.011 C 
ENDROOT
BRANCH   5   9
HETATM    9  C3  UNL     1     -34.046   6.877   6.114  1.00 20.00     0.240 C 
HETATM   10  O10 UNL     1     -34.939   6.251   6.674  1.00 20.00    -0.306 OA
ENDBRANCH   5   9
TORSDOF 1
ENDMDL
MODEL 7
REMARK VINA RESULT:      -4.1      2.043      3.099
REMARK  1 active torsions:
REMARK  status: ('A' for Active; 'I' for Inactive)
REMARK    1  A    between atoms: C3_3  and  C6_6 
ROOT
HETATM    1  C1  UNL     1     -32.694   6.599   2.836  1.00 20.00    -0.024 C 
HETATM    2  C2  UNL     1     -32.745   7.228   4.025  1.00 20.00    -0.076 C 
HETATM    3  C4  UNL     1     -33.249   5.229   2.586  1.00 20.00     0.028 C 
HETATM    4  C5  UNL     1     -33.607   4.482   3.872  1.00 20.00     0.009 C 
HETATM    5  C6  UNL     1     -33.421   6.595   5.224  1.00 20.00     0.079 C 
HETATM    6  C7  UNL     1     -34.332   5.386   4.882  1.00 20.00    -0.004 C 
HETATM    7  C8  UNL     1     -32.055   8.551   4.219  1.00 20.00     0.044 C 
HETATM    8  C9  UNL     1     -35.722   5.771   4.353  1.00 20.00     0.011 C 
ENDROOT
BRANCH   5   9
HETATM    9  C3  UNL     1     -34.185   7.629   6.003  1.00 20.00     0.240 C 
HETATM   10  O10 UNL     1     -34.483   7.500   7.186  1.00 20.00    -0.306 OA
ENDBRANCH   5   9
TORSDOF 1
ENDMDL
MODEL 8
REMARK VINA RESULT:      -3.5     12.369     13.779
REMARK  1 active torsions:
REMARK  status: ('A' for Active; 'I' for Inactive)
REMARK    1  A    between atoms: C3_3  and  C6_6 
ROOT
HETATM    1  C1  UNL     1     -33.255  16.396  -2.656  1.00 20.00    -0.024 C 
HETATM    2  C2  UNL     1     -33.813  16.023  -3.823  1.00 20.00    -0.076 C 
HETATM    3  C4  UNL     1     -33.069  17.823  -2.232  1.00 20.00     0.028 C 
HETATM    4  C5  UNL     1     -33.291  18.821  -3.370  1.00 20.00     0.009 C 
HETATM    5  C6  UNL     1     -34.345  17.046  -4.806  1.00 20.00     0.079 C 
HETATM    6  C7  UNL     1     -34.525  18.468  -4.215  1.00 20.00    -0.004 C 
HETATM    7  C8  UNL     1     -33.848  14.572  -4.222  1.00 20.00     0.044 C 
HETATM    8  C9  UNL     1     -35.808  18.653  -3.390  1.00 20.00     0.011 C 
ENDROOT
BRANCH   5   9
HETATM    9  C3  UNL     1     -35.628  16.563  -5.423  1.00 20.00     0.240 C 
HETATM   10  O10 UNL     1     -35.786  16.420  -6.631  1.00 20.00    -0.306 OA
ENDBRANCH   5   9
TORSDOF 1
ENDMDL
MODEL 9
REMARK VINA RESULT:      -3.5     12.620     13.973
REMARK  1 active torsions:
REMARK  status: ('A' for Active; 'I' for Inactive)
REMARK    1  A    between atoms: C3_3  and  C6_6 
ROOT
HETATM    1  C1  UNL     1     -33.600  16.766  -3.653  1.00 20.00    -0.024 C 
HETATM    2  C2  UNL     1     -34.000  15.781  -4.479  1.00 20.00    -0.076 C 
HETATM    3  C4  UNL     1     -33.895  18.220  -3.875  1.00 20.00     0.028 C 
HETATM    4  C5  UNL     1     -34.426  18.518  -5.278  1.00 20.00     0.009 C 
HETATM    5  C6  UNL     1     -34.834  16.074  -5.710  1.00 20.00     0.079 C 
HETATM    6  C7  UNL     1     -35.473  17.487  -5.729  1.00 20.00    -0.004 C 
HETATM    7  C8  UNL     1     -33.555  14.363  -4.246  1.00 20.00     0.044 C 
HETATM    8  C9  UNL     1     -36.749  17.616  -4.883  1.00 20.00     0.011 C 
ENDROOT
BRANCH   5   9
HETATM    9  C3  UNL     1     -35.884  15.015  -5.896  1.00 20.00     0.240 C 
HETATM   10  O10 UNL     1     -35.961  14.306  -6.894  1.00 20.00    -0.306 OA
ENDBRANCH   5   9
TORSDOF 1
ENDMDL
