MODEL 1
REMARK VINA RESULT:      -3.2      0.000      0.000
REMARK  0 active torsions:
REMARK  status: ('A' for Active; 'I' for Inactive)
ROOT
HETATM    1  C1  UNL     1     -27.656  -1.438   9.699  1.00 20.00     0.006 C 
HETATM    2  C2  UNL     1     -28.530  -2.695   9.787  1.00 20.00     0.006 C 
HETATM    3  C3  UNL     1     -27.805  -1.054  12.157  1.00 20.00     0.021 C 
HETATM    4  C4  UNL     1     -26.833  -1.135  10.974  1.00 20.00     0.005 C 
HETATM    5  C5  UNL     1     -29.228  -2.848  11.151  1.00 20.00    -0.005 C 
HETATM    6  C6  UNL     1     -28.301  -2.487  12.332  1.00 20.00     0.052 C 
HETATM    7  C7  UNL     1     -25.776  -2.201  11.377  1.00 20.00     0.005 C 
HETATM    8  C8  UNL     1     -29.842  -4.243  11.293  1.00 20.00     0.011 C 
HETATM    9  C9  UNL     1     -24.724  -1.603  12.330  1.00 20.00     0.027 C 
HETATM   10  C10 UNL     1     -25.045  -2.857  10.204  1.00 20.00     0.027 C 
HETATM   11  S11 UNL     1     -26.741  -3.450  12.324  1.00 20.00    -0.154 SA
ENDROOT
TORSDOF 0
ENDMDL
MODEL 2
REMARK VINA RESULT:      -3.1     21.513     22.568
REMARK  0 active torsions:
REMARK  status: ('A' for Active; 'I' for Inactive)
ROOT
HETATM    1  C1  UNL     1     -42.613  14.123   4.844  1.00 20.00     0.006 C 
HETATM    2  C2  UNL     1     -41.168  13.638   4.677  1.00 20.00     0.006 C 
HETATM    3  C3  UNL     1     -42.865  12.909   7.006  1.00 20.00     0.021 C 
HETATM    4  C4  UNL     1     -43.081  14.260   6.312  1.00 20.00     0.005 C 
HETATM    5  C5  UNL     1     -40.792  12.516   5.664  1.00 20.00    -0.005 C 
HETATM    6  C6  UNL     1     -41.348  12.767   7.082  1.00 20.00     0.052 C 
HETATM    7  C7  UNL     1     -42.320  15.299   7.181  1.00 20.00     0.005 C 
HETATM    8  C8  UNL     1     -39.281  12.273   5.660  1.00 20.00     0.011 C 
HETATM    9  C9  UNL     1     -43.144  15.691   8.422  1.00 20.00     0.027 C 
HETATM   10  C10 UNL     1     -41.917  16.580   6.446  1.00 20.00     0.027 C 
HETATM   11  S11 UNL     1     -40.832  14.388   7.765  1.00 20.00    -0.154 SA
ENDROOT
TORSDOF 0
ENDMDL
MODEL 3
REMARK VINA RESULT:      -3.1     24.747     26.285
REMARK  0 active torsions:
REMARK  status: ('A' for Active; 'I' for Inactive)
ROOT
HETATM    1  C1  UNL     1     -34.188  14.707  -4.575  1.00 20.00     0.006 C 
HETATM    2  C2  UNL     1     -33.343  15.894  -4.098  1.00 20.00     0.006 C 
HETATM    3  C3  UNL     1     -36.214  16.138  -4.831  1.00 20.00     0.021 C 
HETATM    4  C4  UNL     1     -35.346  15.083  -5.530  1.00 20.00     0.005 C 
HETATM    5  C5  UNL     1     -34.188  17.135  -3.756  1.00 20.00    -0.005 C 
HETATM    6  C6  UNL     1     -35.323  17.376  -4.774  1.00 20.00     0.052 C 
HETATM    7  C7  UNL     1     -34.936  15.718  -6.889  1.00 20.00     0.005 C 
HETATM    8  C8  UNL     1     -33.296  18.365  -3.571  1.00 20.00     0.011 C 
HETATM    9  C9  UNL     1     -36.077  15.607  -7.917  1.00 20.00     0.027 C 
HETATM   10  C10 UNL     1     -33.666  15.135  -7.513  1.00 20.00     0.027 C 
HETATM   11  S11 UNL     1     -34.710  17.502  -6.497  1.00 20.00    -0.154 SA
ENDROOT
TORSDOF 0
ENDMDL
MODEL 4
REMARK VINA RESULT:      -3.0     22.000     23.049
REMARK  0 active torsions:
REMARK  status: ('A' for Active; 'I' for Inactive)
ROOT
HETATM    1  C1  UNL     1     -40.473  14.685   8.506  1.00 20.00     0.006 C 
HETATM    2  C2  UNL     1     -40.406  15.912   7.589  1.00 20.00     0.006 C 
HETATM    3  C3  UNL     1     -42.957  14.829   8.664  1.00 20.00     0.021 C 
HETATM    4  C4  UNL     1     -41.786  13.874   8.401  1.00 20.00     0.005 C 
HETATM    5  C5  UNL     1     -41.733  16.690   7.526  1.00 20.00    -0.005 C 
HETATM    6  C6  UNL     1     -42.962  15.757   7.453  1.00 20.00     0.052 C 
HETATM    7  C7  UNL     1     -42.083  13.225   7.020  1.00 20.00     0.005 C 
HETATM    8  C8  UNL     1     -41.709  17.716   6.391  1.00 20.00     0.011 C 
HETATM    9  C9  UNL     1     -43.113  12.088   7.153  1.00 20.00     0.027 C 
HETATM   10  C10 UNL     1     -40.855  12.679   6.289  1.00 20.00     0.027 C 
HETATM   11  S11 UNL     1     -42.869  14.579   6.051  1.00 20.00    -0.154 SA
ENDROOT
TORSDOF 0
ENDMDL
MODEL 5
REMARK VINA RESULT:      -2.9     25.164     26.648
REMARK  0 active torsions:
REMARK  status: ('A' for Active; 'I' for Inactive)
ROOT
HETATM    1  C1  UNL     1     -35.854  19.261  -3.884  1.00 20.00     0.006 C 
HETATM    2  C2  UNL     1     -35.519  18.600  -2.542  1.00 20.00     0.006 C 
HETATM    3  C3  UNL     1     -33.518  18.980  -4.707  1.00 20.00     0.021 C 
HETATM    4  C4  UNL     1     -34.993  18.775  -5.074  1.00 20.00     0.005 C 
HETATM    5  C5  UNL     1     -34.005  18.429  -2.317  1.00 20.00    -0.005 C 
HETATM    6  C6  UNL     1     -33.266  17.968  -3.592  1.00 20.00     0.052 C 
HETATM    7  C7  UNL     1     -35.123  17.271  -5.446  1.00 20.00     0.005 C 
HETATM    8  C8  UNL     1     -33.734  17.515  -1.120  1.00 20.00     0.011 C 
HETATM    9  C9  UNL     1     -34.625  17.012  -6.881  1.00 20.00     0.027 C 
HETATM   10  C10 UNL     1     -36.535  16.696  -5.315  1.00 20.00     0.027 C 
HETATM   11  S11 UNL     1     -33.965  16.425  -4.293  1.00 20.00    -0.154 SA
ENDROOT
TORSDOF 0
ENDMDL
MODEL 6
REMARK VINA RESULT:      -2.9     25.192     26.757
REMARK  0 active torsions:
REMARK  status: ('A' for Active; 'I' for Inactive)
ROOT
HETATM    1  C1  UNL     1     -34.426  17.953  -5.203  1.00 20.00     0.006 C 
HETATM    2  C2  UNL     1     -34.143  16.821  -4.208  1.00 20.00     0.006 C 
HETATM    3  C3  UNL     1     -34.478  16.370  -7.128  1.00 20.00     0.021 C 
HETATM    4  C4  UNL     1     -35.229  17.526  -6.454  1.00 20.00     0.005 C 
HETATM    5  C5  UNL     1     -33.760  15.498  -4.896  1.00 20.00    -0.005 C 
HETATM    6  C6  UNL     1     -34.620  15.210  -6.146  1.00 20.00     0.052 C 
HETATM    7  C7  UNL     1     -36.667  16.994  -6.198  1.00 20.00     0.005 C 
HETATM    8  C8  UNL     1     -33.775  14.340  -3.896  1.00 20.00     0.011 C 
HETATM    9  C9  UNL     1     -37.516  17.056  -7.482  1.00 20.00     0.027 C 
HETATM   10  C10 UNL     1     -37.428  17.710  -5.081  1.00 20.00     0.027 C 
HETATM   11  S11 UNL     1     -36.417  15.218  -5.781  1.00 20.00    -0.154 SA
ENDROOT
TORSDOF 0
ENDMDL
MODEL 7
REMARK VINA RESULT:      -2.9     21.798     22.827
REMARK  0 active torsions:
REMARK  status: ('A' for Active; 'I' for Inactive)
ROOT
HETATM    1  C1  UNL     1     -40.777  16.437   7.526  1.00 20.00     0.006 C 
HETATM    2  C2  UNL     1     -41.997  16.767   8.395  1.00 20.00     0.006 C 
HETATM    3  C3  UNL     1     -40.260  14.401   8.868  1.00 20.00     0.021 C 
HETATM    4  C4  UNL     1     -40.436  14.930   7.439  1.00 20.00     0.005 C 
HETATM    5  C5  UNL     1     -42.054  15.937   9.691  1.00 20.00    -0.005 C 
HETATM    6  C6  UNL     1     -41.663  14.460   9.464  1.00 20.00     0.052 C 
HETATM    7  C7  UNL     1     -41.515  14.020   6.789  1.00 20.00     0.005 C 
HETATM    8  C8  UNL     1     -43.417  16.084  10.370  1.00 20.00     0.011 C 
HETATM    9  C9  UNL     1     -40.904  12.683   6.327  1.00 20.00     0.027 C 
HETATM   10  C10 UNL     1     -42.257  14.645   5.606  1.00 20.00     0.027 C 
HETATM   11  S11 UNL     1     -42.678  13.653   8.168  1.00 20.00    -0.154 SA
ENDROOT
TORSDOF 0
ENDMDL
MODEL 8
REMARK VINA RESULT:      -2.8      1.040      3.738
REMARK  0 active torsions:
REMARK  status: ('A' for Active; 'I' for Inactive)
ROOT
HETATM    1  C1  UNL     1     -28.594  -0.981  11.502  1.00 20.00     0.006 C 
HETATM    2  C2  UNL     1     -27.289  -1.002  12.308  1.00 20.00     0.006 C 
HETATM    3  C3  UNL     1     -27.498  -2.047   9.533  1.00 20.00     0.021 C 
HETATM    4  C4  UNL     1     -28.722  -2.112  10.455  1.00 20.00     0.005 C 
HETATM    5  C5  UNL     1     -26.056  -1.336  11.449  1.00 20.00    -0.005 C 
HETATM    6  C6  UNL     1     -26.334  -2.461  10.428  1.00 20.00     0.052 C 
HETATM    7  C7  UNL     1     -28.746  -3.563  11.012  1.00 20.00     0.005 C 
HETATM    8  C8  UNL     1     -24.842  -1.633  12.332  1.00 20.00     0.011 C 
HETATM    9  C9  UNL     1     -29.343  -4.541   9.982  1.00 20.00     0.027 C 
HETATM   10  C10 UNL     1     -29.501  -3.733  12.332  1.00 20.00     0.027 C 
HETATM   11  S11 UNL     1     -26.967  -3.989  11.219  1.00 20.00    -0.154 SA
ENDROOT
TORSDOF 0
ENDMDL
MODEL 9
REMARK VINA RESULT:      -2.8     25.734     27.218
REMARK  0 active torsions:
REMARK  status: ('A' for Active; 'I' for Inactive)
ROOT
HETATM    1  C1  UNL     1     -35.047  15.577  -7.763  1.00 20.00     0.006 C 
HETATM    2  C2  UNL     1     -34.044  15.136  -6.690  1.00 20.00     0.006 C 
HETATM    3  C3  UNL     1     -36.687  16.333  -6.045  1.00 20.00     0.021 C 
HETATM    4  C4  UNL     1     -35.973  16.742  -7.340  1.00 20.00     0.005 C 
HETATM    5  C5  UNL     1     -34.653  15.098  -5.276  1.00 20.00    -0.005 C 
HETATM    6  C6  UNL     1     -35.577  16.304  -4.999  1.00 20.00     0.052 C 
HETATM    7  C7  UNL     1     -35.273  18.092  -7.019  1.00 20.00     0.005 C 
HETATM    8  C8  UNL     1     -33.559  14.942  -4.218  1.00 20.00     0.011 C 
HETATM    9  C9  UNL     1     -36.273  19.262  -7.083  1.00 20.00     0.027 C 
HETATM   10  C10 UNL     1     -34.081  18.428  -7.918  1.00 20.00     0.027 C 
HETATM   11  S11 UNL     1     -34.737  17.912  -5.267  1.00 20.00    -0.154 SA
ENDROOT
TORSDOF 0
ENDMDL
