MODEL 1
REMARK VINA RESULT:      -3.9      0.000      0.000
REMARK  2 active torsions:
REMARK  status: ('A' for Active; 'I' for Inactive)
REMARK    1  A    between atoms: C3_3  and  S9_9 
REMARK    2  A    between atoms: C6_6  and  S9_9 
ROOT
HETATM    1  C1  UNL     1     -33.076  15.425  -3.958  1.00 20.00     0.013 C 
HETATM    2  C2  UNL     1     -33.296  16.199  -3.067  1.00 20.00    -0.107 C 
HETATM    3  C6  UNL     1     -33.570  17.137  -1.975  1.00 20.00     0.174 C 
ENDROOT
BRANCH   3   4
HETATM    4  S9  UNL     1     -32.687  18.699  -2.185  1.00 20.00    -0.092 SA
BRANCH   4   5
HETATM    5  C3  UNL     1     -32.041  18.881  -0.587  1.00 20.00     0.125 C 
HETATM    6  N7  UNL     1     -30.777  18.824  -0.333  1.00 20.00    -0.275 NA
HETATM    7  C4  UNL     1     -30.568  19.080   1.109  1.00 20.00     0.161 C 
HETATM    8  C5  UNL     1     -31.820  18.712   1.891  1.00 20.00     0.103 C 
HETATM    9  S8  UNL     1     -33.142  19.121   0.738  1.00 20.00    -0.102 SA
ENDBRANCH   4   5
ENDBRANCH   3   4
TORSDOF 2
ENDMDL
MODEL 2
REMARK VINA RESULT:      -3.8     11.989     12.403
REMARK  2 active torsions:
REMARK  status: ('A' for Active; 'I' for Inactive)
REMARK    1  A    between atoms: C3_3  and  S9_9 
REMARK    2  A    between atoms: C6_6  and  S9_9 
ROOT
HETATM    1  C1  UNL     1     -32.543   9.118   0.576  1.00 20.00     0.013 C 
HETATM    2  C2  UNL     1     -32.367   8.397   1.519  1.00 20.00    -0.107 C 
HETATM    3  C6  UNL     1     -32.149   7.510   2.665  1.00 20.00     0.174 C 
ENDROOT
BRANCH   3   4
HETATM    4  S9  UNL     1     -32.504   8.330   4.235  1.00 20.00    -0.092 SA
BRANCH   4   5
HETATM    5  C3  UNL     1     -33.514   7.128   4.966  1.00 20.00     0.125 C 
HETATM    6  N7  UNL     1     -33.863   7.168   6.208  1.00 20.00    -0.275 NA
HETATM    7  C4  UNL     1     -34.770   6.033   6.487  1.00 20.00     0.161 C 
HETATM    8  C5  UNL     1     -34.513   4.905   5.498  1.00 20.00     0.103 C 
HETATM    9  S8  UNL     1     -34.059   5.790   3.997  1.00 20.00    -0.102 SA
ENDBRANCH   4   5
ENDBRANCH   3   4
TORSDOF 2
ENDMDL
MODEL 3
REMARK VINA RESULT:      -3.5     11.498     12.158
REMARK  2 active torsions:
REMARK  status: ('A' for Active; 'I' for Inactive)
REMARK    1  A    between atoms: C3_3  and  S9_9 
REMARK    2  A    between atoms: C6_6  and  S9_9 
ROOT
HETATM    1  C1  UNL     1     -38.924  11.651   3.939  1.00 20.00     0.013 C 
HETATM    2  C2  UNL     1     -39.608  11.891   4.896  1.00 20.00    -0.107 C 
HETATM    3  C6  UNL     1     -40.440  12.176   6.069  1.00 20.00     0.174 C 
ENDROOT
BRANCH   3   4
HETATM    4  S9  UNL     1     -41.353  13.725   5.892  1.00 20.00    -0.092 SA
BRANCH   4   5
HETATM    5  C3  UNL     1     -40.899  14.497   7.376  1.00 20.00     0.125 C 
HETATM    6  N7  UNL     1     -40.548  13.837   8.429  1.00 20.00    -0.275 NA
HETATM    7  C4  UNL     1     -40.167  14.796   9.489  1.00 20.00     0.161 C 
HETATM    8  C5  UNL     1     -40.866  16.129   9.262  1.00 20.00     0.103 C 
HETATM    9  S8  UNL     1     -40.946  16.233   7.465  1.00 20.00    -0.102 SA
ENDBRANCH   4   5
ENDBRANCH   3   4
TORSDOF 2
ENDMDL
MODEL 4
REMARK VINA RESULT:      -3.5      2.585      5.525
REMARK  2 active torsions:
REMARK  status: ('A' for Active; 'I' for Inactive)
REMARK    1  A    between atoms: C3_3  and  S9_9 
REMARK    2  A    between atoms: C6_6  and  S9_9 
ROOT
HETATM    1  C1  UNL     1     -31.417  18.596  -0.407  1.00 20.00     0.013 C 
HETATM    2  C2  UNL     1     -32.412  18.127  -0.886  1.00 20.00    -0.107 C 
HETATM    3  C6  UNL     1     -33.629  17.549  -1.463  1.00 20.00     0.174 C 
ENDROOT
BRANCH   3   4
HETATM    4  S9  UNL     1     -33.957  18.176  -3.124  1.00 20.00    -0.092 SA
BRANCH   4   5
HETATM    5  C3  UNL     1     -33.991  16.679  -3.996  1.00 20.00     0.125 C 
HETATM    6  N7  UNL     1     -33.323  15.639  -3.626  1.00 20.00    -0.275 NA
HETATM    7  C4  UNL     1     -33.624  14.524  -4.550  1.00 20.00     0.161 C 
HETATM    8  C5  UNL     1     -34.067  15.070  -5.900  1.00 20.00     0.103 C 
HETATM    9  S8  UNL     1     -34.942  16.578  -5.449  1.00 20.00    -0.102 SA
ENDBRANCH   4   5
ENDBRANCH   3   4
TORSDOF 2
ENDMDL
MODEL 5
REMARK VINA RESULT:      -3.4      4.607      6.899
REMARK  2 active torsions:
REMARK  status: ('A' for Active; 'I' for Inactive)
REMARK    1  A    between atoms: C3_3  and  S9_9 
REMARK    2  A    between atoms: C6_6  and  S9_9 
ROOT
HETATM    1  C1  UNL     1     -33.646  17.144  -1.646  1.00 20.00     0.013 C 
HETATM    2  C2  UNL     1     -33.353  16.536  -2.639  1.00 20.00    -0.107 C 
HETATM    3  C6  UNL     1     -32.987  15.798  -3.851  1.00 20.00     0.174 C 
ENDROOT
BRANCH   3   4
HETATM    4  S9  UNL     1     -34.222  14.553  -4.286  1.00 20.00    -0.092 SA
BRANCH   4   5
HETATM    5  C3  UNL     1     -34.901  15.301  -5.693  1.00 20.00     0.125 C 
HETATM    6  N7  UNL     1     -34.645  14.897  -6.892  1.00 20.00    -0.275 NA
HETATM    7  C4  UNL     1     -35.430  15.708  -7.848  1.00 20.00     0.161 C 
HETATM    8  C5  UNL     1     -35.756  17.064  -7.237  1.00 20.00     0.103 C 
HETATM    9  S8  UNL     1     -35.949  16.674  -5.488  1.00 20.00    -0.102 SA
ENDBRANCH   4   5
ENDBRANCH   3   4
TORSDOF 2
ENDMDL
MODEL 6
REMARK VINA RESULT:      -3.4      1.834      4.873
REMARK  2 active torsions:
REMARK  status: ('A' for Active; 'I' for Inactive)
REMARK    1  A    between atoms: C3_3  and  S9_9 
REMARK    2  A    between atoms: C6_6  and  S9_9 
ROOT
HETATM    1  C1  UNL     1     -30.543  18.416   1.996  1.00 20.00     0.013 C 
HETATM    2  C2  UNL     1     -31.081  18.473   0.924  1.00 20.00    -0.107 C 
HETATM    3  C6  UNL     1     -31.729  18.543  -0.388  1.00 20.00     0.174 C 
ENDROOT
BRANCH   3   4
HETATM    4  S9  UNL     1     -33.505  18.227  -0.285  1.00 20.00    -0.092 SA
BRANCH   4   5
HETATM    5  C3  UNL     1     -33.790  17.663  -1.898  1.00 20.00     0.125 C 
HETATM    6  N7  UNL     1     -33.181  16.642  -2.401  1.00 20.00    -0.275 NA
HETATM    7  C4  UNL     1     -33.701  16.397  -3.764  1.00 20.00     0.161 C 
HETATM    8  C5  UNL     1     -34.258  17.688  -4.348  1.00 20.00     0.103 C 
HETATM    9  S8  UNL     1     -34.923  18.525  -2.898  1.00 20.00    -0.102 SA
ENDBRANCH   4   5
ENDBRANCH   3   4
TORSDOF 2
ENDMDL
MODEL 7
REMARK VINA RESULT:      -3.3      3.590      6.207
REMARK  2 active torsions:
REMARK  status: ('A' for Active; 'I' for Inactive)
REMARK    1  A    between atoms: C3_3  and  S9_9 
REMARK    2  A    between atoms: C6_6  and  S9_9 
ROOT
HETATM    1  C1  UNL     1     -33.730  18.105  -0.102  1.00 20.00     0.013 C 
HETATM    2  C2  UNL     1     -33.568  17.498  -1.124  1.00 20.00    -0.107 C 
HETATM    3  C6  UNL     1     -33.368  16.749  -2.368  1.00 20.00     0.174 C 
ENDROOT
BRANCH   3   4
HETATM    4  S9  UNL     1     -33.748  17.743  -3.827  1.00 20.00    -0.092 SA
BRANCH   4   5
HETATM    5  C3  UNL     1     -34.694  16.597  -4.718  1.00 20.00     0.125 C 
HETATM    6  N7  UNL     1     -35.794  16.912  -5.316  1.00 20.00    -0.275 NA
HETATM    7  C4  UNL     1     -36.309  15.723  -6.027  1.00 20.00     0.161 C 
HETATM    8  C5  UNL     1     -35.795  14.454  -5.362  1.00 20.00     0.103 C 
HETATM    9  S8  UNL     1     -34.159  14.944  -4.787  1.00 20.00    -0.102 SA
ENDBRANCH   4   5
ENDBRANCH   3   4
TORSDOF 2
ENDMDL
MODEL 8
REMARK VINA RESULT:      -3.3      4.971      6.860
REMARK  2 active torsions:
REMARK  status: ('A' for Active; 'I' for Inactive)
REMARK    1  A    between atoms: C3_3  and  S9_9 
REMARK    2  A    between atoms: C6_6  and  S9_9 
ROOT
HETATM    1  C1  UNL     1     -33.309  16.627  -2.745  1.00 20.00     0.013 C 
HETATM    2  C2  UNL     1     -33.558  15.725  -3.497  1.00 20.00    -0.107 C 
HETATM    3  C6  UNL     1     -33.862  14.617  -4.407  1.00 20.00     0.174 C 
ENDROOT
BRANCH   3   4
HETATM    4  S9  UNL     1     -34.279  15.197  -6.066  1.00 20.00    -0.092 SA
BRANCH   4   5
HETATM    5  C3  UNL     1     -35.815  15.928  -5.737  1.00 20.00     0.125 C 
HETATM    6  N7  UNL     1     -36.886  15.239  -5.524  1.00 20.00    -0.275 NA
HETATM    7  C4  UNL     1     -37.997  16.166  -5.217  1.00 20.00     0.161 C 
HETATM    8  C5  UNL     1     -37.724  17.530  -5.834  1.00 20.00     0.103 C 
HETATM    9  S8  UNL     1     -35.931  17.663  -5.723  1.00 20.00    -0.102 SA
ENDBRANCH   4   5
ENDBRANCH   3   4
TORSDOF 2
ENDMDL
MODEL 9
REMARK VINA RESULT:      -3.3      2.575      5.728
REMARK  2 active torsions:
REMARK  status: ('A' for Active; 'I' for Inactive)
REMARK    1  A    between atoms: C3_3  and  S9_9 
REMARK    2  A    between atoms: C6_6  and  S9_9 
ROOT
HETATM    1  C1  UNL     1     -27.493  18.363   4.871  1.00 20.00     0.013 C 
HETATM    2  C2  UNL     1     -28.198  18.644   3.941  1.00 20.00    -0.107 C 
HETATM    3  C6  UNL     1     -29.052  18.989   2.801  1.00 20.00     0.174 C 
ENDROOT
BRANCH   3   4
HETATM    4  S9  UNL     1     -30.806  18.785   3.180  1.00 20.00    -0.092 SA
BRANCH   4   5
HETATM    5  C3  UNL     1     -31.444  18.734   1.570  1.00 20.00     0.125 C 
HETATM    6  N7  UNL     1     -30.703  18.550   0.529  1.00 20.00    -0.275 NA
HETATM    7  C4  UNL     1     -31.567  18.499  -0.671  1.00 20.00     0.161 C 
HETATM    8  C5  UNL     1     -32.859  19.263  -0.416  1.00 20.00     0.103 C 
HETATM    9  S8  UNL     1     -33.152  18.971   1.338  1.00 20.00    -0.102 SA
ENDBRANCH   4   5
ENDBRANCH   3   4
TORSDOF 2
ENDMDL
