MODEL 1
REMARK VINA RESULT:      -3.1      0.000      0.000
REMARK  0 active torsions:
REMARK  status: ('A' for Active; 'I' for Inactive)
ROOT
HETATM    1  C1  UNL     1     -34.104   7.092   6.269  1.00 20.00     0.061 A 
HETATM    2  C2  UNL     1     -34.669   5.883   6.204  1.00 20.00     0.061 A 
HETATM    3  C3  UNL     1     -33.421   6.158   3.945  1.00 20.00     0.254 A 
HETATM    4  O4  UNL     1     -32.951   5.997   2.828  1.00 20.00    -0.272 OA
HETATM    5  S5  UNL     1     -33.174   7.613   4.905  1.00 20.00    -0.052 SA
HETATM    6  S6  UNL     1     -34.415   4.957   4.763  1.00 20.00    -0.052 SA
ENDROOT
TORSDOF 0
ENDMDL
MODEL 2
REMARK VINA RESULT:      -3.0      0.063      1.862
REMARK  0 active torsions:
REMARK  status: ('A' for Active; 'I' for Inactive)
ROOT
HETATM    1  C1  UNL     1     -34.650   5.933   6.259  1.00 20.00     0.061 A 
HETATM    2  C2  UNL     1     -34.061   7.133   6.290  1.00 20.00     0.061 A 
HETATM    3  C3  UNL     1     -33.459   6.154   3.963  1.00 20.00     0.254 A 
HETATM    4  O4  UNL     1     -33.022   5.969   2.837  1.00 20.00    -0.272 OA
HETATM    5  S5  UNL     1     -34.453   4.984   4.825  1.00 20.00    -0.052 SA
HETATM    6  S6  UNL     1     -33.161   7.618   4.893  1.00 20.00    -0.052 SA
ENDROOT
TORSDOF 0
ENDMDL
MODEL 3
REMARK VINA RESULT:      -3.0      2.008      2.557
REMARK  0 active torsions:
REMARK  status: ('A' for Active; 'I' for Inactive)
ROOT
HETATM    1  C1  UNL     1     -32.550   7.476   3.700  1.00 20.00     0.061 A 
HETATM    2  C2  UNL     1     -32.961   7.931   4.887  1.00 20.00     0.061 A 
HETATM    3  C3  UNL     1     -34.149   5.641   4.604  1.00 20.00     0.254 A 
HETATM    4  O4  UNL     1     -34.829   4.636   4.756  1.00 20.00    -0.272 OA
HETATM    5  S5  UNL     1     -33.158   5.940   3.180  1.00 20.00    -0.052 SA
HETATM    6  S6  UNL     1     -34.059   6.941   5.788  1.00 20.00    -0.052 SA
ENDROOT
TORSDOF 0
ENDMDL
MODEL 4
REMARK VINA RESULT:      -3.0      2.009      2.406
REMARK  0 active torsions:
REMARK  status: ('A' for Active; 'I' for Inactive)
ROOT
HETATM    1  C1  UNL     1     -32.931   7.927   4.878  1.00 20.00     0.061 A 
HETATM    2  C2  UNL     1     -32.542   7.460   3.688  1.00 20.00     0.061 A 
HETATM    3  C3  UNL     1     -34.140   5.644   4.626  1.00 20.00     0.254 A 
HETATM    4  O4  UNL     1     -34.824   4.644   4.793  1.00 20.00    -0.272 OA
HETATM    5  S5  UNL     1     -34.025   6.951   5.800  1.00 20.00    -0.052 SA
HETATM    6  S6  UNL     1     -33.168   5.927   3.186  1.00 20.00    -0.052 SA
ENDROOT
TORSDOF 0
ENDMDL
MODEL 5
REMARK VINA RESULT:      -3.0      1.656      2.138
REMARK  0 active torsions:
REMARK  status: ('A' for Active; 'I' for Inactive)
ROOT
HETATM    1  C1  UNL     1     -34.568   4.872   4.873  1.00 20.00     0.061 A 
HETATM    2  C2  UNL     1     -34.675   5.451   6.072  1.00 20.00     0.061 A 
HETATM    3  C3  UNL     1     -33.386   7.168   4.614  1.00 20.00     0.254 A 
HETATM    4  O4  UNL     1     -32.784   8.146   4.196  1.00 20.00    -0.272 OA
HETATM    5  S5  UNL     1     -33.748   5.754   3.629  1.00 20.00    -0.052 SA
HETATM    6  S6  UNL     1     -33.983   7.026   6.264  1.00 20.00    -0.052 SA
ENDROOT
TORSDOF 0
ENDMDL
MODEL 6
REMARK VINA RESULT:      -3.0      1.651      1.775
REMARK  0 active torsions:
REMARK  status: ('A' for Active; 'I' for Inactive)
ROOT
HETATM    1  C1  UNL     1     -34.637   5.452   6.100  1.00 20.00     0.061 A 
HETATM    2  C2  UNL     1     -34.524   4.860   4.907  1.00 20.00     0.061 A 
HETATM    3  C3  UNL     1     -33.399   7.180   4.609  1.00 20.00     0.254 A 
HETATM    4  O4  UNL     1     -32.823   8.166   4.173  1.00 20.00    -0.272 OA
HETATM    5  S5  UNL     1     -33.980   7.046   6.265  1.00 20.00    -0.052 SA
HETATM    6  S6  UNL     1     -33.733   5.744   3.647  1.00 20.00    -0.052 SA
ENDROOT
TORSDOF 0
ENDMDL
MODEL 7
REMARK VINA RESULT:      -2.9      1.982      2.780
REMARK  0 active torsions:
REMARK  status: ('A' for Active; 'I' for Inactive)
ROOT
HETATM    1  C1  UNL     1     -32.333   7.451   3.334  1.00 20.00     0.061 A 
HETATM    2  C2  UNL     1     -32.967   6.296   3.112  1.00 20.00     0.061 A 
HETATM    3  C3  UNL     1     -33.793   7.072   5.447  1.00 20.00     0.254 A 
HETATM    4  O4  UNL     1     -34.349   7.168   6.531  1.00 20.00    -0.272 OA
HETATM    5  S5  UNL     1     -32.654   8.264   4.829  1.00 20.00    -0.052 SA
HETATM    6  S6  UNL     1     -34.046   5.727   4.340  1.00 20.00    -0.052 SA
ENDROOT
TORSDOF 0
ENDMDL
MODEL 8
REMARK VINA RESULT:      -2.9      1.969      3.331
REMARK  0 active torsions:
REMARK  status: ('A' for Active; 'I' for Inactive)
ROOT
HETATM    1  C1  UNL     1     -33.006   6.253   3.124  1.00 20.00     0.061 A 
HETATM    2  C2  UNL     1     -32.365   7.406   3.337  1.00 20.00     0.061 A 
HETATM    3  C3  UNL     1     -33.806   7.043   5.464  1.00 20.00     0.254 A 
HETATM    4  O4  UNL     1     -34.352   7.147   6.553  1.00 20.00    -0.272 OA
HETATM    5  S5  UNL     1     -34.076   5.694   4.366  1.00 20.00    -0.052 SA
HETATM    6  S6  UNL     1     -32.667   8.226   4.831  1.00 20.00    -0.052 SA
ENDROOT
TORSDOF 0
ENDMDL
MODEL 9
REMARK VINA RESULT:      -2.7     16.223     16.944
REMARK  0 active torsions:
REMARK  status: ('A' for Active; 'I' for Inactive)
ROOT
HETATM    1  C1  UNL     1     -22.192  18.545  11.726  1.00 20.00     0.061 A 
HETATM    2  C2  UNL     1     -23.352  17.885  11.793  1.00 20.00     0.061 A 
HETATM    3  C3  UNL     1     -22.451  17.409   9.406  1.00 20.00     0.254 A 
HETATM    4  O4  UNL     1     -22.295  17.016   8.259  1.00 20.00    -0.272 OA
HETATM    5  S5  UNL     1     -21.301  18.446  10.244  1.00 20.00    -0.052 SA
HETATM    6  S6  UNL     1     -23.849  16.997  10.393  1.00 20.00    -0.052 SA
ENDROOT
TORSDOF 0
ENDMDL
