MODEL 1
REMARK VINA RESULT:      -3.2      0.000      0.000
REMARK  2 active torsions:
REMARK  status: ('A' for Active; 'I' for Inactive)
REMARK    1  A    between atoms: C3_3  and  C4_4 
REMARK    2  A    between atoms: C4_4  and  S8_8 
ROOT
HETATM    1  C1  UNL     1     -22.639  17.599   9.234  1.00 20.00     0.109 C 
HETATM    2  C3  UNL     1     -23.642  18.323   9.981  1.00 20.00     0.116 C 
HETATM    3  N5  UNL     1     -21.829  17.012   8.644  1.00 20.00    -0.191 NA
HETATM    4  S7  UNL     1     -24.689  19.263   9.082  1.00 20.00    -0.071 SA
ENDROOT
BRANCH   2   5
HETATM    5  C4  UNL     1     -23.702  18.214  11.487  1.00 20.00     0.206 C 
HETATM    6  C2  UNL     1     -24.234  16.910  11.911  1.00 20.00     0.080 C 
HETATM    7  N6  UNL     1     -24.658  15.883  12.245  1.00 20.00    -0.196 NA
BRANCH   5   8
HETATM    8  S8  UNL     1     -22.032  18.499  12.162  1.00 20.00    -0.157 SA
HETATM    9  H10 UNL     1     -21.512  17.346  11.721  1.00 20.00     0.103 HD
ENDBRANCH   5   8
ENDBRANCH   2   5
TORSDOF 2
ENDMDL
MODEL 2
REMARK VINA RESULT:      -3.2     14.453     15.405
REMARK  2 active torsions:
REMARK  status: ('A' for Active; 'I' for Inactive)
REMARK    1  A    between atoms: C3_3  and  C4_4 
REMARK    2  A    between atoms: C4_4  and  S8_8 
ROOT
HETATM    1  C1  UNL     1     -33.529  16.922  -2.379  1.00 20.00     0.109 C 
HETATM    2  C3  UNL     1     -33.916  17.943  -1.432  1.00 20.00     0.116 C 
HETATM    3  N5  UNL     1     -33.211  16.098  -3.133  1.00 20.00    -0.191 NA
HETATM    4  S7  UNL     1     -35.146  18.963  -1.917  1.00 20.00    -0.071 SA
ENDROOT
BRANCH   2   5
HETATM    5  C4  UNL     1     -33.221  18.051  -0.096  1.00 20.00     0.206 C 
HETATM    6  C2  UNL     1     -31.811  18.439  -0.252  1.00 20.00     0.080 C 
HETATM    7  N6  UNL     1     -30.698  18.741  -0.376  1.00 20.00    -0.196 NA
BRANCH   5   8
HETATM    8  S8  UNL     1     -34.127  19.248   0.941  1.00 20.00    -0.157 SA
HETATM    9  H10 UNL     1     -33.127  19.455   1.808  1.00 20.00     0.103 HD
ENDBRANCH   5   8
ENDBRANCH   2   5
TORSDOF 2
ENDMDL
MODEL 3
REMARK VINA RESULT:      -3.1     19.310     20.342
REMARK  2 active torsions:
REMARK  status: ('A' for Active; 'I' for Inactive)
REMARK    1  A    between atoms: C3_3  and  C4_4 
REMARK    2  A    between atoms: C4_4  and  S8_8 
ROOT
HETATM    1  C1  UNL     1     -35.168  14.064  -4.617  1.00 20.00     0.109 C 
HETATM    2  C3  UNL     1     -34.390  15.239  -4.935  1.00 20.00     0.116 C 
HETATM    3  N5  UNL     1     -35.798  13.119  -4.371  1.00 20.00    -0.191 NA
HETATM    4  S7  UNL     1     -33.422  15.831  -3.711  1.00 20.00    -0.071 SA
ENDROOT
BRANCH   2   5
HETATM    5  C4  UNL     1     -34.481  15.869  -6.306  1.00 20.00     0.206 C 
HETATM    6  C2  UNL     1     -35.449  15.165  -7.159  1.00 20.00     0.080 C 
HETATM    7  N6  UNL     1     -36.210  14.605  -7.834  1.00 20.00    -0.196 NA
BRANCH   5   8
HETATM    8  S8  UNL     1     -34.924  17.628  -6.113  1.00 20.00    -0.157 SA
HETATM    9  H10 UNL     1     -35.461  17.763  -7.333  1.00 20.00     0.103 HD
ENDBRANCH   5   8
ENDBRANCH   2   5
TORSDOF 2
ENDMDL
MODEL 4
REMARK VINA RESULT:      -3.0     14.728     15.808
REMARK  2 active torsions:
REMARK  status: ('A' for Active; 'I' for Inactive)
REMARK    1  A    between atoms: C3_3  and  C4_4 
REMARK    2  A    between atoms: C4_4  and  S8_8 
ROOT
HETATM    1  C1  UNL     1     -31.755  18.598  -0.537  1.00 20.00     0.109 C 
HETATM    2  C3  UNL     1     -33.176  18.577  -0.798  1.00 20.00     0.116 C 
HETATM    3  N5  UNL     1     -30.611  18.615  -0.339  1.00 20.00    -0.191 NA
HETATM    4  S7  UNL     1     -34.169  18.687   0.540  1.00 20.00    -0.071 SA
ENDROOT
BRANCH   2   5
HETATM    5  C4  UNL     1     -33.693  18.454  -2.212  1.00 20.00     0.206 C 
HETATM    6  C2  UNL     1     -33.525  17.088  -2.731  1.00 20.00     0.080 C 
HETATM    7  N6  UNL     1     -33.388  16.012  -3.141  1.00 20.00    -0.196 NA
BRANCH   5   8
HETATM    8  S8  UNL     1     -35.446  18.962  -2.241  1.00 20.00    -0.157 SA
HETATM    9  H10 UNL     1     -35.711  18.452  -3.451  1.00 20.00     0.103 HD
ENDBRANCH   5   8
ENDBRANCH   2   5
TORSDOF 2
ENDMDL
MODEL 5
REMARK VINA RESULT:      -2.9     15.517     16.100
REMARK  2 active torsions:
REMARK  status: ('A' for Active; 'I' for Inactive)
REMARK    1  A    between atoms: C3_3  and  C4_4 
REMARK    2  A    between atoms: C4_4  and  S8_8 
ROOT
HETATM    1  C1  UNL     1     -32.497   8.458   4.598  1.00 20.00     0.109 C 
HETATM    2  C3  UNL     1     -33.070   7.246   4.058  1.00 20.00     0.116 C 
HETATM    3  N5  UNL     1     -32.043   9.431   5.042  1.00 20.00    -0.191 NA
HETATM    4  S7  UNL     1     -32.387   6.680   2.643  1.00 20.00    -0.071 SA
ENDROOT
BRANCH   2   5
HETATM    5  C4  UNL     1     -34.223   6.566   4.759  1.00 20.00     0.206 C 
HETATM    6  C2  UNL     1     -34.203   5.112   4.541  1.00 20.00     0.080 C 
HETATM    7  N6  UNL     1     -34.189   3.965   4.364  1.00 20.00    -0.196 NA
BRANCH   5   8
HETATM    8  S8  UNL     1     -34.148   6.970   6.536  1.00 20.00    -0.157 SA
HETATM    9  H10 UNL     1     -33.978   5.708   6.952  1.00 20.00     0.103 HD
ENDBRANCH   5   8
ENDBRANCH   2   5
TORSDOF 2
ENDMDL
MODEL 6
REMARK VINA RESULT:      -2.9     18.091     19.042
REMARK  2 active torsions:
REMARK  status: ('A' for Active; 'I' for Inactive)
REMARK    1  A    between atoms: C3_3  and  C4_4 
REMARK    2  A    between atoms: C4_4  and  S8_8 
ROOT
HETATM    1  C1  UNL     1     -33.733  16.630  -3.179  1.00 20.00     0.109 C 
HETATM    2  C3  UNL     1     -34.330  16.426  -4.479  1.00 20.00     0.116 C 
HETATM    3  N5  UNL     1     -33.249  16.783  -2.134  1.00 20.00    -0.191 NA
HETATM    4  S7  UNL     1     -35.247  17.690  -5.071  1.00 20.00    -0.071 SA
ENDROOT
BRANCH   2   5
HETATM    5  C4  UNL     1     -34.116  15.130  -5.225  1.00 20.00     0.206 C 
HETATM    6  C2  UNL     1     -35.039  14.083  -4.761  1.00 20.00     0.080 C 
HETATM    7  N6  UNL     1     -35.763  13.256  -4.390  1.00 20.00    -0.196 NA
BRANCH   5   8
HETATM    8  S8  UNL     1     -34.315  15.443  -7.012  1.00 20.00    -0.157 SA
HETATM    9  H10 UNL     1     -35.375  16.252  -6.887  1.00 20.00     0.103 HD
ENDBRANCH   5   8
ENDBRANCH   2   5
TORSDOF 2
ENDMDL
MODEL 7
REMARK VINA RESULT:      -2.8     18.915     19.934
REMARK  2 active torsions:
REMARK  status: ('A' for Active; 'I' for Inactive)
REMARK    1  A    between atoms: C3_3  and  C4_4 
REMARK    2  A    between atoms: C4_4  and  S8_8 
ROOT
HETATM    1  C1  UNL     1     -33.946  15.133  -4.484  1.00 20.00     0.109 C 
HETATM    2  C3  UNL     1     -34.449  16.450  -4.802  1.00 20.00     0.116 C 
HETATM    3  N5  UNL     1     -33.548  14.071  -4.236  1.00 20.00    -0.191 NA
HETATM    4  S7  UNL     1     -33.827  17.710  -3.900  1.00 20.00    -0.071 SA
ENDROOT
BRANCH   2   5
HETATM    5  C4  UNL     1     -35.481  16.633  -5.891  1.00 20.00     0.206 C 
HETATM    6  C2  UNL     1     -35.763  15.367  -6.583  1.00 20.00     0.080 C 
HETATM    7  N6  UNL     1     -35.982  14.368  -7.132  1.00 20.00    -0.196 NA
BRANCH   5   8
HETATM    8  S8  UNL     1     -36.994  17.335  -5.151  1.00 20.00    -0.157 SA
HETATM    9  H10 UNL     1     -37.384  17.995  -6.249  1.00 20.00     0.103 HD
ENDBRANCH   5   8
ENDBRANCH   2   5
TORSDOF 2
ENDMDL
MODEL 8
REMARK VINA RESULT:      -2.8     18.884     19.841
REMARK  2 active torsions:
REMARK  status: ('A' for Active; 'I' for Inactive)
REMARK    1  A    between atoms: C3_3  and  C4_4 
REMARK    2  A    between atoms: C4_4  and  S8_8 
ROOT
HETATM    1  C1  UNL     1     -35.720  14.154  -5.038  1.00 20.00     0.109 C 
HETATM    2  C3  UNL     1     -35.536  15.397  -5.753  1.00 20.00     0.116 C 
HETATM    3  N5  UNL     1     -35.865  13.161  -4.454  1.00 20.00    -0.191 NA
HETATM    4  S7  UNL     1     -35.812  15.344  -7.399  1.00 20.00    -0.071 SA
ENDROOT
BRANCH   2   5
HETATM    5  C4  UNL     1     -35.113  16.648  -5.018  1.00 20.00     0.206 C 
HETATM    6  C2  UNL     1     -34.000  16.379  -4.094  1.00 20.00     0.080 C 
HETATM    7  N6  UNL     1     -33.126  16.166  -3.362  1.00 20.00    -0.196 NA
BRANCH   5   8
HETATM    8  S8  UNL     1     -34.663  17.923  -6.243  1.00 20.00    -0.157 SA
HETATM    9  H10 UNL     1     -34.195  17.066  -7.160  1.00 20.00     0.103 HD
ENDBRANCH   5   8
ENDBRANCH   2   5
TORSDOF 2
ENDMDL
MODEL 9
REMARK VINA RESULT:      -2.8     18.662     19.665
REMARK  2 active torsions:
REMARK  status: ('A' for Active; 'I' for Inactive)
REMARK    1  A    between atoms: C3_3  and  C4_4 
REMARK    2  A    between atoms: C4_4  and  S8_8 
ROOT
HETATM    1  C1  UNL     1     -35.419  14.934  -6.290  1.00 20.00     0.109 C 
HETATM    2  C3  UNL     1     -34.669  15.614  -5.259  1.00 20.00     0.116 C 
HETATM    3  N5  UNL     1     -36.027  14.398  -7.122  1.00 20.00    -0.191 NA
HETATM    4  S7  UNL     1     -33.604  14.670  -4.384  1.00 20.00    -0.071 SA
ENDROOT
BRANCH   2   5
HETATM    5  C4  UNL     1     -34.869  17.091  -5.014  1.00 20.00     0.206 C 
HETATM    6  C2  UNL     1     -33.863  17.624  -4.084  1.00 20.00     0.080 C 
HETATM    7  N6  UNL     1     -33.071  18.043  -3.346  1.00 20.00    -0.196 NA
BRANCH   5   8
HETATM    8  S8  UNL     1     -34.818  17.962  -6.616  1.00 20.00    -0.157 SA
HETATM    9  H10 UNL     1     -36.130  17.861  -6.864  1.00 20.00     0.103 HD
ENDBRANCH   5   8
ENDBRANCH   2   5
TORSDOF 2
ENDMDL
