MODEL 1
REMARK VINA RESULT:      -4.4      0.000      0.000
REMARK  2 active torsions:
REMARK  status: ('A' for Active; 'I' for Inactive)
REMARK    1  A    between atoms: C4_4  and  C6_6 
REMARK    2  A    between atoms: C5_5  and  C6_6 
ROOT
HETATM    1  C1  UNL     1     -34.203   4.404   4.308  1.00 20.00     0.012 C 
HETATM    2  C2  UNL     1     -34.395   5.211   5.176  1.00 20.00    -0.117 C 
HETATM    3  C5  UNL     1     -34.634   6.195   6.240  1.00 20.00     0.095 C 
ENDROOT
BRANCH   3   4
HETATM    4  C6  UNL     1     -33.511   7.228   6.300  1.00 20.00     0.046 C 
BRANCH   4   5
HETATM    5  C4  UNL     1     -33.474   8.082   5.070  1.00 20.00     0.146 A 
HETATM    6  C3  UNL     1     -32.326   8.002   4.101  1.00 20.00     0.200 A 
HETATM    7  O7  UNL     1     -32.434   9.067   5.060  1.00 20.00    -0.381 OA
ENDBRANCH   4   5
ENDBRANCH   3   4
TORSDOF 2
ENDMDL
MODEL 2
REMARK VINA RESULT:      -4.3      1.561      2.114
REMARK  2 active torsions:
REMARK  status: ('A' for Active; 'I' for Inactive)
REMARK    1  A    between atoms: C4_4  and  C6_6 
REMARK    2  A    between atoms: C5_5  and  C6_6 
ROOT
HETATM    1  C1  UNL     1     -34.780   5.343   6.113  1.00 20.00     0.012 C 
HETATM    2  C2  UNL     1     -34.238   6.413   6.041  1.00 20.00    -0.117 C 
HETATM    3  C5  UNL     1     -33.574   7.720   5.956  1.00 20.00     0.095 C 
ENDROOT
BRANCH   3   4
HETATM    4  C6  UNL     1     -33.532   8.227   4.516  1.00 20.00     0.046 C 
BRANCH   4   5
HETATM    5  C4  UNL     1     -32.309   7.753   3.794  1.00 20.00     0.146 A 
HETATM    6  C3  UNL     1     -32.236   7.770   2.292  1.00 20.00     0.200 A 
HETATM    7  O7  UNL     1     -32.498   6.560   3.023  1.00 20.00    -0.381 OA
ENDBRANCH   4   5
ENDBRANCH   3   4
TORSDOF 2
ENDMDL
MODEL 3
REMARK VINA RESULT:      -4.3      1.717      3.298
REMARK  2 active torsions:
REMARK  status: ('A' for Active; 'I' for Inactive)
REMARK    1  A    between atoms: C4_4  and  C6_6 
REMARK    2  A    between atoms: C5_5  and  C6_6 
ROOT
HETATM    1  C1  UNL     1     -32.081   7.986   3.443  1.00 20.00     0.012 C 
HETATM    2  C2  UNL     1     -32.888   8.011   4.332  1.00 20.00    -0.117 C 
HETATM    3  C5  UNL     1     -33.877   8.046   5.417  1.00 20.00     0.095 C 
ENDROOT
BRANCH   3   4
HETATM    4  C6  UNL     1     -33.756   6.816   6.315  1.00 20.00     0.046 C 
BRANCH   4   5
HETATM    5  C4  UNL     1     -34.774   5.773   5.971  1.00 20.00     0.146 A 
HETATM    6  C3  UNL     1     -34.524   4.774   4.876  1.00 20.00     0.200 A 
HETATM    7  O7  UNL     1     -35.364   5.923   4.673  1.00 20.00    -0.381 OA
ENDBRANCH   4   5
ENDBRANCH   3   4
TORSDOF 2
ENDMDL
MODEL 4
REMARK VINA RESULT:      -4.1      1.794      3.251
REMARK  2 active torsions:
REMARK  status: ('A' for Active; 'I' for Inactive)
REMARK    1  A    between atoms: C4_4  and  C6_6 
REMARK    2  A    between atoms: C5_5  and  C6_6 
ROOT
HETATM    1  C1  UNL     1     -32.132   7.147   2.554  1.00 20.00     0.012 C 
HETATM    2  C2  UNL     1     -32.282   7.784   3.561  1.00 20.00    -0.117 C 
HETATM    3  C5  UNL     1     -32.461   8.567   4.791  1.00 20.00     0.095 C 
ENDROOT
BRANCH   3   4
HETATM    4  C6  UNL     1     -33.729   8.148   5.533  1.00 20.00     0.046 C 
BRANCH   4   5
HETATM    5  C4  UNL     1     -33.756   6.675   5.802  1.00 20.00     0.146 A 
HETATM    6  C3  UNL     1     -34.863   5.807   5.270  1.00 20.00     0.200 A 
HETATM    7  O7  UNL     1     -34.835   6.243   6.639  1.00 20.00    -0.381 OA
ENDBRANCH   4   5
ENDBRANCH   3   4
TORSDOF 2
ENDMDL
MODEL 5
REMARK VINA RESULT:      -4.0      2.264      3.908
REMARK  2 active torsions:
REMARK  status: ('A' for Active; 'I' for Inactive)
REMARK    1  A    between atoms: C4_4  and  C6_6 
REMARK    2  A    between atoms: C5_5  and  C6_6 
ROOT
HETATM    1  C1  UNL     1     -32.367   8.690   4.788  1.00 20.00     0.012 C 
HETATM    2  C2  UNL     1     -32.496   7.830   3.960  1.00 20.00    -0.117 C 
HETATM    3  C5  UNL     1     -32.650   6.781   2.943  1.00 20.00     0.095 C 
ENDROOT
BRANCH   3   4
HETATM    4  C6  UNL     1     -33.251   5.512   3.545  1.00 20.00     0.046 C 
BRANCH   4   5
HETATM    5  C4  UNL     1     -34.439   5.812   4.406  1.00 20.00     0.146 A 
HETATM    6  C3  UNL     1     -34.444   5.474   5.871  1.00 20.00     0.200 A 
HETATM    7  O7  UNL     1     -35.122   4.655   4.903  1.00 20.00    -0.381 OA
ENDBRANCH   4   5
ENDBRANCH   3   4
TORSDOF 2
ENDMDL
MODEL 6
REMARK VINA RESULT:      -3.9      1.201      1.493
REMARK  2 active torsions:
REMARK  status: ('A' for Active; 'I' for Inactive)
REMARK    1  A    between atoms: C4_4  and  C6_6 
REMARK    2  A    between atoms: C5_5  and  C6_6 
ROOT
HETATM    1  C1  UNL     1     -32.968   5.063   2.623  1.00 20.00     0.012 C 
HETATM    2  C2  UNL     1     -33.703   5.162   3.568  1.00 20.00    -0.117 C 
HETATM    3  C5  UNL     1     -34.604   5.280   4.722  1.00 20.00     0.095 C 
ENDROOT
BRANCH   3   4
HETATM    4  C6  UNL     1     -34.208   6.454   5.615  1.00 20.00     0.046 C 
BRANCH   4   5
HETATM    5  C4  UNL     1     -33.880   7.677   4.815  1.00 20.00     0.146 A 
HETATM    6  C3  UNL     1     -32.527   8.326   4.904  1.00 20.00     0.200 A 
HETATM    7  O7  UNL     1     -33.669   8.860   5.594  1.00 20.00    -0.381 OA
ENDBRANCH   4   5
ENDBRANCH   3   4
TORSDOF 2
ENDMDL
MODEL 7
REMARK VINA RESULT:      -3.7      1.198      1.971
REMARK  2 active torsions:
REMARK  status: ('A' for Active; 'I' for Inactive)
REMARK    1  A    between atoms: C4_4  and  C6_6 
REMARK    2  A    between atoms: C5_5  and  C6_6 
ROOT
HETATM    1  C1  UNL     1     -34.742   5.474   6.308  1.00 20.00     0.012 C 
HETATM    2  C2  UNL     1     -34.424   5.370   5.155  1.00 20.00    -0.117 C 
HETATM    3  C5  UNL     1     -34.039   5.238   3.743  1.00 20.00     0.095 C 
ENDROOT
BRANCH   3   4
HETATM    4  C6  UNL     1     -32.903   6.196   3.388  1.00 20.00     0.046 C 
BRANCH   4   5
HETATM    5  C4  UNL     1     -33.071   7.528   4.051  1.00 20.00     0.146 A 
HETATM    6  C3  UNL     1     -32.614   8.794   3.381  1.00 20.00     0.200 A 
HETATM    7  O7  UNL     1     -31.844   8.168   4.420  1.00 20.00    -0.381 OA
ENDBRANCH   4   5
ENDBRANCH   3   4
TORSDOF 2
ENDMDL
MODEL 8
REMARK VINA RESULT:      -3.6      1.782      2.945
REMARK  2 active torsions:
REMARK  status: ('A' for Active; 'I' for Inactive)
REMARK    1  A    between atoms: C4_4  and  C6_6 
REMARK    2  A    between atoms: C5_5  and  C6_6 
ROOT
HETATM    1  C1  UNL     1     -33.783   7.760   6.444  1.00 20.00     0.012 C 
HETATM    2  C2  UNL     1     -34.253   6.675   6.233  1.00 20.00    -0.117 C 
HETATM    3  C5  UNL     1     -34.832   5.349   5.978  1.00 20.00     0.095 C 
ENDROOT
BRANCH   3   4
HETATM    4  C6  UNL     1     -34.069   4.615   4.877  1.00 20.00     0.046 C 
BRANCH   4   5
HETATM    5  C4  UNL     1     -34.015   5.412   3.611  1.00 20.00     0.146 A 
HETATM    6  C3  UNL     1     -32.984   5.126   2.554  1.00 20.00     0.200 A 
HETATM    7  O7  UNL     1     -32.845   6.226   3.469  1.00 20.00    -0.381 OA
ENDBRANCH   4   5
ENDBRANCH   3   4
TORSDOF 2
ENDMDL
MODEL 9
REMARK VINA RESULT:      -3.5     12.781     13.501
REMARK  2 active torsions:
REMARK  status: ('A' for Active; 'I' for Inactive)
REMARK    1  A    between atoms: C4_4  and  C6_6 
REMARK    2  A    between atoms: C5_5  and  C6_6 
ROOT
HETATM    1  C1  UNL     1     -33.490  16.967  -2.296  1.00 20.00     0.012 C 
HETATM    2  C2  UNL     1     -33.325  16.129  -3.140  1.00 20.00    -0.117 C 
HETATM    3  C5  UNL     1     -33.119  15.104  -4.171  1.00 20.00     0.095 C 
ENDROOT
BRANCH   3   4
HETATM    4  C6  UNL     1     -34.445  14.482  -4.607  1.00 20.00     0.046 C 
BRANCH   4   5
HETATM    5  C4  UNL     1     -34.923  15.045  -5.910  1.00 20.00     0.146 A 
HETATM    6  C3  UNL     1     -36.329  15.551  -6.070  1.00 20.00     0.200 A 
HETATM    7  O7  UNL     1     -35.928  14.262  -6.564  1.00 20.00    -0.381 OA
ENDBRANCH   4   5
ENDBRANCH   3   4
TORSDOF 2
ENDMDL
