MODEL 1
REMARK VINA RESULT:      -5.3      0.000      0.000
REMARK  0 active torsions:
REMARK  status: ('A' for Active; 'I' for Inactive)
ROOT
HETATM    1  C1  UNL     1     -33.585   5.162   3.766  1.00 20.00    -0.021 C 
HETATM    2  C2  UNL     1     -33.965   4.436   4.830  1.00 20.00    -0.025 C 
HETATM    3  C3  UNL     1     -33.637   7.223   5.093  1.00 20.00    -0.081 C 
HETATM    4  C4  UNL     1     -32.908   8.341   5.082  1.00 20.00     0.015 C 
HETATM    5  C5  UNL     1     -34.060   6.432   6.326  1.00 20.00     0.042 C 
HETATM    6  C6  UNL     1     -35.568   6.074   4.520  1.00 20.00     0.022 C 
HETATM    7  C7  UNL     1     -34.242   6.518   3.892  1.00 20.00     0.036 C 
HETATM    8  C8  UNL     1     -34.888   5.306   5.660  1.00 20.00     0.013 C 
ENDROOT
TORSDOF 0
ENDMDL
MODEL 2
REMARK VINA RESULT:      -5.2      0.898      2.333
REMARK  0 active torsions:
REMARK  status: ('A' for Active; 'I' for Inactive)
ROOT
HETATM    1  C1  UNL     1     -34.256   4.991   5.934  1.00 20.00    -0.021 C 
HETATM    2  C2  UNL     1     -34.093   6.239   6.403  1.00 20.00    -0.025 C 
HETATM    3  C3  UNL     1     -33.520   5.684   3.701  1.00 20.00    -0.081 C 
HETATM    4  C4  UNL     1     -32.832   5.076   2.731  1.00 20.00     0.015 C 
HETATM    5  C5  UNL     1     -33.315   7.110   4.198  1.00 20.00     0.042 C 
HETATM    6  C6  UNL     1     -35.541   6.374   4.605  1.00 20.00     0.022 C 
HETATM    7  C7  UNL     1     -34.683   5.108   4.490  1.00 20.00     0.036 C 
HETATM    8  C8  UNL     1     -34.427   7.191   5.272  1.00 20.00     0.013 C 
ENDROOT
TORSDOF 0
ENDMDL
MODEL 3
REMARK VINA RESULT:      -3.8      1.204      3.047
REMARK  0 active torsions:
REMARK  status: ('A' for Active; 'I' for Inactive)
ROOT
HETATM    1  C1  UNL     1     -32.268   8.478   5.183  1.00 20.00    -0.021 C 
HETATM    2  C2  UNL     1     -31.825   7.974   4.019  1.00 20.00    -0.025 C 
HETATM    3  C3  UNL     1     -33.940   6.695   5.372  1.00 20.00    -0.081 C 
HETATM    4  C4  UNL     1     -34.462   6.031   6.406  1.00 20.00     0.015 C 
HETATM    5  C5  UNL     1     -33.458   6.088   4.058  1.00 20.00     0.042 C 
HETATM    6  C6  UNL     1     -34.091   8.365   3.770  1.00 20.00     0.022 C 
HETATM    7  C7  UNL     1     -33.751   8.197   5.255  1.00 20.00     0.036 C 
HETATM    8  C8  UNL     1     -33.019   7.369   3.308  1.00 20.00     0.013 C 
ENDROOT
TORSDOF 0
ENDMDL
MODEL 4
REMARK VINA RESULT:      -3.8     16.092     17.172
REMARK  0 active torsions:
REMARK  status: ('A' for Active; 'I' for Inactive)
ROOT
HETATM    1  C1  UNL     1     -23.842  19.082   9.481  1.00 20.00    -0.021 C 
HETATM    2  C2  UNL     1     -22.600  18.950   9.976  1.00 20.00    -0.025 C 
HETATM    3  C3  UNL     1     -24.817  18.728  11.702  1.00 20.00    -0.081 C 
HETATM    4  C4  UNL     1     -25.899  19.211  12.317  1.00 20.00     0.015 C 
HETATM    5  C5  UNL     1     -23.423  18.582  12.304  1.00 20.00     0.042 C 
HETATM    6  C6  UNL     1     -23.759  17.028  10.533  1.00 20.00     0.022 C 
HETATM    7  C7  UNL     1     -24.743  18.177  10.289  1.00 20.00     0.036 C 
HETATM    8  C8  UNL     1     -22.673  17.945  11.108  1.00 20.00     0.013 C 
ENDROOT
TORSDOF 0
ENDMDL
MODEL 5
REMARK VINA RESULT:      -3.8      1.059      2.163
REMARK  0 active torsions:
REMARK  status: ('A' for Active; 'I' for Inactive)
ROOT
HETATM    1  C1  UNL     1     -35.253   7.005   4.827  1.00 20.00    -0.021 C 
HETATM    2  C2  UNL     1     -35.591   5.756   4.468  1.00 20.00    -0.025 C 
HETATM    3  C3  UNL     1     -33.007   6.720   3.888  1.00 20.00    -0.081 C 
HETATM    4  C4  UNL     1     -32.155   7.547   3.277  1.00 20.00     0.015 C 
HETATM    5  C5  UNL     1     -33.355   5.300   3.455  1.00 20.00     0.042 C 
HETATM    6  C6  UNL     1     -33.701   5.593   5.792  1.00 20.00     0.022 C 
HETATM    7  C7  UNL     1     -33.781   6.990   5.166  1.00 20.00     0.036 C 
HETATM    8  C8  UNL     1     -34.342   4.903   4.581  1.00 20.00     0.013 C 
ENDROOT
TORSDOF 0
ENDMDL
MODEL 6
REMARK VINA RESULT:      -3.7      8.315      9.828
REMARK  0 active torsions:
REMARK  status: ('A' for Active; 'I' for Inactive)
ROOT
HETATM    1  C1  UNL     1     -42.731   7.225   1.331  1.00 20.00    -0.021 C 
HETATM    2  C2  UNL     1     -41.397   7.350   1.423  1.00 20.00    -0.025 C 
HETATM    3  C3  UNL     1     -42.508   5.737  -0.603  1.00 20.00    -0.081 C 
HETATM    4  C4  UNL     1     -43.205   4.684  -1.038  1.00 20.00     0.015 C 
HETATM    5  C5  UNL     1     -40.989   5.845  -0.527  1.00 20.00     0.042 C 
HETATM    6  C6  UNL     1     -41.993   7.995  -0.717  1.00 20.00     0.022 C 
HETATM    7  C7  UNL     1     -43.066   7.068  -0.134  1.00 20.00     0.036 C 
HETATM    8  C8  UNL     1     -40.843   7.290   0.013  1.00 20.00     0.013 C 
ENDROOT
TORSDOF 0
ENDMDL
MODEL 7
REMARK VINA RESULT:      -3.7      8.159      9.661
REMARK  0 active torsions:
REMARK  status: ('A' for Active; 'I' for Inactive)
ROOT
HETATM    1  C1  UNL     1     -40.982   7.667   1.086  1.00 20.00    -0.021 C 
HETATM    2  C2  UNL     1     -40.989   7.885  -0.239  1.00 20.00    -0.025 C 
HETATM    3  C3  UNL     1     -42.472   5.738   0.825  1.00 20.00    -0.081 C 
HETATM    4  C4  UNL     1     -42.584   4.571   1.465  1.00 20.00     0.015 C 
HETATM    5  C5  UNL     1     -42.498   5.947  -0.685  1.00 20.00     0.042 C 
HETATM    6  C6  UNL     1     -43.193   7.912   0.464  1.00 20.00     0.022 C 
HETATM    7  C7  UNL     1     -42.339   7.112   1.455  1.00 20.00     0.036 C 
HETATM    8  C8  UNL     1     -42.359   7.488  -0.752  1.00 20.00     0.013 C 
ENDROOT
TORSDOF 0
ENDMDL
MODEL 8
REMARK VINA RESULT:      -3.5      8.465      9.468
REMARK  0 active torsions:
REMARK  status: ('A' for Active; 'I' for Inactive)
ROOT
HETATM    1  C1  UNL     1     -41.583   5.165   1.082  1.00 20.00    -0.021 C 
HETATM    2  C2  UNL     1     -42.926   5.145   1.117  1.00 20.00    -0.025 C 
HETATM    3  C3  UNL     1     -41.598   7.328  -0.071  1.00 20.00    -0.081 C 
HETATM    4  C4  UNL     1     -40.792   8.392  -0.037  1.00 20.00     0.015 C 
HETATM    5  C5  UNL     1     -43.122   7.346  -0.043  1.00 20.00     0.042 C 
HETATM    6  C6  UNL     1     -42.308   5.375  -1.100  1.00 20.00     0.022 C 
HETATM    7  C7  UNL     1     -41.179   5.873  -0.190  1.00 20.00     0.036 C 
HETATM    8  C8  UNL     1     -43.417   5.829  -0.143  1.00 20.00     0.013 C 
ENDROOT
TORSDOF 0
ENDMDL
MODEL 9
REMARK VINA RESULT:      -3.5     12.790     14.090
REMARK  0 active torsions:
REMARK  status: ('A' for Active; 'I' for Inactive)
ROOT
HETATM    1  C1  UNL     1     -32.447  18.013  -1.004  1.00 20.00    -0.021 C 
HETATM    2  C2  UNL     1     -32.352  19.185  -1.652  1.00 20.00    -0.025 C 
HETATM    3  C3  UNL     1     -33.393  16.936  -2.993  1.00 20.00    -0.081 C 
HETATM    4  C4  UNL     1     -33.298  15.707  -3.505  1.00 20.00     0.015 C 
HETATM    5  C5  UNL     1     -33.292  18.247  -3.765  1.00 20.00     0.042 C 
HETATM    6  C6  UNL     1     -34.564  18.522  -1.772  1.00 20.00     0.022 C 
HETATM    7  C7  UNL     1     -33.665  17.301  -1.544  1.00 20.00     0.036 C 
HETATM    8  C8  UNL     1     -33.518  19.261  -2.616  1.00 20.00     0.013 C 
ENDROOT
TORSDOF 0
ENDMDL
