MODEL 1
REMARK VINA RESULT:      -4.9      0.000      0.000
REMARK  0 active torsions:
REMARK  status: ('A' for Active; 'I' for Inactive)
ROOT
HETATM    1  C1  UNL     1     -34.032   6.199   4.611  1.00 20.00     0.017 A 
HETATM    2  C2  UNL     1     -33.116   6.186   3.466  1.00 20.00     0.296 A 
HETATM    3  C3  UNL     1     -32.720   8.065   4.647  1.00 20.00     0.270 A 
HETATM    4  C4  UNL     1     -34.912   5.220   4.831  1.00 20.00     0.025 C 
HETATM    5  C5  UNL     1     -33.818   7.412   5.427  1.00 20.00     0.155 A 
HETATM    6  O6  UNL     1     -33.024   5.337   2.599  1.00 20.00    -0.259 OA
HETATM    7  O7  UNL     1     -32.196   9.130   4.944  1.00 20.00    -0.264 OA
HETATM    8  O8  UNL     1     -32.375   7.321   3.560  1.00 20.00    -0.241 OA
ENDROOT
TORSDOF 0
ENDMDL
MODEL 2
REMARK VINA RESULT:      -4.8      1.344      2.873
REMARK  0 active torsions:
REMARK  status: ('A' for Active; 'I' for Inactive)
ROOT
HETATM    1  C1  UNL     1     -33.091   7.631   4.669  1.00 20.00     0.017 A 
HETATM    2  C2  UNL     1     -32.825   6.903   3.424  1.00 20.00     0.296 A 
HETATM    3  C3  UNL     1     -34.256   5.670   4.656  1.00 20.00     0.270 A 
HETATM    4  C4  UNL     1     -32.535   8.815   4.936  1.00 20.00     0.025 C 
HETATM    5  C5  UNL     1     -34.027   6.870   5.521  1.00 20.00     0.155 A 
HETATM    6  O6  UNL     1     -32.104   7.244   2.506  1.00 20.00    -0.259 OA
HETATM    7  O7  UNL     1     -34.982   4.730   4.949  1.00 20.00    -0.264 OA
HETATM    8  O8  UNL     1     -33.550   5.757   3.493  1.00 20.00    -0.241 OA
ENDROOT
TORSDOF 0
ENDMDL
MODEL 3
REMARK VINA RESULT:      -4.8      1.373      2.045
REMARK  0 active torsions:
REMARK  status: ('A' for Active; 'I' for Inactive)
ROOT
HETATM    1  C1  UNL     1     -33.904   6.783   5.477  1.00 20.00     0.017 A 
HETATM    2  C2  UNL     1     -34.137   5.636   4.594  1.00 20.00     0.296 A 
HETATM    3  C3  UNL     1     -32.832   7.105   3.488  1.00 20.00     0.270 A 
HETATM    4  C4  UNL     1     -34.417   6.853   6.707  1.00 20.00     0.025 C 
HETATM    5  C5  UNL     1     -33.050   7.784   4.804  1.00 20.00     0.155 A 
HETATM    6  O6  UNL     1     -34.792   4.638   4.832  1.00 20.00    -0.259 OA
HETATM    7  O7  UNL     1     -32.167   7.566   2.571  1.00 20.00    -0.264 OA
HETATM    8  O8  UNL     1     -33.471   5.902   3.441  1.00 20.00    -0.241 OA
ENDROOT
TORSDOF 0
ENDMDL
MODEL 4
REMARK VINA RESULT:      -4.6      1.451      2.023
REMARK  0 active torsions:
REMARK  status: ('A' for Active; 'I' for Inactive)
ROOT
HETATM    1  C1  UNL     1     -33.052   6.176   3.371  1.00 20.00     0.017 A 
HETATM    2  C2  UNL     1     -34.010   6.216   4.480  1.00 20.00     0.296 A 
HETATM    3  C3  UNL     1     -32.782   8.106   4.556  1.00 20.00     0.270 A 
HETATM    4  C4  UNL     1     -32.994   5.153   2.515  1.00 20.00     0.025 C 
HETATM    5  C5  UNL     1     -32.216   7.394   3.368  1.00 20.00     0.155 A 
HETATM    6  O6  UNL     1     -34.843   5.379   4.772  1.00 20.00    -0.259 OA
HETATM    7  O7  UNL     1     -32.397   9.194   4.962  1.00 20.00    -0.264 OA
HETATM    8  O8  UNL     1     -33.787   7.388   5.132  1.00 20.00    -0.241 OA
ENDROOT
TORSDOF 0
ENDMDL
MODEL 5
REMARK VINA RESULT:      -4.5      0.636      2.818
REMARK  0 active torsions:
REMARK  status: ('A' for Active; 'I' for Inactive)
ROOT
HETATM    1  C1  UNL     1     -33.821   6.759   5.279  1.00 20.00     0.017 A 
HETATM    2  C2  UNL     1     -32.882   7.655   4.596  1.00 20.00     0.296 A 
HETATM    3  C3  UNL     1     -33.188   5.845   3.286  1.00 20.00     0.270 A 
HETATM    4  C4  UNL     1     -34.350   7.052   6.469  1.00 20.00     0.025 C 
HETATM    5  C5  UNL     1     -34.062   5.550   4.465  1.00 20.00     0.155 A 
HETATM    6  O6  UNL     1     -32.470   8.732   4.983  1.00 20.00    -0.259 OA
HETATM    7  O7  UNL     1     -33.055   5.108   2.319  1.00 20.00    -0.264 OA
HETATM    8  O8  UNL     1     -32.557   7.044   3.427  1.00 20.00    -0.241 OA
ENDROOT
TORSDOF 0
ENDMDL
MODEL 6
REMARK VINA RESULT:      -4.5      1.605      3.359
REMARK  0 active torsions:
REMARK  status: ('A' for Active; 'I' for Inactive)
ROOT
HETATM    1  C1  UNL     1     -32.739   7.879   4.434  1.00 20.00     0.017 A 
HETATM    2  C2  UNL     1     -33.701   7.027   5.141  1.00 20.00     0.296 A 
HETATM    3  C3  UNL     1     -33.087   5.957   3.254  1.00 20.00     0.270 A 
HETATM    4  C4  UNL     1     -32.355   9.066   4.906  1.00 20.00     0.025 C 
HETATM    5  C5  UNL     1     -32.298   7.227   3.184  1.00 20.00     0.155 A 
HETATM    6  O6  UNL     1     -34.259   7.258   6.197  1.00 20.00    -0.259 OA
HETATM    7  O7  UNL     1     -33.052   5.070   2.412  1.00 20.00    -0.264 OA
HETATM    8  O8  UNL     1     -33.852   5.912   4.381  1.00 20.00    -0.241 OA
ENDROOT
TORSDOF 0
ENDMDL
MODEL 7
REMARK VINA RESULT:      -4.5      1.878      3.248
REMARK  0 active torsions:
REMARK  status: ('A' for Active; 'I' for Inactive)
ROOT
HETATM    1  C1  UNL     1     -32.963   7.103   3.872  1.00 20.00     0.017 A 
HETATM    2  C2  UNL     1     -32.932   8.030   5.007  1.00 20.00     0.296 A 
HETATM    3  C3  UNL     1     -34.266   6.300   5.563  1.00 20.00     0.270 A 
HETATM    4  C4  UNL     1     -32.284   7.331   2.745  1.00 20.00     0.025 C 
HETATM    5  C5  UNL     1     -33.825   5.943   4.178  1.00 20.00     0.155 A 
HETATM    6  O6  UNL     1     -32.322   9.080   5.091  1.00 20.00    -0.259 OA
HETATM    7  O7  UNL     1     -35.016   5.620   6.250  1.00 20.00    -0.264 OA
HETATM    8  O8  UNL     1     -33.725   7.484   5.965  1.00 20.00    -0.241 OA
ENDROOT
TORSDOF 0
ENDMDL
MODEL 8
REMARK VINA RESULT:      -4.4      1.862      2.658
REMARK  0 active torsions:
REMARK  status: ('A' for Active; 'I' for Inactive)
ROOT
HETATM    1  C1  UNL     1     -33.428   5.745   3.635  1.00 20.00     0.017 A 
HETATM    2  C2  UNL     1     -33.008   7.084   4.063  1.00 20.00     0.296 A 
HETATM    3  C3  UNL     1     -34.384   6.251   5.644  1.00 20.00     0.270 A 
HETATM    4  C4  UNL     1     -33.012   5.199   2.490  1.00 20.00     0.025 C 
HETATM    5  C5  UNL     1     -34.334   5.146   4.636  1.00 20.00     0.155 A 
HETATM    6  O6  UNL     1     -32.267   7.850   3.479  1.00 20.00    -0.259 OA
HETATM    7  O7  UNL     1     -35.030   6.215   6.682  1.00 20.00    -0.264 OA
HETATM    8  O8  UNL     1     -33.615   7.308   5.258  1.00 20.00    -0.241 OA
ENDROOT
TORSDOF 0
ENDMDL
MODEL 9
REMARK VINA RESULT:      -4.3      1.304      2.372
REMARK  0 active torsions:
REMARK  status: ('A' for Active; 'I' for Inactive)
ROOT
HETATM    1  C1  UNL     1     -34.074   5.901   4.631  1.00 20.00     0.017 A 
HETATM    2  C2  UNL     1     -33.749   7.130   5.361  1.00 20.00     0.296 A 
HETATM    3  C3  UNL     1     -32.681   7.202   3.377  1.00 20.00     0.270 A 
HETATM    4  C4  UNL     1     -34.874   4.960   5.137  1.00 20.00     0.025 C 
HETATM    5  C5  UNL     1     -33.400   5.891   3.316  1.00 20.00     0.155 A 
HETATM    6  O6  UNL     1     -34.135   7.460   6.467  1.00 20.00    -0.259 OA
HETATM    7  O7  UNL     1     -31.967   7.644   2.487  1.00 20.00    -0.264 OA
HETATM    8  O8  UNL     1     -32.924   7.845   4.553  1.00 20.00    -0.241 OA
ENDROOT
TORSDOF 0
ENDMDL
