MODEL 1
REMARK VINA RESULT:      -4.2      0.000      0.000
REMARK  1 active torsions:
REMARK  status: ('A' for Active; 'I' for Inactive)
REMARK    1  A    between atoms: C1_1  and  C2_2 
ROOT
HETATM    1  C2  UNL     1     -34.656   5.590   4.806  1.00 20.00     0.412 C 
HETATM    2  F4  UNL     1     -34.365   4.351   4.353  1.00 20.00    -0.168 F 
HETATM    3  F5  UNL     1     -33.780   6.450   4.247  1.00 20.00    -0.168 F 
HETATM    4  F6  UNL     1     -35.893   5.909   4.372  1.00 20.00    -0.168 F 
ENDROOT
BRANCH   1   5
HETATM    5  C1  UNL     1     -34.580   5.639   6.306  1.00 20.00     0.339 C 
HETATM    6  F3  UNL     1     -34.545   6.940   6.699  1.00 20.00    -0.246 F 
ENDBRANCH   1   5
TORSDOF 1
ENDMDL
MODEL 2
REMARK VINA RESULT:      -4.2      0.018      1.548
REMARK  1 active torsions:
REMARK  status: ('A' for Active; 'I' for Inactive)
REMARK    1  A    between atoms: C1_1  and  C2_2 
ROOT
HETATM    1  C2  UNL     1     -34.653   5.574   4.814  1.00 20.00     0.412 C 
HETATM    2  F4  UNL     1     -33.789   6.447   4.253  1.00 20.00    -0.168 F 
HETATM    3  F5  UNL     1     -35.894   5.888   4.387  1.00 20.00    -0.168 F 
HETATM    4  F6  UNL     1     -34.351   4.341   4.357  1.00 20.00    -0.168 F 
ENDROOT
BRANCH   1   5
HETATM    5  C1  UNL     1     -34.568   5.629   6.314  1.00 20.00     0.339 C 
HETATM    6  F3  UNL     1     -34.546   6.932   6.702  1.00 20.00    -0.246 F 
ENDBRANCH   1   5
TORSDOF 1
ENDMDL
MODEL 3
REMARK VINA RESULT:      -4.2      0.043      1.544
REMARK  1 active torsions:
REMARK  status: ('A' for Active; 'I' for Inactive)
REMARK    1  A    between atoms: C1_1  and  C2_2 
ROOT
HETATM    1  C2  UNL     1     -34.631   5.553   4.827  1.00 20.00     0.412 C 
HETATM    2  F4  UNL     1     -35.868   5.871   4.388  1.00 20.00    -0.168 F 
HETATM    3  F5  UNL     1     -34.341   4.312   4.384  1.00 20.00    -0.168 F 
HETATM    4  F6  UNL     1     -33.758   6.414   4.264  1.00 20.00    -0.168 F 
ENDROOT
BRANCH   1   5
HETATM    5  C1  UNL     1     -34.564   5.620   6.328  1.00 20.00     0.339 C 
HETATM    6  F3  UNL     1     -34.535   6.925   6.706  1.00 20.00    -0.246 F 
ENDBRANCH   1   5
TORSDOF 1
ENDMDL
MODEL 4
REMARK VINA RESULT:      -4.2      1.044      1.455
REMARK  1 active torsions:
REMARK  status: ('A' for Active; 'I' for Inactive)
REMARK    1  A    between atoms: C1_1  and  C2_2 
ROOT
HETATM    1  C2  UNL     1     -34.811   5.639   5.110  1.00 20.00     0.412 C 
HETATM    2  F4  UNL     1     -35.161   5.223   6.346  1.00 20.00    -0.168 F 
HETATM    3  F5  UNL     1     -34.152   4.629   4.504  1.00 20.00    -0.168 F 
HETATM    4  F6  UNL     1     -35.944   5.877   4.417  1.00 20.00    -0.168 F 
ENDROOT
BRANCH   1   5
HETATM    5  C1  UNL     1     -33.955   6.873   5.186  1.00 20.00     0.339 C 
HETATM    6  F3  UNL     1     -34.158   7.472   6.389  1.00 20.00    -0.246 F 
ENDBRANCH   1   5
TORSDOF 1
ENDMDL
MODEL 5
REMARK VINA RESULT:      -4.2      1.069      1.864
REMARK  1 active torsions:
REMARK  status: ('A' for Active; 'I' for Inactive)
REMARK    1  A    between atoms: C1_1  and  C2_2 
ROOT
HETATM    1  C2  UNL     1     -34.788   5.631   5.124  1.00 20.00     0.412 C 
HETATM    2  F4  UNL     1     -35.924   5.887   4.440  1.00 20.00    -0.168 F 
HETATM    3  F5  UNL     1     -35.135   5.116   6.323  1.00 20.00    -0.168 F 
HETATM    4  F6  UNL     1     -34.100   4.690   4.446  1.00 20.00    -0.168 F 
ENDROOT
BRANCH   1   5
HETATM    5  C1  UNL     1     -33.973   6.883   5.290  1.00 20.00     0.339 C 
HETATM    6  F3  UNL     1     -34.152   7.358   6.551  1.00 20.00    -0.246 F 
ENDBRANCH   1   5
TORSDOF 1
ENDMDL
MODEL 6
REMARK VINA RESULT:      -3.9      1.138      2.426
REMARK  1 active torsions:
REMARK  status: ('A' for Active; 'I' for Inactive)
REMARK    1  A    between atoms: C1_1  and  C2_2 
ROOT
HETATM    1  C2  UNL     1     -34.880   5.803   4.989  1.00 20.00     0.412 C 
HETATM    2  F4  UNL     1     -34.174   6.952   4.909  1.00 20.00    -0.168 F 
HETATM    3  F5  UNL     1     -35.152   5.575   6.291  1.00 20.00    -0.168 F 
HETATM    4  F6  UNL     1     -36.048   5.989   4.342  1.00 20.00    -0.168 F 
ENDROOT
BRANCH   1   5
HETATM    5  C1  UNL     1     -34.107   4.661   4.391  1.00 20.00     0.339 C 
HETATM    6  F3  UNL     1     -33.493   5.094   3.258  1.00 20.00    -0.246 F 
ENDBRANCH   1   5
TORSDOF 1
ENDMDL
MODEL 7
REMARK VINA RESULT:      -3.9      1.156      2.654
REMARK  1 active torsions:
REMARK  status: ('A' for Active; 'I' for Inactive)
REMARK    1  A    between atoms: C1_1  and  C2_2 
ROOT
HETATM    1  C2  UNL     1     -34.207   6.176   6.201  1.00 20.00     0.412 C 
HETATM    2  F4  UNL     1     -33.806   5.034   6.800  1.00 20.00    -0.168 F 
HETATM    3  F5  UNL     1     -34.977   6.855   7.078  1.00 20.00    -0.168 F 
HETATM    4  F6  UNL     1     -33.110   6.917   5.945  1.00 20.00    -0.168 F 
ENDROOT
BRANCH   1   5
HETATM    5  C1  UNL     1     -34.965   5.876   4.937  1.00 20.00     0.339 C 
HETATM    6  F3  UNL     1     -34.720   4.589   4.576  1.00 20.00    -0.246 F 
ENDBRANCH   1   5
TORSDOF 1
ENDMDL
MODEL 8
REMARK VINA RESULT:      -3.9      1.202      2.694
REMARK  1 active torsions:
REMARK  status: ('A' for Active; 'I' for Inactive)
REMARK    1  A    between atoms: C1_1  and  C2_2 
ROOT
HETATM    1  C2  UNL     1     -34.125   6.298   6.239  1.00 20.00     0.412 C 
HETATM    2  F4  UNL     1     -32.983   6.983   6.015  1.00 20.00    -0.168 F 
HETATM    3  F5  UNL     1     -33.798   5.131   6.832  1.00 20.00    -0.168 F 
HETATM    4  F6  UNL     1     -34.874   7.014   7.103  1.00 20.00    -0.168 F 
ENDROOT
BRANCH   1   5
HETATM    5  C1  UNL     1     -34.865   6.060   4.951  1.00 20.00     0.339 C 
HETATM    6  F3  UNL     1     -34.996   4.720   4.764  1.00 20.00    -0.246 F 
ENDBRANCH   1   5
TORSDOF 1
ENDMDL
MODEL 9
REMARK VINA RESULT:      -3.8      1.581      2.468
REMARK  1 active torsions:
REMARK  status: ('A' for Active; 'I' for Inactive)
REMARK    1  A    between atoms: C1_1  and  C2_2 
ROOT
HETATM    1  C2  UNL     1     -34.325   6.402   6.093  1.00 20.00     0.412 C 
HETATM    2  F4  UNL     1     -34.738   7.170   7.124  1.00 20.00    -0.168 F 
HETATM    3  F5  UNL     1     -33.681   5.332   6.605  1.00 20.00    -0.168 F 
HETATM    4  F6  UNL     1     -35.420   5.961   5.441  1.00 20.00    -0.168 F 
ENDROOT
BRANCH   1   5
HETATM    5  C1  UNL     1     -33.427   7.184   5.174  1.00 20.00     0.339 C 
HETATM    6  F3  UNL     1     -33.781   8.495   5.229  1.00 20.00    -0.246 F 
ENDBRANCH   1   5
TORSDOF 1
ENDMDL
