MODEL 1
REMARK VINA RESULT:      -4.8      0.000      0.000
REMARK  3 active torsions:
REMARK  status: ('A' for Active; 'I' for Inactive)
REMARK    1  A    between atoms: C1_1  and  C7_7 
REMARK    2  A    between atoms: C4_4  and  C6_6 
REMARK    3  A    between atoms: C6_6  and  C7_7 
ROOT
HETATM    1  C6  UNL     1     -33.857   7.091   5.993  1.00 20.00     0.015 C 
ENDROOT
BRANCH   1   2
HETATM    2  C4  UNL     1     -33.582   7.973   4.781  1.00 20.00    -0.014 A 
HETATM    3  C2  UNL     1     -32.380   8.876   4.757  1.00 20.00     0.005 A 
HETATM    4  C3  UNL     1     -32.429   7.666   3.866  1.00 20.00     0.005 A 
ENDBRANCH   1   2
BRANCH   1   5
HETATM    5  C7  UNL     1     -34.776   5.907   5.667  1.00 20.00     0.043 C 
HETATM    6  C5  UNL     1     -35.603   6.195   4.416  1.00 20.00     0.017 C 
BRANCH   5   7
HETATM    7  C1  UNL     1     -34.018   4.612   5.432  1.00 20.00     0.235 C 
HETATM    8  O8  UNL     1     -34.017   3.979   4.382  1.00 20.00    -0.306 OA
ENDBRANCH   5   7
ENDBRANCH   1   5
TORSDOF 3
ENDMDL
MODEL 2
REMARK VINA RESULT:      -4.5      1.838      3.716
REMARK  3 active torsions:
REMARK  status: ('A' for Active; 'I' for Inactive)
REMARK    1  A    between atoms: C1_1  and  C7_7 
REMARK    2  A    between atoms: C4_4  and  C6_6 
REMARK    3  A    between atoms: C6_6  and  C7_7 
ROOT
HETATM    1  C6  UNL     1     -33.342   7.212   5.560  1.00 20.00     0.015 C 
ENDROOT
BRANCH   1   2
HETATM    2  C4  UNL     1     -34.603   6.382   5.346  1.00 20.00    -0.014 A 
HETATM    3  C2  UNL     1     -34.510   4.997   4.770  1.00 20.00     0.005 A 
HETATM    4  C3  UNL     1     -34.878   5.187   6.215  1.00 20.00     0.005 A 
ENDBRANCH   1   2
BRANCH   1   5
HETATM    5  C7  UNL     1     -33.005   8.098   4.354  1.00 20.00     0.043 C 
HETATM    6  C5  UNL     1     -32.164   9.297   4.785  1.00 20.00     0.017 C 
BRANCH   5   7
HETATM    7  C1  UNL     1     -32.238   7.360   3.270  1.00 20.00     0.235 C 
HETATM    8  O8  UNL     1     -32.212   7.680   2.087  1.00 20.00    -0.306 OA
ENDBRANCH   5   7
ENDBRANCH   1   5
TORSDOF 3
ENDMDL
MODEL 3
REMARK VINA RESULT:      -4.2      1.404      1.633
REMARK  3 active torsions:
REMARK  status: ('A' for Active; 'I' for Inactive)
REMARK    1  A    between atoms: C1_1  and  C7_7 
REMARK    2  A    between atoms: C4_4  and  C6_6 
REMARK    3  A    between atoms: C6_6  and  C7_7 
ROOT
HETATM    1  C6  UNL     1     -34.282   7.353   4.849  1.00 20.00     0.015 C 
ENDROOT
BRANCH   1   2
HETATM    2  C4  UNL     1     -32.849   7.657   4.426  1.00 20.00    -0.014 A 
HETATM    3  C2  UNL     1     -32.571   8.720   3.401  1.00 20.00     0.005 A 
HETATM    4  C3  UNL     1     -32.196   8.946   4.839  1.00 20.00     0.005 A 
ENDBRANCH   1   2
BRANCH   1   5
HETATM    5  C7  UNL     1     -34.689   5.903   4.563  1.00 20.00     0.043 C 
HETATM    6  C5  UNL     1     -33.724   5.258   3.570  1.00 20.00     0.017 C 
BRANCH   5   7
HETATM    7  C1  UNL     1     -34.717   5.036   5.810  1.00 20.00     0.235 C 
HETATM    8  O8  UNL     1     -34.004   5.199   6.795  1.00 20.00    -0.306 OA
ENDBRANCH   5   7
ENDBRANCH   1   5
TORSDOF 3
ENDMDL
MODEL 4
REMARK VINA RESULT:      -4.2      0.949      1.472
REMARK  3 active torsions:
REMARK  status: ('A' for Active; 'I' for Inactive)
REMARK    1  A    between atoms: C1_1  and  C7_7 
REMARK    2  A    between atoms: C4_4  and  C6_6 
REMARK    3  A    between atoms: C6_6  and  C7_7 
ROOT
HETATM    1  C6  UNL     1     -33.970   7.631   4.941  1.00 20.00     0.015 C 
ENDROOT
BRANCH   1   2
HETATM    2  C4  UNL     1     -32.600   8.033   4.409  1.00 20.00    -0.014 A 
HETATM    3  C2  UNL     1     -32.156   7.586   3.043  1.00 20.00     0.005 A 
HETATM    4  C3  UNL     1     -32.486   9.031   3.290  1.00 20.00     0.005 A 
ENDBRANCH   1   2
BRANCH   1   5
HETATM    5  C7  UNL     1     -33.996   6.199   5.489  1.00 20.00     0.043 C 
HETATM    6  C5  UNL     1     -34.907   6.105   6.710  1.00 20.00     0.017 C 
BRANCH   5   7
HETATM    7  C1  UNL     1     -34.481   5.181   4.470  1.00 20.00     0.235 C 
HETATM    8  O8  UNL     1     -34.142   4.003   4.439  1.00 20.00    -0.306 OA
ENDBRANCH   5   7
ENDBRANCH   1   5
TORSDOF 3
ENDMDL
MODEL 5
REMARK VINA RESULT:      -4.2      2.327      3.997
REMARK  3 active torsions:
REMARK  status: ('A' for Active; 'I' for Inactive)
REMARK    1  A    between atoms: C1_1  and  C7_7 
REMARK    2  A    between atoms: C4_4  and  C6_6 
REMARK    3  A    between atoms: C6_6  and  C7_7 
ROOT
HETATM    1  C6  UNL     1     -33.629   7.699   4.868  1.00 20.00     0.015 C 
ENDROOT
BRANCH   1   2
HETATM    2  C4  UNL     1     -33.919   6.208   4.998  1.00 20.00    -0.014 A 
HETATM    3  C2  UNL     1     -34.702   5.688   6.171  1.00 20.00     0.005 A 
HETATM    4  C3  UNL     1     -35.316   5.689   4.799  1.00 20.00     0.005 A 
ENDBRANCH   1   2
BRANCH   1   5
HETATM    5  C7  UNL     1     -32.460   7.994   3.920  1.00 20.00     0.043 C 
HETATM    6  C5  UNL     1     -32.299   6.872   2.897  1.00 20.00     0.017 C 
BRANCH   5   7
HETATM    7  C1  UNL     1     -32.630   9.296   3.156  1.00 20.00     0.235 C 
HETATM    8  O8  UNL     1     -32.784   9.383   1.942  1.00 20.00    -0.306 OA
ENDBRANCH   5   7
ENDBRANCH   1   5
TORSDOF 3
ENDMDL
MODEL 6
REMARK VINA RESULT:      -4.1      2.272      3.919
REMARK  3 active torsions:
REMARK  status: ('A' for Active; 'I' for Inactive)
REMARK    1  A    between atoms: C1_1  and  C7_7 
REMARK    2  A    between atoms: C4_4  and  C6_6 
REMARK    3  A    between atoms: C6_6  and  C7_7 
ROOT
HETATM    1  C6  UNL     1     -33.247   6.212   3.727  1.00 20.00     0.015 C 
ENDROOT
BRANCH   1   2
HETATM    2  C4  UNL     1     -34.318   6.526   4.765  1.00 20.00    -0.014 A 
HETATM    3  C2  UNL     1     -35.061   5.411   5.448  1.00 20.00     0.005 A 
HETATM    4  C3  UNL     1     -34.069   6.236   6.219  1.00 20.00     0.005 A 
ENDBRANCH   1   2
BRANCH   1   5
HETATM    5  C7  UNL     1     -32.310   7.398   3.467  1.00 20.00     0.043 C 
HETATM    6  C5  UNL     1     -32.212   7.690   1.971  1.00 20.00     0.017 C 
BRANCH   5   7
HETATM    7  C1  UNL     1     -32.759   8.674   4.158  1.00 20.00     0.235 C 
HETATM    8  O8  UNL     1     -32.158   9.226   5.074  1.00 20.00    -0.306 OA
ENDBRANCH   5   7
ENDBRANCH   1   5
TORSDOF 3
ENDMDL
MODEL 7
REMARK VINA RESULT:      -4.0      2.270      3.033
REMARK  3 active torsions:
REMARK  status: ('A' for Active; 'I' for Inactive)
REMARK    1  A    between atoms: C1_1  and  C7_7 
REMARK    2  A    between atoms: C4_4  and  C6_6 
REMARK    3  A    between atoms: C6_6  and  C7_7 
ROOT
HETATM    1  C6  UNL     1     -34.664   5.876   4.163  1.00 20.00     0.015 C 
ENDROOT
BRANCH   1   2
HETATM    2  C4  UNL     1     -33.250   5.533   3.709  1.00 20.00    -0.014 A 
HETATM    3  C2  UNL     1     -33.004   5.024   2.316  1.00 20.00     0.005 A 
HETATM    4  C3  UNL     1     -32.547   6.402   2.704  1.00 20.00     0.005 A 
ENDBRANCH   1   2
BRANCH   1   5
HETATM    5  C7  UNL     1     -34.729   6.288   5.639  1.00 20.00     0.043 C 
HETATM    6  C5  UNL     1     -34.409   5.101   6.545  1.00 20.00     0.017 C 
BRANCH   5   7
HETATM    7  C1  UNL     1     -33.763   7.408   5.985  1.00 20.00     0.235 C 
HETATM    8  O8  UNL     1     -33.674   8.471   5.380  1.00 20.00    -0.306 OA
ENDBRANCH   5   7
ENDBRANCH   1   5
TORSDOF 3
ENDMDL
MODEL 8
REMARK VINA RESULT:      -3.8      9.011      9.671
REMARK  3 active torsions:
REMARK  status: ('A' for Active; 'I' for Inactive)
REMARK    1  A    between atoms: C1_1  and  C7_7 
REMARK    2  A    between atoms: C4_4  and  C6_6 
REMARK    3  A    between atoms: C6_6  and  C7_7 
ROOT
HETATM    1  C6  UNL     1     -40.861  13.296   5.098  1.00 20.00     0.015 C 
ENDROOT
BRANCH   1   2
HETATM    2  C4  UNL     1     -40.041  12.019   5.248  1.00 20.00    -0.014 A 
HETATM    3  C2  UNL     1     -39.088  11.599   4.165  1.00 20.00     0.005 A 
HETATM    4  C3  UNL     1     -38.558  12.095   5.481  1.00 20.00     0.005 A 
ENDBRANCH   1   2
BRANCH   1   5
HETATM    5  C7  UNL     1     -41.652  13.644   6.365  1.00 20.00     0.043 C 
HETATM    6  C5  UNL     1     -42.334  12.401   6.933  1.00 20.00     0.017 C 
BRANCH   5   7
HETATM    7  C1  UNL     1     -40.785  14.238   7.462  1.00 20.00     0.235 C 
HETATM    8  O8  UNL     1     -40.320  13.610   8.407  1.00 20.00    -0.306 OA
ENDBRANCH   5   7
ENDBRANCH   1   5
TORSDOF 3
ENDMDL
MODEL 9
REMARK VINA RESULT:      -3.7      1.599      2.218
REMARK  3 active torsions:
REMARK  status: ('A' for Active; 'I' for Inactive)
REMARK    1  A    between atoms: C1_1  and  C7_7 
REMARK    2  A    between atoms: C4_4  and  C6_6 
REMARK    3  A    between atoms: C6_6  and  C7_7 
ROOT
HETATM    1  C6  UNL     1     -32.480   6.913   3.393  1.00 20.00     0.015 C 
ENDROOT
BRANCH   1   2
HETATM    2  C4  UNL     1     -33.108   8.127   4.066  1.00 20.00    -0.014 A 
HETATM    3  C2  UNL     1     -33.196   8.203   5.565  1.00 20.00     0.005 A 
HETATM    4  C3  UNL     1     -32.249   9.103   4.821  1.00 20.00     0.005 A 
ENDBRANCH   1   2
BRANCH   1   5
HETATM    5  C7  UNL     1     -33.512   5.839   3.027  1.00 20.00     0.043 C 
HETATM    6  C5  UNL     1     -32.826   4.614   2.426  1.00 20.00     0.017 C 
BRANCH   5   7
HETATM    7  C1  UNL     1     -34.331   5.372   4.219  1.00 20.00     0.235 C 
HETATM    8  O8  UNL     1     -34.309   4.237   4.684  1.00 20.00    -0.306 OA
ENDBRANCH   5   7
ENDBRANCH   1   5
TORSDOF 3
ENDMDL
