MODEL 1
REMARK VINA RESULT:      -3.0      0.000      0.000
REMARK  0 active torsions:
REMARK  status: ('A' for Active; 'I' for Inactive)
ROOT
HETATM    1  C1  UNL     1     -34.515   6.042   6.403  1.00 20.00     0.050 C 
HETATM    2  C2  UNL     1     -34.103   6.490   5.195  1.00 20.00     0.094 C 
HETATM    3 CL3  UNL     1     -33.648   8.143   4.947  1.00 20.00    -0.072 Cl
HETATM    4 CL4  UNL     1     -34.003   5.436   3.823  1.00 20.00    -0.072 Cl
ENDROOT
TORSDOF 0
ENDMDL
MODEL 2
REMARK VINA RESULT:      -3.0      0.008      2.088
REMARK  0 active torsions:
REMARK  status: ('A' for Active; 'I' for Inactive)
ROOT
HETATM    1  C1  UNL     1     -34.510   6.046   6.406  1.00 20.00     0.050 C 
HETATM    2  C2  UNL     1     -34.101   6.487   5.195  1.00 20.00     0.094 C 
HETATM    3 CL3  UNL     1     -34.007   5.428   3.827  1.00 20.00    -0.072 Cl
HETATM    4 CL4  UNL     1     -33.648   8.140   4.938  1.00 20.00    -0.072 Cl
ENDROOT
TORSDOF 0
ENDMDL
MODEL 3
REMARK VINA RESULT:      -3.0      1.675      2.345
REMARK  0 active torsions:
REMARK  status: ('A' for Active; 'I' for Inactive)
ROOT
HETATM    1  C1  UNL     1     -33.628   7.857   4.992  1.00 20.00     0.050 C 
HETATM    2  C2  UNL     1     -33.982   6.552   5.006  1.00 20.00     0.094 C 
HETATM    3 CL3  UNL     1     -33.782   5.542   3.612  1.00 20.00    -0.072 Cl
HETATM    4 CL4  UNL     1     -34.657   5.812   6.420  1.00 20.00    -0.072 Cl
ENDROOT
TORSDOF 0
ENDMDL
MODEL 4
REMARK VINA RESULT:      -3.0      1.672      1.928
REMARK  0 active torsions:
REMARK  status: ('A' for Active; 'I' for Inactive)
ROOT
HETATM    1  C1  UNL     1     -33.626   7.855   4.999  1.00 20.00     0.050 C 
HETATM    2  C2  UNL     1     -33.981   6.550   5.011  1.00 20.00     0.094 C 
HETATM    3 CL3  UNL     1     -34.658   5.807   6.423  1.00 20.00    -0.072 Cl
HETATM    4 CL4  UNL     1     -33.781   5.543   3.615  1.00 20.00    -0.072 Cl
ENDROOT
TORSDOF 0
ENDMDL
MODEL 5
REMARK VINA RESULT:      -3.0      1.591      1.881
REMARK  0 active torsions:
REMARK  status: ('A' for Active; 'I' for Inactive)
ROOT
HETATM    1  C1  UNL     1     -34.759   5.605   4.421  1.00 20.00     0.050 C 
HETATM    2  C2  UNL     1     -34.048   6.623   4.957  1.00 20.00     0.094 C 
HETATM    3 CL3  UNL     1     -34.227   7.077   6.620  1.00 20.00    -0.072 Cl
HETATM    4 CL4  UNL     1     -32.914   7.533   4.014  1.00 20.00    -0.072 Cl
ENDROOT
TORSDOF 0
ENDMDL
MODEL 6
REMARK VINA RESULT:      -3.0      1.560      2.040
REMARK  0 active torsions:
REMARK  status: ('A' for Active; 'I' for Inactive)
ROOT
HETATM    1  C1  UNL     1     -34.863   5.628   4.437  1.00 20.00     0.050 C 
HETATM    2  C2  UNL     1     -34.101   6.608   4.973  1.00 20.00     0.094 C 
HETATM    3 CL3  UNL     1     -32.936   7.472   4.024  1.00 20.00    -0.072 Cl
HETATM    4 CL4  UNL     1     -34.245   7.060   6.639  1.00 20.00    -0.072 Cl
ENDROOT
TORSDOF 0
ENDMDL
MODEL 7
REMARK VINA RESULT:      -2.8      1.517      2.650
REMARK  0 active torsions:
REMARK  status: ('A' for Active; 'I' for Inactive)
ROOT
HETATM    1  C1  UNL     1     -34.077   6.872   5.183  1.00 20.00     0.050 C 
HETATM    2  C2  UNL     1     -33.101   7.412   4.418  1.00 20.00     0.094 C 
HETATM    3 CL3  UNL     1     -32.554   6.640   2.966  1.00 20.00    -0.072 Cl
HETATM    4 CL4  UNL     1     -32.339   8.908   4.845  1.00 20.00    -0.072 Cl
ENDROOT
TORSDOF 0
ENDMDL
MODEL 8
REMARK VINA RESULT:      -2.8      1.310      1.390
REMARK  0 active torsions:
REMARK  status: ('A' for Active; 'I' for Inactive)
ROOT
HETATM    1  C1  UNL     1     -34.031   6.979   5.801  1.00 20.00     0.050 C 
HETATM    2  C2  UNL     1     -33.217   7.394   4.804  1.00 20.00     0.094 C 
HETATM    3 CL3  UNL     1     -32.367   8.902   4.895  1.00 20.00    -0.072 Cl
HETATM    4 CL4  UNL     1     -32.973   6.443   3.377  1.00 20.00    -0.072 Cl
ENDROOT
TORSDOF 0
ENDMDL
MODEL 9
REMARK VINA RESULT:      -2.8      2.188      3.209
REMARK  0 active torsions:
REMARK  status: ('A' for Active; 'I' for Inactive)
ROOT
HETATM    1  C1  UNL     1     -32.265   7.237   3.020  1.00 20.00     0.050 C 
HETATM    2  C2  UNL     1     -32.880   7.629   4.158  1.00 20.00     0.094 C 
HETATM    3 CL3  UNL     1     -34.218   6.746   4.818  1.00 20.00    -0.072 Cl
HETATM    4 CL4  UNL     1     -32.367   9.038   5.026  1.00 20.00    -0.072 Cl
ENDROOT
TORSDOF 0
ENDMDL
