MODEL 1
REMARK VINA RESULT:      -3.5      0.000      0.000
REMARK  1 active torsions:
REMARK  status: ('A' for Active; 'I' for Inactive)
REMARK    1  A    between atoms: C1_1  and  C2_2 
ROOT
HETATM    1  C2  UNL     1     -34.309   6.046   4.678  1.00 20.00     0.200 C 
HETATM    2 CL4  UNL     1     -36.014   6.174   4.129  1.00 20.00    -0.083 Cl
HETATM    3 CL5  UNL     1     -34.290   5.143   6.223  1.00 20.00    -0.083 Cl
HETATM    4 CL6  UNL     1     -33.397   5.127   3.443  1.00 20.00    -0.083 Cl
ENDROOT
BRANCH   1   5
HETATM    5  C1  UNL     1     -33.744   7.459   4.852  1.00 20.00     0.173 C 
HETATM    6 CL3  UNL     1     -32.300   7.778   3.850  1.00 20.00    -0.126 Cl
ENDBRANCH   1   5
TORSDOF 1
ENDMDL
MODEL 2
REMARK VINA RESULT:      -3.5      0.042      2.058
REMARK  1 active torsions:
REMARK  status: ('A' for Active; 'I' for Inactive)
REMARK    1  A    between atoms: C1_1  and  C2_2 
ROOT
HETATM    1  C2  UNL     1     -34.329   6.042   4.665  1.00 20.00     0.200 C 
HETATM    2 CL4  UNL     1     -34.297   5.108   6.199  1.00 20.00    -0.083 Cl
HETATM    3 CL5  UNL     1     -33.388   5.135   3.443  1.00 20.00    -0.083 Cl
HETATM    4 CL6  UNL     1     -36.032   6.168   4.128  1.00 20.00    -0.083 Cl
ENDROOT
BRANCH   1   5
HETATM    5  C1  UNL     1     -33.722   7.425   4.921  1.00 20.00     0.173 C 
HETATM    6 CL3  UNL     1     -32.320   7.792   3.876  1.00 20.00    -0.126 Cl
ENDBRANCH   1   5
TORSDOF 1
ENDMDL
MODEL 3
REMARK VINA RESULT:      -3.5      0.161      2.076
REMARK  1 active torsions:
REMARK  status: ('A' for Active; 'I' for Inactive)
REMARK    1  A    between atoms: C1_1  and  C2_2 
ROOT
HETATM    1  C2  UNL     1     -34.335   6.024   4.706  1.00 20.00     0.200 C 
HETATM    2 CL4  UNL     1     -33.440   5.002   3.532  1.00 20.00    -0.083 Cl
HETATM    3 CL5  UNL     1     -36.027   6.169   4.139  1.00 20.00    -0.083 Cl
HETATM    4 CL6  UNL     1     -34.311   5.197   6.293  1.00 20.00    -0.083 Cl
ENDROOT
BRANCH   1   5
HETATM    5  C1  UNL     1     -33.655   7.394   4.781  1.00 20.00     0.173 C 
HETATM    6 CL3  UNL     1     -32.347   7.607   3.584  1.00 20.00    -0.126 Cl
ENDBRANCH   1   5
TORSDOF 1
ENDMDL
MODEL 4
REMARK VINA RESULT:      -3.4      1.051      2.468
REMARK  1 active torsions:
REMARK  status: ('A' for Active; 'I' for Inactive)
REMARK    1  A    between atoms: C1_1  and  C2_2 
ROOT
HETATM    1  C2  UNL     1     -34.455   5.859   4.797  1.00 20.00     0.200 C 
HETATM    2 CL4  UNL     1     -36.097   6.137   4.125  1.00 20.00    -0.083 Cl
HETATM    3 CL5  UNL     1     -33.507   7.363   4.585  1.00 20.00    -0.083 Cl
HETATM    4 CL6  UNL     1     -34.624   5.507   6.544  1.00 20.00    -0.083 Cl
ENDROOT
BRANCH   1   5
HETATM    5  C1  UNL     1     -33.812   4.686   4.052  1.00 20.00     0.173 C 
HETATM    6 CL3  UNL     1     -32.891   5.181   2.603  1.00 20.00    -0.126 Cl
ENDBRANCH   1   5
TORSDOF 1
ENDMDL
MODEL 5
REMARK VINA RESULT:      -3.4      1.056      2.398
REMARK  1 active torsions:
REMARK  status: ('A' for Active; 'I' for Inactive)
REMARK    1  A    between atoms: C1_1  and  C2_2 
ROOT
HETATM    1  C2  UNL     1     -34.492   5.837   4.767  1.00 20.00     0.200 C 
HETATM    2 CL4  UNL     1     -33.484   7.304   4.524  1.00 20.00    -0.083 Cl
HETATM    3 CL5  UNL     1     -34.618   5.535   6.527  1.00 20.00    -0.083 Cl
HETATM    4 CL6  UNL     1     -36.121   6.169   4.104  1.00 20.00    -0.083 Cl
ENDROOT
BRANCH   1   5
HETATM    5  C1  UNL     1     -33.826   4.661   4.047  1.00 20.00     0.173 C 
HETATM    6 CL3  UNL     1     -32.880   5.145   2.612  1.00 20.00    -0.126 Cl
ENDBRANCH   1   5
TORSDOF 1
ENDMDL
MODEL 6
REMARK VINA RESULT:      -3.4      1.056      2.590
REMARK  1 active torsions:
REMARK  status: ('A' for Active; 'I' for Inactive)
REMARK    1  A    between atoms: C1_1  and  C2_2 
ROOT
HETATM    1  C2  UNL     1     -34.494   5.880   4.749  1.00 20.00     0.200 C 
HETATM    2 CL4  UNL     1     -34.641   5.489   6.495  1.00 20.00    -0.083 Cl
HETATM    3 CL5  UNL     1     -36.140   6.158   4.102  1.00 20.00    -0.083 Cl
HETATM    4 CL6  UNL     1     -33.535   7.383   4.596  1.00 20.00    -0.083 Cl
ENDROOT
BRANCH   1   5
HETATM    5  C1  UNL     1     -33.809   4.708   4.040  1.00 20.00     0.173 C 
HETATM    6 CL3  UNL     1     -32.883   5.192   2.592  1.00 20.00    -0.126 Cl
ENDBRANCH   1   5
TORSDOF 1
ENDMDL
MODEL 7
REMARK VINA RESULT:      -3.1      1.242      2.485
REMARK  1 active torsions:
REMARK  status: ('A' for Active; 'I' for Inactive)
REMARK    1  A    between atoms: C1_1  and  C2_2 
ROOT
HETATM    1  C2  UNL     1     -34.322   5.880   4.484  1.00 20.00     0.200 C 
HETATM    2 CL4  UNL     1     -34.273   4.767   5.893  1.00 20.00    -0.083 Cl
HETATM    3 CL5  UNL     1     -33.403   5.123   3.147  1.00 20.00    -0.083 Cl
HETATM    4 CL6  UNL     1     -36.032   6.074   3.991  1.00 20.00    -0.083 Cl
ENDROOT
BRANCH   1   5
HETATM    5  C1  UNL     1     -33.705   7.219   4.895  1.00 20.00     0.173 C 
HETATM    6 CL3  UNL     1     -33.947   7.617   6.619  1.00 20.00    -0.126 Cl
ENDBRANCH   1   5
TORSDOF 1
ENDMDL
MODEL 8
REMARK VINA RESULT:      -3.1      1.245      1.332
REMARK  1 active torsions:
REMARK  status: ('A' for Active; 'I' for Inactive)
REMARK    1  A    between atoms: C1_1  and  C2_2 
ROOT
HETATM    1  C2  UNL     1     -34.321   5.868   4.517  1.00 20.00     0.200 C 
HETATM    2 CL4  UNL     1     -36.035   6.077   4.023  1.00 20.00    -0.083 Cl
HETATM    3 CL5  UNL     1     -34.281   4.764   5.926  1.00 20.00    -0.083 Cl
HETATM    4 CL6  UNL     1     -33.439   5.118   3.153  1.00 20.00    -0.083 Cl
ENDROOT
BRANCH   1   5
HETATM    5  C1  UNL     1     -33.741   7.241   4.869  1.00 20.00     0.173 C 
HETATM    6 CL3  UNL     1     -33.940   7.679   6.590  1.00 20.00    -0.126 Cl
ENDBRANCH   1   5
TORSDOF 1
ENDMDL
MODEL 9
REMARK VINA RESULT:      -2.7      8.636      9.702
REMARK  1 active torsions:
REMARK  status: ('A' for Active; 'I' for Inactive)
REMARK    1  A    between atoms: C1_1  and  C2_2 
ROOT
HETATM    1  C2  UNL     1     -40.986  12.889   6.162  1.00 20.00     0.200 C 
HETATM    2 CL4  UNL     1     -40.363  14.112   7.320  1.00 20.00    -0.083 Cl
HETATM    3 CL5  UNL     1     -42.472  12.172   6.858  1.00 20.00    -0.083 Cl
HETATM    4 CL6  UNL     1     -41.393  13.729   4.635  1.00 20.00    -0.083 Cl
ENDROOT
BRANCH   1   5
HETATM    5  C1  UNL     1     -39.906  11.826   5.943  1.00 20.00     0.173 C 
HETATM    6 CL3  UNL     1     -39.257  11.799   4.279  1.00 20.00    -0.126 Cl
ENDBRANCH   1   5
TORSDOF 1
ENDMDL
