MODEL 1
REMARK VINA RESULT:      -3.1      0.000      0.000
REMARK  0 active torsions:
REMARK  status: ('A' for Active; 'I' for Inactive)
ROOT
HETATM    1  C1  UNL     1     -33.754   7.400   4.913  1.00 20.00     0.068 C 
HETATM    2  C2  UNL     1     -34.353   6.018   4.688  1.00 20.00     0.184 C 
HETATM    3 CL3  UNL     1     -33.405   5.143   3.453  1.00 20.00    -0.084 Cl
HETATM    4 CL4  UNL     1     -34.324   5.092   6.215  1.00 20.00    -0.084 Cl
HETATM    5 CL5  UNL     1     -36.041   6.175   4.130  1.00 20.00    -0.084 Cl
ENDROOT
TORSDOF 0
ENDMDL
MODEL 2
REMARK VINA RESULT:      -3.1      0.019      2.251
REMARK  0 active torsions:
REMARK  status: ('A' for Active; 'I' for Inactive)
ROOT
HETATM    1  C1  UNL     1     -33.740   7.392   4.895  1.00 20.00     0.068 C 
HETATM    2  C2  UNL     1     -34.345   6.012   4.675  1.00 20.00     0.184 C 
HETATM    3 CL3  UNL     1     -34.309   5.087   6.202  1.00 20.00    -0.084 Cl
HETATM    4 CL4  UNL     1     -36.038   6.175   4.128  1.00 20.00    -0.084 Cl
HETATM    5 CL5  UNL     1     -33.410   5.134   3.434  1.00 20.00    -0.084 Cl
ENDROOT
TORSDOF 0
ENDMDL
MODEL 3
REMARK VINA RESULT:      -3.1      0.011      2.257
REMARK  0 active torsions:
REMARK  status: ('A' for Active; 'I' for Inactive)
ROOT
HETATM    1  C1  UNL     1     -33.744   7.396   4.904  1.00 20.00     0.068 C 
HETATM    2  C2  UNL     1     -34.347   6.016   4.682  1.00 20.00     0.184 C 
HETATM    3 CL3  UNL     1     -36.037   6.178   4.130  1.00 20.00    -0.084 Cl
HETATM    4 CL4  UNL     1     -33.406   5.138   3.442  1.00 20.00    -0.084 Cl
HETATM    5 CL5  UNL     1     -34.313   5.090   6.207  1.00 20.00    -0.084 Cl
ENDROOT
TORSDOF 0
ENDMDL
MODEL 4
REMARK VINA RESULT:      -3.1      1.427      2.510
REMARK  0 active torsions:
REMARK  status: ('A' for Active; 'I' for Inactive)
ROOT
HETATM    1  C1  UNL     1     -34.420   5.061   5.905  1.00 20.00     0.068 C 
HETATM    2  C2  UNL     1     -34.426   5.983   4.693  1.00 20.00     0.184 C 
HETATM    3 CL3  UNL     1     -36.096   6.181   4.094  1.00 20.00    -0.084 Cl
HETATM    4 CL4  UNL     1     -33.771   7.582   5.148  1.00 20.00    -0.084 Cl
HETATM    5 CL5  UNL     1     -33.416   5.283   3.398  1.00 20.00    -0.084 Cl
ENDROOT
TORSDOF 0
ENDMDL
MODEL 5
REMARK VINA RESULT:      -3.1      1.433      2.219
REMARK  0 active torsions:
REMARK  status: ('A' for Active; 'I' for Inactive)
ROOT
HETATM    1  C1  UNL     1     -34.416   5.090   5.914  1.00 20.00     0.068 C 
HETATM    2  C2  UNL     1     -34.427   6.005   4.697  1.00 20.00     0.184 C 
HETATM    3 CL3  UNL     1     -33.779   7.608   5.141  1.00 20.00    -0.084 Cl
HETATM    4 CL4  UNL     1     -33.415   5.300   3.404  1.00 20.00    -0.084 Cl
HETATM    5 CL5  UNL     1     -36.097   6.192   4.097  1.00 20.00    -0.084 Cl
ENDROOT
TORSDOF 0
ENDMDL
MODEL 6
REMARK VINA RESULT:      -3.1      1.426      2.186
REMARK  0 active torsions:
REMARK  status: ('A' for Active; 'I' for Inactive)
ROOT
HETATM    1  C1  UNL     1     -34.424   5.063   5.920  1.00 20.00     0.068 C 
HETATM    2  C2  UNL     1     -34.426   5.979   4.703  1.00 20.00     0.184 C 
HETATM    3 CL3  UNL     1     -33.414   5.270   3.413  1.00 20.00    -0.084 Cl
HETATM    4 CL4  UNL     1     -36.095   6.175   4.098  1.00 20.00    -0.084 Cl
HETATM    5 CL5  UNL     1     -33.772   7.578   5.150  1.00 20.00    -0.084 Cl
ENDROOT
TORSDOF 0
ENDMDL
MODEL 7
REMARK VINA RESULT:      -3.0      1.464      2.516
REMARK  0 active torsions:
REMARK  status: ('A' for Active; 'I' for Inactive)
ROOT
HETATM    1  C1  UNL     1     -35.810   6.128   4.228  1.00 20.00     0.068 C 
HETATM    2  C2  UNL     1     -34.362   6.038   4.689  1.00 20.00     0.184 C 
HETATM    3 CL3  UNL     1     -34.273   5.139   6.229  1.00 20.00    -0.084 Cl
HETATM    4 CL4  UNL     1     -33.387   5.189   3.456  1.00 20.00    -0.084 Cl
HETATM    5 CL5  UNL     1     -33.703   7.680   4.928  1.00 20.00    -0.084 Cl
ENDROOT
TORSDOF 0
ENDMDL
MODEL 8
REMARK VINA RESULT:      -3.0      1.464      2.167
REMARK  0 active torsions:
REMARK  status: ('A' for Active; 'I' for Inactive)
ROOT
HETATM    1  C1  UNL     1     -35.811   6.125   4.230  1.00 20.00     0.068 C 
HETATM    2  C2  UNL     1     -34.362   6.036   4.691  1.00 20.00     0.184 C 
HETATM    3 CL3  UNL     1     -33.702   7.678   4.927  1.00 20.00    -0.084 Cl
HETATM    4 CL4  UNL     1     -34.275   5.140   6.234  1.00 20.00    -0.084 Cl
HETATM    5 CL5  UNL     1     -33.390   5.183   3.461  1.00 20.00    -0.084 Cl
ENDROOT
TORSDOF 0
ENDMDL
MODEL 9
REMARK VINA RESULT:      -3.0      1.463      2.178
REMARK  0 active torsions:
REMARK  status: ('A' for Active; 'I' for Inactive)
ROOT
HETATM    1  C1  UNL     1     -35.812   6.120   4.232  1.00 20.00     0.068 C 
HETATM    2  C2  UNL     1     -34.362   6.035   4.692  1.00 20.00     0.184 C 
HETATM    3 CL3  UNL     1     -33.389   5.184   3.461  1.00 20.00    -0.084 Cl
HETATM    4 CL4  UNL     1     -33.706   7.680   4.926  1.00 20.00    -0.084 Cl
HETATM    5 CL5  UNL     1     -34.270   5.142   6.234  1.00 20.00    -0.084 Cl
ENDROOT
TORSDOF 0
ENDMDL
