MODEL 1
REMARK VINA RESULT:      -4.9      0.000      0.000
REMARK  1 active torsions:
REMARK  status: ('A' for Active; 'I' for Inactive)
REMARK    1  A    between atoms: C2_2  and  C5_5 
ROOT
HETATM    1  C1  UNL     1     -33.421   7.658   5.567  1.00 20.00     0.088 A 
HETATM    2  C2  UNL     1     -33.822   6.581   4.806  1.00 20.00     0.147 A 
HETATM    3  C3  UNL     1     -32.578   7.592   3.311  1.00 20.00     0.071 A 
HETATM    4  C4  UNL     1     -31.884   7.893   2.039  1.00 20.00     0.078 C 
HETATM    5  N6  UNL     1     -33.340   6.541   3.512  1.00 20.00    -0.241 NA
HETATM    6  S10 UNL     1     -32.396   8.669   4.635  1.00 20.00    -0.085 SA
ENDROOT
BRANCH   2   7
HETATM    7  C5  UNL     1     -34.708   5.489   5.258  1.00 20.00     0.435 C 
HETATM    8  F7  UNL     1     -34.226   4.230   5.000  1.00 20.00    -0.165 F 
HETATM    9  F8  UNL     1     -34.959   5.490   6.607  1.00 20.00    -0.165 F 
HETATM   10  F9  UNL     1     -35.946   5.520   4.668  1.00 20.00    -0.165 F 
ENDBRANCH   2   7
TORSDOF 1
ENDMDL
MODEL 2
REMARK VINA RESULT:      -4.7      1.351      2.058
REMARK  1 active torsions:
REMARK  status: ('A' for Active; 'I' for Inactive)
REMARK    1  A    between atoms: C2_2  and  C5_5 
ROOT
HETATM    1  C1  UNL     1     -33.089   6.221   3.264  1.00 20.00     0.088 A 
HETATM    2  C2  UNL     1     -33.834   6.412   4.408  1.00 20.00     0.147 A 
HETATM    3  C3  UNL     1     -32.597   8.220   4.516  1.00 20.00     0.071 A 
HETATM    4  C4  UNL     1     -32.028   9.500   4.992  1.00 20.00     0.078 C 
HETATM    5  N6  UNL     1     -33.553   7.557   5.128  1.00 20.00    -0.241 NA
HETATM    6  S10 UNL     1     -31.991   7.524   3.069  1.00 20.00    -0.085 SA
ENDROOT
BRANCH   2   7
HETATM    7  C5  UNL     1     -34.885   5.507   4.914  1.00 20.00     0.435 C 
HETATM    8  F7  UNL     1     -35.048   5.539   6.276  1.00 20.00    -0.165 F 
HETATM    9  F8  UNL     1     -36.136   5.763   4.413  1.00 20.00    -0.165 F 
HETATM   10  F9  UNL     1     -34.650   4.188   4.619  1.00 20.00    -0.165 F 
ENDBRANCH   2   7
TORSDOF 1
ENDMDL
MODEL 3
REMARK VINA RESULT:      -4.1      1.755      2.321
REMARK  1 active torsions:
REMARK  status: ('A' for Active; 'I' for Inactive)
REMARK    1  A    between atoms: C2_2  and  C5_5 
ROOT
HETATM    1  C1  UNL     1     -33.789   4.942   4.016  1.00 20.00     0.088 A 
HETATM    2  C2  UNL     1     -33.775   6.005   4.894  1.00 20.00     0.147 A 
HETATM    3  C3  UNL     1     -32.762   6.964   3.201  1.00 20.00     0.071 A 
HETATM    4  C4  UNL     1     -32.078   7.981   2.374  1.00 20.00     0.078 C 
HETATM    5  N6  UNL     1     -33.187   7.165   4.429  1.00 20.00    -0.241 NA
HETATM    6  S10 UNL     1     -33.040   5.403   2.544  1.00 20.00    -0.085 SA
ENDROOT
BRANCH   2   7
HETATM    7  C5  UNL     1     -34.328   6.000   6.263  1.00 20.00     0.435 C 
HETATM    8  F7  UNL     1     -34.476   7.248   6.815  1.00 20.00    -0.165 F 
HETATM    9  F8  UNL     1     -35.572   5.431   6.365  1.00 20.00    -0.165 F 
HETATM   10  F9  UNL     1     -33.550   5.310   7.157  1.00 20.00    -0.165 F 
ENDBRANCH   2   7
TORSDOF 1
ENDMDL
MODEL 4
REMARK VINA RESULT:      -4.1      9.066      9.846
REMARK  1 active torsions:
REMARK  status: ('A' for Active; 'I' for Inactive)
REMARK    1  A    between atoms: C2_2  and  C5_5 
ROOT
HETATM    1  C1  UNL     1     -41.322  13.664   5.388  1.00 20.00     0.088 A 
HETATM    2  C2  UNL     1     -40.253  12.947   5.882  1.00 20.00     0.147 A 
HETATM    3  C3  UNL     1     -40.816  14.005   7.719  1.00 20.00     0.071 A 
HETATM    4  C4  UNL     1     -40.818  14.462   9.126  1.00 20.00     0.078 C 
HETATM    5  N6  UNL     1     -39.961  13.141   7.218  1.00 20.00    -0.241 NA
HETATM    6  S10 UNL     1     -41.999  14.622   6.639  1.00 20.00    -0.085 SA
ENDROOT
BRANCH   2   7
HETATM    7  C5  UNL     1     -39.413  12.009   5.110  1.00 20.00     0.435 C 
HETATM    8  F7  UNL     1     -39.521  12.146   3.749  1.00 20.00    -0.165 F 
HETATM    9  F8  UNL     1     -38.068  12.123   5.360  1.00 20.00    -0.165 F 
HETATM   10  F9  UNL     1     -39.707  10.693   5.356  1.00 20.00    -0.165 F 
ENDBRANCH   2   7
TORSDOF 1
ENDMDL
MODEL 5
REMARK VINA RESULT:      -4.1      3.323      4.290
REMARK  1 active torsions:
REMARK  status: ('A' for Active; 'I' for Inactive)
REMARK    1  A    between atoms: C2_2  and  C5_5 
ROOT
HETATM    1  C1  UNL     1     -33.283   5.529   3.216  1.00 20.00     0.088 A 
HETATM    2  C2  UNL     1     -33.009   6.789   3.703  1.00 20.00     0.147 A 
HETATM    3  C3  UNL     1     -34.231   6.052   5.369  1.00 20.00     0.071 A 
HETATM    4  C4  UNL     1     -34.954   6.000   6.658  1.00 20.00     0.078 C 
HETATM    5  N6  UNL     1     -33.552   7.091   4.937  1.00 20.00    -0.241 NA
HETATM    6  S10 UNL     1     -34.257   4.677   4.342  1.00 20.00    -0.085 SA
ENDROOT
BRANCH   2   7
HETATM    7  C5  UNL     1     -32.199   7.819   3.023  1.00 20.00     0.435 C 
HETATM    8  F7  UNL     1     -31.986   7.578   1.689  1.00 20.00    -0.165 F 
HETATM    9  F8  UNL     1     -32.743   9.078   3.061  1.00 20.00    -0.165 F 
HETATM   10  F9  UNL     1     -30.944   7.961   3.559  1.00 20.00    -0.165 F 
ENDBRANCH   2   7
TORSDOF 1
ENDMDL
MODEL 6
REMARK VINA RESULT:      -4.1      3.325      4.288
REMARK  1 active torsions:
REMARK  status: ('A' for Active; 'I' for Inactive)
REMARK    1  A    between atoms: C2_2  and  C5_5 
ROOT
HETATM    1  C1  UNL     1     -33.296   5.531   3.224  1.00 20.00     0.088 A 
HETATM    2  C2  UNL     1     -33.015   6.789   3.713  1.00 20.00     0.147 A 
HETATM    3  C3  UNL     1     -34.237   6.054   5.379  1.00 20.00     0.071 A 
HETATM    4  C4  UNL     1     -34.958   6.004   6.670  1.00 20.00     0.078 C 
HETATM    5  N6  UNL     1     -33.553   7.091   4.948  1.00 20.00    -0.241 NA
HETATM    6  S10 UNL     1     -34.272   4.682   4.350  1.00 20.00    -0.085 SA
ENDROOT
BRANCH   2   7
HETATM    7  C5  UNL     1     -32.201   7.816   3.033  1.00 20.00     0.435 C 
HETATM    8  F7  UNL     1     -32.743   9.076   3.066  1.00 20.00    -0.165 F 
HETATM    9  F8  UNL     1     -30.941   7.972   3.555  1.00 20.00    -0.165 F 
HETATM   10  F9  UNL     1     -32.002   7.554   1.702  1.00 20.00    -0.165 F 
ENDBRANCH   2   7
TORSDOF 1
ENDMDL
MODEL 7
REMARK VINA RESULT:      -4.1     12.230     12.947
REMARK  1 active torsions:
REMARK  status: ('A' for Active; 'I' for Inactive)
REMARK    1  A    between atoms: C2_2  and  C5_5 
ROOT
HETATM    1  C1  UNL     1     -34.358  17.490  -4.105  1.00 20.00     0.088 A 
HETATM    2  C2  UNL     1     -33.750  16.380  -3.558  1.00 20.00     0.147 A 
HETATM    3  C3  UNL     1     -33.848  17.623  -1.754  1.00 20.00     0.071 A 
HETATM    4  C4  UNL     1     -33.700  18.066  -0.350  1.00 20.00     0.078 C 
HETATM    5  N6  UNL     1     -33.457  16.454  -2.210  1.00 20.00    -0.241 NA
HETATM    6  S10 UNL     1     -34.578  18.681  -2.890  1.00 20.00    -0.085 SA
ENDROOT
BRANCH   2   7
HETATM    7  C5  UNL     1     -33.396  15.145  -4.286  1.00 20.00     0.435 C 
HETATM    8  F7  UNL     1     -34.083  14.032  -3.872  1.00 20.00    -0.165 F 
HETATM    9  F8  UNL     1     -33.622  15.205  -5.638  1.00 20.00    -0.165 F 
HETATM   10  F9  UNL     1     -32.072  14.807  -4.164  1.00 20.00    -0.165 F 
ENDBRANCH   2   7
TORSDOF 1
ENDMDL
MODEL 8
REMARK VINA RESULT:      -4.0      1.684      1.850
REMARK  1 active torsions:
REMARK  status: ('A' for Active; 'I' for Inactive)
REMARK    1  A    between atoms: C2_2  and  C5_5 
ROOT
HETATM    1  C1  UNL     1     -32.990   7.580   4.573  1.00 20.00     0.088 A 
HETATM    2  C2  UNL     1     -33.662   6.438   4.953  1.00 20.00     0.147 A 
HETATM    3  C3  UNL     1     -33.052   5.806   2.943  1.00 20.00     0.071 A 
HETATM    4  C4  UNL     1     -32.880   4.981   1.728  1.00 20.00     0.078 C 
HETATM    5  N6  UNL     1     -33.699   5.420   4.020  1.00 20.00    -0.241 NA
HETATM    6  S10 UNL     1     -32.373   7.382   2.985  1.00 20.00    -0.085 SA
ENDROOT
BRANCH   2   7
HETATM    7  C5  UNL     1     -34.331   6.223   6.251  1.00 20.00     0.435 C 
HETATM    8  F7  UNL     1     -33.664   5.369   7.094  1.00 20.00    -0.165 F 
HETATM    9  F8  UNL     1     -34.505   7.366   6.990  1.00 20.00    -0.165 F 
HETATM   10  F9  UNL     1     -35.588   5.687   6.130  1.00 20.00    -0.165 F 
ENDBRANCH   2   7
TORSDOF 1
ENDMDL
MODEL 9
REMARK VINA RESULT:      -3.9      9.330      9.897
REMARK  1 active torsions:
REMARK  status: ('A' for Active; 'I' for Inactive)
REMARK    1  A    between atoms: C2_2  and  C5_5 
ROOT
HETATM    1  C1  UNL     1     -40.436  13.535   6.681  1.00 20.00     0.088 A 
HETATM    2  C2  UNL     1     -40.352  13.006   5.410  1.00 20.00     0.147 A 
HETATM    3  C3  UNL     1     -42.035  14.374   5.086  1.00 20.00     0.071 A 
HETATM    4  C4  UNL     1     -43.136  15.106   4.422  1.00 20.00     0.078 C 
HETATM    5  N6  UNL     1     -41.269  13.485   4.495  1.00 20.00    -0.241 NA
HETATM    6  S10 UNL     1     -41.709  14.683   6.743  1.00 20.00    -0.085 SA
ENDROOT
BRANCH   2   7
HETATM    7  C5  UNL     1     -39.381  11.988   4.962  1.00 20.00     0.435 C 
HETATM    8  F7  UNL     1     -39.247  11.899   3.600  1.00 20.00    -0.165 F 
HETATM    9  F8  UNL     1     -38.103  12.191   5.419  1.00 20.00    -0.165 F 
HETATM   10  F9  UNL     1     -39.702  10.718   5.368  1.00 20.00    -0.165 F 
ENDBRANCH   2   7
TORSDOF 1
ENDMDL
