MODEL 1
REMARK VINA RESULT:      -4.0      0.000      0.000
REMARK  0 active torsions:
REMARK  status: ('A' for Active; 'I' for Inactive)
ROOT
HETATM    1  C1  UNL     1     -33.748   5.410   3.898  1.00 20.00     0.409 C 
HETATM    2  C2  UNL     1     -34.504   6.793   5.503  1.00 20.00     0.247 C 
HETATM    3  C3  UNL     1     -34.787   5.376   5.878  1.00 20.00     0.343 C 
HETATM    4  O4  UNL     1     -33.225   5.020   2.865  1.00 20.00    -0.229 OA
HETATM    5  O5  UNL     1     -33.565   6.652   4.443  1.00 20.00    -0.293 OA
HETATM    6  O6  UNL     1     -34.600   4.667   4.667  1.00 20.00    -0.260 OA
HETATM    7  F7  UNL     1     -33.857   4.935   6.762  1.00 20.00    -0.217 F 
ENDROOT
TORSDOF 0
ENDMDL
MODEL 2
REMARK VINA RESULT:      -3.9      1.659      2.214
REMARK  0 active torsions:
REMARK  status: ('A' for Active; 'I' for Inactive)
ROOT
HETATM    1  C1  UNL     1     -33.516   7.193   5.197  1.00 20.00     0.409 C 
HETATM    2  C2  UNL     1     -34.755   5.765   6.417  1.00 20.00     0.247 C 
HETATM    3  C3  UNL     1     -34.880   5.436   4.966  1.00 20.00     0.343 C 
HETATM    4  O4  UNL     1     -32.761   8.109   4.912  1.00 20.00    -0.229 OA
HETATM    5  O5  UNL     1     -33.628   6.634   6.442  1.00 20.00    -0.293 OA
HETATM    6  O6  UNL     1     -34.370   6.586   4.317  1.00 20.00    -0.260 OA
HETATM    7  F7  UNL     1     -34.071   4.393   4.654  1.00 20.00    -0.217 F 
ENDROOT
TORSDOF 0
ENDMDL
MODEL 3
REMARK VINA RESULT:      -3.8      1.310      1.663
REMARK  0 active torsions:
REMARK  status: ('A' for Active; 'I' for Inactive)
ROOT
HETATM    1  C1  UNL     1     -34.310   5.374   4.833  1.00 20.00     0.409 C 
HETATM    2  C2  UNL     1     -33.819   7.569   4.810  1.00 20.00     0.247 C 
HETATM    3  C3  UNL     1     -34.141   7.134   6.201  1.00 20.00     0.343 C 
HETATM    4  O4  UNL     1     -34.496   4.230   4.445  1.00 20.00    -0.229 OA
HETATM    5  O5  UNL     1     -33.624   6.331   4.136  1.00 20.00    -0.293 OA
HETATM    6  O6  UNL     1     -34.762   5.875   6.023  1.00 20.00    -0.260 OA
HETATM    7  F7  UNL     1     -32.997   6.933   6.902  1.00 20.00    -0.217 F 
ENDROOT
TORSDOF 0
ENDMDL
MODEL 4
REMARK VINA RESULT:      -3.8      1.832      2.542
REMARK  0 active torsions:
REMARK  status: ('A' for Active; 'I' for Inactive)
ROOT
HETATM    1  C1  UNL     1     -33.539   7.310   4.915  1.00 20.00     0.409 C 
HETATM    2  C2  UNL     1     -33.857   5.323   3.910  1.00 20.00     0.247 C 
HETATM    3  C3  UNL     1     -34.937   5.565   4.911  1.00 20.00     0.343 C 
HETATM    4  O4  UNL     1     -33.046   8.390   5.201  1.00 20.00    -0.229 OA
HETATM    5  O5  UNL     1     -33.269   6.611   3.769  1.00 20.00    -0.293 OA
HETATM    6  O6  UNL     1     -34.433   6.631   5.695  1.00 20.00    -0.260 OA
HETATM    7  F7  UNL     1     -36.058   6.006   4.288  1.00 20.00    -0.217 F 
ENDROOT
TORSDOF 0
ENDMDL
MODEL 5
REMARK VINA RESULT:      -3.8      1.989      2.525
REMARK  0 active torsions:
REMARK  status: ('A' for Active; 'I' for Inactive)
ROOT
HETATM    1  C1  UNL     1     -34.435   5.613   5.052  1.00 20.00     0.409 C 
HETATM    2  C2  UNL     1     -33.590   7.262   6.327  1.00 20.00     0.247 C 
HETATM    3  C3  UNL     1     -33.333   7.550   4.885  1.00 20.00     0.343 C 
HETATM    4  O4  UNL     1     -35.003   4.579   4.733  1.00 20.00    -0.229 OA
HETATM    5  O5  UNL     1     -34.567   6.230   6.267  1.00 20.00    -0.293 OA
HETATM    6  O6  UNL     1     -33.578   6.310   4.247  1.00 20.00    -0.260 OA
HETATM    7  F7  UNL     1     -34.244   8.441   4.419  1.00 20.00    -0.217 F 
ENDROOT
TORSDOF 0
ENDMDL
MODEL 6
REMARK VINA RESULT:      -3.7      1.836      2.190
REMARK  0 active torsions:
REMARK  status: ('A' for Active; 'I' for Inactive)
ROOT
HETATM    1  C1  UNL     1     -32.862   6.678   3.516  1.00 20.00     0.409 C 
HETATM    2  C2  UNL     1     -32.521   8.586   4.659  1.00 20.00     0.247 C 
HETATM    3  C3  UNL     1     -33.578   7.772   5.329  1.00 20.00     0.343 C 
HETATM    4  O4  UNL     1     -32.749   5.810   2.664  1.00 20.00    -0.229 OA
HETATM    5  O5  UNL     1     -31.929   7.649   3.765  1.00 20.00    -0.293 OA
HETATM    6  O6  UNL     1     -33.937   6.817   4.348  1.00 20.00    -0.260 OA
HETATM    7  F7  UNL     1     -33.050   7.101   6.383  1.00 20.00    -0.217 F 
ENDROOT
TORSDOF 0
ENDMDL
MODEL 7
REMARK VINA RESULT:      -3.7      1.497      2.029
REMARK  0 active torsions:
REMARK  status: ('A' for Active; 'I' for Inactive)
ROOT
HETATM    1  C1  UNL     1     -33.506   5.163   3.525  1.00 20.00     0.409 C 
HETATM    2  C2  UNL     1     -34.581   4.835   5.474  1.00 20.00     0.247 C 
HETATM    3  C3  UNL     1     -34.916   6.184   4.928  1.00 20.00     0.343 C 
HETATM    4  O4  UNL     1     -32.792   4.959   2.555  1.00 20.00    -0.229 OA
HETATM    5  O5  UNL     1     -33.988   4.186   4.355  1.00 20.00    -0.293 OA
HETATM    6  O6  UNL     1     -33.931   6.396   3.934  1.00 20.00    -0.260 OA
HETATM    7  F7  UNL     1     -36.123   6.149   4.310  1.00 20.00    -0.217 F 
ENDROOT
TORSDOF 0
ENDMDL
MODEL 8
REMARK VINA RESULT:      -3.6      2.827      3.387
REMARK  0 active torsions:
REMARK  status: ('A' for Active; 'I' for Inactive)
ROOT
HETATM    1  C1  UNL     1     -33.925   6.953   4.666  1.00 20.00     0.409 C 
HETATM    2  C2  UNL     1     -32.419   8.598   4.960  1.00 20.00     0.247 C 
HETATM    3  C3  UNL     1     -32.197   7.935   3.641  1.00 20.00     0.343 C 
HETATM    4  O4  UNL     1     -34.862   6.198   4.876  1.00 20.00    -0.229 OA
HETATM    5  O5  UNL     1     -33.713   8.132   5.328  1.00 20.00    -0.293 OA
HETATM    6  O6  UNL     1     -32.941   6.735   3.742  1.00 20.00    -0.260 OA
HETATM    7  F7  UNL     1     -32.746   8.678   2.648  1.00 20.00    -0.217 F 
ENDROOT
TORSDOF 0
ENDMDL
MODEL 9
REMARK VINA RESULT:      -3.5     13.537     13.911
REMARK  0 active torsions:
REMARK  status: ('A' for Active; 'I' for Inactive)
ROOT
HETATM    1  C1  UNL     1     -31.767  18.442  -0.579  1.00 20.00     0.409 C 
HETATM    2  C2  UNL     1     -33.941  18.222  -0.045  1.00 20.00     0.247 C 
HETATM    3  C3  UNL     1     -33.718  17.797  -1.459  1.00 20.00     0.343 C 
HETATM    4  O4  UNL     1     -30.574  18.687  -0.476  1.00 20.00    -0.229 OA
HETATM    5  O5  UNL     1     -32.618  18.263   0.478  1.00 20.00    -0.293 OA
HETATM    6  O6  UNL     1     -32.435  18.311  -1.764  1.00 20.00    -0.260 OA
HETATM    7  F7  UNL     1     -33.647  16.444  -1.532  1.00 20.00    -0.217 F 
ENDROOT
TORSDOF 0
ENDMDL
