MODEL 1
REMARK VINA RESULT:      -4.3      0.000      0.000
REMARK  1 active torsions:
REMARK  status: ('A' for Active; 'I' for Inactive)
REMARK    1  A    between atoms: C3_3  and  C5_5 
ROOT
HETATM    1  C1  UNL     1     -33.292  16.263  -2.668  1.00 20.00     0.032 A 
HETATM    2  C2  UNL     1     -33.859  15.905  -3.908  1.00 20.00    -0.044 A 
HETATM    3  C3  UNL     1     -33.215  17.642  -2.549  1.00 20.00     0.068 A 
HETATM    4  C4  UNL     1     -34.180  16.997  -4.666  1.00 20.00    -0.010 A 
HETATM    5  C6  UNL     1     -34.200  14.645  -4.610  1.00 20.00     0.040 C 
HETATM    6  C7  UNL     1     -34.780  16.665  -5.978  1.00 20.00     0.047 C 
HETATM    7  C8  UNL     1     -34.464  15.138  -6.068  1.00 20.00     0.010 C 
HETATM    8  S10 UNL     1     -33.830  18.463  -3.943  1.00 20.00    -0.089 SA
ENDROOT
BRANCH   3   9
HETATM    9  C5  UNL     1     -32.710  18.419  -1.463  1.00 20.00     0.259 C 
HETATM   10  O9  UNL     1     -31.793  19.263  -1.661  1.00 20.00    -0.273 OA
HETATM   11 CL11 UNL     1     -33.334  18.239   0.202  1.00 20.00    -0.038 Cl
ENDBRANCH   3   9
TORSDOF 1
ENDMDL
MODEL 2
REMARK VINA RESULT:      -4.3     11.877     12.778
REMARK  1 active torsions:
REMARK  status: ('A' for Active; 'I' for Inactive)
REMARK    1  A    between atoms: C3_3  and  C5_5 
ROOT
HETATM    1  C1  UNL     1     -33.296   6.273   2.862  1.00 20.00     0.032 A 
HETATM    2  C2  UNL     1     -33.700   5.968   4.177  1.00 20.00    -0.044 A 
HETATM    3  C3  UNL     1     -32.842   7.581   2.784  1.00 20.00     0.068 A 
HETATM    4  C4  UNL     1     -33.544   7.028   5.027  1.00 20.00    -0.010 A 
HETATM    5  C6  UNL     1     -34.253   4.788   4.885  1.00 20.00     0.040 C 
HETATM    6  C7  UNL     1     -33.957   6.749   6.421  1.00 20.00     0.047 C 
HETATM    7  C8  UNL     1     -34.737   5.409   6.234  1.00 20.00     0.010 C 
HETATM    8  S10 UNL     1     -32.920   8.401   4.307  1.00 20.00    -0.089 SA
ENDROOT
BRANCH   3   9
HETATM    9  C5  UNL     1     -32.346   8.289   1.648  1.00 20.00     0.259 C 
HETATM   10  O9  UNL     1     -31.518   7.738   0.871  1.00 20.00    -0.273 OA
HETATM   11 CL11 UNL     1     -32.858   9.959   1.274  1.00 20.00    -0.038 Cl
ENDBRANCH   3   9
TORSDOF 1
ENDMDL
MODEL 3
REMARK VINA RESULT:      -4.2     11.982     12.888
REMARK  1 active torsions:
REMARK  status: ('A' for Active; 'I' for Inactive)
REMARK    1  A    between atoms: C3_3  and  C5_5 
ROOT
HETATM    1  C1  UNL     1     -33.230   8.129   4.224  1.00 20.00     0.032 A 
HETATM    2  C2  UNL     1     -33.759   7.098   5.025  1.00 20.00    -0.044 A 
HETATM    3  C3  UNL     1     -32.938   7.657   2.954  1.00 20.00     0.068 A 
HETATM    4  C4  UNL     1     -33.844   5.910   4.352  1.00 20.00    -0.010 A 
HETATM    5  C6  UNL     1     -34.251   6.963   6.417  1.00 20.00     0.040 C 
HETATM    6  C7  UNL     1     -34.396   4.798   5.160  1.00 20.00     0.047 C 
HETATM    7  C8  UNL     1     -34.327   5.413   6.593  1.00 20.00     0.010 C 
HETATM    8  S10 UNL     1     -33.312   5.976   2.769  1.00 20.00    -0.089 SA
ENDROOT
BRANCH   3   9
HETATM    9  C5  UNL     1     -32.391   8.364   1.840  1.00 20.00     0.259 C 
HETATM   10  O9  UNL     1     -31.550   7.802   1.085  1.00 20.00    -0.273 OA
HETATM   11 CL11 UNL     1     -32.855  10.048   1.467  1.00 20.00    -0.038 Cl
ENDBRANCH   3   9
TORSDOF 1
ENDMDL
MODEL 4
REMARK VINA RESULT:      -4.1      1.277      1.277
REMARK  1 active torsions:
REMARK  status: ('A' for Active; 'I' for Inactive)
REMARK    1  A    between atoms: C3_3  and  C5_5 
ROOT
HETATM    1  C1  UNL     1     -33.223  16.208  -2.866  1.00 20.00     0.032 A 
HETATM    2  C2  UNL     1     -33.851  16.090  -4.122  1.00 20.00    -0.044 A 
HETATM    3  C3  UNL     1     -33.590  17.394  -2.248  1.00 20.00     0.068 A 
HETATM    4  C4  UNL     1     -34.650  17.164  -4.406  1.00 20.00    -0.010 A 
HETATM    5  C6  UNL     1     -33.872  15.099  -5.225  1.00 20.00     0.040 C 
HETATM    6  C7  UNL     1     -35.330  17.079  -5.719  1.00 20.00     0.047 C 
HETATM    7  C8  UNL     1     -34.543  15.905  -6.382  1.00 20.00     0.010 C 
HETATM    8  S10 UNL     1     -34.686  18.329  -3.208  1.00 20.00    -0.089 SA
ENDROOT
BRANCH   3   9
HETATM    9  C5  UNL     1     -33.187  17.901  -0.977  1.00 20.00     0.259 C 
HETATM   10  O9  UNL     1     -34.031  18.017  -0.045  1.00 20.00    -0.273 OA
HETATM   11 CL11 UNL     1     -31.502  18.392  -0.643  1.00 20.00    -0.038 Cl
ENDBRANCH   3   9
TORSDOF 1
ENDMDL
MODEL 5
REMARK VINA RESULT:      -4.0      3.577      6.397
REMARK  1 active torsions:
REMARK  status: ('A' for Active; 'I' for Inactive)
REMARK    1  A    between atoms: C3_3  and  C5_5 
ROOT
HETATM    1  C1  UNL     1     -31.463  18.375  -0.245  1.00 20.00     0.032 A 
HETATM    2  C2  UNL     1     -31.170  18.725   1.088  1.00 20.00    -0.044 A 
HETATM    3  C3  UNL     1     -32.833  18.296  -0.438  1.00 20.00     0.068 A 
HETATM    4  C4  UNL     1     -32.301  18.893   1.840  1.00 20.00    -0.010 A 
HETATM    5  C6  UNL     1     -29.949  18.961   1.895  1.00 20.00     0.040 C 
HETATM    6  C7  UNL     1     -32.038  19.263   3.250  1.00 20.00     0.047 C 
HETATM    7  C8  UNL     1     -30.509  18.961   3.353  1.00 20.00     0.010 C 
HETATM    8  S10 UNL     1     -33.726  18.648   1.003  1.00 20.00    -0.089 SA
ENDROOT
BRANCH   3   9
HETATM    9  C5  UNL     1     -33.551  17.973  -1.629  1.00 20.00     0.259 C 
HETATM   10  O9  UNL     1     -34.535  18.678  -1.985  1.00 20.00    -0.273 OA
HETATM   11 CL11 UNL     1     -33.106  16.581  -2.656  1.00 20.00    -0.038 Cl
ENDBRANCH   3   9
TORSDOF 1
ENDMDL
MODEL 6
REMARK VINA RESULT:      -3.9      3.792      5.106
REMARK  1 active torsions:
REMARK  status: ('A' for Active; 'I' for Inactive)
REMARK    1  A    between atoms: C3_3  and  C5_5 
ROOT
HETATM    1  C1  UNL     1     -35.074  17.154  -4.970  1.00 20.00     0.032 A 
HETATM    2  C2  UNL     1     -34.600  17.557  -3.706  1.00 20.00    -0.044 A 
HETATM    3  C3  UNL     1     -34.518  15.936  -5.332  1.00 20.00     0.068 A 
HETATM    4  C4  UNL     1     -33.723  16.656  -3.168  1.00 20.00    -0.010 A 
HETATM    5  C6  UNL     1     -34.807  18.712  -2.799  1.00 20.00     0.040 C 
HETATM    6  C7  UNL     1     -33.202  17.042  -1.837  1.00 20.00     0.047 C 
HETATM    7  C8  UNL     1     -33.644  18.538  -1.771  1.00 20.00     0.010 C 
HETATM    8  S10 UNL     1     -33.438  15.318  -4.128  1.00 20.00    -0.089 SA
ENDROOT
BRANCH   3   9
HETATM    9  C5  UNL     1     -34.725  15.177  -6.523  1.00 20.00     0.259 C 
HETATM   10  O9  UNL     1     -35.716  14.401  -6.614  1.00 20.00    -0.273 OA
HETATM   11 CL11 UNL     1     -33.614  15.281  -7.918  1.00 20.00    -0.038 Cl
ENDBRANCH   3   9
TORSDOF 1
ENDMDL
MODEL 7
REMARK VINA RESULT:      -3.8      3.631      4.597
REMARK  1 active torsions:
REMARK  status: ('A' for Active; 'I' for Inactive)
REMARK    1  A    between atoms: C3_3  and  C5_5 
ROOT
HETATM    1  C1  UNL     1     -31.304  18.230  -0.065  1.00 20.00     0.032 A 
HETATM    2  C2  UNL     1     -32.496  18.201  -0.817  1.00 20.00    -0.044 A 
HETATM    3  C3  UNL     1     -31.532  18.780   1.187  1.00 20.00     0.068 A 
HETATM    4  C4  UNL     1     -33.557  18.719  -0.126  1.00 20.00    -0.010 A 
HETATM    5  C6  UNL     1     -32.902  17.753  -2.170  1.00 20.00     0.040 C 
HETATM    6  C7  UNL     1     -34.831  18.707  -0.881  1.00 20.00     0.047 C 
HETATM    7  C8  UNL     1     -34.315  18.400  -2.323  1.00 20.00     0.010 C 
HETATM    8  S10 UNL     1     -33.184  19.245   1.415  1.00 20.00    -0.089 SA
ENDROOT
BRANCH   3   9
HETATM    9  C5  UNL     1     -30.606  18.993   2.252  1.00 20.00     0.259 C 
HETATM   10  O9  UNL     1     -29.400  19.263   1.997  1.00 20.00    -0.273 OA
HETATM   11 CL11 UNL     1     -31.094  18.891   3.968  1.00 20.00    -0.038 Cl
ENDBRANCH   3   9
TORSDOF 1
ENDMDL
MODEL 8
REMARK VINA RESULT:      -3.7      3.926      5.027
REMARK  1 active torsions:
REMARK  status: ('A' for Active; 'I' for Inactive)
REMARK    1  A    between atoms: C3_3  and  C5_5 
ROOT
HETATM    1  C1  UNL     1     -34.690  15.505  -4.764  1.00 20.00     0.032 A 
HETATM    2  C2  UNL     1     -33.982  16.443  -3.986  1.00 20.00    -0.044 A 
HETATM    3  C3  UNL     1     -35.238  16.116  -5.881  1.00 20.00     0.068 A 
HETATM    4  C4  UNL     1     -34.019  17.699  -4.526  1.00 20.00    -0.010 A 
HETATM    5  C6  UNL     1     -33.202  16.423  -2.725  1.00 20.00     0.040 C 
HETATM    6  C7  UNL     1     -33.285  18.716  -3.738  1.00 20.00     0.047 C 
HETATM    7  C8  UNL     1     -33.059  17.944  -2.400  1.00 20.00     0.010 C 
HETATM    8  S10 UNL     1     -34.879  17.808  -5.955  1.00 20.00    -0.089 SA
ENDROOT
BRANCH   3   9
HETATM    9  C5  UNL     1     -36.024  15.536  -6.922  1.00 20.00     0.259 C 
HETATM   10  O9  UNL     1     -35.939  14.300  -7.166  1.00 20.00    -0.273 OA
HETATM   11 CL11 UNL     1     -37.146  16.508  -7.917  1.00 20.00    -0.038 Cl
ENDBRANCH   3   9
TORSDOF 1
ENDMDL
MODEL 9
REMARK VINA RESULT:      -3.6     12.492     13.189
REMARK  1 active torsions:
REMARK  status: ('A' for Active; 'I' for Inactive)
REMARK    1  A    between atoms: C3_3  and  C5_5 
ROOT
HETATM    1  C1  UNL     1     -41.530  13.671   5.206  1.00 20.00     0.032 A 
HETATM    2  C2  UNL     1     -42.275  14.770   5.678  1.00 20.00    -0.044 A 
HETATM    3  C3  UNL     1     -40.545  13.324   6.117  1.00 20.00     0.068 A 
HETATM    4  C4  UNL     1     -41.838  15.207   6.898  1.00 20.00    -0.010 A 
HETATM    5  C6  UNL     1     -43.417  15.582   5.194  1.00 20.00     0.040 C 
HETATM    6  C7  UNL     1     -42.596  16.362   7.432  1.00 20.00     0.047 C 
HETATM    7  C8  UNL     1     -43.385  16.808   6.160  1.00 20.00     0.010 C 
HETATM    8  S10 UNL     1     -40.551  14.340   7.518  1.00 20.00    -0.089 SA
ENDROOT
BRANCH   3   9
HETATM    9  C5  UNL     1     -39.577  12.278   6.032  1.00 20.00     0.259 C 
HETATM   10  O9  UNL     1     -38.967  11.894   7.069  1.00 20.00    -0.273 OA
HETATM   11 CL11 UNL     1     -39.182  11.475   4.486  1.00 20.00    -0.038 Cl
ENDBRANCH   3   9
TORSDOF 1
ENDMDL
