MODEL 1
REMARK VINA RESULT:      -3.9      0.000      0.000
REMARK  0 active torsions:
REMARK  status: ('A' for Active; 'I' for Inactive)
ROOT
HETATM    1  C1  UNL     1     -33.291  16.103  -3.338  1.00 20.00     0.064 C 
HETATM    2  C2  UNL     1     -32.545  18.938  -2.323  1.00 20.00     0.011 C 
HETATM    3  C3  UNL     1     -33.915  19.263  -0.414  1.00 20.00     0.010 C 
HETATM    4  C4  UNL     1     -33.719  16.855  -2.147  1.00 20.00     0.101 C 
HETATM    5  C5  UNL     1     -33.992  19.257  -1.954  1.00 20.00    -0.009 C 
HETATM    6  C6  UNL     1     -32.529  17.630  -1.522  1.00 20.00     0.007 C 
HETATM    7  C7  UNL     1     -32.946  18.102  -0.107  1.00 20.00    -0.013 C 
HETATM    8  C8  UNL     1     -34.751  17.986  -2.419  1.00 20.00     0.003 C 
HETATM    9  C9  UNL     1     -31.761  18.547   0.743  1.00 20.00     0.010 C 
HETATM   10  C10 UNL     1     -35.253  18.118  -3.856  1.00 20.00     0.011 C 
HETATM   11  N11 UNL     1     -32.954  15.510  -4.275  1.00 20.00    -0.197 NA
ENDROOT
TORSDOF 0
ENDMDL
MODEL 2
REMARK VINA RESULT:      -3.9     12.090     12.924
REMARK  0 active torsions:
REMARK  status: ('A' for Active; 'I' for Inactive)
ROOT
HETATM    1  C1  UNL     1     -40.643  14.173   8.979  1.00 20.00     0.064 C 
HETATM    2  C2  UNL     1     -41.981  12.533   6.710  1.00 20.00     0.011 C 
HETATM    3  C3  UNL     1     -41.219  13.556   4.711  1.00 20.00     0.010 C 
HETATM    4  C4  UNL     1     -40.507  14.245   7.514  1.00 20.00     0.101 C 
HETATM    5  C5  UNL     1     -42.220  13.779   5.862  1.00 20.00    -0.009 C 
HETATM    6  C6  UNL     1     -40.486  12.824   6.889  1.00 20.00     0.007 C 
HETATM    7  C7  UNL     1     -39.994  12.946   5.424  1.00 20.00    -0.013 C 
HETATM    8  C8  UNL     1     -41.697  14.920   6.775  1.00 20.00     0.003 C 
HETATM    9  C9  UNL     1     -39.582  11.607   4.824  1.00 20.00     0.010 C 
HETATM   10  C10 UNL     1     -42.805  15.496   7.656  1.00 20.00     0.011 C 
HETATM   11  N11 UNL     1     -40.749  14.117  10.132  1.00 20.00    -0.197 NA
ENDROOT
TORSDOF 0
ENDMDL
MODEL 3
REMARK VINA RESULT:      -3.6     12.315     13.235
REMARK  0 active torsions:
REMARK  status: ('A' for Active; 'I' for Inactive)
ROOT
HETATM    1  C1  UNL     1     -32.343   7.434   2.543  1.00 20.00     0.064 C 
HETATM    2  C2  UNL     1     -34.947   6.588   4.003  1.00 20.00     0.011 C 
HETATM    3  C3  UNL     1     -34.212   5.139   5.731  1.00 20.00     0.010 C 
HETATM    4  C4  UNL     1     -32.562   6.620   3.750  1.00 20.00     0.101 C 
HETATM    5  C5  UNL     1     -34.445   5.160   4.207  1.00 20.00    -0.009 C 
HETATM    6  C6  UNL     1     -33.695   7.219   4.625  1.00 20.00     0.007 C 
HETATM    7  C7  UNL     1     -33.641   6.543   6.019  1.00 20.00    -0.013 C 
HETATM    8  C8  UNL     1     -33.071   5.174   3.485  1.00 20.00     0.003 C 
HETATM    9  C9  UNL     1     -34.448   7.293   7.073  1.00 20.00     0.010 C 
HETATM   10  C10 UNL     1     -33.195   4.755   2.021  1.00 20.00     0.011 C 
HETATM   11  N11 UNL     1     -32.170   8.075   1.593  1.00 20.00    -0.197 NA
ENDROOT
TORSDOF 0
ENDMDL
MODEL 4
REMARK VINA RESULT:      -3.5      2.210      3.785
REMARK  0 active torsions:
REMARK  status: ('A' for Active; 'I' for Inactive)
ROOT
HETATM    1  C1  UNL     1     -31.333  18.728  -0.004  1.00 20.00     0.064 C 
HETATM    2  C2  UNL     1     -33.492  17.306  -1.719  1.00 20.00     0.011 C 
HETATM    3  C3  UNL     1     -34.816  19.072  -2.586  1.00 20.00     0.010 C 
HETATM    4  C4  UNL     1     -32.396  19.263  -0.871  1.00 20.00     0.101 C 
HETATM    5  C5  UNL     1     -34.578  18.287  -1.281  1.00 20.00    -0.009 C 
HETATM    6  C6  UNL     1     -32.534  18.417  -2.165  1.00 20.00     0.007 C 
HETATM    7  C7  UNL     1     -33.397  19.215  -3.175  1.00 20.00    -0.013 C 
HETATM    8  C8  UNL     1     -33.829  19.197  -0.271  1.00 20.00     0.003 C 
HETATM    9  C9  UNL     1     -33.303  18.669  -4.595  1.00 20.00     0.010 C 
HETATM   10  C10 UNL     1     -33.944  18.673   1.159  1.00 20.00     0.011 C 
HETATM   11  N11 UNL     1     -30.495  18.307   0.679  1.00 20.00    -0.197 NA
ENDROOT
TORSDOF 0
ENDMDL
MODEL 5
REMARK VINA RESULT:      -3.5      1.726      2.660
REMARK  0 active torsions:
REMARK  status: ('A' for Active; 'I' for Inactive)
ROOT
HETATM    1  C1  UNL     1     -34.237  15.561  -5.847  1.00 20.00     0.064 C 
HETATM    2  C2  UNL     1     -33.583  18.326  -4.600  1.00 20.00     0.011 C 
HETATM    3  C3  UNL     1     -34.953  18.442  -2.668  1.00 20.00     0.010 C 
HETATM    4  C4  UNL     1     -34.684  16.196  -4.596  1.00 20.00     0.101 C 
HETATM    5  C5  UNL     1     -35.038  18.563  -4.203  1.00 20.00    -0.009 C 
HETATM    6  C6  UNL     1     -33.518  16.957  -3.912  1.00 20.00     0.007 C 
HETATM    7  C7  UNL     1     -33.943  17.294  -2.461  1.00 20.00    -0.013 C 
HETATM    8  C8  UNL     1     -35.756  17.310  -4.770  1.00 20.00     0.003 C 
HETATM    9  C9  UNL     1     -32.769  17.706  -1.580  1.00 20.00     0.010 C 
HETATM   10  C10 UNL     1     -36.269  17.544  -6.190  1.00 20.00     0.011 C 
HETATM   11  N11 UNL     1     -33.885  15.061  -6.832  1.00 20.00    -0.197 NA
ENDROOT
TORSDOF 0
ENDMDL
MODEL 6
REMARK VINA RESULT:      -3.5     24.282     25.048
REMARK  0 active torsions:
REMARK  status: ('A' for Active; 'I' for Inactive)
ROOT
HETATM    1  C1  UNL     1     -30.372  -2.372  11.385  1.00 20.00     0.064 C 
HETATM    2  C2  UNL     1     -27.560  -3.414  12.180  1.00 20.00     0.011 C 
HETATM    3  C3  UNL     1     -26.144  -2.702  10.415  1.00 20.00     0.010 C 
HETATM    4  C4  UNL     1     -29.052  -2.188  10.759  1.00 20.00     0.101 C 
HETATM    5  C5  UNL     1     -27.212  -3.768  10.736  1.00 20.00    -0.009 C 
HETATM    6  C6  UNL     1     -27.953  -1.973  11.833  1.00 20.00     0.007 C 
HETATM    7  C7  UNL     1     -26.681  -1.442  11.126  1.00 20.00    -0.013 C 
HETATM    8  C8  UNL     1     -28.519  -3.421   9.975  1.00 20.00     0.003 C 
HETATM    9  C9  UNL     1     -25.666  -0.850  12.098  1.00 20.00     0.010 C 
HETATM   10  C10 UNL     1     -29.457  -4.623   9.879  1.00 20.00     0.011 C 
HETATM   11  N11 UNL     1     -31.411  -2.516  11.879  1.00 20.00    -0.197 NA
ENDROOT
TORSDOF 0
ENDMDL
MODEL 7
REMARK VINA RESULT:      -3.4     11.901     12.498
REMARK  0 active torsions:
REMARK  status: ('A' for Active; 'I' for Inactive)
ROOT
HETATM    1  C1  UNL     1     -40.387  12.531   5.609  1.00 20.00     0.064 C 
HETATM    2  C2  UNL     1     -40.455  15.257   7.090  1.00 20.00     0.011 C 
HETATM    3  C3  UNL     1     -42.478  15.208   8.326  1.00 20.00     0.010 C 
HETATM    4  C4  UNL     1     -41.329  13.078   6.598  1.00 20.00     0.101 C 
HETATM    5  C5  UNL     1     -41.961  15.402   6.886  1.00 20.00    -0.009 C 
HETATM    6  C6  UNL     1     -40.577  13.859   7.709  1.00 20.00     0.007 C 
HETATM    7  C7  UNL     1     -41.559  14.100   8.883  1.00 20.00    -0.013 C 
HETATM    8  C8  UNL     1     -42.316  14.147   6.046  1.00 20.00     0.003 C 
HETATM    9  C9  UNL     1     -40.855  14.523  10.167  1.00 20.00     0.010 C 
HETATM   10  C10 UNL     1     -42.244  14.428   4.546  1.00 20.00     0.011 C 
HETATM   11  N11 UNL     1     -39.644  12.099   4.830  1.00 20.00    -0.197 NA
ENDROOT
TORSDOF 0
ENDMDL
MODEL 8
REMARK VINA RESULT:      -3.3      3.083      5.703
REMARK  0 active torsions:
REMARK  status: ('A' for Active; 'I' for Inactive)
ROOT
HETATM    1  C1  UNL     1     -33.820  17.808  -4.106  1.00 20.00     0.064 C 
HETATM    2  C2  UNL     1     -34.177  16.339  -6.816  1.00 20.00     0.011 C 
HETATM    3  C3  UNL     1     -35.920  14.781  -6.419  1.00 20.00     0.010 C 
HETATM    4  C4  UNL     1     -34.794  16.794  -4.543  1.00 20.00     0.101 C 
HETATM    5  C5  UNL     1     -34.421  14.997  -6.129  1.00 20.00    -0.009 C 
HETATM    6  C6  UNL     1     -35.257  17.061  -6.000  1.00 20.00     0.007 C 
HETATM    7  C7  UNL     1     -36.514  16.198  -6.276  1.00 20.00    -0.013 C 
HETATM    8  C8  UNL     1     -34.240  15.343  -4.628  1.00 20.00     0.003 C 
HETATM    9  C9  UNL     1     -37.272  16.637  -7.524  1.00 20.00     0.010 C 
HETATM   10  C10 UNL     1     -32.797  15.138  -4.168  1.00 20.00     0.011 C 
HETATM   11  N11 UNL     1     -33.054  18.607  -3.761  1.00 20.00    -0.197 NA
ENDROOT
TORSDOF 0
ENDMDL
MODEL 9
REMARK VINA RESULT:      -3.3     24.118     25.144
REMARK  0 active torsions:
REMARK  status: ('A' for Active; 'I' for Inactive)
ROOT
HETATM    1  C1  UNL     1     -25.157  -2.465  10.899  1.00 20.00     0.064 C 
HETATM    2  C2  UNL     1     -27.849  -3.148  12.283  1.00 20.00     0.011 C 
HETATM    3  C3  UNL     1     -29.503  -2.294  10.813  1.00 20.00     0.010 C 
HETATM    4  C4  UNL     1     -26.551  -2.284  10.461  1.00 20.00     0.101 C 
HETATM    5  C5  UNL     1     -28.475  -1.821  11.862  1.00 20.00    -0.009 C 
HETATM    6  C6  UNL     1     -27.420  -3.508  10.855  1.00 20.00     0.007 C 
HETATM    7  C7  UNL     1     -28.757  -3.425  10.076  1.00 20.00    -0.013 C 
HETATM    8  C8  UNL     1     -27.305  -1.105  11.137  1.00 20.00     0.003 C 
HETATM    9  C9  UNL     1     -29.534  -4.737  10.091  1.00 20.00     0.010 C 
HETATM   10  C10 UNL     1     -26.490  -0.237  12.095  1.00 20.00     0.011 C 
HETATM   11  N11 UNL     1     -24.059  -2.609  11.244  1.00 20.00    -0.197 NA
ENDROOT
TORSDOF 0
ENDMDL
