MODEL 1
REMARK VINA RESULT:      -5.2      0.000      0.000
REMARK  0 active torsions:
REMARK  status: ('A' for Active; 'I' for Inactive)
ROOT
HETATM    1  C1  UNL     1     -33.607   7.591   5.912  1.00 20.00     0.055 C 
HETATM    2  C2  UNL     1     -34.178   6.566   5.288  1.00 20.00    -0.046 C 
HETATM    3  C3  UNL     1     -32.758   8.202   4.871  1.00 20.00     0.150 C 
HETATM    4  C4  UNL     1     -34.862   5.351   5.770  1.00 20.00     0.202 C 
HETATM    5  C5  UNL     1     -32.748   7.388   3.597  1.00 20.00     0.094 C 
HETATM    6  C6  UNL     1     -33.577   4.921   3.859  1.00 20.00     0.177 C 
HETATM    7  C7  UNL     1     -33.873   6.404   3.846  1.00 20.00     0.048 C 
HETATM    8  O8  UNL     1     -32.108   9.220   5.055  1.00 20.00    -0.293 OA
HETATM    9  O9  UNL     1     -34.540   4.348   4.776  1.00 20.00    -0.386 OA
ENDROOT
TORSDOF 0
ENDMDL
MODEL 2
REMARK VINA RESULT:      -4.9      1.715      3.144
REMARK  0 active torsions:
REMARK  status: ('A' for Active; 'I' for Inactive)
ROOT
HETATM    1  C1  UNL     1     -32.925   6.754   3.515  1.00 20.00     0.055 C 
HETATM    2  C2  UNL     1     -33.732   7.004   4.541  1.00 20.00    -0.046 C 
HETATM    3  C3  UNL     1     -33.238   5.357   3.159  1.00 20.00     0.150 C 
HETATM    4  C4  UNL     1     -33.733   8.044   5.588  1.00 20.00     0.202 C 
HETATM    5  C5  UNL     1     -34.202   4.724   4.137  1.00 20.00     0.094 C 
HETATM    6  C6  UNL     1     -34.422   5.968   6.428  1.00 20.00     0.177 C 
HETATM    7  C7  UNL     1     -34.668   5.925   4.937  1.00 20.00     0.048 C 
HETATM    8  O8  UNL     1     -32.728   4.781   2.210  1.00 20.00    -0.293 OA
HETATM    9  O9  UNL     1     -34.278   7.372   6.750  1.00 20.00    -0.386 OA
ENDROOT
TORSDOF 0
ENDMDL
MODEL 3
REMARK VINA RESULT:      -4.9      1.440      3.368
REMARK  0 active torsions:
REMARK  status: ('A' for Active; 'I' for Inactive)
ROOT
HETATM    1  C1  UNL     1     -34.183   5.223   4.667  1.00 20.00     0.055 C 
HETATM    2  C2  UNL     1     -33.695   6.242   3.968  1.00 20.00    -0.046 C 
HETATM    3  C3  UNL     1     -34.503   5.822   5.977  1.00 20.00     0.150 C 
HETATM    4  C4  UNL     1     -32.885   6.318   2.737  1.00 20.00     0.202 C 
HETATM    5  C5  UNL     1     -34.042   7.259   6.071  1.00 20.00     0.094 C 
HETATM    6  C6  UNL     1     -32.268   7.966   4.283  1.00 20.00     0.177 C 
HETATM    7  C7  UNL     1     -33.685   7.567   4.631  1.00 20.00     0.048 C 
HETATM    8  O8  UNL     1     -35.033   5.197   6.883  1.00 20.00    -0.293 OA
HETATM    9  O9  UNL     1     -32.059   7.493   2.931  1.00 20.00    -0.386 OA
ENDROOT
TORSDOF 0
ENDMDL
MODEL 4
REMARK VINA RESULT:      -4.5      0.988      3.449
REMARK  0 active torsions:
REMARK  status: ('A' for Active; 'I' for Inactive)
ROOT
HETATM    1  C1  UNL     1     -34.126   6.723   5.382  1.00 20.00     0.055 C 
HETATM    2  C2  UNL     1     -33.140   7.370   4.768  1.00 20.00    -0.046 C 
HETATM    3  C3  UNL     1     -34.322   5.520   4.550  1.00 20.00     0.150 C 
HETATM    4  C4  UNL     1     -32.660   8.764   4.834  1.00 20.00     0.202 C 
HETATM    5  C5  UNL     1     -33.473   5.550   3.300  1.00 20.00     0.094 C 
HETATM    6  C6  UNL     1     -32.542   7.909   2.656  1.00 20.00     0.177 C 
HETATM    7  C7  UNL     1     -32.542   6.713   3.581  1.00 20.00     0.048 C 
HETATM    8  O8  UNL     1     -35.119   4.638   4.832  1.00 20.00    -0.293 OA
HETATM    9  O9  UNL     1     -32.190   9.038   3.491  1.00 20.00    -0.386 OA
ENDROOT
TORSDOF 0
ENDMDL
MODEL 5
REMARK VINA RESULT:      -4.5      0.667      1.840
REMARK  0 active torsions:
REMARK  status: ('A' for Active; 'I' for Inactive)
ROOT
HETATM    1  C1  UNL     1     -32.680   7.119   3.357  1.00 20.00     0.055 C 
HETATM    2  C2  UNL     1     -33.249   6.168   4.092  1.00 20.00    -0.046 C 
HETATM    3  C3  UNL     1     -32.778   8.321   4.208  1.00 20.00     0.150 C 
HETATM    4  C4  UNL     1     -33.793   4.837   3.764  1.00 20.00     0.202 C 
HETATM    5  C5  UNL     1     -33.577   8.062   5.465  1.00 20.00     0.094 C 
HETATM    6  C6  UNL     1     -35.078   5.920   5.396  1.00 20.00     0.177 C 
HETATM    7  C7  UNL     1     -33.705   6.551   5.449  1.00 20.00     0.048 C 
HETATM    8  O8  UNL     1     -32.306   9.402   3.891  1.00 20.00    -0.293 OA
HETATM    9  O9  UNL     1     -34.896   4.670   4.688  1.00 20.00    -0.386 OA
ENDROOT
TORSDOF 0
ENDMDL
MODEL 6
REMARK VINA RESULT:      -4.0     16.064     16.336
REMARK  0 active torsions:
REMARK  status: ('A' for Active; 'I' for Inactive)
ROOT
HETATM    1  C1  UNL     1     -24.123  19.028   8.858  1.00 20.00     0.055 C 
HETATM    2  C2  UNL     1     -24.345  18.445  10.032  1.00 20.00    -0.046 C 
HETATM    3  C3  UNL     1     -22.903  18.360   8.364  1.00 20.00     0.150 C 
HETATM    4  C4  UNL     1     -25.161  18.822  11.202  1.00 20.00     0.202 C 
HETATM    5  C5  UNL     1     -22.315  17.420   9.391  1.00 20.00     0.094 C 
HETATM    6  C6  UNL     1     -23.152  17.801  11.841  1.00 20.00     0.177 C 
HETATM    7  C7  UNL     1     -23.424  17.351  10.423  1.00 20.00     0.048 C 
HETATM    8  O8  UNL     1     -22.414  18.593   7.269  1.00 20.00    -0.293 OA
HETATM    9  O9  UNL     1     -24.419  18.302  12.332  1.00 20.00    -0.386 OA
ENDROOT
TORSDOF 0
ENDMDL
MODEL 7
REMARK VINA RESULT:      -3.9     16.160     16.578
REMARK  0 active torsions:
REMARK  status: ('A' for Active; 'I' for Inactive)
ROOT
HETATM    1  C1  UNL     1     -24.971  19.061  10.068  1.00 20.00     0.055 C 
HETATM    2  C2  UNL     1     -23.941  19.128   9.232  1.00 20.00    -0.046 C 
HETATM    3  C3  UNL     1     -24.383  18.503  11.301  1.00 20.00     0.150 C 
HETATM    4  C4  UNL     1     -23.844  19.263   7.766  1.00 20.00     0.202 C 
HETATM    5  C5  UNL     1     -22.938  18.102  11.109  1.00 20.00     0.094 C 
HETATM    6  C6  UNL     1     -22.190  17.838   8.616  1.00 20.00     0.177 C 
HETATM    7  C7  UNL     1     -22.617  18.724   9.764  1.00 20.00     0.048 C 
HETATM    8  O8  UNL     1     -25.021  18.344  12.330  1.00 20.00    -0.293 OA
HETATM    9  O9  UNL     1     -22.654  18.511   7.421  1.00 20.00    -0.386 OA
ENDROOT
TORSDOF 0
ENDMDL
MODEL 8
REMARK VINA RESULT:      -3.7     12.740     13.159
REMARK  0 active torsions:
REMARK  status: ('A' for Active; 'I' for Inactive)
ROOT
HETATM    1  C1  UNL     1     -31.282  18.398  -0.613  1.00 20.00     0.055 C 
HETATM    2  C2  UNL     1     -32.574  18.113  -0.734  1.00 20.00    -0.046 C 
HETATM    3  C3  UNL     1     -31.172  18.937   0.757  1.00 20.00     0.150 C 
HETATM    4  C4  UNL     1     -33.442  17.867  -1.901  1.00 20.00     0.202 C 
HETATM    5  C5  UNL     1     -32.524  19.089   1.417  1.00 20.00     0.094 C 
HETATM    6  C6  UNL     1     -34.560  19.064  -0.226  1.00 20.00     0.177 C 
HETATM    7  C7  UNL     1     -33.425  18.336   0.459  1.00 20.00     0.048 C 
HETATM    8  O8  UNL     1     -30.108  19.263   1.261  1.00 20.00    -0.293 OA
HETATM    9  O9  UNL     1     -34.730  18.395  -1.499  1.00 20.00    -0.386 OA
ENDROOT
TORSDOF 0
ENDMDL
MODEL 9
REMARK VINA RESULT:      -3.6      1.623      3.072
REMARK  0 active torsions:
REMARK  status: ('A' for Active; 'I' for Inactive)
ROOT
HETATM    1  C1  UNL     1     -33.980   5.286   4.203  1.00 20.00     0.055 C 
HETATM    2  C2  UNL     1     -33.724   6.284   5.042  1.00 20.00    -0.046 C 
HETATM    3  C3  UNL     1     -33.165   5.611   3.016  1.00 20.00     0.150 C 
HETATM    4  C4  UNL     1     -34.415   6.787   6.244  1.00 20.00     0.202 C 
HETATM    5  C5  UNL     1     -32.496   6.962   3.141  1.00 20.00     0.094 C 
HETATM    6  C6  UNL     1     -33.519   8.533   4.966  1.00 20.00     0.177 C 
HETATM    7  C7  UNL     1     -32.733   7.294   4.601  1.00 20.00     0.048 C 
HETATM    8  O8  UNL     1     -33.093   4.884   2.037  1.00 20.00    -0.293 OA
HETATM    9  O9  UNL     1     -34.174   8.215   6.217  1.00 20.00    -0.386 OA
ENDROOT
TORSDOF 0
ENDMDL
