MODEL 1
REMARK VINA RESULT:      -6.0      0.000      0.000
REMARK  0 active torsions:
REMARK  status: ('A' for Active; 'I' for Inactive)
ROOT
HETATM    1  C1  UNL     1     -32.726   8.548   4.746  1.00 20.00     0.015 A 
HETATM    2  C2  UNL     1     -32.217   8.751   3.528  1.00 20.00     0.083 A 
HETATM    3  C3  UNL     1     -33.413   7.325   5.069  1.00 20.00    -0.028 A 
HETATM    4  C4  UNL     1     -33.526   6.384   4.119  1.00 20.00     0.063 A 
HETATM    5  C5  UNL     1     -32.346   7.719   2.481  1.00 20.00     0.287 A 
HETATM    6  C6  UNL     1     -33.976   7.162   6.453  1.00 20.00     0.041 C 
HETATM    7  C7  UNL     1     -34.197   5.062   4.343  1.00 20.00     0.066 C 
HETATM    8  C8  UNL     1     -34.954   5.986   6.565  1.00 20.00     0.005 C 
HETATM    9  C9  UNL     1     -34.432   4.758   5.826  1.00 20.00     0.007 C 
HETATM   10  O10 UNL     1     -31.882   7.903   1.360  1.00 20.00    -0.260 OA
HETATM   11  O11 UNL     1     -32.999   6.565   2.818  1.00 20.00    -0.279 OA
ENDROOT
TORSDOF 0
ENDMDL
MODEL 2
REMARK VINA RESULT:      -5.2      1.059      2.226
REMARK  0 active torsions:
REMARK  status: ('A' for Active; 'I' for Inactive)
ROOT
HETATM    1  C1  UNL     1     -33.432   5.211   2.813  1.00 20.00     0.015 A 
HETATM    2  C2  UNL     1     -32.792   5.970   1.919  1.00 20.00     0.083 A 
HETATM    3  C3  UNL     1     -33.709   5.699   4.138  1.00 20.00    -0.028 A 
HETATM    4  C4  UNL     1     -33.317   6.941   4.459  1.00 20.00     0.063 A 
HETATM    5  C5  UNL     1     -32.356   7.335   2.272  1.00 20.00     0.287 A 
HETATM    6  C6  UNL     1     -34.419   4.791   5.104  1.00 20.00     0.041 C 
HETATM    7  C7  UNL     1     -33.570   7.568   5.797  1.00 20.00     0.066 C 
HETATM    8  C8  UNL     1     -34.355   5.292   6.551  1.00 20.00     0.005 C 
HETATM    9  C9  UNL     1     -34.598   6.796   6.630  1.00 20.00     0.007 C 
HETATM   10  O10 UNL     1     -31.766   8.035   1.455  1.00 20.00    -0.260 OA
HETATM   11  O11 UNL     1     -32.638   7.774   3.537  1.00 20.00    -0.279 OA
ENDROOT
TORSDOF 0
ENDMDL
MODEL 3
REMARK VINA RESULT:      -4.9      1.332      3.709
REMARK  0 active torsions:
REMARK  status: ('A' for Active; 'I' for Inactive)
ROOT
HETATM    1  C1  UNL     1     -34.342   6.481   6.058  1.00 20.00     0.015 A 
HETATM    2  C2  UNL     1     -34.549   5.198   5.748  1.00 20.00     0.083 A 
HETATM    3  C3  UNL     1     -33.588   7.344   5.187  1.00 20.00    -0.028 A 
HETATM    4  C4  UNL     1     -33.099   6.833   4.047  1.00 20.00     0.063 A 
HETATM    5  C5  UNL     1     -34.007   4.635   4.496  1.00 20.00     0.287 A 
HETATM    6  C6  UNL     1     -33.378   8.774   5.599  1.00 20.00     0.041 C 
HETATM    7  C7  UNL     1     -32.320   7.637   3.049  1.00 20.00     0.066 C 
HETATM    8  C8  UNL     1     -32.299   9.481   4.771  1.00 20.00     0.005 C 
HETATM    9  C9  UNL     1     -32.428   9.146   3.288  1.00 20.00     0.007 C 
HETATM   10  O10 UNL     1     -34.192   3.456   4.208  1.00 20.00    -0.260 OA
HETATM   11  O11 UNL     1     -33.299   5.480   3.685  1.00 20.00    -0.279 OA
ENDROOT
TORSDOF 0
ENDMDL
MODEL 4
REMARK VINA RESULT:      -4.8      1.784      2.543
REMARK  0 active torsions:
REMARK  status: ('A' for Active; 'I' for Inactive)
ROOT
HETATM    1  C1  UNL     1     -32.384   7.329   3.107  1.00 20.00     0.015 A 
HETATM    2  C2  UNL     1     -31.908   8.516   3.493  1.00 20.00     0.083 A 
HETATM    3  C3  UNL     1     -33.206   6.538   3.984  1.00 20.00    -0.028 A 
HETATM    4  C4  UNL     1     -33.493   7.021   5.202  1.00 20.00     0.063 A 
HETATM    5  C5  UNL     1     -32.220   9.047   4.835  1.00 20.00     0.287 A 
HETATM    6  C6  UNL     1     -33.698   5.204   3.496  1.00 20.00     0.041 C 
HETATM    7  C7  UNL     1     -34.358   6.300   6.193  1.00 20.00     0.066 C 
HETATM    8  C8  UNL     1     -34.268   4.330   4.621  1.00 20.00     0.005 C 
HETATM    9  C9  UNL     1     -35.144   5.145   5.567  1.00 20.00     0.007 C 
HETATM   10  O10 UNL     1     -31.783  10.135   5.195  1.00 20.00    -0.260 OA
HETATM   11  O11 UNL     1     -33.008   8.274   5.645  1.00 20.00    -0.279 OA
ENDROOT
TORSDOF 0
ENDMDL
MODEL 5
REMARK VINA RESULT:      -4.6      2.049      4.401
REMARK  0 active torsions:
REMARK  status: ('A' for Active; 'I' for Inactive)
ROOT
HETATM    1  C1  UNL     1     -33.683   5.292   3.726  1.00 20.00     0.015 A 
HETATM    2  C2  UNL     1     -34.340   4.694   4.724  1.00 20.00     0.083 A 
HETATM    3  C3  UNL     1     -33.244   6.657   3.840  1.00 20.00    -0.028 A 
HETATM    4  C4  UNL     1     -33.502   7.321   4.977  1.00 20.00     0.063 A 
HETATM    5  C5  UNL     1     -34.628   5.424   5.974  1.00 20.00     0.287 A 
HETATM    6  C6  UNL     1     -32.523   7.279   2.677  1.00 20.00     0.041 C 
HETATM    7  C7  UNL     1     -33.074   8.737   5.223  1.00 20.00     0.066 C 
HETATM    8  C8  UNL     1     -32.410   8.804   2.790  1.00 20.00     0.005 C 
HETATM    9  C9  UNL     1     -32.039   9.229   4.208  1.00 20.00     0.007 C 
HETATM   10  O10 UNL     1     -35.233   4.879   6.891  1.00 20.00    -0.260 OA
HETATM   11  O11 UNL     1     -34.194   6.719   6.055  1.00 20.00    -0.279 OA
ENDROOT
TORSDOF 0
ENDMDL
MODEL 6
REMARK VINA RESULT:      -4.4     12.060     13.390
REMARK  0 active torsions:
REMARK  status: ('A' for Active; 'I' for Inactive)
ROOT
HETATM    1  C1  UNL     1     -33.672  14.993  -3.785  1.00 20.00     0.015 A 
HETATM    2  C2  UNL     1     -34.016  14.497  -4.977  1.00 20.00     0.083 A 
HETATM    3  C3  UNL     1     -33.686  16.411  -3.539  1.00 20.00    -0.028 A 
HETATM    4  C4  UNL     1     -34.060  17.230  -4.533  1.00 20.00     0.063 A 
HETATM    5  C5  UNL     1     -34.423  15.398  -6.073  1.00 20.00     0.287 A 
HETATM    6  C6  UNL     1     -33.274  16.908  -2.181  1.00 20.00     0.041 C 
HETATM    7  C7  UNL     1     -34.137  18.721  -4.390  1.00 20.00     0.066 C 
HETATM    8  C8  UNL     1     -33.012  18.419  -2.153  1.00 20.00     0.005 C 
HETATM    9  C9  UNL     1     -34.079  19.182  -2.931  1.00 20.00     0.007 C 
HETATM   10  O10 UNL     1     -34.737  14.947  -7.170  1.00 20.00    -0.260 OA
HETATM   11  O11 UNL     1     -34.431  16.741  -5.808  1.00 20.00    -0.279 OA
ENDROOT
TORSDOF 0
ENDMDL
MODEL 7
REMARK VINA RESULT:      -4.4     12.513     12.814
REMARK  0 active torsions:
REMARK  status: ('A' for Active; 'I' for Inactive)
ROOT
HETATM    1  C1  UNL     1     -31.876  19.263   3.342  1.00 20.00     0.015 A 
HETATM    2  C2  UNL     1     -30.637  19.192   3.836  1.00 20.00     0.083 A 
HETATM    3  C3  UNL     1     -32.129  19.053   1.941  1.00 20.00    -0.028 A 
HETATM    4  C4  UNL     1     -31.092  18.777   1.137  1.00 20.00     0.063 A 
HETATM    5  C5  UNL     1     -29.494  18.893   2.952  1.00 20.00     0.287 A 
HETATM    6  C6  UNL     1     -33.544  19.161   1.443  1.00 20.00     0.041 C 
HETATM    7  C7  UNL     1     -31.232  18.516  -0.333  1.00 20.00     0.066 C 
HETATM    8  C8  UNL     1     -33.633  19.250  -0.085  1.00 20.00     0.005 C 
HETATM    9  C9  UNL     1     -32.683  18.262  -0.756  1.00 20.00     0.007 C 
HETATM   10  O10 UNL     1     -28.355  18.829   3.402  1.00 20.00    -0.260 OA
HETATM   11  O11 UNL     1     -29.766  18.693   1.626  1.00 20.00    -0.279 OA
ENDROOT
TORSDOF 0
ENDMDL
MODEL 8
REMARK VINA RESULT:      -4.3     12.467     12.839
REMARK  0 active torsions:
REMARK  status: ('A' for Active; 'I' for Inactive)
ROOT
HETATM    1  C1  UNL     1     -30.767  18.397   0.741  1.00 20.00     0.015 A 
HETATM    2  C2  UNL     1     -30.454  18.637   2.017  1.00 20.00     0.083 A 
HETATM    3  C3  UNL     1     -32.122  18.518   0.273  1.00 20.00    -0.028 A 
HETATM    4  C4  UNL     1     -33.071  18.888   1.147  1.00 20.00     0.063 A 
HETATM    5  C5  UNL     1     -31.498  19.039   2.981  1.00 20.00     0.287 A 
HETATM    6  C6  UNL     1     -32.412  18.219  -1.171  1.00 20.00     0.041 C 
HETATM    7  C7  UNL     1     -34.512  19.071   0.773  1.00 20.00     0.066 C 
HETATM    8  C8  UNL     1     -33.910  18.060  -1.459  1.00 20.00     0.005 C 
HETATM    9  C9  UNL     1     -34.729  19.129  -0.742  1.00 20.00     0.007 C 
HETATM   10  O10 UNL     1     -31.216  19.259   4.154  1.00 20.00    -0.260 OA
HETATM   11  O11 UNL     1     -32.777  19.152   2.505  1.00 20.00    -0.279 OA
ENDROOT
TORSDOF 0
ENDMDL
MODEL 9
REMARK VINA RESULT:      -4.2      1.522      2.275
REMARK  0 active torsions:
REMARK  status: ('A' for Active; 'I' for Inactive)
ROOT
HETATM    1  C1  UNL     1     -32.232   7.449   3.079  1.00 20.00     0.015 A 
HETATM    2  C2  UNL     1     -32.196   6.440   2.204  1.00 20.00     0.083 A 
HETATM    3  C3  UNL     1     -33.023   7.364   4.278  1.00 20.00    -0.028 A 
HETATM    4  C4  UNL     1     -33.724   6.243   4.505  1.00 20.00     0.063 A 
HETATM    5  C5  UNL     1     -32.970   5.207   2.451  1.00 20.00     0.287 A 
HETATM    6  C6  UNL     1     -33.034   8.539   5.215  1.00 20.00     0.041 C 
HETATM    7  C7  UNL     1     -34.565   6.028   5.728  1.00 20.00     0.066 C 
HETATM    8  C8  UNL     1     -34.154   8.460   6.259  1.00 20.00     0.005 C 
HETATM    9  C9  UNL     1     -34.280   7.051   6.832  1.00 20.00     0.007 C 
HETATM   10  O10 UNL     1     -32.941   4.279   1.650  1.00 20.00    -0.260 OA
HETATM   11  O11 UNL     1     -33.709   5.154   3.602  1.00 20.00    -0.279 OA
ENDROOT
TORSDOF 0
ENDMDL
