MODEL 1
REMARK VINA RESULT:      -4.3      0.000      0.000
REMARK  0 active torsions:
REMARK  status: ('A' for Active; 'I' for Inactive)
ROOT
HETATM    1  C1  UNL     1     -34.016  15.085  -5.979  1.00 20.00     0.087 A 
HETATM    2  C2  UNL     1     -35.036  17.266  -5.700  1.00 20.00     0.063 A 
HETATM    3  C3  UNL     1     -33.810  16.234  -3.848  1.00 20.00     0.114 A 
HETATM    4  C4  UNL     1     -34.753  16.148  -6.489  1.00 20.00     0.120 A 
HETATM    5  C5  UNL     1     -33.540  15.115  -4.666  1.00 20.00     0.149 A 
HETATM    6  C6  UNL     1     -34.554  17.291  -4.381  1.00 20.00     0.042 A 
HETATM    7  C7  UNL     1     -33.834  17.560  -2.085  1.00 20.00     0.145 A 
HETATM    8  N8  UNL     1     -33.405  16.403  -2.532  1.00 20.00    -0.230 NA
HETATM    9  F9  UNL     1     -35.200  16.100  -7.751  1.00 20.00    -0.206 F 
HETATM   10  F10 UNL     1     -32.829  14.083  -4.191  1.00 20.00    -0.203 F 
HETATM   11  S11 UNL     1     -34.736  18.514  -3.181  1.00 20.00    -0.060 SA
HETATM   12 BR12 UNL     1     -33.470  18.143  -0.304  1.00 20.00    -0.021 Br
ENDROOT
TORSDOF 0
ENDMDL
MODEL 2
REMARK VINA RESULT:      -4.2      6.250      7.207
REMARK  0 active torsions:
REMARK  status: ('A' for Active; 'I' for Inactive)
ROOT
HETATM    1  C1  UNL     1     -33.094  18.689  -0.087  1.00 20.00     0.087 A 
HETATM    2  C2  UNL     1     -33.474  19.263   2.237  1.00 20.00     0.063 A 
HETATM    3  C3  UNL     1     -31.218  18.713   1.458  1.00 20.00     0.114 A 
HETATM    4  C4  UNL     1     -33.953  19.060   0.941  1.00 20.00     0.120 A 
HETATM    5  C5  UNL     1     -31.729  18.513   0.157  1.00 20.00     0.149 A 
HETATM    6  C6  UNL     1     -32.102  19.085   2.476  1.00 20.00     0.042 A 
HETATM    7  C7  UNL     1     -29.783  18.839   3.128  1.00 20.00     0.145 A 
HETATM    8  N8  UNL     1     -29.893  18.577   1.848  1.00 20.00    -0.230 NA
HETATM    9  F9  UNL     1     -35.259  19.223   0.686  1.00 20.00    -0.206 F 
HETATM   10  F10 UNL     1     -30.913  18.158  -0.846  1.00 20.00    -0.203 F 
HETATM   11  S11 UNL     1     -31.223  19.261   3.948  1.00 20.00    -0.060 SA
HETATM   12 BR12 UNL     1     -28.100  18.752   4.027  1.00 20.00    -0.021 Br
ENDROOT
TORSDOF 0
ENDMDL
MODEL 3
REMARK VINA RESULT:      -4.1     12.560     13.704
REMARK  0 active torsions:
REMARK  status: ('A' for Active; 'I' for Inactive)
ROOT
HETATM    1  C1  UNL     1     -34.347   6.903   6.496  1.00 20.00     0.087 A 
HETATM    2  C2  UNL     1     -34.118   5.129   4.860  1.00 20.00     0.063 A 
HETATM    3  C3  UNL     1     -33.361   7.397   4.331  1.00 20.00     0.114 A 
HETATM    4  C4  UNL     1     -34.517   5.574   6.122  1.00 20.00     0.120 A 
HETATM    5  C5  UNL     1     -33.772   7.822   5.613  1.00 20.00     0.149 A 
HETATM    6  C6  UNL     1     -33.541   6.057   3.977  1.00 20.00     0.042 A 
HETATM    7  C7  UNL     1     -32.526   7.466   2.290  1.00 20.00     0.145 A 
HETATM    8  N8  UNL     1     -32.777   8.192   3.354  1.00 20.00    -0.230 NA
HETATM    9  F9  UNL     1     -35.070   4.710   6.984  1.00 20.00    -0.206 F 
HETATM   10  F10 UNL     1     -33.615   9.098   5.989  1.00 20.00    -0.203 F 
HETATM   11  S11 UNL     1     -32.957   5.813   2.374  1.00 20.00    -0.060 SA
HETATM   12 BR12 UNL     1     -31.721   8.220   0.731  1.00 20.00    -0.021 Br
ENDROOT
TORSDOF 0
ENDMDL
MODEL 4
REMARK VINA RESULT:      -4.0      3.636      4.948
REMARK  0 active torsions:
REMARK  status: ('A' for Active; 'I' for Inactive)
ROOT
HETATM    1  C1  UNL     1     -34.448  18.328  -2.297  1.00 20.00     0.087 A 
HETATM    2  C2  UNL     1     -33.290  16.297  -2.938  1.00 20.00     0.063 A 
HETATM    3  C3  UNL     1     -34.997  17.257  -4.408  1.00 20.00     0.114 A 
HETATM    4  C4  UNL     1     -33.507  17.339  -2.033  1.00 20.00     0.120 A 
HETATM    5  C5  UNL     1     -35.197  18.299  -3.477  1.00 20.00     0.149 A 
HETATM    6  C6  UNL     1     -34.046  16.273  -4.121  1.00 20.00     0.042 A 
HETATM    7  C7  UNL     1     -35.224  16.022  -6.222  1.00 20.00     0.145 A 
HETATM    8  N8  UNL     1     -35.663  17.099  -5.616  1.00 20.00    -0.230 NA
HETATM    9  F9  UNL     1     -32.799  17.385  -0.896  1.00 20.00    -0.206 F 
HETATM   10  F10 UNL     1     -36.099  19.261  -3.717  1.00 20.00    -0.203 F 
HETATM   11  S11 UNL     1     -34.006  15.134  -5.413  1.00 20.00    -0.060 SA
HETATM   12 BR12 UNL     1     -35.911  15.476  -7.918  1.00 20.00    -0.021 Br
ENDROOT
TORSDOF 0
ENDMDL
MODEL 5
REMARK VINA RESULT:      -3.9     12.848     13.517
REMARK  0 active torsions:
REMARK  status: ('A' for Active; 'I' for Inactive)
ROOT
HETATM    1  C1  UNL     1     -40.713  13.122   5.158  1.00 20.00     0.087 A 
HETATM    2  C2  UNL     1     -42.119  14.940   5.930  1.00 20.00     0.063 A 
HETATM    3  C3  UNL     1     -40.575  13.836   7.477  1.00 20.00     0.114 A 
HETATM    4  C4  UNL     1     -41.683  14.087   4.913  1.00 20.00     0.120 A 
HETATM    5  C5  UNL     1     -40.152  12.986   6.431  1.00 20.00     0.149 A 
HETATM    6  C6  UNL     1     -41.552  14.799   7.206  1.00 20.00     0.042 A 
HETATM    7  C7  UNL     1     -40.723  14.745   9.481  1.00 20.00     0.145 A 
HETATM    8  N8  UNL     1     -40.110  13.818   8.784  1.00 20.00    -0.230 NA
HETATM    9  F9  UNL     1     -42.208  14.201   3.685  1.00 20.00    -0.206 F 
HETATM   10  F10 UNL     1     -39.217  12.051   6.651  1.00 20.00    -0.203 F 
HETATM   11  S11 UNL     1     -41.878  15.690   8.645  1.00 20.00    -0.060 SA
HETATM   12 BR12 UNL     1     -40.345  15.022  11.332  1.00 20.00    -0.021 Br
ENDROOT
TORSDOF 0
ENDMDL
MODEL 6
REMARK VINA RESULT:      -3.9     12.488     13.579
REMARK  0 active torsions:
REMARK  status: ('A' for Active; 'I' for Inactive)
ROOT
HETATM    1  C1  UNL     1     -34.486   5.381   5.741  1.00 20.00     0.087 A 
HETATM    2  C2  UNL     1     -33.859   7.723   5.791  1.00 20.00     0.063 A 
HETATM    3  C3  UNL     1     -33.409   6.370   3.800  1.00 20.00     0.114 A 
HETATM    4  C4  UNL     1     -34.424   6.602   6.405  1.00 20.00     0.120 A 
HETATM    5  C5  UNL     1     -33.984   5.252   4.443  1.00 20.00     0.149 A 
HETATM    6  C6  UNL     1     -33.357   7.586   4.487  1.00 20.00     0.042 A 
HETATM    7  C7  UNL     1     -32.429   7.596   2.250  1.00 20.00     0.145 A 
HETATM    8  N8  UNL     1     -32.873   6.392   2.520  1.00 20.00    -0.230 NA
HETATM    9  F9  UNL     1     -34.910   6.705   7.649  1.00 20.00    -0.206 F 
HETATM   10  F10 UNL     1     -34.053   4.069   3.817  1.00 20.00    -0.203 F 
HETATM   11  S11 UNL     1     -32.613   8.771   3.480  1.00 20.00    -0.060 SA
HETATM   12 BR12 UNL     1     -31.618   8.012   0.572  1.00 20.00    -0.021 Br
ENDROOT
TORSDOF 0
ENDMDL
MODEL 7
REMARK VINA RESULT:      -3.8     11.853     12.813
REMARK  0 active torsions:
REMARK  status: ('A' for Active; 'I' for Inactive)
ROOT
HETATM    1  C1  UNL     1     -38.713  11.903   5.291  1.00 20.00     0.087 A 
HETATM    2  C2  UNL     1     -40.626  13.085   4.387  1.00 20.00     0.063 A 
HETATM    3  C3  UNL     1     -40.228  13.052   6.803  1.00 20.00     0.114 A 
HETATM    4  C4  UNL     1     -39.479  12.308   4.204  1.00 20.00     0.120 A 
HETATM    5  C5  UNL     1     -39.074  12.267   6.591  1.00 20.00     0.149 A 
HETATM    6  C6  UNL     1     -40.984  13.447   5.696  1.00 20.00     0.042 A 
HETATM    7  C7  UNL     1     -41.799  14.193   7.850  1.00 20.00     0.145 A 
HETATM    8  N8  UNL     1     -40.708  13.487   8.031  1.00 20.00    -0.230 NA
HETATM    9  F9  UNL     1     -39.115  11.949   2.966  1.00 20.00    -0.206 F 
HETATM   10  F10 UNL     1     -38.323  11.869   7.627  1.00 20.00    -0.203 F 
HETATM   11  S11 UNL     1     -42.324  14.387   6.234  1.00 20.00    -0.060 SA
HETATM   12 BR12 UNL     1     -42.749  14.961   9.318  1.00 20.00    -0.021 Br
ENDROOT
TORSDOF 0
ENDMDL
MODEL 8
REMARK VINA RESULT:      -3.8      3.217      4.134
REMARK  0 active torsions:
REMARK  status: ('A' for Active; 'I' for Inactive)
ROOT
HETATM    1  C1  UNL     1     -33.149  15.890  -3.447  1.00 20.00     0.087 A 
HETATM    2  C2  UNL     1     -34.389  17.948  -3.123  1.00 20.00     0.063 A 
HETATM    3  C3  UNL     1     -34.904  16.485  -5.019  1.00 20.00     0.114 A 
HETATM    4  C4  UNL     1     -33.395  17.051  -2.722  1.00 20.00     0.120 A 
HETATM    5  C5  UNL     1     -33.893  15.596  -4.593  1.00 20.00     0.149 A 
HETATM    6  C6  UNL     1     -35.133  17.647  -4.275  1.00 20.00     0.042 A 
HETATM    7  C7  UNL     1     -36.542  17.343  -6.221  1.00 20.00     0.145 A 
HETATM    8  N8  UNL     1     -35.719  16.326  -6.130  1.00 20.00    -0.230 NA
HETATM    9  F9  UNL     1     -32.671  17.314  -1.627  1.00 20.00    -0.206 F 
HETATM   10  F10 UNL     1     -33.644  14.472  -5.279  1.00 20.00    -0.203 F 
HETATM   11  S11 UNL     1     -36.408  18.544  -5.010  1.00 20.00    -0.060 SA
HETATM   12 BR12 UNL     1     -37.821  17.475  -7.633  1.00 20.00    -0.021 Br
ENDROOT
TORSDOF 0
ENDMDL
MODEL 9
REMARK VINA RESULT:      -3.6      2.113      2.820
REMARK  0 active torsions:
REMARK  status: ('A' for Active; 'I' for Inactive)
ROOT
HETATM    1  C1  UNL     1     -36.553  16.635  -6.677  1.00 20.00     0.087 A 
HETATM    2  C2  UNL     1     -34.817  15.070  -6.035  1.00 20.00     0.063 A 
HETATM    3  C3  UNL     1     -35.177  17.111  -4.731  1.00 20.00     0.114 A 
HETATM    4  C4  UNL     1     -35.858  15.449  -6.886  1.00 20.00     0.120 A 
HETATM    5  C5  UNL     1     -36.225  17.472  -5.607  1.00 20.00     0.149 A 
HETATM    6  C6  UNL     1     -34.492  15.915  -4.962  1.00 20.00     0.042 A 
HETATM    7  C7  UNL     1     -33.751  17.204  -3.051  1.00 20.00     0.145 A 
HETATM    8  N8  UNL     1     -34.742  17.838  -3.633  1.00 20.00    -0.230 NA
HETATM    9  F9  UNL     1     -36.189  14.661  -7.918  1.00 20.00    -0.206 F 
HETATM   10  F10 UNL     1     -36.906  18.610  -5.418  1.00 20.00    -0.203 F 
HETATM   11  S11 UNL     1     -33.275  15.721  -3.757  1.00 20.00    -0.060 SA
HETATM   12 BR12 UNL     1     -32.888  17.904  -1.498  1.00 20.00    -0.021 Br
ENDROOT
TORSDOF 0
ENDMDL
