MODEL 1
REMARK VINA RESULT:      -4.5      0.000      0.000
REMARK  3 active torsions:
REMARK  status: ('A' for Active; 'I' for Inactive)
REMARK    1  A    between atoms: C1_1  and  C6_6 
REMARK    2  A    between atoms: C4_4  and  C7_7 
REMARK    3  A    between atoms: C6_6  and  C7_7 
ROOT
HETATM    1  C7  UNL     1     -33.983   7.748   5.080  1.00 20.00     0.019 C 
ENDROOT
BRANCH   1   2
HETATM    2  C4  UNL     1     -34.395   6.313   5.257  1.00 20.00    -0.043 A 
HETATM    3  C2  UNL     1     -34.166   5.363   4.103  1.00 20.00     0.010 A 
HETATM    4  C3  UNL     1     -35.561   5.806   4.440  1.00 20.00     0.010 A 
HETATM    5  C5  UNL     1     -34.227   5.781   6.653  1.00 20.00     0.015 C 
ENDBRANCH   1   2
BRANCH   1   6
HETATM    6  C6  UNL     1     -32.568   7.883   4.532  1.00 20.00     0.114 C 
BRANCH   6   7
HETATM    7  C1  UNL     1     -32.437   8.246   3.047  1.00 20.00     0.172 C 
HETATM    8  O8  UNL     1     -32.727   9.433   2.730  1.00 20.00    -0.648 OA
HETATM    9  O9  UNL     1     -32.035   7.296   2.316  1.00 20.00    -0.648 OA
ENDBRANCH   6   7
ENDBRANCH   1   6
TORSDOF 3
ENDMDL
MODEL 2
REMARK VINA RESULT:      -4.5      0.082      1.079
REMARK  3 active torsions:
REMARK  status: ('A' for Active; 'I' for Inactive)
REMARK    1  A    between atoms: C1_1  and  C6_6 
REMARK    2  A    between atoms: C4_4  and  C7_7 
REMARK    3  A    between atoms: C6_6  and  C7_7 
ROOT
HETATM    1  C7  UNL     1     -34.009   7.721   5.138  1.00 20.00     0.019 C 
ENDROOT
BRANCH   1   2
HETATM    2  C4  UNL     1     -34.420   6.279   5.260  1.00 20.00    -0.043 A 
HETATM    3  C2  UNL     1     -34.171   5.370   4.079  1.00 20.00     0.010 A 
HETATM    4  C3  UNL     1     -35.572   5.797   4.409  1.00 20.00     0.010 A 
HETATM    5  C5  UNL     1     -34.271   5.701   6.640  1.00 20.00     0.015 C 
ENDBRANCH   1   2
BRANCH   1   6
HETATM    6  C6  UNL     1     -32.584   7.878   4.625  1.00 20.00     0.114 C 
BRANCH   6   7
HETATM    7  C1  UNL     1     -32.422   8.241   3.143  1.00 20.00     0.172 C 
HETATM    8  O8  UNL     1     -32.052   7.312   2.374  1.00 20.00    -0.648 OA
HETATM    9  O9  UNL     1     -32.696   9.445   2.872  1.00 20.00    -0.648 OA
ENDBRANCH   6   7
ENDBRANCH   1   6
TORSDOF 3
ENDMDL
MODEL 3
REMARK VINA RESULT:      -4.2      2.666      4.114
REMARK  3 active torsions:
REMARK  status: ('A' for Active; 'I' for Inactive)
REMARK    1  A    between atoms: C1_1  and  C6_6 
REMARK    2  A    between atoms: C4_4  and  C7_7 
REMARK    3  A    between atoms: C6_6  and  C7_7 
ROOT
HETATM    1  C7  UNL     1     -34.125   7.480   4.904  1.00 20.00     0.019 C 
ENDROOT
BRANCH   1   2
HETATM    2  C4  UNL     1     -32.941   7.801   4.034  1.00 20.00    -0.043 A 
HETATM    3  C2  UNL     1     -31.855   8.679   4.612  1.00 20.00     0.010 A 
HETATM    4  C3  UNL     1     -32.776   9.227   3.560  1.00 20.00     0.010 A 
HETATM    5  C5  UNL     1     -32.534   6.695   3.100  1.00 20.00     0.015 C 
ENDBRANCH   1   2
BRANCH   1   6
HETATM    6  C6  UNL     1     -34.832   6.202   4.475  1.00 20.00     0.114 C 
BRANCH   6   7
HETATM    7  C1  UNL     1     -34.496   4.930   5.265  1.00 20.00     0.172 C 
HETATM    8  O8  UNL     1     -34.129   3.929   4.590  1.00 20.00    -0.648 OA
HETATM    9  O9  UNL     1     -34.619   5.052   6.518  1.00 20.00    -0.648 OA
ENDBRANCH   6   7
ENDBRANCH   1   6
TORSDOF 3
ENDMDL
MODEL 4
REMARK VINA RESULT:      -4.2      1.194      2.106
REMARK  3 active torsions:
REMARK  status: ('A' for Active; 'I' for Inactive)
REMARK    1  A    between atoms: C1_1  and  C6_6 
REMARK    2  A    between atoms: C4_4  and  C7_7 
REMARK    3  A    between atoms: C6_6  and  C7_7 
ROOT
HETATM    1  C7  UNL     1     -33.287   5.331   4.208  1.00 20.00     0.019 C 
ENDROOT
BRANCH   1   2
HETATM    2  C4  UNL     1     -34.455   5.824   5.017  1.00 20.00    -0.043 A 
HETATM    3  C2  UNL     1     -34.171   6.739   6.186  1.00 20.00     0.010 A 
HETATM    4  C3  UNL     1     -34.596   5.321   6.436  1.00 20.00     0.010 A 
HETATM    5  C5  UNL     1     -35.711   6.060   4.224  1.00 20.00     0.015 C 
ENDBRANCH   1   2
BRANCH   1   6
HETATM    6  C6  UNL     1     -33.164   6.048   2.870  1.00 20.00     0.114 C 
BRANCH   6   7
HETATM    7  C1  UNL     1     -32.317   7.326   2.848  1.00 20.00     0.172 C 
HETATM    8  O8  UNL     1     -31.925   7.760   3.966  1.00 20.00    -0.648 OA
HETATM    9  O9  UNL     1     -32.102   7.785   1.690  1.00 20.00    -0.648 OA
ENDBRANCH   6   7
ENDBRANCH   1   6
TORSDOF 3
ENDMDL
MODEL 5
REMARK VINA RESULT:      -4.2      2.383      3.651
REMARK  3 active torsions:
REMARK  status: ('A' for Active; 'I' for Inactive)
REMARK    1  A    between atoms: C1_1  and  C6_6 
REMARK    2  A    between atoms: C4_4  and  C7_7 
REMARK    3  A    between atoms: C6_6  and  C7_7 
ROOT
HETATM    1  C7  UNL     1     -33.244   6.825   6.178  1.00 20.00     0.019 C 
ENDROOT
BRANCH   1   2
HETATM    2  C4  UNL     1     -33.239   7.925   5.152  1.00 20.00    -0.043 A 
HETATM    3  C2  UNL     1     -32.697   7.610   3.777  1.00 20.00     0.010 A 
HETATM    4  C3  UNL     1     -31.903   8.477   4.712  1.00 20.00     0.010 A 
HETATM    5  C5  UNL     1     -34.397   8.879   5.254  1.00 20.00     0.015 C 
ENDBRANCH   1   2
BRANCH   1   6
HETATM    6  C6  UNL     1     -34.566   6.070   6.213  1.00 20.00     0.114 C 
BRANCH   6   7
HETATM    7  C1  UNL     1     -34.965   5.321   4.935  1.00 20.00     0.172 C 
HETATM    8  O8  UNL     1     -35.892   5.834   4.249  1.00 20.00    -0.648 OA
HETATM    9  O9  UNL     1     -34.295   4.271   4.719  1.00 20.00    -0.648 OA
ENDBRANCH   6   7
ENDBRANCH   1   6
TORSDOF 3
ENDMDL
MODEL 6
REMARK VINA RESULT:      -4.1     15.134     16.009
REMARK  3 active torsions:
REMARK  status: ('A' for Active; 'I' for Inactive)
REMARK    1  A    between atoms: C1_1  and  C6_6 
REMARK    2  A    between atoms: C4_4  and  C7_7 
REMARK    3  A    between atoms: C6_6  and  C7_7 
ROOT
HETATM    1  C7  UNL     1     -24.239  18.475  10.158  1.00 20.00     0.019 C 
ENDROOT
BRANCH   1   2
HETATM    2  C4  UNL     1     -24.063  17.767  11.474  1.00 20.00    -0.043 A 
HETATM    3  C2  UNL     1     -24.373  16.289  11.530  1.00 20.00     0.010 A 
HETATM    4  C3  UNL     1     -25.303  17.272  12.183  1.00 20.00     0.010 A 
HETATM    5  C5  UNL     1     -22.929  18.283  12.315  1.00 20.00     0.015 C 
ENDBRANCH   1   2
BRANCH   1   6
HETATM    6  C6  UNL     1     -22.910  18.869   9.529  1.00 20.00     0.114 C 
BRANCH   6   7
HETATM    7  C1  UNL     1     -22.388  17.970   8.401  1.00 20.00     0.172 C 
HETATM    8  O8  UNL     1     -21.974  16.827   8.739  1.00 20.00    -0.648 OA
HETATM    9  O9  UNL     1     -22.452  18.492   7.251  1.00 20.00    -0.648 OA
ENDBRANCH   6   7
ENDBRANCH   1   6
TORSDOF 3
ENDMDL
MODEL 7
REMARK VINA RESULT:      -4.1      2.470      3.900
REMARK  3 active torsions:
REMARK  status: ('A' for Active; 'I' for Inactive)
REMARK    1  A    between atoms: C1_1  and  C6_6 
REMARK    2  A    between atoms: C4_4  and  C7_7 
REMARK    3  A    between atoms: C6_6  and  C7_7 
ROOT
HETATM    1  C7  UNL     1     -34.151   8.038   4.671  1.00 20.00     0.019 C 
ENDROOT
BRANCH   1   2
HETATM    2  C4  UNL     1     -32.793   8.363   4.113  1.00 20.00    -0.043 A 
HETATM    3  C2  UNL     1     -32.686   8.656   2.634  1.00 20.00     0.010 A 
HETATM    4  C3  UNL     1     -32.153   7.361   3.178  1.00 20.00     0.010 A 
HETATM    5  C5  UNL     1     -31.896   9.124   5.050  1.00 20.00     0.015 C 
ENDBRANCH   1   2
BRANCH   1   6
HETATM    6  C6  UNL     1     -34.074   7.163   5.914  1.00 20.00     0.114 C 
BRANCH   6   7
HETATM    7  C1  UNL     1     -34.555   5.714   5.767  1.00 20.00     0.172 C 
HETATM    8  O8  UNL     1     -35.267   5.457   4.758  1.00 20.00    -0.648 OA
HETATM    9  O9  UNL     1     -34.160   4.941   6.687  1.00 20.00    -0.648 OA
ENDBRANCH   6   7
ENDBRANCH   1   6
TORSDOF 3
ENDMDL
MODEL 8
REMARK VINA RESULT:      -4.0      0.951      1.976
REMARK  3 active torsions:
REMARK  status: ('A' for Active; 'I' for Inactive)
REMARK    1  A    between atoms: C1_1  and  C6_6 
REMARK    2  A    between atoms: C4_4  and  C7_7 
REMARK    3  A    between atoms: C6_6  and  C7_7 
ROOT
HETATM    1  C7  UNL     1     -33.723   7.185   5.844  1.00 20.00     0.019 C 
ENDROOT
BRANCH   1   2
HETATM    2  C4  UNL     1     -34.536   5.967   5.501  1.00 20.00    -0.043 A 
HETATM    3  C2  UNL     1     -34.889   5.013   6.618  1.00 20.00     0.010 A 
HETATM    4  C3  UNL     1     -33.863   4.617   5.595  1.00 20.00     0.010 A 
HETATM    5  C5  UNL     1     -35.544   6.176   4.405  1.00 20.00     0.015 C 
ENDBRANCH   1   2
BRANCH   1   6
HETATM    6  C6  UNL     1     -33.789   8.252   4.759  1.00 20.00     0.114 C 
BRANCH   6   7
HETATM    7  C1  UNL     1     -32.583   8.350   3.816  1.00 20.00     0.172 C 
HETATM    8  O8  UNL     1     -32.157   7.265   3.332  1.00 20.00    -0.648 OA
HETATM    9  O9  UNL     1     -32.166   9.529   3.629  1.00 20.00    -0.648 OA
ENDBRANCH   6   7
ENDBRANCH   1   6
TORSDOF 3
ENDMDL
MODEL 9
REMARK VINA RESULT:      -3.8     11.614     12.387
REMARK  3 active torsions:
REMARK  status: ('A' for Active; 'I' for Inactive)
REMARK    1  A    between atoms: C1_1  and  C6_6 
REMARK    2  A    between atoms: C4_4  and  C7_7 
REMARK    3  A    between atoms: C6_6  and  C7_7 
ROOT
HETATM    1  C7  UNL     1     -33.381  16.659  -2.110  1.00 20.00     0.019 C 
ENDROOT
BRANCH   1   2
HETATM    2  C4  UNL     1     -33.609  16.281  -3.548  1.00 20.00    -0.043 A 
HETATM    3  C2  UNL     1     -34.151  14.902  -3.841  1.00 20.00     0.010 A 
HETATM    4  C3  UNL     1     -32.717  15.222  -4.152  1.00 20.00     0.010 A 
HETATM    5  C5  UNL     1     -34.053  17.416  -4.429  1.00 20.00     0.015 C 
ENDBRANCH   1   2
BRANCH   1   6
HETATM    6  C6  UNL     1     -32.818  18.066  -1.961  1.00 20.00     0.114 C 
BRANCH   6   7
HETATM    7  C1  UNL     1     -32.093  18.383  -0.647  1.00 20.00     0.172 C 
HETATM    8  O8  UNL     1     -30.875  18.700  -0.739  1.00 20.00    -0.648 OA
HETATM    9  O9  UNL     1     -32.824  18.297   0.381  1.00 20.00    -0.648 OA
ENDBRANCH   6   7
ENDBRANCH   1   6
TORSDOF 3
ENDMDL
