MODEL 1
REMARK VINA RESULT:      -5.0      0.000      0.000
REMARK  0 active torsions:
REMARK  status: ('A' for Active; 'I' for Inactive)
ROOT
HETATM    1  C1  UNL     1     -34.423   5.975   5.840  1.00 20.00     0.105 C 
HETATM    2  C2  UNL     1     -32.832   8.400   3.506  1.00 20.00     0.068 A 
HETATM    3  C3  UNL     1     -32.770   6.198   2.512  1.00 20.00     0.068 A 
HETATM    4  C4  UNL     1     -33.765   6.512   4.690  1.00 20.00     0.121 A 
HETATM    5  C5  UNL     1     -33.475   7.875   4.627  1.00 20.00     0.141 A 
HETATM    6  C6  UNL     1     -33.412   5.674   3.633  1.00 20.00     0.141 A 
HETATM    7  C7  UNL     1     -32.480   7.562   2.448  1.00 20.00     0.040 A 
HETATM    8  N8  UNL     1     -34.958   5.539   6.773  1.00 20.00    -0.191 NA
HETATM    9  F9  UNL     1     -33.807   8.695   5.636  1.00 20.00    -0.204 F 
HETATM   10  F10 UNL     1     -33.683   4.361   3.680  1.00 20.00    -0.204 F 
HETATM   11 CL11 UNL     1     -31.687   8.209   1.065  1.00 20.00    -0.084 Cl
ENDROOT
TORSDOF 0
ENDMDL
MODEL 2
REMARK VINA RESULT:      -5.0      0.053      2.497
REMARK  0 active torsions:
REMARK  status: ('A' for Active; 'I' for Inactive)
ROOT
HETATM    1  C1  UNL     1     -34.425   5.928   5.866  1.00 20.00     0.105 C 
HETATM    2  C2  UNL     1     -32.804   6.178   2.524  1.00 20.00     0.068 A 
HETATM    3  C3  UNL     1     -32.830   8.367   3.548  1.00 20.00     0.068 A 
HETATM    4  C4  UNL     1     -33.772   6.475   4.718  1.00 20.00     0.121 A 
HETATM    5  C5  UNL     1     -33.440   5.646   3.645  1.00 20.00     0.141 A 
HETATM    6  C6  UNL     1     -33.467   7.835   4.669  1.00 20.00     0.141 A 
HETATM    7  C7  UNL     1     -32.498   7.538   2.476  1.00 20.00     0.040 A 
HETATM    8  N8  UNL     1     -34.954   5.486   6.799  1.00 20.00    -0.191 NA
HETATM    9  F9  UNL     1     -33.728   4.336   3.677  1.00 20.00    -0.204 F 
HETATM   10  F10 UNL     1     -33.781   8.644   5.691  1.00 20.00    -0.204 F 
HETATM   11 CL11 UNL     1     -31.713   8.195   1.092  1.00 20.00    -0.084 Cl
ENDROOT
TORSDOF 0
ENDMDL
MODEL 3
REMARK VINA RESULT:      -4.9      3.187      3.802
REMARK  0 active torsions:
REMARK  status: ('A' for Active; 'I' for Inactive)
ROOT
HETATM    1  C1  UNL     1     -32.228   7.760   2.015  1.00 20.00     0.105 C 
HETATM    2  C2  UNL     1     -33.591   7.419   5.464  1.00 20.00     0.068 A 
HETATM    3  C3  UNL     1     -33.979   5.360   4.259  1.00 20.00     0.068 A 
HETATM    4  C4  UNL     1     -32.860   7.203   3.171  1.00 20.00     0.121 A 
HETATM    5  C5  UNL     1     -32.974   7.961   4.336  1.00 20.00     0.141 A 
HETATM    6  C6  UNL     1     -33.363   5.903   3.132  1.00 20.00     0.141 A 
HETATM    7  C7  UNL     1     -34.093   6.118   5.425  1.00 20.00     0.040 A 
HETATM    8  N8  UNL     1     -31.715   8.211   1.078  1.00 20.00    -0.191 NA
HETATM    9  F9  UNL     1     -32.496   9.213   4.389  1.00 20.00    -0.204 F 
HETATM   10  F10 UNL     1     -33.262   5.162   2.019  1.00 20.00    -0.204 F 
HETATM   11 CL11 UNL     1     -34.854   5.449   6.816  1.00 20.00    -0.084 Cl
ENDROOT
TORSDOF 0
ENDMDL
MODEL 4
REMARK VINA RESULT:      -4.9      3.189      4.534
REMARK  0 active torsions:
REMARK  status: ('A' for Active; 'I' for Inactive)
ROOT
HETATM    1  C1  UNL     1     -32.212   7.775   2.006  1.00 20.00     0.105 C 
HETATM    2  C2  UNL     1     -33.964   5.372   4.246  1.00 20.00     0.068 A 
HETATM    3  C3  UNL     1     -33.578   7.430   5.452  1.00 20.00     0.068 A 
HETATM    4  C4  UNL     1     -32.846   7.218   3.160  1.00 20.00     0.121 A 
HETATM    5  C5  UNL     1     -33.347   5.917   3.120  1.00 20.00     0.141 A 
HETATM    6  C6  UNL     1     -32.961   7.974   4.327  1.00 20.00     0.141 A 
HETATM    7  C7  UNL     1     -34.080   6.129   5.412  1.00 20.00     0.040 A 
HETATM    8  N8  UNL     1     -31.699   8.228   1.069  1.00 20.00    -0.191 NA
HETATM    9  F9  UNL     1     -33.243   5.177   2.006  1.00 20.00    -0.204 F 
HETATM   10  F10 UNL     1     -32.482   9.226   4.381  1.00 20.00    -0.204 F 
HETATM   11 CL11 UNL     1     -34.841   5.457   6.802  1.00 20.00    -0.084 Cl
ENDROOT
TORSDOF 0
ENDMDL
MODEL 5
REMARK VINA RESULT:      -4.4     12.335     13.454
REMARK  0 active torsions:
REMARK  status: ('A' for Active; 'I' for Inactive)
ROOT
HETATM    1  C1  UNL     1     -35.354  15.077  -6.132  1.00 20.00     0.105 C 
HETATM    2  C2  UNL     1     -33.341  16.191  -3.204  1.00 20.00     0.068 A 
HETATM    3  C3  UNL     1     -34.029  18.132  -4.467  1.00 20.00     0.068 A 
HETATM    4  C4  UNL     1     -34.677  15.924  -5.200  1.00 20.00     0.121 A 
HETATM    5  C5  UNL     1     -34.002  15.366  -4.114  1.00 20.00     0.141 A 
HETATM    6  C6  UNL     1     -34.690  17.307  -5.377  1.00 20.00     0.141 A 
HETATM    7  C7  UNL     1     -33.355  17.574  -3.381  1.00 20.00     0.040 A 
HETATM    8  N8  UNL     1     -35.904  14.390  -6.888  1.00 20.00    -0.191 NA
HETATM    9  F9  UNL     1     -33.980  14.037  -3.930  1.00 20.00    -0.204 F 
HETATM   10  F10 UNL     1     -35.333  17.858  -6.416  1.00 20.00    -0.204 F 
HETATM   11 CL11 UNL     1     -32.539  18.593  -2.259  1.00 20.00    -0.084 Cl
ENDROOT
TORSDOF 0
ENDMDL
MODEL 6
REMARK VINA RESULT:      -4.4     12.329     13.327
REMARK  0 active torsions:
REMARK  status: ('A' for Active; 'I' for Inactive)
ROOT
HETATM    1  C1  UNL     1     -35.360  15.078  -6.123  1.00 20.00     0.105 C 
HETATM    2  C2  UNL     1     -34.029  18.132  -4.460  1.00 20.00     0.068 A 
HETATM    3  C3  UNL     1     -33.342  16.189  -3.198  1.00 20.00     0.068 A 
HETATM    4  C4  UNL     1     -34.680  15.923  -5.192  1.00 20.00     0.121 A 
HETATM    5  C5  UNL     1     -34.692  17.307  -5.368  1.00 20.00     0.141 A 
HETATM    6  C6  UNL     1     -34.005  15.364  -4.106  1.00 20.00     0.141 A 
HETATM    7  C7  UNL     1     -33.354  17.573  -3.375  1.00 20.00     0.040 A 
HETATM    8  N8  UNL     1     -35.911  14.392  -6.879  1.00 20.00    -0.191 NA
HETATM    9  F9  UNL     1     -35.337  17.859  -6.407  1.00 20.00    -0.204 F 
HETATM   10  F10 UNL     1     -33.985  14.036  -3.922  1.00 20.00    -0.204 F 
HETATM   11 CL11 UNL     1     -32.536  18.591  -2.254  1.00 20.00    -0.084 Cl
ENDROOT
TORSDOF 0
ENDMDL
MODEL 7
REMARK VINA RESULT:      -4.0     15.679     16.509
REMARK  0 active torsions:
REMARK  status: ('A' for Active; 'I' for Inactive)
ROOT
HETATM    1  C1  UNL     1     -25.412  19.103   7.722  1.00 20.00     0.105 C 
HETATM    2  C2  UNL     1     -24.167  18.785  11.216  1.00 20.00     0.068 A 
HETATM    3  C3  UNL     1     -22.316  18.482   9.693  1.00 20.00     0.068 A 
HETATM    4  C4  UNL     1     -24.530  18.913   8.831  1.00 20.00     0.121 A 
HETATM    5  C5  UNL     1     -25.026  18.971  10.133  1.00 20.00     0.141 A 
HETATM    6  C6  UNL     1     -23.175  18.667   8.611  1.00 20.00     0.141 A 
HETATM    7  C7  UNL     1     -22.811  18.541  10.996  1.00 20.00     0.040 A 
HETATM    8  N8  UNL     1     -26.127  19.258   6.821  1.00 20.00    -0.191 NA
HETATM    9  F9  UNL     1     -26.327  19.205  10.361  1.00 20.00    -0.204 F 
HETATM   10  F10 UNL     1     -22.683  18.607   7.365  1.00 20.00    -0.204 F 
HETATM   11 CL11 UNL     1     -21.751  18.311  12.332  1.00 20.00    -0.084 Cl
ENDROOT
TORSDOF 0
ENDMDL
MODEL 8
REMARK VINA RESULT:      -3.9     12.419     13.634
REMARK  0 active torsions:
REMARK  status: ('A' for Active; 'I' for Inactive)
ROOT
HETATM    1  C1  UNL     1     -34.571  17.074  -5.511  1.00 20.00     0.105 C 
HETATM    2  C2  UNL     1     -33.309  16.844  -2.015  1.00 20.00     0.068 A 
HETATM    3  C3  UNL     1     -34.962  18.603  -2.138  1.00 20.00     0.068 A 
HETATM    4  C4  UNL     1     -34.395  17.338  -4.116  1.00 20.00     0.121 A 
HETATM    5  C5  UNL     1     -33.482  16.587  -3.375  1.00 20.00     0.141 A 
HETATM    6  C6  UNL     1     -35.134  18.346  -3.498  1.00 20.00     0.141 A 
HETATM    7  C7  UNL     1     -34.049  17.852  -1.397  1.00 20.00     0.040 A 
HETATM    8  N8  UNL     1     -34.715  16.860  -6.642  1.00 20.00    -0.191 NA
HETATM    9  F9  UNL     1     -32.763  15.615  -3.956  1.00 20.00    -0.204 F 
HETATM   10  F10 UNL     1     -36.014  19.078  -4.197  1.00 20.00    -0.204 F 
HETATM   11 CL11 UNL     1     -33.836  18.169   0.281  1.00 20.00    -0.084 Cl
ENDROOT
TORSDOF 0
ENDMDL
MODEL 9
REMARK VINA RESULT:      -3.8     12.349     13.097
REMARK  0 active torsions:
REMARK  status: ('A' for Active; 'I' for Inactive)
ROOT
HETATM    1  C1  UNL     1     -33.386  16.931  -2.752  1.00 20.00     0.105 C 
HETATM    2  C2  UNL     1     -35.621  16.857  -5.729  1.00 20.00     0.068 A 
HETATM    3  C3  UNL     1     -34.127  14.959  -5.822  1.00 20.00     0.068 A 
HETATM    4  C4  UNL     1     -33.990  16.515  -3.979  1.00 20.00     0.121 A 
HETATM    5  C5  UNL     1     -35.031  17.261  -4.531  1.00 20.00     0.141 A 
HETATM    6  C6  UNL     1     -33.538  15.364  -4.625  1.00 20.00     0.141 A 
HETATM    7  C7  UNL     1     -35.169  15.705  -6.374  1.00 20.00     0.040 A 
HETATM    8  N8  UNL     1     -32.897  17.267  -1.755  1.00 20.00    -0.191 NA
HETATM    9  F9  UNL     1     -35.477  18.371  -3.923  1.00 20.00    -0.204 F 
HETATM   10  F10 UNL     1     -32.537  14.637  -4.107  1.00 20.00    -0.204 F 
HETATM   11 CL11 UNL     1     -35.896  15.206  -7.852  1.00 20.00    -0.084 Cl
ENDROOT
TORSDOF 0
ENDMDL
