MODEL 1
REMARK VINA RESULT:      -5.1      0.000      0.000
REMARK  0 active torsions:
REMARK  status: ('A' for Active; 'I' for Inactive)
ROOT
HETATM    1  C1  UNL     1     -33.543   6.161   3.953  1.00 20.00     0.050 A 
HETATM    2  C2  UNL     1     -33.332   7.234   4.797  1.00 20.00     0.010 A 
HETATM    3  C3  UNL     1     -32.488   7.490   2.570  1.00 20.00     0.168 A 
HETATM    4  C4  UNL     1     -34.270   4.931   4.374  1.00 20.00     0.060 C 
HETATM    5  C5  UNL     1     -33.742   7.298   6.229  1.00 20.00     0.048 C 
HETATM    6  C6  UNL     1     -34.377   4.844   5.906  1.00 20.00     0.006 C 
HETATM    7  C7  UNL     1     -34.771   6.194   6.534  1.00 20.00     0.006 C 
HETATM    8  N8  UNL     1     -33.063   6.310   2.669  1.00 20.00    -0.233 NA
HETATM    9  S9  UNL     1     -32.496   8.471   3.982  1.00 20.00    -0.061 SA
HETATM   10 CL10 UNL     1     -31.759   8.059   1.126  1.00 20.00    -0.054 Cl
ENDROOT
TORSDOF 0
ENDMDL
MODEL 2
REMARK VINA RESULT:      -4.8      1.226      2.032
REMARK  0 active torsions:
REMARK  status: ('A' for Active; 'I' for Inactive)
ROOT
HETATM    1  C1  UNL     1     -33.343   7.134   4.556  1.00 20.00     0.050 A 
HETATM    2  C2  UNL     1     -33.619   5.875   4.058  1.00 20.00     0.010 A 
HETATM    3  C3  UNL     1     -32.521   7.368   2.541  1.00 20.00     0.168 A 
HETATM    4  C4  UNL     1     -33.672   7.542   5.950  1.00 20.00     0.060 C 
HETATM    5  C5  UNL     1     -34.316   4.788   4.803  1.00 20.00     0.048 C 
HETATM    6  C6  UNL     1     -34.684   6.576   6.590  1.00 20.00     0.006 C 
HETATM    7  C7  UNL     1     -34.330   5.104   6.310  1.00 20.00     0.006 C 
HETATM    8  N8  UNL     1     -32.705   7.992   3.685  1.00 20.00    -0.233 NA
HETATM    9  S9  UNL     1     -33.087   5.746   2.449  1.00 20.00    -0.061 SA
HETATM   10 CL10 UNL     1     -31.761   8.096   1.187  1.00 20.00    -0.054 Cl
ENDROOT
TORSDOF 0
ENDMDL
MODEL 3
REMARK VINA RESULT:      -4.0     12.751     12.934
REMARK  0 active torsions:
REMARK  status: ('A' for Active; 'I' for Inactive)
ROOT
HETATM    1  C1  UNL     1     -31.864  18.513   0.197  1.00 20.00     0.050 A 
HETATM    2  C2  UNL     1     -32.844  18.877   1.100  1.00 20.00     0.010 A 
HETATM    3  C3  UNL     1     -30.601  18.907   1.941  1.00 20.00     0.168 A 
HETATM    4  C4  UNL     1     -32.161  18.151  -1.216  1.00 20.00     0.060 C 
HETATM    5  C5  UNL     1     -34.307  18.909   0.817  1.00 20.00     0.048 C 
HETATM    6  C6  UNL     1     -33.656  17.843  -1.411  1.00 20.00     0.006 C 
HETATM    7  C7  UNL     1     -34.553  18.873  -0.702  1.00 20.00     0.006 C 
HETATM    8  N8  UNL     1     -30.572  18.536   0.679  1.00 20.00    -0.233 NA
HETATM    9  S9  UNL     1     -32.150  19.248   2.607  1.00 20.00    -0.061 SA
HETATM   10 CL10 UNL     1     -29.193  19.057   2.907  1.00 20.00    -0.054 Cl
ENDROOT
TORSDOF 0
ENDMDL
MODEL 4
REMARK VINA RESULT:      -3.8      2.005      2.649
REMARK  0 active torsions:
REMARK  status: ('A' for Active; 'I' for Inactive)
ROOT
HETATM    1  C1  UNL     1     -33.654   6.997   5.215  1.00 20.00     0.050 A 
HETATM    2  C2  UNL     1     -33.151   6.616   3.986  1.00 20.00     0.010 A 
HETATM    3  C3  UNL     1     -32.457   8.773   4.763  1.00 20.00     0.168 A 
HETATM    4  C4  UNL     1     -34.546   6.126   6.029  1.00 20.00     0.060 C 
HETATM    5  C5  UNL     1     -33.459   5.335   3.288  1.00 20.00     0.048 C 
HETATM    6  C6  UNL     1     -35.140   4.988   5.180  1.00 20.00     0.006 C 
HETATM    7  C7  UNL     1     -34.082   4.331   4.276  1.00 20.00     0.006 C 
HETATM    8  N8  UNL     1     -33.250   8.236   5.665  1.00 20.00    -0.233 NA
HETATM    9  S9  UNL     1     -32.152   7.837   3.352  1.00 20.00    -0.061 SA
HETATM   10 CL10 UNL     1     -31.742  10.321   4.944  1.00 20.00    -0.054 Cl
ENDROOT
TORSDOF 0
ENDMDL
MODEL 5
REMARK VINA RESULT:      -3.8      1.830      2.280
REMARK  0 active torsions:
REMARK  status: ('A' for Active; 'I' for Inactive)
ROOT
HETATM    1  C1  UNL     1     -33.829   6.028   4.555  1.00 20.00     0.050 A 
HETATM    2  C2  UNL     1     -33.057   7.095   4.139  1.00 20.00     0.010 A 
HETATM    3  C3  UNL     1     -33.039   5.181   2.698  1.00 20.00     0.168 A 
HETATM    4  C4  UNL     1     -34.647   6.059   5.800  1.00 20.00     0.060 C 
HETATM    5  C5  UNL     1     -32.891   8.379   4.877  1.00 20.00     0.048 C 
HETATM    6  C6  UNL     1     -34.213   7.209   6.725  1.00 20.00     0.006 C 
HETATM    7  C7  UNL     1     -33.989   8.519   5.948  1.00 20.00     0.006 C 
HETATM    8  N8  UNL     1     -33.824   4.928   3.724  1.00 20.00    -0.233 NA
HETATM    9  S9  UNL     1     -32.282   6.725   2.671  1.00 20.00    -0.061 SA
HETATM   10 CL10 UNL     1     -32.759   4.059   1.432  1.00 20.00    -0.054 Cl
ENDROOT
TORSDOF 0
ENDMDL
MODEL 6
REMARK VINA RESULT:      -3.7     12.388     13.422
REMARK  0 active torsions:
REMARK  status: ('A' for Active; 'I' for Inactive)
ROOT
HETATM    1  C1  UNL     1     -33.857  16.081  -3.916  1.00 20.00     0.050 A 
HETATM    2  C2  UNL     1     -34.086  17.256  -4.605  1.00 20.00     0.010 A 
HETATM    3  C3  UNL     1     -33.153  17.509  -2.413  1.00 20.00     0.168 A 
HETATM    4  C4  UNL     1     -34.138  14.738  -4.492  1.00 20.00     0.060 C 
HETATM    5  C5  UNL     1     -34.680  17.354  -5.969  1.00 20.00     0.048 C 
HETATM    6  C6  UNL     1     -35.058  14.839  -5.721  1.00 20.00     0.006 C 
HETATM    7  C7  UNL     1     -34.636  15.980  -6.664  1.00 20.00     0.006 C 
HETATM    8  N8  UNL     1     -33.315  16.226  -2.656  1.00 20.00    -0.233 NA
HETATM    9  S9  UNL     1     -33.629  18.594  -3.660  1.00 20.00    -0.061 SA
HETATM   10 CL10 UNL     1     -32.506  18.112  -0.944  1.00 20.00    -0.054 Cl
ENDROOT
TORSDOF 0
ENDMDL
MODEL 7
REMARK VINA RESULT:      -3.5      2.110      2.800
REMARK  0 active torsions:
REMARK  status: ('A' for Active; 'I' for Inactive)
ROOT
HETATM    1  C1  UNL     1     -33.060   6.915   4.023  1.00 20.00     0.050 A 
HETATM    2  C2  UNL     1     -33.854   6.105   4.812  1.00 20.00     0.010 A 
HETATM    3  C3  UNL     1     -33.064   5.114   2.779  1.00 20.00     0.168 A 
HETATM    4  C4  UNL     1     -32.686   8.304   4.409  1.00 20.00     0.060 C 
HETATM    5  C5  UNL     1     -34.481   6.507   6.103  1.00 20.00     0.048 C 
HETATM    6  C6  UNL     1     -33.595   8.835   5.531  1.00 20.00     0.006 C 
HETATM    7  C7  UNL     1     -33.813   7.788   6.639  1.00 20.00     0.006 C 
HETATM    8  N8  UNL     1     -32.599   6.343   2.856  1.00 20.00    -0.233 NA
HETATM    9  S9  UNL     1     -34.055   4.583   4.081  1.00 20.00    -0.061 SA
HETATM   10 CL10 UNL     1     -32.722   4.062   1.469  1.00 20.00    -0.054 Cl
ENDROOT
TORSDOF 0
ENDMDL
MODEL 8
REMARK VINA RESULT:      -3.5     12.964     13.785
REMARK  0 active torsions:
REMARK  status: ('A' for Active; 'I' for Inactive)
ROOT
HETATM    1  C1  UNL     1     -35.488  15.577  -5.290  1.00 20.00     0.050 A 
HETATM    2  C2  UNL     1     -35.137  16.875  -4.972  1.00 20.00     0.010 A 
HETATM    3  C3  UNL     1     -37.077  16.637  -6.357  1.00 20.00     0.168 A 
HETATM    4  C4  UNL     1     -34.737  14.392  -4.790  1.00 20.00     0.060 C 
HETATM    5  C5  UNL     1     -33.960  17.273  -4.149  1.00 20.00     0.048 C 
HETATM    6  C6  UNL     1     -33.353  14.793  -4.253  1.00 20.00     0.006 C 
HETATM    7  C7  UNL     1     -33.420  16.056  -3.375  1.00 20.00     0.006 C 
HETATM    8  N8  UNL     1     -36.608  15.439  -6.082  1.00 20.00    -0.233 NA
HETATM    9  S9  UNL     1     -36.221  17.972  -5.689  1.00 20.00    -0.061 SA
HETATM   10 CL10 UNL     1     -38.468  16.901  -7.325  1.00 20.00    -0.054 Cl
ENDROOT
TORSDOF 0
ENDMDL
MODEL 9
REMARK VINA RESULT:      -3.5     12.769     13.718
REMARK  0 active torsions:
REMARK  status: ('A' for Active; 'I' for Inactive)
ROOT
HETATM    1  C1  UNL     1     -34.928  17.305  -4.595  1.00 20.00     0.050 A 
HETATM    2  C2  UNL     1     -34.086  16.255  -4.283  1.00 20.00     0.010 A 
HETATM    3  C3  UNL     1     -35.250  16.060  -6.367  1.00 20.00     0.168 A 
HETATM    4  C4  UNL     1     -35.092  18.498  -3.720  1.00 20.00     0.060 C 
HETATM    5  C5  UNL     1     -33.278  16.140  -3.035  1.00 20.00     0.048 C 
HETATM    6  C6  UNL     1     -34.554  18.230  -2.303  1.00 20.00     0.006 C 
HETATM    7  C7  UNL     1     -33.195  17.508  -2.331  1.00 20.00     0.006 C 
HETATM    8  N8  UNL     1     -35.595  17.196  -5.797  1.00 20.00    -0.233 NA
HETATM    9  S9  UNL     1     -34.125  15.080  -5.511  1.00 20.00    -0.061 SA
HETATM   10 CL10 UNL     1     -35.866  15.546  -7.882  1.00 20.00    -0.054 Cl
ENDROOT
TORSDOF 0
ENDMDL
