MODEL 1
REMARK VINA RESULT:      -4.5      0.000      0.000
REMARK  2 active torsions:
REMARK  status: ('A' for Active; 'I' for Inactive)
REMARK    1  A    between atoms: C2_2  and  C7_7 
REMARK    2  A    between atoms: C3_3  and  C6_6 
ROOT
HETATM    1  C1  UNL     1     -32.642  18.530   0.890  1.00 20.00     0.066 A 
HETATM    2  C2  UNL     1     -32.296  18.532  -0.472  1.00 20.00     0.068 A 
HETATM    3  C3  UNL     1     -31.447  18.718   1.532  1.00 20.00     0.094 A 
HETATM    4  N8  UNL     1     -30.985  18.708  -0.661  1.00 20.00    -0.133 NA
HETATM    5  O9  UNL     1     -30.450  18.825   0.616  1.00 20.00    -0.216 OA
ENDROOT
BRANCH   2   6
HETATM    6  C7  UNL     1     -33.216  18.363  -1.666  1.00 20.00     0.032 C 
HETATM    7  C4  UNL     1     -33.389  16.888  -2.039  1.00 20.00     0.016 C 
HETATM    8  C5  UNL     1     -32.731  19.176  -2.870  1.00 20.00     0.016 C 
ENDBRANCH   2   6
BRANCH   3   9
HETATM    9  C6  UNL     1     -31.054  18.819   2.942  1.00 20.00     0.181 C 
HETATM   10 CL10 UNL     1     -29.298  18.566   3.150  1.00 20.00    -0.123 Cl
ENDBRANCH   3   9
TORSDOF 2
ENDMDL
MODEL 2
REMARK VINA RESULT:      -4.4     11.588     12.358
REMARK  2 active torsions:
REMARK  status: ('A' for Active; 'I' for Inactive)
REMARK    1  A    between atoms: C2_2  and  C7_7 
REMARK    2  A    between atoms: C3_3  and  C6_6 
ROOT
HETATM    1  C1  UNL     1     -32.880   6.633   3.052  1.00 20.00     0.066 A 
HETATM    2  C2  UNL     1     -33.264   6.988   4.357  1.00 20.00     0.068 A 
HETATM    3  C3  UNL     1     -32.432   7.808   2.512  1.00 20.00     0.094 A 
HETATM    4  N8  UNL     1     -33.069   8.285   4.607  1.00 20.00    -0.133 NA
HETATM    5  O9  UNL     1     -32.540   8.803   3.430  1.00 20.00    -0.216 OA
ENDROOT
BRANCH   2   6
HETATM    6  C7  UNL     1     -33.844   6.090   5.434  1.00 20.00     0.032 C 
HETATM    7  C4  UNL     1     -34.938   5.176   4.877  1.00 20.00     0.016 C 
HETATM    8  C5  UNL     1     -34.364   6.902   6.623  1.00 20.00     0.016 C 
ENDBRANCH   2   6
BRANCH   3   9
HETATM    9  C6  UNL     1     -31.888   8.183   1.201  1.00 20.00     0.181 C 
HETATM   10 CL10 UNL     1     -32.764   9.576   0.506  1.00 20.00    -0.123 Cl
ENDBRANCH   3   9
TORSDOF 2
ENDMDL
MODEL 3
REMARK VINA RESULT:      -4.1     12.147     12.898
REMARK  2 active torsions:
REMARK  status: ('A' for Active; 'I' for Inactive)
REMARK    1  A    between atoms: C2_2  and  C7_7 
REMARK    2  A    between atoms: C3_3  and  C6_6 
ROOT
HETATM    1  C1  UNL     1     -33.177   7.759   3.793  1.00 20.00     0.066 A 
HETATM    2  C2  UNL     1     -33.722   6.569   4.304  1.00 20.00     0.068 A 
HETATM    3  C3  UNL     1     -32.570   7.369   2.630  1.00 20.00     0.094 A 
HETATM    4  N8  UNL     1     -33.473   5.519   3.516  1.00 20.00    -0.133 NA
HETATM    5  O9  UNL     1     -32.740   6.033   2.453  1.00 20.00    -0.216 OA
ENDROOT
BRANCH   2   6
HETATM    6  C7  UNL     1     -34.515   6.381   5.584  1.00 20.00     0.032 C 
HETATM    7  C4  UNL     1     -34.037   7.330   6.686  1.00 20.00     0.016 C 
HETATM    8  C5  UNL     1     -34.475   4.927   6.062  1.00 20.00     0.016 C 
ENDBRANCH   2   6
BRANCH   3   9
HETATM    9  C6  UNL     1     -31.811   8.076   1.592  1.00 20.00     0.181 C 
HETATM   10 CL10 UNL     1     -32.752   9.429   0.903  1.00 20.00    -0.123 Cl
ENDBRANCH   3   9
TORSDOF 2
ENDMDL
MODEL 4
REMARK VINA RESULT:      -4.0      3.654      5.122
REMARK  2 active torsions:
REMARK  status: ('A' for Active; 'I' for Inactive)
REMARK    1  A    between atoms: C2_2  and  C7_7 
REMARK    2  A    between atoms: C3_3  and  C6_6 
ROOT
HETATM    1  C1  UNL     1     -33.395  17.150  -2.036  1.00 20.00     0.066 A 
HETATM    2  C2  UNL     1     -32.769  18.361  -1.691  1.00 20.00     0.068 A 
HETATM    3  C3  UNL     1     -33.487  17.208  -3.401  1.00 20.00     0.094 A 
HETATM    4  N8  UNL     1     -32.495  19.112  -2.761  1.00 20.00    -0.133 NA
HETATM    5  O9  UNL     1     -32.953  18.375  -3.846  1.00 20.00    -0.216 OA
ENDROOT
BRANCH   2   6
HETATM    6  C7  UNL     1     -32.404  18.858  -0.305  1.00 20.00     0.032 C 
HETATM    7  C4  UNL     1     -30.980  18.451   0.082  1.00 20.00     0.016 C 
HETATM    8  C5  UNL     1     -33.412  18.384   0.746  1.00 20.00     0.016 C 
ENDBRANCH   2   6
BRANCH   3   9
HETATM    9  C6  UNL     1     -34.025  16.302  -4.423  1.00 20.00     0.181 C 
HETATM   10 CL10 UNL     1     -33.419  14.636  -4.201  1.00 20.00    -0.123 Cl
ENDBRANCH   3   9
TORSDOF 2
ENDMDL
MODEL 5
REMARK VINA RESULT:      -4.0      2.446      4.547
REMARK  2 active torsions:
REMARK  status: ('A' for Active; 'I' for Inactive)
REMARK    1  A    between atoms: C2_2  and  C7_7 
REMARK    2  A    between atoms: C3_3  and  C6_6 
ROOT
HETATM    1  C1  UNL     1     -32.453  18.733   1.341  1.00 20.00     0.066 A 
HETATM    2  C2  UNL     1     -31.082  18.959   1.551  1.00 20.00     0.068 A 
HETATM    3  C3  UNL     1     -32.546  18.512  -0.007  1.00 20.00     0.094 A 
HETATM    4  N8  UNL     1     -30.377  18.885   0.419  1.00 20.00    -0.133 NA
HETATM    5  O9  UNL     1     -31.312  18.600  -0.569  1.00 20.00    -0.216 OA
ENDROOT
BRANCH   2   6
HETATM    6  C7  UNL     1     -30.378  19.263   2.861  1.00 20.00     0.032 C 
HETATM    7  C4  UNL     1     -29.055  18.504   2.977  1.00 20.00     0.016 C 
HETATM    8  C5  UNL     1     -31.281  18.975   4.064  1.00 20.00     0.016 C 
ENDBRANCH   2   6
BRANCH   3   9
HETATM    9  C6  UNL     1     -33.660  18.216  -0.915  1.00 20.00     0.181 C 
HETATM   10 CL10 UNL     1     -33.291  16.819  -1.966  1.00 20.00    -0.123 Cl
ENDBRANCH   3   9
TORSDOF 2
ENDMDL
MODEL 6
REMARK VINA RESULT:      -3.8      2.809      3.879
REMARK  2 active torsions:
REMARK  status: ('A' for Active; 'I' for Inactive)
REMARK    1  A    between atoms: C2_2  and  C7_7 
REMARK    2  A    between atoms: C3_3  and  C6_6 
ROOT
HETATM    1  C1  UNL     1     -33.471  16.723  -2.155  1.00 20.00     0.066 A 
HETATM    2  C2  UNL     1     -33.535  16.970  -3.537  1.00 20.00     0.068 A 
HETATM    3  C3  UNL     1     -33.024  17.907  -1.632  1.00 20.00     0.094 A 
HETATM    4  N8  UNL     1     -33.157  18.213  -3.848  1.00 20.00    -0.133 NA
HETATM    5  O9  UNL     1     -32.833  18.805  -2.634  1.00 20.00    -0.216 OA
ENDROOT
BRANCH   2   6
HETATM    6  C7  UNL     1     -33.965  16.014  -4.635  1.00 20.00     0.032 C 
HETATM    7  C4  UNL     1     -35.331  16.395  -5.210  1.00 20.00     0.016 C 
HETATM    8  C5  UNL     1     -33.964  14.562  -4.148  1.00 20.00     0.016 C 
ENDBRANCH   2   6
BRANCH   3   9
HETATM    9  C6  UNL     1     -32.726  18.370  -0.272  1.00 20.00     0.181 C 
HETATM   10 CL10 UNL     1     -30.965  18.457   0.016  1.00 20.00    -0.123 Cl
ENDBRANCH   3   9
TORSDOF 2
ENDMDL
MODEL 7
REMARK VINA RESULT:      -3.7      4.237      5.452
REMARK  2 active torsions:
REMARK  status: ('A' for Active; 'I' for Inactive)
REMARK    1  A    between atoms: C2_2  and  C7_7 
REMARK    2  A    between atoms: C3_3  and  C6_6 
ROOT
HETATM    1  C1  UNL     1     -33.263  15.935  -3.472  1.00 20.00     0.066 A 
HETATM    2  C2  UNL     1     -34.166  16.003  -4.546  1.00 20.00     0.068 A 
HETATM    3  C3  UNL     1     -33.392  17.152  -2.858  1.00 20.00     0.094 A 
HETATM    4  N8  UNL     1     -34.807  17.175  -4.596  1.00 20.00    -0.133 NA
HETATM    5  O9  UNL     1     -34.311  17.902  -3.521  1.00 20.00    -0.216 OA
ENDROOT
BRANCH   2   6
HETATM    6  C7  UNL     1     -34.458  14.938  -5.587  1.00 20.00     0.032 C 
HETATM    7  C4  UNL     1     -34.120  15.422  -6.998  1.00 20.00     0.016 C 
HETATM    8  C5  UNL     1     -35.910  14.458  -5.508  1.00 20.00     0.016 C 
ENDBRANCH   2   6
BRANCH   3   9
HETATM    9  C6  UNL     1     -32.762  17.773  -1.687  1.00 20.00     0.181 C 
HETATM   10 CL10 UNL     1     -33.855  17.756  -0.274  1.00 20.00    -0.123 Cl
ENDBRANCH   3   9
TORSDOF 2
ENDMDL
MODEL 8
REMARK VINA RESULT:      -3.6      3.058      3.950
REMARK  2 active torsions:
REMARK  status: ('A' for Active; 'I' for Inactive)
REMARK    1  A    between atoms: C2_2  and  C7_7 
REMARK    2  A    between atoms: C3_3  and  C6_6 
ROOT
HETATM    1  C1  UNL     1     -33.263  16.800  -2.192  1.00 20.00     0.066 A 
HETATM    2  C2  UNL     1     -33.638  16.939  -3.539  1.00 20.00     0.068 A 
HETATM    3  C3  UNL     1     -32.696  18.008  -1.884  1.00 20.00     0.094 A 
HETATM    4  N8  UNL     1     -33.327  18.141  -4.030  1.00 20.00    -0.133 NA
HETATM    5  O9  UNL     1     -32.728  18.817  -2.974  1.00 20.00    -0.216 OA
ENDROOT
BRANCH   2   6
HETATM    6  C7  UNL     1     -34.318  15.912  -4.426  1.00 20.00     0.032 C 
HETATM    7  C4  UNL     1     -33.557  14.584  -4.436  1.00 20.00     0.016 C 
HETATM    8  C5  UNL     1     -34.511  16.441  -5.850  1.00 20.00     0.016 C 
ENDBRANCH   2   6
BRANCH   3   9
HETATM    9  C6  UNL     1     -32.090  18.567  -0.670  1.00 20.00     0.181 C 
HETATM   10 CL10 UNL     1     -33.166  18.377   0.743  1.00 20.00    -0.123 Cl
ENDBRANCH   3   9
TORSDOF 2
ENDMDL
MODEL 9
REMARK VINA RESULT:      -3.6     11.979     12.327
REMARK  2 active torsions:
REMARK  status: ('A' for Active; 'I' for Inactive)
REMARK    1  A    between atoms: C2_2  and  C7_7 
REMARK    2  A    between atoms: C3_3  and  C6_6 
ROOT
HETATM    1  C1  UNL     1     -40.982  13.604   5.767  1.00 20.00     0.066 A 
HETATM    2  C2  UNL     1     -41.003  14.370   6.945  1.00 20.00     0.068 A 
HETATM    3  C3  UNL     1     -40.189  12.534   6.087  1.00 20.00     0.094 A 
HETATM    4  N8  UNL     1     -40.277  13.818   7.922  1.00 20.00    -0.133 NA
HETATM    5  O9  UNL     1     -39.762  12.650   7.371  1.00 20.00    -0.216 OA
ENDROOT
BRANCH   2   6
HETATM    6  C7  UNL     1     -41.726  15.682   7.190  1.00 20.00     0.032 C 
HETATM    7  C4  UNL     1     -42.495  16.140   5.949  1.00 20.00     0.016 C 
HETATM    8  C5  UNL     1     -40.764  16.772   7.670  1.00 20.00     0.016 C 
ENDBRANCH   2   6
BRANCH   3   9
HETATM    9  C6  UNL     1     -39.734  11.349   5.350  1.00 20.00     0.181 C 
HETATM   10 CL10 UNL     1     -38.996  11.798   3.786  1.00 20.00    -0.123 Cl
ENDBRANCH   3   9
TORSDOF 2
ENDMDL
