MODEL 1
REMARK VINA RESULT:      -3.7      0.000      0.000
REMARK  0 active torsions:
REMARK  status: ('A' for Active; 'I' for Inactive)
ROOT
HETATM    1  C1  UNL     1     -35.725  14.502  -5.114  1.00 20.00     0.135 C 
HETATM    2  C2  UNL     1     -36.106  15.579  -7.295  1.00 20.00     0.017 C 
HETATM    3  C3  UNL     1     -33.778  15.054  -6.516  1.00 20.00     0.017 C 
HETATM    4  C4  UNL     1     -36.546  16.822  -5.146  1.00 20.00     0.037 C 
HETATM    5  C5  UNL     1     -34.214  16.296  -4.366  1.00 20.00     0.037 C 
HETATM    6  C6  UNL     1     -34.570  17.439  -6.582  1.00 20.00     0.030 C 
HETATM    7  C7  UNL     1     -36.635  15.466  -5.859  1.00 20.00     0.058 C 
HETATM    8  C8  UNL     1     -34.266  14.931  -5.067  1.00 20.00     0.058 C 
HETATM    9  C9  UNL     1     -34.645  16.072  -7.285  1.00 20.00    -0.011 C 
HETATM   10  C10 UNL     1     -35.083  17.317  -5.134  1.00 20.00     0.039 C 
HETATM   11  O11 UNL     1     -36.132  13.466  -4.596  1.00 20.00    -0.297 OA
HETATM   12 CL12 UNL     1     -34.994  18.908  -4.325  1.00 20.00    -0.119 Cl
ENDROOT
TORSDOF 0
ENDMDL
MODEL 2
REMARK VINA RESULT:      -3.7      1.116      2.397
REMARK  0 active torsions:
REMARK  status: ('A' for Active; 'I' for Inactive)
ROOT
HETATM    1  C1  UNL     1     -35.746  14.925  -6.981  1.00 20.00     0.135 C 
HETATM    2  C2  UNL     1     -33.428  14.970  -6.152  1.00 20.00     0.017 C 
HETATM    3  C3  UNL     1     -35.317  14.314  -4.635  1.00 20.00     0.017 C 
HETATM    4  C4  UNL     1     -34.633  17.107  -6.731  1.00 20.00     0.037 C 
HETATM    5  C5  UNL     1     -36.526  16.450  -5.212  1.00 20.00     0.037 C 
HETATM    6  C6  UNL     1     -34.170  16.529  -4.324  1.00 20.00     0.030 C 
HETATM    7  C7  UNL     1     -34.411  15.639  -7.121  1.00 20.00     0.058 C 
HETATM    8  C8  UNL     1     -36.333  14.971  -5.578  1.00 20.00     0.058 C 
HETATM    9  C9  UNL     1     -33.966  15.053  -4.709  1.00 20.00    -0.011 C 
HETATM   10  C10 UNL     1     -35.174  17.192  -5.287  1.00 20.00     0.039 C 
HETATM   11  O11 UNL     1     -36.302  14.360  -7.918  1.00 20.00    -0.297 OA
HETATM   12 CL12 UNL     1     -35.404  18.906  -4.833  1.00 20.00    -0.119 Cl
ENDROOT
TORSDOF 0
ENDMDL
MODEL 3
REMARK VINA RESULT:      -3.6      1.430      2.613
REMARK  0 active torsions:
REMARK  status: ('A' for Active; 'I' for Inactive)
ROOT
HETATM    1  C1  UNL     1     -34.196  15.512  -7.097  1.00 20.00     0.135 C 
HETATM    2  C2  UNL     1     -36.018  14.756  -5.625  1.00 20.00     0.017 C 
HETATM    3  C3  UNL     1     -36.442  16.471  -7.407  1.00 20.00     0.017 C 
HETATM    4  C4  UNL     1     -34.127  16.158  -4.723  1.00 20.00     0.037 C 
HETATM    5  C5  UNL     1     -34.552  17.876  -6.508  1.00 20.00     0.037 C 
HETATM    6  C6  UNL     1     -36.425  17.154  -4.987  1.00 20.00     0.030 C 
HETATM    7  C7  UNL     1     -34.510  15.029  -5.690  1.00 20.00     0.058 C 
HETATM    8  C8  UNL     1     -34.942  16.775  -7.504  1.00 20.00     0.058 C 
HETATM    9  C9  UNL     1     -36.805  16.035  -5.972  1.00 20.00    -0.011 C 
HETATM   10  C10 UNL     1     -34.913  17.440  -5.071  1.00 20.00     0.039 C 
HETATM   11  O11 UNL     1     -33.410  14.934  -7.842  1.00 20.00    -0.297 OA
HETATM   12 CL12 UNL     1     -34.480  18.741  -3.923  1.00 20.00    -0.119 Cl
ENDROOT
TORSDOF 0
ENDMDL
MODEL 4
REMARK VINA RESULT:      -3.6     13.266     14.302
REMARK  0 active torsions:
REMARK  status: ('A' for Active; 'I' for Inactive)
ROOT
HETATM    1  C1  UNL     1     -41.751  13.768   8.290  1.00 20.00     0.135 C 
HETATM    2  C2  UNL     1     -41.582  15.663   6.728  1.00 20.00     0.017 C 
HETATM    3  C3  UNL     1     -43.417  13.968   6.490  1.00 20.00     0.017 C 
HETATM    4  C4  UNL     1     -39.869  13.814   6.704  1.00 20.00     0.037 C 
HETATM    5  C5  UNL     1     -41.707  12.116   6.465  1.00 20.00     0.037 C 
HETATM    6  C6  UNL     1     -41.534  14.019   4.825  1.00 20.00     0.030 C 
HETATM    7  C7  UNL     1     -40.766  14.690   7.589  1.00 20.00     0.058 C 
HETATM    8  C8  UNL     1     -42.634  12.965   7.346  1.00 20.00     0.058 C 
HETATM    9  C9  UNL     1     -42.445  14.882   5.717  1.00 20.00    -0.011 C 
HETATM   10  C10 UNL     1     -40.732  13.029   5.692  1.00 20.00     0.039 C 
HETATM   11  O11 UNL     1     -41.827  13.679   9.512  1.00 20.00    -0.297 OA
HETATM   12 CL12 UNL     1     -39.676  12.032   4.649  1.00 20.00    -0.119 Cl
ENDROOT
TORSDOF 0
ENDMDL
MODEL 5
REMARK VINA RESULT:      -3.6     24.936     26.188
REMARK  0 active torsions:
REMARK  status: ('A' for Active; 'I' for Inactive)
ROOT
HETATM    1  C1  UNL     1     -26.079  -2.517  10.357  1.00 20.00     0.135 C 
HETATM    2  C2  UNL     1     -27.647  -0.625  10.201  1.00 20.00     0.017 C 
HETATM    3  C3  UNL     1     -26.398  -1.079  12.330  1.00 20.00     0.017 C 
HETATM    4  C4  UNL     1     -28.486  -3.002  10.185  1.00 20.00     0.037 C 
HETATM    5  C5  UNL     1     -27.236  -3.457  12.318  1.00 20.00     0.037 C 
HETATM    6  C6  UNL     1     -28.866  -1.541  12.201  1.00 20.00     0.030 C 
HETATM    7  C7  UNL     1     -27.376  -2.054   9.713  1.00 20.00     0.058 C 
HETATM    8  C8  UNL     1     -26.105  -2.516  11.879  1.00 20.00     0.058 C 
HETATM    9  C9  UNL     1     -27.739  -0.599  11.740  1.00 20.00    -0.011 C 
HETATM   10  C10 UNL     1     -28.579  -2.979  11.726  1.00 20.00     0.039 C 
HETATM   11  O11 UNL     1     -25.097  -2.862   9.708  1.00 20.00    -0.297 OA
HETATM   12 CL12 UNL     1     -29.893  -4.065  12.266  1.00 20.00    -0.119 Cl
ENDROOT
TORSDOF 0
ENDMDL
MODEL 6
REMARK VINA RESULT:      -3.5     13.363     14.429
REMARK  0 active torsions:
REMARK  status: ('A' for Active; 'I' for Inactive)
ROOT
HETATM    1  C1  UNL     1     -41.365  13.693   5.246  1.00 20.00     0.135 C 
HETATM    2  C2  UNL     1     -42.485  12.243   6.890  1.00 20.00     0.017 C 
HETATM    3  C3  UNL     1     -43.417  14.507   6.337  1.00 20.00     0.017 C 
HETATM    4  C4  UNL     1     -40.249  13.286   7.402  1.00 20.00     0.037 C 
HETATM    5  C5  UNL     1     -41.181  15.554   6.849  1.00 20.00     0.037 C 
HETATM    6  C6  UNL     1     -42.324  14.110   8.566  1.00 20.00     0.030 C 
HETATM    7  C7  UNL     1     -41.120  12.641   6.315  1.00 20.00     0.058 C 
HETATM    8  C8  UNL     1     -42.068  14.945   5.753  1.00 20.00     0.058 C 
HETATM    9  C9  UNL     1     -43.200  13.481   7.468  1.00 20.00    -0.011 C 
HETATM   10  C10 UNL     1     -40.961  14.527   7.981  1.00 20.00     0.039 C 
HETATM   11  O11 UNL     1     -41.027  13.548   4.076  1.00 20.00    -0.297 OA
HETATM   12 CL12 UNL     1     -39.952  15.256   9.264  1.00 20.00    -0.119 Cl
ENDROOT
TORSDOF 0
ENDMDL
MODEL 7
REMARK VINA RESULT:      -3.5      1.630      2.189
REMARK  0 active torsions:
REMARK  status: ('A' for Active; 'I' for Inactive)
ROOT
HETATM    1  C1  UNL     1     -35.786  15.127  -7.238  1.00 20.00     0.135 C 
HETATM    2  C2  UNL     1     -36.453  17.404  -6.586  1.00 20.00     0.017 C 
HETATM    3  C3  UNL     1     -34.267  16.996  -7.749  1.00 20.00     0.017 C 
HETATM    4  C4  UNL     1     -35.848  15.687  -4.843  1.00 20.00     0.037 C 
HETATM    5  C5  UNL     1     -33.658  15.278  -6.007  1.00 20.00     0.037 C 
HETATM    6  C6  UNL     1     -34.295  17.613  -5.312  1.00 20.00     0.030 C 
HETATM    7  C7  UNL     1     -36.544  15.925  -6.190  1.00 20.00     0.058 C 
HETATM    8  C8  UNL     1     -34.319  15.510  -7.374  1.00 20.00     0.058 C 
HETATM    9  C9  UNL     1     -34.977  17.842  -6.672  1.00 20.00    -0.011 C 
HETATM   10  C10 UNL     1     -34.369  16.123  -4.928  1.00 20.00     0.039 C 
HETATM   11  O11 UNL     1     -36.310  14.249  -7.918  1.00 20.00    -0.297 OA
HETATM   12 CL12 UNL     1     -33.576  15.866  -3.346  1.00 20.00    -0.119 Cl
ENDROOT
TORSDOF 0
ENDMDL
MODEL 8
REMARK VINA RESULT:      -3.5     24.842     26.132
REMARK  0 active torsions:
REMARK  status: ('A' for Active; 'I' for Inactive)
ROOT
HETATM    1  C1  UNL     1     -27.589  -0.682  10.360  1.00 20.00     0.135 C 
HETATM    2  C2  UNL     1     -28.622  -2.910  10.198  1.00 20.00     0.017 C 
HETATM    3  C3  UNL     1     -28.757  -1.590  12.328  1.00 20.00     0.017 C 
HETATM    4  C4  UNL     1     -26.115  -2.646  10.190  1.00 20.00     0.037 C 
HETATM    5  C5  UNL     1     -26.250  -1.323  12.324  1.00 20.00     0.037 C 
HETATM    6  C6  UNL     1     -27.278  -3.619  12.201  1.00 20.00     0.030 C 
HETATM    7  C7  UNL     1     -27.447  -2.050   9.714  1.00 20.00     0.058 C 
HETATM    8  C8  UNL     1     -27.584  -0.707  11.882  1.00 20.00     0.058 C 
HETATM    9  C9  UNL     1     -28.611  -3.007  11.737  1.00 20.00    -0.011 C 
HETATM   10  C10 UNL     1     -26.101  -2.742  11.731  1.00 20.00     0.039 C 
HETATM   11  O11 UNL     1     -27.698   0.355   9.711  1.00 20.00    -0.297 OA
HETATM   12 CL12 UNL     1     -24.557  -3.460  12.275  1.00 20.00    -0.119 Cl
ENDROOT
TORSDOF 0
ENDMDL
MODEL 9
REMARK VINA RESULT:      -3.4     13.681     14.571
REMARK  0 active torsions:
REMARK  status: ('A' for Active; 'I' for Inactive)
ROOT
HETATM    1  C1  UNL     1     -41.547  13.821   8.731  1.00 20.00     0.135 C 
HETATM    2  C2  UNL     1     -42.564  12.513   6.910  1.00 20.00     0.017 C 
HETATM    3  C3  UNL     1     -40.174  13.264   6.765  1.00 20.00     0.017 C 
HETATM    4  C4  UNL     1     -43.285  14.888   7.352  1.00 20.00     0.037 C 
HETATM    5  C5  UNL     1     -40.891  15.640   7.207  1.00 20.00     0.037 C 
HETATM    6  C6  UNL     1     -41.917  14.341   5.309  1.00 20.00     0.030 C 
HETATM    7  C7  UNL     1     -42.851  13.562   7.992  1.00 20.00     0.058 C 
HETATM    8  C8  UNL     1     -40.418  14.326   7.844  1.00 20.00     0.058 C 
HETATM    9  C9  UNL     1     -41.464  13.021   5.956  1.00 20.00    -0.011 C 
HETATM   10  C10 UNL     1     -42.184  15.399   6.398  1.00 20.00     0.039 C 
HETATM   11  O11 UNL     1     -41.416  13.638   9.938  1.00 20.00    -0.297 OA
HETATM   12 CL12 UNL     1     -42.710  16.929   5.638  1.00 20.00    -0.119 Cl
ENDROOT
TORSDOF 0
ENDMDL
