MODEL 1
REMARK VINA RESULT:      -5.0      0.000      0.000
REMARK  1 active torsions:
REMARK  status: ('A' for Active; 'I' for Inactive)
REMARK    1  A    between atoms: C3_3  and  C8_8 
ROOT
HETATM    1  C1  UNL     1     -33.690   4.636   5.330  1.00 20.00    -0.026 C 
HETATM    2  C2  UNL     1     -33.575   5.030   4.054  1.00 20.00    -0.025 C 
HETATM    3  C4  UNL     1     -35.656   5.720   4.777  1.00 20.00     0.018 C 
HETATM    4  C5  UNL     1     -34.112   6.938   6.121  1.00 20.00     0.022 C 
HETATM    5  C6  UNL     1     -34.724   5.526   5.979  1.00 20.00     0.009 C 
HETATM    6  C7  UNL     1     -34.526   6.189   3.854  1.00 20.00     0.021 C 
HETATM    7  C8  UNL     1     -34.012   7.417   4.644  1.00 20.00     0.080 C 
ENDROOT
BRANCH   7   8
HETATM    8  C3  UNL     1     -32.628   7.839   4.257  1.00 20.00     0.223 C 
HETATM    9  O9  UNL     1     -31.892   8.429   5.041  1.00 20.00    -0.279 OA
HETATM   10 CL10 UNL     1     -32.241   7.391   2.623  1.00 20.00    -0.043 Cl
ENDBRANCH   7   8
TORSDOF 1
ENDMDL
MODEL 2
REMARK VINA RESULT:      -4.1      9.689     10.353
REMARK  1 active torsions:
REMARK  status: ('A' for Active; 'I' for Inactive)
REMARK    1  A    between atoms: C3_3  and  C8_8 
ROOT
HETATM    1  C1  UNL     1     -42.615  12.979   7.949  1.00 20.00    -0.026 C 
HETATM    2  C2  UNL     1     -42.516  12.453   6.720  1.00 20.00    -0.025 C 
HETATM    3  C4  UNL     1     -42.478  14.747   6.466  1.00 20.00     0.018 C 
HETATM    4  C5  UNL     1     -40.507  14.241   7.703  1.00 20.00     0.022 C 
HETATM    5  C6  UNL     1     -42.036  14.372   7.885  1.00 20.00     0.009 C 
HETATM    6  C7  UNL     1     -41.860  13.492   5.838  1.00 20.00     0.021 C 
HETATM    7  C8  UNL     1     -40.382  13.668   6.262  1.00 20.00     0.080 C 
ENDROOT
BRANCH   7   8
HETATM    8  C3  UNL     1     -39.591  12.398   6.203  1.00 20.00     0.223 C 
HETATM    9  O9  UNL     1     -39.048  11.930   7.199  1.00 20.00    -0.279 OA
HETATM   10 CL10 UNL     1     -39.557  11.721   4.603  1.00 20.00    -0.043 Cl
ENDBRANCH   7   8
TORSDOF 1
ENDMDL
MODEL 3
REMARK VINA RESULT:      -4.0      2.130      3.485
REMARK  1 active torsions:
REMARK  status: ('A' for Active; 'I' for Inactive)
REMARK    1  A    between atoms: C3_3  and  C8_8 
ROOT
HETATM    1  C1  UNL     1     -31.460   7.919   4.196  1.00 20.00    -0.026 C 
HETATM    2  C2  UNL     1     -32.319   8.578   4.987  1.00 20.00    -0.025 C 
HETATM    3  C4  UNL     1     -33.240   8.568   2.871  1.00 20.00     0.018 C 
HETATM    4  C5  UNL     1     -33.172   6.275   3.512  1.00 20.00     0.022 C 
HETATM    5  C6  UNL     1     -32.247   7.408   3.012  1.00 20.00     0.009 C 
HETATM    6  C7  UNL     1     -33.682   8.496   4.337  1.00 20.00     0.021 C 
HETATM    7  C8  UNL     1     -34.196   7.038   4.401  1.00 20.00     0.080 C 
ENDROOT
BRANCH   7   8
HETATM    8  C3  UNL     1     -34.280   6.497   5.795  1.00 20.00     0.223 C 
HETATM    9  O9  UNL     1     -34.302   7.237   6.774  1.00 20.00    -0.279 OA
HETATM   10 CL10 UNL     1     -34.340   4.760   5.820  1.00 20.00    -0.043 Cl
ENDBRANCH   7   8
TORSDOF 1
ENDMDL
MODEL 4
REMARK VINA RESULT:      -3.9      1.446      2.246
REMARK  1 active torsions:
REMARK  status: ('A' for Active; 'I' for Inactive)
REMARK    1  A    between atoms: C3_3  and  C8_8 
ROOT
HETATM    1  C1  UNL     1     -35.654   6.088   4.290  1.00 20.00    -0.026 C 
HETATM    2  C2  UNL     1     -35.164   7.185   4.887  1.00 20.00    -0.025 C 
HETATM    3  C4  UNL     1     -34.334   5.369   6.046  1.00 20.00     0.018 C 
HETATM    4  C5  UNL     1     -33.400   5.173   3.864  1.00 20.00     0.022 C 
HETATM    5  C6  UNL     1     -34.726   4.946   4.626  1.00 20.00     0.009 C 
HETATM    6  C7  UNL     1     -33.902   6.774   5.613  1.00 20.00     0.021 C 
HETATM    7  C8  UNL     1     -32.806   6.421   4.578  1.00 20.00     0.080 C 
ENDROOT
BRANCH   7   8
HETATM    8  C3  UNL     1     -32.493   7.542   3.635  1.00 20.00     0.223 C 
HETATM    9  O9  UNL     1     -32.378   7.355   2.428  1.00 20.00    -0.279 OA
HETATM   10 CL10 UNL     1     -32.326   9.063   4.459  1.00 20.00    -0.043 Cl
ENDBRANCH   7   8
TORSDOF 1
ENDMDL
MODEL 5
REMARK VINA RESULT:      -3.9      2.008      2.939
REMARK  1 active torsions:
REMARK  status: ('A' for Active; 'I' for Inactive)
REMARK    1  A    between atoms: C3_3  and  C8_8 
ROOT
HETATM    1  C1  UNL     1     -33.106   7.194   6.413  1.00 20.00    -0.026 C 
HETATM    2  C2  UNL     1     -34.226   6.475   6.252  1.00 20.00    -0.025 C 
HETATM    3  C4  UNL     1     -34.497   8.409   5.023  1.00 20.00     0.018 C 
HETATM    4  C5  UNL     1     -32.676   7.280   3.982  1.00 20.00     0.022 C 
HETATM    5  C6  UNL     1     -33.004   8.130   5.231  1.00 20.00     0.009 C 
HETATM    6  C7  UNL     1     -34.866   6.923   4.957  1.00 20.00     0.021 C 
HETATM    7  C8  UNL     1     -33.987   6.470   3.766  1.00 20.00     0.080 C 
ENDROOT
BRANCH   7   8
HETATM    8  C3  UNL     1     -33.760   4.991   3.720  1.00 20.00     0.223 C 
HETATM    9  O9  UNL     1     -34.292   4.232   4.526  1.00 20.00    -0.279 OA
HETATM   10 CL10 UNL     1     -32.693   4.531   2.429  1.00 20.00    -0.043 Cl
ENDBRANCH   7   8
TORSDOF 1
ENDMDL
MODEL 6
REMARK VINA RESULT:      -3.8      9.521     10.313
REMARK  1 active torsions:
REMARK  status: ('A' for Active; 'I' for Inactive)
REMARK    1  A    between atoms: C3_3  and  C8_8 
ROOT
HETATM    1  C1  UNL     1     -41.132  15.185   6.763  1.00 20.00    -0.026 C 
HETATM    2  C2  UNL     1     -40.860  14.232   7.666  1.00 20.00    -0.025 C 
HETATM    3  C4  UNL     1     -42.895  13.691   6.722  1.00 20.00     0.018 C 
HETATM    4  C5  UNL     1     -41.338  13.547   4.927  1.00 20.00     0.022 C 
HETATM    5  C6  UNL     1     -42.103  14.593   5.770  1.00 20.00     0.009 C 
HETATM    6  C7  UNL     1     -41.641  13.000   7.268  1.00 20.00     0.021 C 
HETATM    7  C8  UNL     1     -41.052  12.419   5.959  1.00 20.00     0.080 C 
ENDROOT
BRANCH   7   8
HETATM    8  C3  UNL     1     -39.599  12.073   6.062  1.00 20.00     0.223 C 
HETATM    9  O9  UNL     1     -39.045  11.932   7.147  1.00 20.00    -0.279 OA
HETATM   10 CL10 UNL     1     -38.854  11.906   4.501  1.00 20.00    -0.043 Cl
ENDBRANCH   7   8
TORSDOF 1
ENDMDL
MODEL 7
REMARK VINA RESULT:      -3.8     13.080     14.321
REMARK  1 active torsions:
REMARK  status: ('A' for Active; 'I' for Inactive)
REMARK    1  A    between atoms: C3_3  and  C8_8 
ROOT
HETATM    1  C1  UNL     1     -34.995  17.474  -5.611  1.00 20.00    -0.026 C 
HETATM    2  C2  UNL     1     -36.114  16.898  -5.147  1.00 20.00    -0.025 C 
HETATM    3  C4  UNL     1     -36.138  16.645  -7.442  1.00 20.00     0.018 C 
HETATM    4  C5  UNL     1     -34.247  15.395  -6.714  1.00 20.00     0.022 C 
HETATM    5  C6  UNL     1     -34.700  16.853  -6.956  1.00 20.00     0.009 C 
HETATM    6  C7  UNL     1     -36.558  15.885  -6.179  1.00 20.00     0.021 C 
HETATM    7  C8  UNL     1     -35.551  14.710  -6.213  1.00 20.00     0.080 C 
ENDROOT
BRANCH   7   8
HETATM    8  C3  UNL     1     -35.384  14.030  -4.889  1.00 20.00     0.223 C 
HETATM    9  O9  UNL     1     -36.245  13.282  -4.436  1.00 20.00    -0.279 OA
HETATM   10 CL10 UNL     1     -33.872  14.431  -4.133  1.00 20.00    -0.043 Cl
ENDBRANCH   7   8
TORSDOF 1
ENDMDL
MODEL 8
REMARK VINA RESULT:      -3.7     12.625     13.775
REMARK  1 active torsions:
REMARK  status: ('A' for Active; 'I' for Inactive)
REMARK    1  A    between atoms: C3_3  and  C8_8 
ROOT
HETATM    1  C1  UNL     1     -36.880  15.553  -5.365  1.00 20.00    -0.026 C 
HETATM    2  C2  UNL     1     -36.079  14.507  -5.616  1.00 20.00    -0.025 C 
HETATM    3  C4  UNL     1     -35.584  16.118  -7.194  1.00 20.00     0.018 C 
HETATM    4  C5  UNL     1     -34.971  17.100  -5.114  1.00 20.00     0.022 C 
HETATM    5  C6  UNL     1     -36.219  16.773  -5.963  1.00 20.00     0.009 C 
HETATM    6  C7  UNL     1     -34.879  15.032  -6.373  1.00 20.00     0.021 C 
HETATM    7  C8  UNL     1     -34.020  15.910  -5.431  1.00 20.00     0.080 C 
ENDROOT
BRANCH   7   8
HETATM    8  C3  UNL     1     -33.555  15.188  -4.204  1.00 20.00     0.223 C 
HETATM    9  O9  UNL     1     -33.266  13.996  -4.228  1.00 20.00    -0.279 OA
HETATM   10 CL10 UNL     1     -33.488  16.232  -2.816  1.00 20.00    -0.043 Cl
ENDBRANCH   7   8
TORSDOF 1
ENDMDL
MODEL 9
REMARK VINA RESULT:      -3.7     10.162     10.942
REMARK  1 active torsions:
REMARK  status: ('A' for Active; 'I' for Inactive)
REMARK    1  A    between atoms: C3_3  and  C8_8 
ROOT
HETATM    1  C1  UNL     1     -41.614  15.709   6.972  1.00 20.00    -0.026 C 
HETATM    2  C2  UNL     1     -40.434  15.111   7.188  1.00 20.00    -0.025 C 
HETATM    3  C4  UNL     1     -41.995  13.979   8.457  1.00 20.00     0.018 C 
HETATM    4  C5  UNL     1     -42.666  13.611   6.202  1.00 20.00     0.022 C 
HETATM    5  C6  UNL     1     -42.691  14.701   7.297  1.00 20.00     0.009 C 
HETATM    6  C7  UNL     1     -40.724  13.699   7.648  1.00 20.00     0.021 C 
HETATM    7  C8  UNL     1     -41.316  12.886   6.471  1.00 20.00     0.080 C 
ENDROOT
BRANCH   7   8
HETATM    8  C3  UNL     1     -40.424  12.842   5.269  1.00 20.00     0.223 C 
HETATM    9  O9  UNL     1     -40.793  13.264   4.177  1.00 20.00    -0.279 OA
HETATM   10 CL10 UNL     1     -38.874  12.145   5.629  1.00 20.00    -0.043 Cl
ENDBRANCH   7   8
TORSDOF 1
ENDMDL
