MODEL 1
REMARK VINA RESULT:      -4.7      0.000      0.000
REMARK  3 active torsions:
REMARK  status: ('A' for Active; 'I' for Inactive)
REMARK    1  A    between atoms: C2_2  and  O6_6 
REMARK    2  A    between atoms: C3_3  and  C4_4 
REMARK    3  A    between atoms: C3_3  and  O6_6 
ROOT
HETATM    1  C1  UNL     1     -34.487   5.399   5.482  1.00 20.00     0.085 C 
HETATM    2  C2  UNL     1     -34.326   6.532   6.394  1.00 20.00     0.291 C 
HETATM    3  N5  UNL     1     -34.615   4.501   4.759  1.00 20.00    -0.195 NA
ENDROOT
BRANCH   2   4
HETATM    4  O6  UNL     1     -33.304   7.402   5.930  1.00 20.00    -0.369 OA
BRANCH   4   5
HETATM    5  C3  UNL     1     -33.676   8.048   4.721  1.00 20.00     0.286 C 
BRANCH   5   6
HETATM    6  C4  UNL     1     -32.517   8.002   3.760  1.00 20.00     0.408 C 
HETATM    7  F7  UNL     1     -31.360   8.283   4.396  1.00 20.00    -0.169 F 
HETATM    8  F8  UNL     1     -32.670   8.900   2.764  1.00 20.00    -0.169 F 
HETATM    9  F9  UNL     1     -32.391   6.778   3.204  1.00 20.00    -0.169 F 
ENDBRANCH   5   6
ENDBRANCH   4   5
ENDBRANCH   2   4
TORSDOF 3
ENDMDL
MODEL 2
REMARK VINA RESULT:      -4.7      0.049      1.245
REMARK  3 active torsions:
REMARK  status: ('A' for Active; 'I' for Inactive)
REMARK    1  A    between atoms: C2_2  and  O6_6 
REMARK    2  A    between atoms: C3_3  and  C4_4 
REMARK    3  A    between atoms: C3_3  and  O6_6 
ROOT
HETATM    1  C1  UNL     1     -34.468   5.380   5.445  1.00 20.00     0.085 C 
HETATM    2  C2  UNL     1     -34.331   6.503   6.374  1.00 20.00     0.291 C 
HETATM    3  N5  UNL     1     -34.576   4.490   4.710  1.00 20.00    -0.195 NA
ENDROOT
BRANCH   2   4
HETATM    4  O6  UNL     1     -33.306   7.384   5.939  1.00 20.00    -0.369 OA
BRANCH   4   5
HETATM    5  C3  UNL     1     -33.674   8.068   4.750  1.00 20.00     0.286 C 
BRANCH   5   6
HETATM    6  C4  UNL     1     -32.526   8.018   3.775  1.00 20.00     0.408 C 
HETATM    7  F7  UNL     1     -32.676   8.953   2.814  1.00 20.00    -0.169 F 
HETATM    8  F8  UNL     1     -32.450   6.813   3.171  1.00 20.00    -0.169 F 
HETATM    9  F9  UNL     1     -31.349   8.252   4.394  1.00 20.00    -0.169 F 
ENDBRANCH   5   6
ENDBRANCH   4   5
ENDBRANCH   2   4
TORSDOF 3
ENDMDL
MODEL 3
REMARK VINA RESULT:      -4.5      2.731      3.616
REMARK  3 active torsions:
REMARK  status: ('A' for Active; 'I' for Inactive)
REMARK    1  A    between atoms: C2_2  and  O6_6 
REMARK    2  A    between atoms: C3_3  and  C4_4 
REMARK    3  A    between atoms: C3_3  and  O6_6 
ROOT
HETATM    1  C1  UNL     1     -32.345   7.723   3.564  1.00 20.00     0.085 C 
HETATM    2  C2  UNL     1     -32.623   8.410   4.826  1.00 20.00     0.291 C 
HETATM    3  N5  UNL     1     -32.125   7.179   2.564  1.00 20.00    -0.195 NA
ENDROOT
BRANCH   2   4
HETATM    4  O6  UNL     1     -33.890   8.020   5.335  1.00 20.00    -0.369 OA
BRANCH   4   5
HETATM    5  C3  UNL     1     -33.795   6.848   6.132  1.00 20.00     0.286 C 
BRANCH   5   6
HETATM    6  C4  UNL     1     -34.670   5.775   5.537  1.00 20.00     0.408 C 
HETATM    7  F7  UNL     1     -33.935   4.919   4.796  1.00 20.00    -0.169 F 
HETATM    8  F8  UNL     1     -35.619   6.304   4.738  1.00 20.00    -0.169 F 
HETATM    9  F9  UNL     1     -35.286   5.057   6.501  1.00 20.00    -0.169 F 
ENDBRANCH   5   6
ENDBRANCH   4   5
ENDBRANCH   2   4
TORSDOF 3
ENDMDL
MODEL 4
REMARK VINA RESULT:      -4.5      2.735      3.695
REMARK  3 active torsions:
REMARK  status: ('A' for Active; 'I' for Inactive)
REMARK    1  A    between atoms: C2_2  and  O6_6 
REMARK    2  A    between atoms: C3_3  and  C4_4 
REMARK    3  A    between atoms: C3_3  and  O6_6 
ROOT
HETATM    1  C1  UNL     1     -32.346   7.733   3.566  1.00 20.00     0.085 C 
HETATM    2  C2  UNL     1     -32.631   8.420   4.827  1.00 20.00     0.291 C 
HETATM    3  N5  UNL     1     -32.119   7.189   2.568  1.00 20.00    -0.195 NA
ENDROOT
BRANCH   2   4
HETATM    4  O6  UNL     1     -33.893   8.016   5.338  1.00 20.00    -0.369 OA
BRANCH   4   5
HETATM    5  C3  UNL     1     -33.787   6.833   6.117  1.00 20.00     0.286 C 
BRANCH   5   6
HETATM    6  C4  UNL     1     -34.666   5.766   5.517  1.00 20.00     0.408 C 
HETATM    7  F7  UNL     1     -35.289   5.062   6.486  1.00 20.00    -0.169 F 
HETATM    8  F8  UNL     1     -33.946   4.900   4.775  1.00 20.00    -0.169 F 
HETATM    9  F9  UNL     1     -35.618   6.306   4.726  1.00 20.00    -0.169 F 
ENDBRANCH   5   6
ENDBRANCH   4   5
ENDBRANCH   2   4
TORSDOF 3
ENDMDL
MODEL 5
REMARK VINA RESULT:      -4.4      3.357      4.107
REMARK  3 active torsions:
REMARK  status: ('A' for Active; 'I' for Inactive)
REMARK    1  A    between atoms: C2_2  and  O6_6 
REMARK    2  A    between atoms: C3_3  and  C4_4 
REMARK    3  A    between atoms: C3_3  and  O6_6 
ROOT
HETATM    1  C1  UNL     1     -32.222   8.381   4.190  1.00 20.00     0.085 C 
HETATM    2  C2  UNL     1     -32.248   7.341   3.160  1.00 20.00     0.291 C 
HETATM    3  N5  UNL     1     -32.201   9.204   5.006  1.00 20.00    -0.195 NA
ENDROOT
BRANCH   2   4
HETATM    4  O6  UNL     1     -33.143   6.301   3.526  1.00 20.00    -0.369 OA
BRANCH   4   5
HETATM    5  C3  UNL     1     -33.877   6.632   4.697  1.00 20.00     0.286 C 
BRANCH   5   6
HETATM    6  C4  UNL     1     -34.900   5.557   4.958  1.00 20.00     0.408 C 
HETATM    7  F7  UNL     1     -36.065   5.850   4.343  1.00 20.00    -0.169 F 
HETATM    8  F8  UNL     1     -35.150   5.430   6.278  1.00 20.00    -0.169 F 
HETATM    9  F9  UNL     1     -34.481   4.360   4.494  1.00 20.00    -0.169 F 
ENDBRANCH   5   6
ENDBRANCH   4   5
ENDBRANCH   2   4
TORSDOF 3
ENDMDL
MODEL 6
REMARK VINA RESULT:      -4.2      2.758      3.533
REMARK  3 active torsions:
REMARK  status: ('A' for Active; 'I' for Inactive)
REMARK    1  A    between atoms: C2_2  and  O6_6 
REMARK    2  A    between atoms: C3_3  and  C4_4 
REMARK    3  A    between atoms: C3_3  and  O6_6 
ROOT
HETATM    1  C1  UNL     1     -32.729   6.214   3.024  1.00 20.00     0.085 C 
HETATM    2  C2  UNL     1     -32.582   7.543   3.618  1.00 20.00     0.291 C 
HETATM    3  N5  UNL     1     -32.846   5.161   2.553  1.00 20.00    -0.195 NA
ENDROOT
BRANCH   2   4
HETATM    4  O6  UNL     1     -33.629   7.793   4.544  1.00 20.00    -0.369 OA
BRANCH   4   5
HETATM    5  C3  UNL     1     -33.373   7.180   5.800  1.00 20.00     0.286 C 
BRANCH   5   6
HETATM    6  C4  UNL     1     -34.473   6.196   6.103  1.00 20.00     0.408 C 
HETATM    7  F7  UNL     1     -33.963   4.967   6.333  1.00 20.00    -0.169 F 
HETATM    8  F8  UNL     1     -35.339   6.097   5.072  1.00 20.00    -0.169 F 
HETATM    9  F9  UNL     1     -35.169   6.563   7.200  1.00 20.00    -0.169 F 
ENDBRANCH   5   6
ENDBRANCH   4   5
ENDBRANCH   2   4
TORSDOF 3
ENDMDL
MODEL 7
REMARK VINA RESULT:      -4.2      3.169      3.910
REMARK  3 active torsions:
REMARK  status: ('A' for Active; 'I' for Inactive)
REMARK    1  A    between atoms: C2_2  and  O6_6 
REMARK    2  A    between atoms: C3_3  and  C4_4 
REMARK    3  A    between atoms: C3_3  and  O6_6 
ROOT
HETATM    1  C1  UNL     1     -32.606   6.647   3.175  1.00 20.00     0.085 C 
HETATM    2  C2  UNL     1     -33.333   5.397   2.947  1.00 20.00     0.291 C 
HETATM    3  N5  UNL     1     -32.031   7.637   3.355  1.00 20.00    -0.195 NA
ENDROOT
BRANCH   2   4
HETATM    4  O6  UNL     1     -33.884   4.914   4.164  1.00 20.00    -0.369 OA
BRANCH   4   5
HETATM    5  C3  UNL     1     -34.703   5.891   4.791  1.00 20.00     0.286 C 
BRANCH   5   6
HETATM    6  C4  UNL     1     -34.304   6.016   6.238  1.00 20.00     0.408 C 
HETATM    7  F7  UNL     1     -33.880   4.828   6.719  1.00 20.00    -0.169 F 
HETATM    8  F8  UNL     1     -35.341   6.423   6.999  1.00 20.00    -0.169 F 
HETATM    9  F9  UNL     1     -33.297   6.903   6.393  1.00 20.00    -0.169 F 
ENDBRANCH   5   6
ENDBRANCH   4   5
ENDBRANCH   2   4
TORSDOF 3
ENDMDL
MODEL 8
REMARK VINA RESULT:      -4.0      2.010      2.454
REMARK  3 active torsions:
REMARK  status: ('A' for Active; 'I' for Inactive)
REMARK    1  A    between atoms: C2_2  and  O6_6 
REMARK    2  A    between atoms: C3_3  and  C4_4 
REMARK    3  A    between atoms: C3_3  and  O6_6 
ROOT
HETATM    1  C1  UNL     1     -33.934   5.035   4.011  1.00 20.00     0.085 C 
HETATM    2  C2  UNL     1     -32.953   5.446   3.006  1.00 20.00     0.291 C 
HETATM    3  N5  UNL     1     -34.712   4.709   4.807  1.00 20.00    -0.195 NA
ENDROOT
BRANCH   2   4
HETATM    4  O6  UNL     1     -32.988   6.854   2.825  1.00 20.00    -0.369 OA
BRANCH   4   5
HETATM    5  C3  UNL     1     -32.074   7.515   3.689  1.00 20.00     0.286 C 
BRANCH   5   6
HETATM    6  C4  UNL     1     -32.841   8.199   4.790  1.00 20.00     0.408 C 
HETATM    7  F7  UNL     1     -32.299   9.403   5.071  1.00 20.00    -0.169 F 
HETATM    8  F8  UNL     1     -32.830   7.466   5.923  1.00 20.00    -0.169 F 
HETATM    9  F9  UNL     1     -34.128   8.401   4.435  1.00 20.00    -0.169 F 
ENDBRANCH   5   6
ENDBRANCH   4   5
ENDBRANCH   2   4
TORSDOF 3
ENDMDL
MODEL 9
REMARK VINA RESULT:      -4.0      1.948      2.345
REMARK  3 active torsions:
REMARK  status: ('A' for Active; 'I' for Inactive)
REMARK    1  A    between atoms: C2_2  and  O6_6 
REMARK    2  A    between atoms: C3_3  and  C4_4 
REMARK    3  A    between atoms: C3_3  and  O6_6 
ROOT
HETATM    1  C1  UNL     1     -33.712   5.135   3.623  1.00 20.00     0.085 C 
HETATM    2  C2  UNL     1     -34.587   5.004   4.789  1.00 20.00     0.291 C 
HETATM    3  N5  UNL     1     -33.018   5.238   2.700  1.00 20.00    -0.195 NA
ENDROOT
BRANCH   2   4
HETATM    4  O6  UNL     1     -34.894   6.283   5.325  1.00 20.00    -0.369 OA
BRANCH   4   5
HETATM    5  C3  UNL     1     -33.758   6.882   5.933  1.00 20.00     0.286 C 
BRANCH   5   6
HETATM    6  C4  UNL     1     -33.536   8.244   5.330  1.00 20.00     0.408 C 
HETATM    7  F7  UNL     1     -34.101   9.202   6.095  1.00 20.00    -0.169 F 
HETATM    8  F8  UNL     1     -34.078   8.328   4.097  1.00 20.00    -0.169 F 
HETATM    9  F9  UNL     1     -32.219   8.525   5.229  1.00 20.00    -0.169 F 
ENDBRANCH   5   6
ENDBRANCH   4   5
ENDBRANCH   2   4
TORSDOF 3
ENDMDL
