MODEL 1
REMARK VINA RESULT:      -4.0      0.000      0.000
REMARK  0 active torsions:
REMARK  status: ('A' for Active; 'I' for Inactive)
ROOT
HETATM    1  C1  UNL     1     -23.307  18.913   8.124  1.00 20.00     0.042 C 
HETATM    2  C2  UNL     1     -21.400  18.502   9.752  1.00 20.00     0.042 C 
HETATM    3  C3  UNL     1     -23.746  16.931  10.116  1.00 20.00     0.174 C 
HETATM    4  C4  UNL     1     -23.783  18.408  10.536  1.00 20.00     0.017 C 
HETATM    5  C5  UNL     1     -24.216  19.263   9.318  1.00 20.00    -0.009 C 
HETATM    6  C6  UNL     1     -22.350  18.858  10.914  1.00 20.00    -0.009 C 
HETATM    7  C7  UNL     1     -22.209  17.928   8.572  1.00 20.00     0.058 C 
HETATM    8  C8  UNL     1     -25.695  19.105   8.969  1.00 20.00     0.010 C 
HETATM    9  C9  UNL     1     -21.867  18.269  12.239  1.00 20.00     0.010 C 
HETATM   10  C10 UNL     1     -21.293  17.565   7.408  1.00 20.00     0.046 C 
HETATM   11  O11 UNL     1     -22.850  16.717   9.017  1.00 20.00    -0.380 OA
ENDROOT
TORSDOF 0
ENDMDL
MODEL 2
REMARK VINA RESULT:      -3.8     18.312     19.516
REMARK  0 active torsions:
REMARK  status: ('A' for Active; 'I' for Inactive)
ROOT
HETATM    1  C1  UNL     1     -41.152  13.487   4.898  1.00 20.00     0.042 C 
HETATM    2  C2  UNL     1     -40.262  13.703   7.268  1.00 20.00     0.042 C 
HETATM    3  C3  UNL     1     -42.993  12.945   6.997  1.00 20.00     0.174 C 
HETATM    4  C4  UNL     1     -42.610  14.407   6.723  1.00 20.00     0.017 C 
HETATM    5  C5  UNL     1     -42.219  14.549   5.230  1.00 20.00    -0.009 C 
HETATM    6  C6  UNL     1     -41.350  14.759   7.553  1.00 20.00    -0.009 C 
HETATM    7  C7  UNL     1     -40.751  12.729   6.178  1.00 20.00     0.058 C 
HETATM    8  C8  UNL     1     -43.417  14.463   4.285  1.00 20.00     0.010 C 
HETATM    9  C9  UNL     1     -41.634  14.888   9.049  1.00 20.00     0.010 C 
HETATM   10  C10 UNL     1     -39.694  11.671   5.878  1.00 20.00     0.046 C 
HETATM   11  O11 UNL     1     -41.919  12.049   6.679  1.00 20.00    -0.380 OA
ENDROOT
TORSDOF 0
ENDMDL
MODEL 3
REMARK VINA RESULT:      -3.6     18.104     19.548
REMARK  0 active torsions:
REMARK  status: ('A' for Active; 'I' for Inactive)
ROOT
HETATM    1  C1  UNL     1     -40.042  13.638   7.639  1.00 20.00     0.042 C 
HETATM    2  C2  UNL     1     -42.001  15.209   7.250  1.00 20.00     0.042 C 
HETATM    3  C3  UNL     1     -42.454  12.451   6.710  1.00 20.00     0.174 C 
HETATM    4  C4  UNL     1     -41.610  13.262   5.715  1.00 20.00     0.017 C 
HETATM    5  C5  UNL     1     -40.126  13.210   6.161  1.00 20.00    -0.009 C 
HETATM    6  C6  UNL     1     -42.047  14.746   5.780  1.00 20.00    -0.009 C 
HETATM    7  C7  UNL     1     -41.432  14.083   8.136  1.00 20.00     0.058 C 
HETATM    8  C8  UNL     1     -39.477  11.847   5.929  1.00 20.00     0.010 C 
HETATM    9  C9  UNL     1     -43.417  14.996   5.151  1.00 20.00     0.010 C 
HETATM   10  C10 UNL     1     -41.377  14.514   9.598  1.00 20.00     0.046 C 
HETATM   11  O11 UNL     1     -42.321  12.953   8.047  1.00 20.00    -0.380 OA
ENDROOT
TORSDOF 0
ENDMDL
MODEL 4
REMARK VINA RESULT:      -3.6     22.882     24.614
REMARK  0 active torsions:
REMARK  status: ('A' for Active; 'I' for Inactive)
ROOT
HETATM    1  C1  UNL     1     -40.941   6.249  -0.796  1.00 20.00     0.042 C 
HETATM    2  C2  UNL     1     -42.333   4.631   0.584  1.00 20.00     0.042 C 
HETATM    3  C3  UNL     1     -43.409   7.241   0.213  1.00 20.00     0.174 C 
HETATM    4  C4  UNL     1     -42.239   7.065   1.192  1.00 20.00     0.017 C 
HETATM    5  C5  UNL     1     -40.908   7.207   0.411  1.00 20.00    -0.009 C 
HETATM    6  C6  UNL     1     -42.274   5.625   1.762  1.00 20.00    -0.009 C 
HETATM    7  C7  UNL     1     -42.223   5.394  -0.751  1.00 20.00     0.058 C 
HETATM    8  C8  UNL     1     -40.613   8.645  -0.016  1.00 20.00     0.010 C 
HETATM    9  C9  UNL     1     -43.417   5.399   2.750  1.00 20.00     0.010 C 
HETATM   10  C10 UNL     1     -42.282   4.434  -1.935  1.00 20.00     0.046 C 
HETATM   11  O11 UNL     1     -43.354   6.281  -0.852  1.00 20.00    -0.380 OA
ENDROOT
TORSDOF 0
ENDMDL
MODEL 5
REMARK VINA RESULT:      -3.5     14.714     16.720
REMARK  0 active torsions:
REMARK  status: ('A' for Active; 'I' for Inactive)
ROOT
HETATM    1  C1  UNL     1     -34.607  18.948  -1.870  1.00 20.00     0.042 C 
HETATM    2  C2  UNL     1     -32.930  17.041  -1.955  1.00 20.00     0.042 C 
HETATM    3  C3  UNL     1     -33.303  18.518  -4.360  1.00 20.00     0.174 C 
HETATM    4  C4  UNL     1     -34.399  17.532  -3.931  1.00 20.00     0.017 C 
HETATM    5  C5  UNL     1     -35.399  18.268  -3.003  1.00 20.00    -0.009 C 
HETATM    6  C6  UNL     1     -33.755  16.401  -3.090  1.00 20.00    -0.009 C 
HETATM    7  C7  UNL     1     -33.117  18.572  -1.972  1.00 20.00     0.058 C 
HETATM    8  C8  UNL     1     -36.289  19.262  -3.749  1.00 20.00     0.010 C 
HETATM    9  C9  UNL     1     -32.914  15.438  -3.926  1.00 20.00     0.010 C 
HETATM   10  C10 UNL     1     -32.309  19.232  -0.859  1.00 20.00     0.046 C 
HETATM   11  O11 UNL     1     -32.616  19.068  -3.228  1.00 20.00    -0.380 OA
ENDROOT
TORSDOF 0
ENDMDL
MODEL 6
REMARK VINA RESULT:      -3.5     17.869     19.805
REMARK  0 active torsions:
REMARK  status: ('A' for Active; 'I' for Inactive)
ROOT
HETATM    1  C1  UNL     1     -41.166  13.267   4.825  1.00 20.00     0.042 C 
HETATM    2  C2  UNL     1     -43.302  13.637   6.150  1.00 20.00     0.042 C 
HETATM    3  C3  UNL     1     -40.868  14.380   7.426  1.00 20.00     0.174 C 
HETATM    4  C4  UNL     1     -41.204  12.886   7.306  1.00 20.00     0.017 C 
HETATM    5  C5  UNL     1     -40.653  12.357   5.958  1.00 20.00    -0.009 C 
HETATM    6  C6  UNL     1     -42.743  12.721   7.258  1.00 20.00    -0.009 C 
HETATM    7  C7  UNL     1     -42.141  14.315   5.396  1.00 20.00     0.058 C 
HETATM    8  C8  UNL     1     -39.130  12.233   5.939  1.00 20.00     0.010 C 
HETATM    9  C9  UNL     1     -43.417  12.986   8.604  1.00 20.00     0.010 C 
HETATM   10  C10 UNL     1     -42.666  15.230   4.295  1.00 20.00     0.046 C 
HETATM   11  O11 UNL     1     -41.417  15.133   6.336  1.00 20.00    -0.380 OA
ENDROOT
TORSDOF 0
ENDMDL
MODEL 7
REMARK VINA RESULT:      -3.5     18.560     19.832
REMARK  0 active torsions:
REMARK  status: ('A' for Active; 'I' for Inactive)
ROOT
HETATM    1  C1  UNL     1     -42.002  12.402   6.680  1.00 20.00     0.042 C 
HETATM    2  C2  UNL     1     -41.760  13.989   4.711  1.00 20.00     0.042 C 
HETATM    3  C3  UNL     1     -41.194  15.060   7.287  1.00 20.00     0.174 C 
HETATM    4  C4  UNL     1     -42.660  14.813   6.905  1.00 20.00     0.017 C 
HETATM    5  C5  UNL     1     -43.041  13.362   7.292  1.00 20.00    -0.009 C 
HETATM    6  C6  UNL     1     -42.802  14.919   5.366  1.00 20.00    -0.009 C 
HETATM    7  C7  UNL     1     -41.014  13.190   5.799  1.00 20.00     0.058 C 
HETATM    8  C8  UNL     1     -43.179  13.160   8.800  1.00 20.00     0.010 C 
HETATM    9  C9  UNL     1     -42.683  16.352   4.849  1.00 20.00     0.010 C 
HETATM   10  C10 UNL     1     -39.974  12.263   5.178  1.00 20.00     0.046 C 
HETATM   11  O11 UNL     1     -40.316  14.128   6.640  1.00 20.00    -0.380 OA
ENDROOT
TORSDOF 0
ENDMDL
MODEL 8
REMARK VINA RESULT:      -3.4     18.622     19.521
REMARK  0 active torsions:
REMARK  status: ('A' for Active; 'I' for Inactive)
ROOT
HETATM    1  C1  UNL     1     -41.922  15.597   6.244  1.00 20.00     0.042 C 
HETATM    2  C2  UNL     1     -41.231  13.585   4.855  1.00 20.00     0.042 C 
HETATM    3  C3  UNL     1     -42.246  13.046   7.459  1.00 20.00     0.174 C 
HETATM    4  C4  UNL     1     -40.827  13.619   7.332  1.00 20.00     0.017 C 
HETATM    5  C5  UNL     1     -40.911  15.166   7.323  1.00 20.00    -0.009 C 
HETATM    6  C6  UNL     1     -40.235  13.193   5.966  1.00 20.00    -0.009 C 
HETATM    7  C7  UNL     1     -42.415  14.362   5.464  1.00 20.00     0.058 C 
HETATM    8  C8  UNL     1     -41.256  15.756   8.690  1.00 20.00     0.010 C 
HETATM    9  C9  UNL     1     -39.875  11.709   5.904  1.00 20.00     0.010 C 
HETATM   10  C10 UNL     1     -43.417  14.761   4.386  1.00 20.00     0.046 C 
HETATM   11  O11 UNL     1     -43.092  13.490   6.389  1.00 20.00    -0.380 OA
ENDROOT
TORSDOF 0
ENDMDL
MODEL 9
REMARK VINA RESULT:      -3.3     18.309     19.399
REMARK  0 active torsions:
REMARK  status: ('A' for Active; 'I' for Inactive)
ROOT
HETATM    1  C1  UNL     1     -42.311  12.513   7.086  1.00 20.00     0.042 C 
HETATM    2  C2  UNL     1     -41.321  14.569   5.967  1.00 20.00     0.042 C 
HETATM    3  C3  UNL     1     -40.748  14.226   8.734  1.00 20.00     0.174 C 
HETATM    4  C4  UNL     1     -42.157  14.687   8.332  1.00 20.00     0.017 C 
HETATM    5  C5  UNL     1     -43.039  13.438   8.081  1.00 20.00    -0.009 C 
HETATM    6  C6  UNL     1     -42.068  15.452   6.988  1.00 20.00    -0.009 C 
HETATM    7  C7  UNL     1     -41.019  13.191   6.590  1.00 20.00     0.058 C 
HETATM    8  C8  UNL     1     -43.417  12.703   9.366  1.00 20.00     0.010 C 
HETATM    9  C9  UNL     1     -41.421  16.830   7.123  1.00 20.00     0.010 C 
HETATM   10  C10 UNL     1     -40.277  12.297   5.601  1.00 20.00     0.046 C 
HETATM   11  O11 UNL     1     -40.156  13.396   7.726  1.00 20.00    -0.380 OA
ENDROOT
TORSDOF 0
ENDMDL
