MODEL 1
REMARK VINA RESULT:      -4.8      0.000      0.000
REMARK  2 active torsions:
REMARK  status: ('A' for Active; 'I' for Inactive)
REMARK    1  A    between atoms: C1_1  and  C2_2 
REMARK    2  A    between atoms: C2_2  and  C3_3 
ROOT
HETATM    1  C2  UNL     1     -34.712   6.265   4.964  1.00 20.00     0.213 C 
ENDROOT
BRANCH   1   2
HETATM    2  C1  UNL     1     -34.000   5.215   4.130  1.00 20.00     0.227 C 
HETATM    3  O4  UNL     1     -34.162   4.009   4.293  1.00 20.00    -0.280 OA
HETATM    4 CL8  UNL     1     -32.951   5.943   2.945  1.00 20.00    -0.043 Cl
ENDBRANCH   1   2
BRANCH   1   5
HETATM    5  C3  UNL     1     -33.974   6.597   6.241  1.00 20.00     0.395 C 
HETATM    6  F5  UNL     1     -34.710   7.392   7.047  1.00 20.00    -0.171 F 
HETATM    7  F6  UNL     1     -32.803   7.221   5.988  1.00 20.00    -0.171 F 
HETATM    8  F7  UNL     1     -33.692   5.468   6.929  1.00 20.00    -0.171 F 
ENDBRANCH   1   5
TORSDOF 2
ENDMDL
MODEL 2
REMARK VINA RESULT:      -4.8      0.032      1.338
REMARK  2 active torsions:
REMARK  status: ('A' for Active; 'I' for Inactive)
REMARK    1  A    between atoms: C1_1  and  C2_2 
REMARK    2  A    between atoms: C2_2  and  C3_3 
ROOT
HETATM    1  C2  UNL     1     -34.717   6.242   4.962  1.00 20.00     0.213 C 
ENDROOT
BRANCH   1   2
HETATM    2  C1  UNL     1     -34.005   5.191   4.130  1.00 20.00     0.227 C 
HETATM    3  O4  UNL     1     -34.160   3.986   4.300  1.00 20.00    -0.280 OA
HETATM    4 CL8  UNL     1     -32.966   5.918   2.935  1.00 20.00    -0.043 Cl
ENDBRANCH   1   2
BRANCH   1   5
HETATM    5  C3  UNL     1     -33.992   6.559   6.251  1.00 20.00     0.395 C 
HETATM    6  F5  UNL     1     -33.697   5.438   6.942  1.00 20.00    -0.171 F 
HETATM    7  F6  UNL     1     -34.727   7.365   7.047  1.00 20.00    -0.171 F 
HETATM    8  F7  UNL     1     -32.828   7.196   5.991  1.00 20.00    -0.171 F 
ENDBRANCH   1   5
TORSDOF 2
ENDMDL
MODEL 3
REMARK VINA RESULT:      -4.8      0.072      1.320
REMARK  2 active torsions:
REMARK  status: ('A' for Active; 'I' for Inactive)
REMARK    1  A    between atoms: C1_1  and  C2_2 
REMARK    2  A    between atoms: C2_2  and  C3_3 
ROOT
HETATM    1  C2  UNL     1     -34.726   6.200   4.973  1.00 20.00     0.213 C 
ENDROOT
BRANCH   1   2
HETATM    2  C1  UNL     1     -33.998   5.175   4.121  1.00 20.00     0.227 C 
HETATM    3  O4  UNL     1     -34.132   3.965   4.271  1.00 20.00    -0.280 OA
HETATM    4 CL8  UNL     1     -32.975   5.940   2.936  1.00 20.00    -0.043 Cl
ENDBRANCH   1   2
BRANCH   1   5
HETATM    5  C3  UNL     1     -33.992   6.523   6.254  1.00 20.00     0.395 C 
HETATM    6  F5  UNL     1     -32.858   7.216   6.015  1.00 20.00    -0.171 F 
HETATM    7  F6  UNL     1     -33.666   5.403   6.934  1.00 20.00    -0.171 F 
HETATM    8  F7  UNL     1     -34.768   7.278   7.063  1.00 20.00    -0.171 F 
ENDBRANCH   1   5
TORSDOF 2
ENDMDL
MODEL 4
REMARK VINA RESULT:      -4.6      2.906      3.455
REMARK  2 active torsions:
REMARK  status: ('A' for Active; 'I' for Inactive)
REMARK    1  A    between atoms: C1_1  and  C2_2 
REMARK    2  A    between atoms: C2_2  and  C3_3 
ROOT
HETATM    1  C2  UNL     1     -33.781   8.095   4.612  1.00 20.00     0.213 C 
ENDROOT
BRANCH   1   2
HETATM    2  C1  UNL     1     -34.046   6.875   5.475  1.00 20.00     0.227 C 
HETATM    3  O4  UNL     1     -33.507   6.696   6.563  1.00 20.00    -0.280 OA
HETATM    4 CL8  UNL     1     -35.188   5.796   4.724  1.00 20.00    -0.043 Cl
ENDBRANCH   1   2
BRANCH   1   5
HETATM    5  C3  UNL     1     -32.554   7.942   3.743  1.00 20.00     0.395 C 
HETATM    6  F5  UNL     1     -32.451   6.692   3.245  1.00 20.00    -0.171 F 
HETATM    7  F6  UNL     1     -31.424   8.218   4.430  1.00 20.00    -0.171 F 
HETATM    8  F7  UNL     1     -32.610   8.795   2.695  1.00 20.00    -0.171 F 
ENDBRANCH   1   5
TORSDOF 2
ENDMDL
MODEL 5
REMARK VINA RESULT:      -4.6      2.888      3.380
REMARK  2 active torsions:
REMARK  status: ('A' for Active; 'I' for Inactive)
REMARK    1  A    between atoms: C1_1  and  C2_2 
REMARK    2  A    between atoms: C2_2  and  C3_3 
ROOT
HETATM    1  C2  UNL     1     -33.780   8.104   4.648  1.00 20.00     0.213 C 
ENDROOT
BRANCH   1   2
HETATM    2  C1  UNL     1     -34.050   6.865   5.483  1.00 20.00     0.227 C 
HETATM    3  O4  UNL     1     -33.515   6.661   6.569  1.00 20.00    -0.280 OA
HETATM    4 CL8  UNL     1     -35.192   5.805   4.703  1.00 20.00    -0.043 Cl
ENDBRANCH   1   2
BRANCH   1   5
HETATM    5  C3  UNL     1     -32.564   7.960   3.762  1.00 20.00     0.395 C 
HETATM    6  F5  UNL     1     -32.609   8.809   2.715  1.00 20.00    -0.171 F 
HETATM    7  F6  UNL     1     -32.448   6.703   3.282  1.00 20.00    -0.171 F 
HETATM    8  F7  UNL     1     -31.439   8.233   4.460  1.00 20.00    -0.171 F 
ENDBRANCH   1   5
TORSDOF 2
ENDMDL
MODEL 6
REMARK VINA RESULT:      -4.6      2.140      2.223
REMARK  2 active torsions:
REMARK  status: ('A' for Active; 'I' for Inactive)
REMARK    1  A    between atoms: C1_1  and  C2_2 
REMARK    2  A    between atoms: C2_2  and  C3_3 
ROOT
HETATM    1  C2  UNL     1     -34.200   6.911   4.826  1.00 20.00     0.213 C 
ENDROOT
BRANCH   1   2
HETATM    2  C1  UNL     1     -32.998   7.759   4.453  1.00 20.00     0.227 C 
HETATM    3  O4  UNL     1     -32.651   8.747   5.095  1.00 20.00    -0.280 OA
HETATM    4 CL8  UNL     1     -32.205   7.153   3.025  1.00 20.00    -0.043 Cl
ENDBRANCH   1   2
BRANCH   1   5
HETATM    5  C3  UNL     1     -34.203   6.508   6.283  1.00 20.00     0.395 C 
HETATM    6  F5  UNL     1     -34.615   7.520   7.076  1.00 20.00    -0.171 F 
HETATM    7  F6  UNL     1     -32.975   6.124   6.693  1.00 20.00    -0.171 F 
HETATM    8  F7  UNL     1     -35.042   5.467   6.482  1.00 20.00    -0.171 F 
ENDBRANCH   1   5
TORSDOF 2
ENDMDL
MODEL 7
REMARK VINA RESULT:      -4.6      2.136      2.384
REMARK  2 active torsions:
REMARK  status: ('A' for Active; 'I' for Inactive)
REMARK    1  A    between atoms: C1_1  and  C2_2 
REMARK    2  A    between atoms: C2_2  and  C3_3 
ROOT
HETATM    1  C2  UNL     1     -34.234   6.949   4.842  1.00 20.00     0.213 C 
ENDROOT
BRANCH   1   2
HETATM    2  C1  UNL     1     -33.011   7.759   4.454  1.00 20.00     0.227 C 
HETATM    3  O4  UNL     1     -32.636   8.746   5.081  1.00 20.00    -0.280 OA
HETATM    4 CL8  UNL     1     -32.237   7.110   3.035  1.00 20.00    -0.043 Cl
ENDBRANCH   1   2
BRANCH   1   5
HETATM    5  C3  UNL     1     -34.219   6.523   6.292  1.00 20.00     0.395 C 
HETATM    6  F5  UNL     1     -35.020   5.458   6.505  1.00 20.00    -0.171 F 
HETATM    7  F6  UNL     1     -34.621   7.523   7.106  1.00 20.00    -0.171 F 
HETATM    8  F7  UNL     1     -32.968   6.173   6.666  1.00 20.00    -0.171 F 
ENDBRANCH   1   5
TORSDOF 2
ENDMDL
MODEL 8
REMARK VINA RESULT:      -4.6      2.142      2.593
REMARK  2 active torsions:
REMARK  status: ('A' for Active; 'I' for Inactive)
REMARK    1  A    between atoms: C1_1  and  C2_2 
REMARK    2  A    between atoms: C2_2  and  C3_3 
ROOT
HETATM    1  C2  UNL     1     -34.167   6.851   4.788  1.00 20.00     0.213 C 
ENDROOT
BRANCH   1   2
HETATM    2  C1  UNL     1     -33.019   7.773   4.416  1.00 20.00     0.227 C 
HETATM    3  O4  UNL     1     -32.723   8.770   5.068  1.00 20.00    -0.280 OA
HETATM    4 CL8  UNL     1     -32.207   7.232   2.973  1.00 20.00    -0.043 Cl
ENDBRANCH   1   2
BRANCH   1   5
HETATM    5  C3  UNL     1     -34.169   6.482   6.254  1.00 20.00     0.395 C 
HETATM    6  F5  UNL     1     -32.923   6.211   6.699  1.00 20.00    -0.171 F 
HETATM    7  F6  UNL     1     -34.946   5.404   6.491  1.00 20.00    -0.171 F 
HETATM    8  F7  UNL     1     -34.653   7.503   6.996  1.00 20.00    -0.171 F 
ENDBRANCH   1   5
TORSDOF 2
ENDMDL
MODEL 9
REMARK VINA RESULT:      -4.5      2.384      2.650
REMARK  2 active torsions:
REMARK  status: ('A' for Active; 'I' for Inactive)
REMARK    1  A    between atoms: C1_1  and  C2_2 
REMARK    2  A    between atoms: C2_2  and  C3_3 
ROOT
HETATM    1  C2  UNL     1     -33.906   7.342   6.097  1.00 20.00     0.213 C 
ENDROOT
BRANCH   1   2
HETATM    2  C1  UNL     1     -34.445   5.942   5.869  1.00 20.00     0.227 C 
HETATM    3  O4  UNL     1     -34.128   4.982   6.565  1.00 20.00    -0.280 OA
HETATM    4 CL8  UNL     1     -35.543   5.891   4.518  1.00 20.00    -0.043 Cl
ENDBRANCH   1   2
BRANCH   1   5
HETATM    5  C3  UNL     1     -33.221   7.912   4.875  1.00 20.00     0.395 C 
HETATM    6  F5  UNL     1     -34.078   8.625   4.114  1.00 20.00    -0.171 F 
HETATM    7  F6  UNL     1     -32.686   6.938   4.108  1.00 20.00    -0.171 F 
HETATM    8  F7  UNL     1     -32.216   8.739   5.242  1.00 20.00    -0.171 F 
ENDBRANCH   1   5
TORSDOF 2
ENDMDL
