MODEL 1
REMARK VINA RESULT:      -3.2      0.000      0.000
REMARK  1 active torsions:
REMARK  status: ('A' for Active; 'I' for Inactive)
REMARK    1  A    between atoms: C1_1  and  C2_2 
ROOT
HETATM    1  C1  UNL     1     -34.096   5.520   4.280  1.00 20.00     0.208 C 
HETATM    2  O3  UNL     1     -34.689   4.540   4.706  1.00 20.00    -0.284 OA
HETATM    3 BR5  UNL     1     -33.016   5.236   2.730  1.00 20.00    -0.008 Br
ENDROOT
BRANCH   1   4
HETATM    4  C2  UNL     1     -34.130   6.910   4.847  1.00 20.00     0.205 C 
HETATM    5 CL4  UNL     1     -34.278   6.846   6.609  1.00 20.00    -0.122 Cl
ENDBRANCH   1   4
TORSDOF 1
ENDMDL
MODEL 2
REMARK VINA RESULT:      -3.2      2.656      2.716
REMARK  1 active torsions:
REMARK  status: ('A' for Active; 'I' for Inactive)
REMARK    1  A    between atoms: C1_1  and  C2_2 
ROOT
HETATM    1  C1  UNL     1     -33.974   7.000   5.489  1.00 20.00     0.208 C 
HETATM    2  O3  UNL     1     -34.242   7.092   6.678  1.00 20.00    -0.284 OA
HETATM    3 BR5  UNL     1     -34.617   5.435   4.604  1.00 20.00    -0.008 Br
ENDROOT
BRANCH   1   4
HETATM    4  C2  UNL     1     -33.196   7.984   4.664  1.00 20.00     0.205 C 
HETATM    5 CL4  UNL     1     -32.383   7.153   3.329  1.00 20.00    -0.122 Cl
ENDBRANCH   1   4
TORSDOF 1
ENDMDL
MODEL 3
REMARK VINA RESULT:      -3.2      2.331      2.391
REMARK  1 active torsions:
REMARK  status: ('A' for Active; 'I' for Inactive)
REMARK    1  A    between atoms: C1_1  and  C2_2 
ROOT
HETATM    1  C1  UNL     1     -33.448   7.111   4.856  1.00 20.00     0.208 C 
HETATM    2  O3  UNL     1     -33.564   6.352   3.905  1.00 20.00    -0.284 OA
HETATM    3 BR5  UNL     1     -32.418   8.689   4.546  1.00 20.00    -0.008 Br
ENDROOT
BRANCH   1   4
HETATM    4  C2  UNL     1     -34.026   6.928   6.229  1.00 20.00     0.205 C 
HETATM    5 CL4  UNL     1     -34.757   5.322   6.375  1.00 20.00    -0.122 Cl
ENDBRANCH   1   4
TORSDOF 1
ENDMDL
MODEL 4
REMARK VINA RESULT:      -3.2      2.682      2.831
REMARK  1 active torsions:
REMARK  status: ('A' for Active; 'I' for Inactive)
REMARK    1  A    between atoms: C1_1  and  C2_2 
ROOT
HETATM    1  C1  UNL     1     -34.066   6.682   5.372  1.00 20.00     0.208 C 
HETATM    2  O3  UNL     1     -34.394   6.802   6.542  1.00 20.00    -0.284 OA
HETATM    3 BR5  UNL     1     -32.946   8.061   4.670  1.00 20.00    -0.008 Br
ENDROOT
BRANCH   1   4
HETATM    4  C2  UNL     1     -34.451   5.570   4.438  1.00 20.00     0.205 C 
HETATM    5 CL4  UNL     1     -33.280   5.449   3.117  1.00 20.00    -0.122 Cl
ENDBRANCH   1   4
TORSDOF 1
ENDMDL
MODEL 5
REMARK VINA RESULT:      -3.2      2.248      2.399
REMARK  1 active torsions:
REMARK  status: ('A' for Active; 'I' for Inactive)
REMARK    1  A    between atoms: C1_1  and  C2_2 
ROOT
HETATM    1  C1  UNL     1     -33.624   7.379   4.711  1.00 20.00     0.208 C 
HETATM    2  O3  UNL     1     -33.735   8.301   5.504  1.00 20.00    -0.284 OA
HETATM    3 BR5  UNL     1     -32.287   7.590   3.363  1.00 20.00    -0.008 Br
ENDROOT
BRANCH   1   4
HETATM    4  C2  UNL     1     -34.427   6.110   4.688  1.00 20.00     0.205 C 
HETATM    5 CL4  UNL     1     -34.684   5.521   6.337  1.00 20.00    -0.122 Cl
ENDBRANCH   1   4
TORSDOF 1
ENDMDL
MODEL 6
REMARK VINA RESULT:      -3.1      3.078      3.171
REMARK  1 active torsions:
REMARK  status: ('A' for Active; 'I' for Inactive)
REMARK    1  A    between atoms: C1_1  and  C2_2 
ROOT
HETATM    1  C1  UNL     1     -33.562   7.257   4.624  1.00 20.00     0.208 C 
HETATM    2  O3  UNL     1     -33.647   8.232   5.356  1.00 20.00    -0.284 OA
HETATM    3 BR5  UNL     1     -34.746   5.810   5.015  1.00 20.00    -0.008 Br
ENDROOT
BRANCH   1   4
HETATM    4  C2  UNL     1     -32.628   7.084   3.461  1.00 20.00     0.205 C 
HETATM    5 CL4  UNL     1     -32.875   5.500   2.711  1.00 20.00    -0.122 Cl
ENDBRANCH   1   4
TORSDOF 1
ENDMDL
MODEL 7
REMARK VINA RESULT:      -3.1      2.697      2.701
REMARK  1 active torsions:
REMARK  status: ('A' for Active; 'I' for Inactive)
REMARK    1  A    between atoms: C1_1  and  C2_2 
ROOT
HETATM    1  C1  UNL     1     -33.921   6.242   4.604  1.00 20.00     0.208 C 
HETATM    2  O3  UNL     1     -34.015   5.425   3.701  1.00 20.00    -0.284 OA
HETATM    3 BR5  UNL     1     -34.608   5.696   6.301  1.00 20.00    -0.008 Br
ENDROOT
BRANCH   1   4
HETATM    4  C2  UNL     1     -33.327   7.618   4.515  1.00 20.00     0.205 C 
HETATM    5 CL4  UNL     1     -32.122   7.680   3.220  1.00 20.00    -0.122 Cl
ENDBRANCH   1   4
TORSDOF 1
ENDMDL
MODEL 8
REMARK VINA RESULT:      -3.1      2.210      2.272
REMARK  1 active torsions:
REMARK  status: ('A' for Active; 'I' for Inactive)
REMARK    1  A    between atoms: C1_1  and  C2_2 
ROOT
HETATM    1  C1  UNL     1     -33.690   6.383   4.116  1.00 20.00     0.208 C 
HETATM    2  O3  UNL     1     -32.984   6.056   3.174  1.00 20.00    -0.284 OA
HETATM    3 BR5  UNL     1     -33.227   8.023   4.979  1.00 20.00    -0.008 Br
ENDROOT
BRANCH   1   4
HETATM    4  C2  UNL     1     -34.872   5.633   4.658  1.00 20.00     0.205 C 
HETATM    5 CL4  UNL     1     -34.715   5.429   6.409  1.00 20.00    -0.122 Cl
ENDBRANCH   1   4
TORSDOF 1
ENDMDL
MODEL 9
REMARK VINA RESULT:      -3.1      2.468      2.589
REMARK  1 active torsions:
REMARK  status: ('A' for Active; 'I' for Inactive)
REMARK    1  A    between atoms: C1_1  and  C2_2 
ROOT
HETATM    1  C1  UNL     1     -34.112   5.541   4.465  1.00 20.00     0.208 C 
HETATM    2  O3  UNL     1     -34.861   4.638   4.807  1.00 20.00    -0.284 OA
HETATM    3 BR5  UNL     1     -33.956   7.006   5.681  1.00 20.00    -0.008 Br
ENDROOT
BRANCH   1   4
HETATM    4  C2  UNL     1     -33.311   5.614   3.197  1.00 20.00     0.205 C 
HETATM    5 CL4  UNL     1     -32.361   7.107   3.160  1.00 20.00    -0.122 Cl
ENDBRANCH   1   4
TORSDOF 1
ENDMDL
