MODEL 1
REMARK VINA RESULT:      -3.0      0.000      0.000
REMARK  0 active torsions:
REMARK  status: ('A' for Active; 'I' for Inactive)
ROOT
HETATM    1  C1  UNL     1     -33.061   7.559   4.150  1.00 20.00     0.345 C 
HETATM    2  C2  UNL     1     -34.051   7.252   6.349  1.00 20.00     0.345 C 
HETATM    3  C3  UNL     1     -34.772   5.422   4.424  1.00 20.00     0.151 C 
HETATM    4  N4  UNL     1     -32.851   7.601   5.594  1.00 20.00     0.101 N 
HETATM    5  S5  UNL     1     -33.289   5.879   3.492  1.00 20.00    -0.129 SA
HETATM    6  S6  UNL     1     -34.515   5.500   6.216  1.00 20.00    -0.129 SA
HETATM    7  H13 UNL     1     -32.095   6.966   5.846  1.00 20.00     0.317 HD
ENDROOT
TORSDOF 0
ENDMDL
MODEL 2
REMARK VINA RESULT:      -2.8     13.133     14.166
REMARK  0 active torsions:
REMARK  status: ('A' for Active; 'I' for Inactive)
ROOT
HETATM    1  C1  UNL     1     -33.509  14.693  -4.405  1.00 20.00     0.345 C 
HETATM    2  C2  UNL     1     -34.475  15.285  -6.556  1.00 20.00     0.345 C 
HETATM    3  C3  UNL     1     -34.884  17.074  -4.505  1.00 20.00     0.151 C 
HETATM    4  N4  UNL     1     -33.330  14.713  -5.854  1.00 20.00     0.101 N 
HETATM    5  S5  UNL     1     -33.472  16.341  -3.640  1.00 20.00    -0.129 SA
HETATM    6  S6  UNL     1     -34.669  17.074  -6.304  1.00 20.00    -0.129 SA
HETATM    7  H13 UNL     1     -32.491  15.244  -6.085  1.00 20.00     0.317 HD
ENDROOT
TORSDOF 0
ENDMDL
MODEL 3
REMARK VINA RESULT:      -2.8     15.810     16.343
REMARK  0 active torsions:
REMARK  status: ('A' for Active; 'I' for Inactive)
ROOT
HETATM    1  C1  UNL     1     -24.391  16.988  11.150  1.00 20.00     0.345 C 
HETATM    2  C2  UNL     1     -22.690  17.446   9.474  1.00 20.00     0.345 C 
HETATM    3  C3  UNL     1     -24.811  19.196   9.563  1.00 20.00     0.151 C 
HETATM    4  N4  UNL     1     -22.965  17.014  10.842  1.00 20.00     0.101 N 
HETATM    5  S5  UNL     1     -25.148  18.637  11.252  1.00 20.00    -0.129 SA
HETATM    6  S6  UNL     1     -23.041  19.203   9.177  1.00 20.00    -0.129 SA
HETATM    7  H13 UNL     1     -22.488  17.634  11.495  1.00 20.00     0.317 HD
ENDROOT
TORSDOF 0
ENDMDL
MODEL 4
REMARK VINA RESULT:      -2.8      1.151      1.151
REMARK  0 active torsions:
REMARK  status: ('A' for Active; 'I' for Inactive)
ROOT
HETATM    1  C1  UNL     1     -32.463   7.352   3.197  1.00 20.00     0.345 C 
HETATM    2  C2  UNL     1     -33.325   8.221   5.298  1.00 20.00     0.345 C 
HETATM    3  C3  UNL     1     -34.488   5.905   4.371  1.00 20.00     0.151 C 
HETATM    4  N4  UNL     1     -32.143   7.978   4.476  1.00 20.00     0.101 N 
HETATM    5  S5  UNL     1     -33.021   5.628   3.345  1.00 20.00    -0.129 SA
HETATM    6  S6  UNL     1     -34.089   6.705   5.947  1.00 20.00    -0.129 SA
HETATM    7  H13 UNL     1     -31.489   7.388   4.988  1.00 20.00     0.317 HD
ENDROOT
TORSDOF 0
ENDMDL
MODEL 5
REMARK VINA RESULT:      -2.7     12.703     13.527
REMARK  0 active torsions:
REMARK  status: ('A' for Active; 'I' for Inactive)
ROOT
HETATM    1  C1  UNL     1     -35.753  14.406  -5.590  1.00 20.00     0.345 C 
HETATM    2  C2  UNL     1     -33.694  14.468  -4.296  1.00 20.00     0.345 C 
HETATM    3  C3  UNL     1     -34.562  16.872  -5.317  1.00 20.00     0.151 C 
HETATM    4  N4  UNL     1     -35.039  13.910  -4.417  1.00 20.00     0.101 N 
HETATM    5  S5  UNL     1     -36.219  16.159  -5.476  1.00 20.00    -0.129 SA
HETATM    6  S6  UNL     1     -33.671  16.235  -3.874  1.00 20.00    -0.129 SA
HETATM    7  H13 UNL     1     -35.573  14.130  -3.577  1.00 20.00     0.317 HD
ENDROOT
TORSDOF 0
ENDMDL
MODEL 6
REMARK VINA RESULT:      -2.7     16.482     16.956
REMARK  0 active torsions:
REMARK  status: ('A' for Active; 'I' for Inactive)
ROOT
HETATM    1  C1  UNL     1     -23.380  17.202   9.700  1.00 20.00     0.345 C 
HETATM    2  C2  UNL     1     -21.585  18.600  10.559  1.00 20.00     0.345 C 
HETATM    3  C3  UNL     1     -23.764  18.269  12.207  1.00 20.00     0.151 C 
HETATM    4  N4  UNL     1     -21.937  17.391   9.819  1.00 20.00     0.101 N 
HETATM    5  S5  UNL     1     -24.195  16.781  11.269  1.00 20.00    -0.129 SA
HETATM    6  S6  UNL     1     -21.974  18.513  12.332  1.00 20.00    -0.129 SA
HETATM    7  H13 UNL     1     -21.526  16.581  10.281  1.00 20.00     0.317 HD
ENDROOT
TORSDOF 0
ENDMDL
MODEL 7
REMARK VINA RESULT:      -2.7     16.546     16.817
REMARK  0 active torsions:
REMARK  status: ('A' for Active; 'I' for Inactive)
ROOT
HETATM    1  C1  UNL     1     -24.659  18.920   9.363  1.00 20.00     0.345 C 
HETATM    2  C2  UNL     1     -24.727  18.312  11.717  1.00 20.00     0.345 C 
HETATM    3  C3  UNL     1     -22.272  18.139  10.487  1.00 20.00     0.151 C 
HETATM    4  N4  UNL     1     -25.201  19.229  10.683  1.00 20.00     0.101 N 
HETATM    5  S5  UNL     1     -22.881  19.263   9.204  1.00 20.00    -0.129 SA
HETATM    6  S6  UNL     1     -22.966  18.509  12.118  1.00 20.00    -0.129 SA
HETATM    7  H13 UNL     1     -24.952  20.184  10.938  1.00 20.00     0.317 HD
ENDROOT
TORSDOF 0
ENDMDL
MODEL 8
REMARK VINA RESULT:      -2.7     15.971     16.122
REMARK  0 active torsions:
REMARK  status: ('A' for Active; 'I' for Inactive)
ROOT
HETATM    1  C1  UNL     1     -23.002  18.351   9.980  1.00 20.00     0.345 C 
HETATM    2  C2  UNL     1     -23.535  17.028  11.949  1.00 20.00     0.345 C 
HETATM    3  C3  UNL     1     -25.361  18.966  11.256  1.00 20.00     0.151 C 
HETATM    4  N4  UNL     1     -22.994  17.026  10.593  1.00 20.00     0.101 N 
HETATM    5  S5  UNL     1     -24.667  18.964   9.583  1.00 20.00    -0.129 SA
HETATM    6  S6  UNL     1     -25.326  17.325  12.022  1.00 20.00    -0.129 SA
HETATM    7  H13 UNL     1     -23.531  16.382  10.015  1.00 20.00     0.317 HD
ENDROOT
TORSDOF 0
ENDMDL
MODEL 9
REMARK VINA RESULT:      -2.7      1.964      2.460
REMARK  0 active torsions:
REMARK  status: ('A' for Active; 'I' for Inactive)
ROOT
HETATM    1  C1  UNL     1     -32.236   7.455   3.756  1.00 20.00     0.345 C 
HETATM    2  C2  UNL     1     -33.385   5.324   3.528  1.00 20.00     0.345 C 
HETATM    3  C3  UNL     1     -33.982   6.793   5.778  1.00 20.00     0.151 C 
HETATM    4  N4  UNL     1     -32.901   6.524   2.850  1.00 20.00     0.101 N 
HETATM    5  S5  UNL     1     -33.362   8.268   4.928  1.00 20.00    -0.129 SA
HETATM    6  S6  UNL     1     -34.785   5.629   4.646  1.00 20.00    -0.129 SA
HETATM    7  H13 UNL     1     -33.683   6.994   2.395  1.00 20.00     0.317 HD
ENDROOT
TORSDOF 0
ENDMDL
