MODEL 1
REMARK VINA RESULT:      -3.4      0.000      0.000
REMARK  4 active torsions:
REMARK  status: ('A' for Active; 'I' for Inactive)
REMARK    1  A    between atoms: C1_1  and  N8_8 
REMARK    2  A    between atoms: C1_1  and  N9_9 
REMARK    3  A    between atoms: C6_6  and  N8_8 
REMARK    4  A    between atoms: C7_7  and  N9_9 
ROOT
HETATM    1  N9  UNL     1     -32.423  19.049  -1.721  1.00 20.00    -0.220 NA
ENDROOT
BRANCH   1   2
HETATM    2  C1  UNL     1     -31.544  18.785  -0.991  1.00 20.00     0.091 C 
BRANCH   2   3
HETATM    3  N8  UNL     1     -30.676  18.508  -0.250  1.00 20.00    -0.231 NA
BRANCH   3   4
HETATM    4  C6  UNL     1     -30.689  19.260   1.008  1.00 20.00     0.156 C 
HETATM    5  C2  UNL     1     -30.423  18.308   2.156  1.00 20.00     0.029 C 
ENDBRANCH   3   4
ENDBRANCH   2   3
ENDBRANCH   1   2
BRANCH   1   6
HETATM    6  C7  UNL     1     -33.562  18.124  -1.655  1.00 20.00     0.053 C 
HETATM    7  C3  UNL     1     -34.764  18.791  -2.322  1.00 20.00     0.041 C 
HETATM    8  C4  UNL     1     -33.174  16.848  -2.401  1.00 20.00     0.041 C 
HETATM    9  C5  UNL     1     -33.853  17.821  -0.185  1.00 20.00     0.041 C 
ENDBRANCH   1   6
TORSDOF 4
ENDMDL
MODEL 2
REMARK VINA RESULT:      -3.3     11.880     12.705
REMARK  4 active torsions:
REMARK  status: ('A' for Active; 'I' for Inactive)
REMARK    1  A    between atoms: C1_1  and  N8_8 
REMARK    2  A    between atoms: C1_1  and  N9_9 
REMARK    3  A    between atoms: C6_6  and  N8_8 
REMARK    4  A    between atoms: C7_7  and  N9_9 
ROOT
HETATM    1  N9  UNL     1     -34.008   8.071   4.378  1.00 20.00    -0.220 NA
ENDROOT
BRANCH   1   2
HETATM    2  C1  UNL     1     -33.925   7.370   5.314  1.00 20.00     0.091 C 
BRANCH   2   3
HETATM    3  N8  UNL     1     -33.860   6.675   6.259  1.00 20.00    -0.231 NA
BRANCH   3   4
HETATM    4  C6  UNL     1     -34.714   5.486   6.197  1.00 20.00     0.156 C 
HETATM    5  C2  UNL     1     -34.506   4.797   4.864  1.00 20.00     0.029 C 
ENDBRANCH   3   4
ENDBRANCH   2   3
ENDBRANCH   1   2
BRANCH   1   6
HETATM    6  C7  UNL     1     -32.721   8.404   3.755  1.00 20.00     0.053 C 
HETATM    7  C3  UNL     1     -32.968   9.442   2.661  1.00 20.00     0.041 C 
HETATM    8  C4  UNL     1     -31.808   8.974   4.840  1.00 20.00     0.041 C 
HETATM    9  C5  UNL     1     -32.124   7.125   3.167  1.00 20.00     0.041 C 
ENDBRANCH   1   6
TORSDOF 4
ENDMDL
MODEL 3
REMARK VINA RESULT:      -3.2     13.519     14.547
REMARK  4 active torsions:
REMARK  status: ('A' for Active; 'I' for Inactive)
REMARK    1  A    between atoms: C1_1  and  N8_8 
REMARK    2  A    between atoms: C1_1  and  N9_9 
REMARK    3  A    between atoms: C6_6  and  N8_8 
REMARK    4  A    between atoms: C7_7  and  N9_9 
ROOT
HETATM    1  N9  UNL     1     -23.472  16.942   9.908  1.00 20.00    -0.220 NA
ENDROOT
BRANCH   1   2
HETATM    2  C1  UNL     1     -23.901  17.038  10.995  1.00 20.00     0.091 C 
BRANCH   2   3
HETATM    3  N8  UNL     1     -24.322  17.116  12.088  1.00 20.00    -0.231 NA
BRANCH   3   4
HETATM    4  C6  UNL     1     -25.705  17.593  12.174  1.00 20.00     0.156 C 
HETATM    5  C2  UNL     1     -25.699  19.100  12.330  1.00 20.00     0.029 C 
ENDBRANCH   3   4
ENDBRANCH   2   3
ENDBRANCH   1   2
BRANCH   1   6
HETATM    6  C7  UNL     1     -22.721  18.116   9.447  1.00 20.00     0.053 C 
HETATM    7  C3  UNL     1     -21.727  18.512  10.538  1.00 20.00     0.041 C 
HETATM    8  C4  UNL     1     -21.984  17.729   8.165  1.00 20.00     0.041 C 
HETATM    9  C5  UNL     1     -23.712  19.249   9.177  1.00 20.00     0.041 C 
ENDBRANCH   1   6
TORSDOF 4
ENDMDL
MODEL 4
REMARK VINA RESULT:      -3.2     13.948     14.597
REMARK  4 active torsions:
REMARK  status: ('A' for Active; 'I' for Inactive)
REMARK    1  A    between atoms: C1_1  and  N8_8 
REMARK    2  A    between atoms: C1_1  and  N9_9 
REMARK    3  A    between atoms: C6_6  and  N8_8 
REMARK    4  A    between atoms: C7_7  and  N9_9 
ROOT
HETATM    1  N9  UNL     1     -23.732  17.380  10.121  1.00 20.00    -0.220 NA
ENDROOT
BRANCH   1   2
HETATM    2  C1  UNL     1     -23.200  18.300   9.625  1.00 20.00     0.091 C 
BRANCH   2   3
HETATM    3  N8  UNL     1     -22.671  19.233   9.146  1.00 20.00    -0.231 NA
BRANCH   3   4
HETATM    4  C6  UNL     1     -21.293  18.991   8.708  1.00 20.00     0.156 C 
HETATM    5  C2  UNL     1     -21.293  17.896   7.661  1.00 20.00     0.029 C 
ENDBRANCH   3   4
ENDBRANCH   2   3
ENDBRANCH   1   2
BRANCH   1   6
HETATM    6  C7  UNL     1     -24.145  17.598  11.513  1.00 20.00     0.053 C 
HETATM    7  C3  UNL     1     -25.300  18.599  11.522  1.00 20.00     0.041 C 
HETATM    8  C4  UNL     1     -24.594  16.254  12.085  1.00 20.00     0.041 C 
HETATM    9  C5  UNL     1     -22.947  18.142  12.293  1.00 20.00     0.041 C 
ENDBRANCH   1   6
TORSDOF 4
ENDMDL
MODEL 5
REMARK VINA RESULT:      -3.2     11.152     12.250
REMARK  4 active torsions:
REMARK  status: ('A' for Active; 'I' for Inactive)
REMARK    1  A    between atoms: C1_1  and  N8_8 
REMARK    2  A    between atoms: C1_1  and  N9_9 
REMARK    3  A    between atoms: C6_6  and  N8_8 
REMARK    4  A    between atoms: C7_7  and  N9_9 
ROOT
HETATM    1  N9  UNL     1     -40.666  14.130   6.731  1.00 20.00    -0.220 NA
ENDROOT
BRANCH   1   2
HETATM    2  C1  UNL     1     -40.155  13.084   6.587  1.00 20.00     0.091 C 
BRANCH   2   3
HETATM    3  N8  UNL     1     -39.627  12.046   6.434  1.00 20.00    -0.231 NA
BRANCH   3   4
HETATM    4  C6  UNL     1     -38.540  12.058   5.451  1.00 20.00     0.156 C 
HETATM    5  C2  UNL     1     -39.086  11.626   4.105  1.00 20.00     0.029 C 
ENDBRANCH   3   4
ENDBRANCH   2   3
ENDBRANCH   1   2
BRANCH   1   6
HETATM    6  C7  UNL     1     -42.013  14.230   6.155  1.00 20.00     0.053 C 
HETATM    7  C3  UNL     1     -42.865  13.093   6.719  1.00 20.00     0.041 C 
HETATM    8  C4  UNL     1     -42.595  15.585   6.555  1.00 20.00     0.041 C 
HETATM    9  C5  UNL     1     -41.897  14.121   4.634  1.00 20.00     0.041 C 
ENDBRANCH   1   6
TORSDOF 4
ENDMDL
MODEL 6
REMARK VINA RESULT:      -3.1     11.990     12.822
REMARK  4 active torsions:
REMARK  status: ('A' for Active; 'I' for Inactive)
REMARK    1  A    between atoms: C1_1  and  N8_8 
REMARK    2  A    between atoms: C1_1  and  N9_9 
REMARK    3  A    between atoms: C6_6  and  N8_8 
REMARK    4  A    between atoms: C7_7  and  N9_9 
ROOT
HETATM    1  N9  UNL     1     -33.759   7.208   4.917  1.00 20.00    -0.220 NA
ENDROOT
BRANCH   1   2
HETATM    2  C1  UNL     1     -32.988   7.437   4.063  1.00 20.00     0.091 C 
BRANCH   2   3
HETATM    3  N8  UNL     1     -32.217   7.686   3.214  1.00 20.00    -0.231 NA
BRANCH   3   4
HETATM    4  C6  UNL     1     -32.570   8.850   2.396  1.00 20.00     0.156 C 
HETATM    5  C2  UNL     1     -32.267   8.543   0.943  1.00 20.00     0.029 C 
ENDBRANCH   3   4
ENDBRANCH   2   3
ENDBRANCH   1   2
BRANCH   1   6
HETATM    6  C7  UNL     1     -34.432   5.909   4.792  1.00 20.00     0.053 C 
HETATM    7  C3  UNL     1     -34.527   5.279   6.181  1.00 20.00     0.041 C 
HETATM    8  C4  UNL     1     -35.827   6.156   4.217  1.00 20.00     0.041 C 
HETATM    9  C5  UNL     1     -33.611   5.028   3.850  1.00 20.00     0.041 C 
ENDBRANCH   1   6
TORSDOF 4
ENDMDL
MODEL 7
REMARK VINA RESULT:      -3.1      2.196      4.460
REMARK  4 active torsions:
REMARK  status: ('A' for Active; 'I' for Inactive)
REMARK    1  A    between atoms: C1_1  and  N8_8 
REMARK    2  A    between atoms: C1_1  and  N9_9 
REMARK    3  A    between atoms: C6_6  and  N8_8 
REMARK    4  A    between atoms: C7_7  and  N9_9 
ROOT
HETATM    1  N9  UNL     1     -33.625  16.826  -1.480  1.00 20.00    -0.220 NA
ENDROOT
BRANCH   1   2
HETATM    2  C1  UNL     1     -33.435  16.705  -2.630  1.00 20.00     0.091 C 
BRANCH   2   3
HETATM    3  N8  UNL     1     -33.243  16.563  -3.780  1.00 20.00    -0.231 NA
BRANCH   3   4
HETATM    4  C6  UNL     1     -32.951  15.185  -4.182  1.00 20.00     0.156 C 
HETATM    5  C2  UNL     1     -34.244  14.396  -4.214  1.00 20.00     0.029 C 
ENDBRANCH   3   4
ENDBRANCH   2   3
ENDBRANCH   1   2
BRANCH   1   6
HETATM    6  C7  UNL     1     -33.538  18.209  -0.993  1.00 20.00     0.053 C 
HETATM    7  C3  UNL     1     -33.862  18.217   0.500  1.00 20.00     0.041 C 
HETATM    8  C4  UNL     1     -32.111  18.702  -1.236  1.00 20.00     0.041 C 
HETATM    9  C5  UNL     1     -34.541  19.059  -1.773  1.00 20.00     0.041 C 
ENDBRANCH   1   6
TORSDOF 4
ENDMDL
MODEL 8
REMARK VINA RESULT:      -3.1      2.205      4.416
REMARK  4 active torsions:
REMARK  status: ('A' for Active; 'I' for Inactive)
REMARK    1  A    between atoms: C1_1  and  N8_8 
REMARK    2  A    between atoms: C1_1  and  N9_9 
REMARK    3  A    between atoms: C6_6  and  N8_8 
REMARK    4  A    between atoms: C7_7  and  N9_9 
ROOT
HETATM    1  N9  UNL     1     -33.634  16.829  -1.477  1.00 20.00    -0.220 NA
ENDROOT
BRANCH   1   2
HETATM    2  C1  UNL     1     -33.446  16.701  -2.628  1.00 20.00     0.091 C 
BRANCH   2   3
HETATM    3  N8  UNL     1     -33.240  16.561  -3.775  1.00 20.00    -0.231 NA
BRANCH   3   4
HETATM    4  C6  UNL     1     -32.947  15.182  -4.176  1.00 20.00     0.156 C 
HETATM    5  C2  UNL     1     -34.241  14.395  -4.219  1.00 20.00     0.029 C 
ENDBRANCH   3   4
ENDBRANCH   2   3
ENDBRANCH   1   2
BRANCH   1   6
HETATM    6  C7  UNL     1     -33.561  18.217  -1.003  1.00 20.00     0.053 C 
HETATM    7  C3  UNL     1     -34.612  19.038  -1.749  1.00 20.00     0.041 C 
HETATM    8  C4  UNL     1     -33.848  18.215   0.499  1.00 20.00     0.041 C 
HETATM    9  C5  UNL     1     -32.155  18.749  -1.282  1.00 20.00     0.041 C 
ENDBRANCH   1   6
TORSDOF 4
ENDMDL
MODEL 9
REMARK VINA RESULT:      -3.1     12.056     12.837
REMARK  4 active torsions:
REMARK  status: ('A' for Active; 'I' for Inactive)
REMARK    1  A    between atoms: C1_1  and  N8_8 
REMARK    2  A    between atoms: C1_1  and  N9_9 
REMARK    3  A    between atoms: C6_6  and  N8_8 
REMARK    4  A    between atoms: C7_7  and  N9_9 
ROOT
HETATM    1  N9  UNL     1     -33.951   7.249   5.253  1.00 20.00    -0.220 NA
ENDROOT
BRANCH   1   2
HETATM    2  C1  UNL     1     -33.038   7.643   4.631  1.00 20.00     0.091 C 
BRANCH   2   3
HETATM    3  N8  UNL     1     -32.132   8.057   4.008  1.00 20.00    -0.231 NA
BRANCH   3   4
HETATM    4  C6  UNL     1     -32.513   8.862   2.845  1.00 20.00     0.156 C 
HETATM    5  C2  UNL     1     -32.172   8.098   1.582  1.00 20.00     0.029 C 
ENDBRANCH   3   4
ENDBRANCH   2   3
ENDBRANCH   1   2
BRANCH   1   6
HETATM    6  C7  UNL     1     -34.457   5.940   4.822  1.00 20.00     0.053 C 
HETATM    7  C3  UNL     1     -33.510   5.382   3.760  1.00 20.00     0.041 C 
HETATM    8  C4  UNL     1     -34.491   5.024   6.045  1.00 20.00     0.041 C 
HETATM    9  C5  UNL     1     -35.863   6.129   4.252  1.00 20.00     0.041 C 
ENDBRANCH   1   6
TORSDOF 4
ENDMDL
