MODEL 1
REMARK VINA RESULT:      -3.4      0.000      0.000
REMARK  0 active torsions:
REMARK  status: ('A' for Active; 'I' for Inactive)
ROOT
HETATM    1  C1  UNL     1     -22.256  18.641  11.565  1.00 20.00     0.129 C 
HETATM    2  C2  UNL     1     -23.680  18.653  12.104  1.00 20.00     0.093 C 
HETATM    3  C3  UNL     1     -22.041  18.867  10.076  1.00 20.00     0.093 C 
HETATM    4  C4  UNL     1     -24.287  16.620  10.705  1.00 20.00     0.017 C 
HETATM    5  C5  UNL     1     -23.323  16.745   9.512  1.00 20.00     0.017 C 
HETATM    6  C6  UNL     1     -24.708  18.019  11.166  1.00 20.00     0.054 C 
HETATM    7  C7  UNL     1     -23.108  18.227   9.186  1.00 20.00     0.054 C 
HETATM    8  O8  UNL     1     -21.295  18.560  12.332  1.00 20.00    -0.298 OA
HETATM    9  S9  UNL     1     -24.715  18.933   9.610  1.00 20.00    -0.159 SA
ENDROOT
TORSDOF 0
ENDMDL
MODEL 2
REMARK VINA RESULT:      -3.3     23.945     25.036
REMARK  0 active torsions:
REMARK  status: ('A' for Active; 'I' for Inactive)
ROOT
HETATM    1  C1  UNL     1     -43.198   4.887   0.956  1.00 20.00     0.129 C 
HETATM    2  C2  UNL     1     -43.143   5.133  -0.546  1.00 20.00     0.093 C 
HETATM    3  C3  UNL     1     -43.204   6.088   1.889  1.00 20.00     0.093 C 
HETATM    4  C4  UNL     1     -40.859   6.229  -0.340  1.00 20.00     0.017 C 
HETATM    5  C5  UNL     1     -40.895   6.790   1.093  1.00 20.00     0.017 C 
HETATM    6  C6  UNL     1     -42.260   6.313  -0.953  1.00 20.00     0.054 C 
HETATM    7  C7  UNL     1     -42.320   7.246   1.424  1.00 20.00     0.054 C 
HETATM    8  O8  UNL     1     -43.344   3.747   1.400  1.00 20.00    -0.298 OA
HETATM    9  S9  UNL     1     -42.907   7.813  -0.186  1.00 20.00    -0.159 SA
ENDROOT
TORSDOF 0
ENDMDL
MODEL 3
REMARK VINA RESULT:      -3.2     16.825     17.690
REMARK  0 active torsions:
REMARK  status: ('A' for Active; 'I' for Inactive)
ROOT
HETATM    1  C1  UNL     1     -33.407  16.312  -3.583  1.00 20.00     0.129 C 
HETATM    2  C2  UNL     1     -34.303  17.040  -4.575  1.00 20.00     0.093 C 
HETATM    3  C3  UNL     1     -33.482  16.701  -2.114  1.00 20.00     0.093 C 
HETATM    4  C4  UNL     1     -33.146  19.249  -4.085  1.00 20.00     0.017 C 
HETATM    5  C5  UNL     1     -32.662  19.050  -2.638  1.00 20.00     0.017 C 
HETATM    6  C6  UNL     1     -34.485  18.529  -4.277  1.00 20.00     0.054 C 
HETATM    7  C7  UNL     1     -33.681  18.199  -1.874  1.00 20.00     0.054 C 
HETATM    8  O8  UNL     1     -32.719  15.356  -3.945  1.00 20.00    -0.298 OA
HETATM    9  S9  UNL     1     -35.233  18.706  -2.644  1.00 20.00    -0.159 SA
ENDROOT
TORSDOF 0
ENDMDL
MODEL 4
REMARK VINA RESULT:      -3.2      1.733      2.367
REMARK  0 active torsions:
REMARK  status: ('A' for Active; 'I' for Inactive)
ROOT
HETATM    1  C1  UNL     1     -22.701  18.387   9.807  1.00 20.00     0.129 C 
HETATM    2  C2  UNL     1     -22.068  18.515  11.186  1.00 20.00     0.093 C 
HETATM    3  C3  UNL     1     -24.186  18.685   9.658  1.00 20.00     0.093 C 
HETATM    4  C4  UNL     1     -23.540  16.654  12.096  1.00 20.00     0.017 C 
HETATM    5  C5  UNL     1     -24.786  16.753  11.197  1.00 20.00     0.017 C 
HETATM    6  C6  UNL     1     -22.971  18.056  12.332  1.00 20.00     0.054 C 
HETATM    7  C7  UNL     1     -25.038  18.222  10.840  1.00 20.00     0.054 C 
HETATM    8  O8  UNL     1     -22.006  18.154   8.817  1.00 20.00    -0.298 OA
HETATM    9  S9  UNL     1     -24.468  19.065  12.331  1.00 20.00    -0.159 SA
ENDROOT
TORSDOF 0
ENDMDL
MODEL 5
REMARK VINA RESULT:      -3.1     16.122     16.993
REMARK  0 active torsions:
REMARK  status: ('A' for Active; 'I' for Inactive)
ROOT
HETATM    1  C1  UNL     1     -32.738   7.132   3.902  1.00 20.00     0.129 C 
HETATM    2  C2  UNL     1     -33.735   7.896   4.762  1.00 20.00     0.093 C 
HETATM    3  C3  UNL     1     -33.204   5.863   3.203  1.00 20.00     0.093 C 
HETATM    4  C4  UNL     1     -33.959   5.926   6.352  1.00 20.00     0.017 C 
HETATM    5  C5  UNL     1     -33.645   4.730   5.436  1.00 20.00     0.017 C 
HETATM    6  C6  UNL     1     -34.695   7.002   5.548  1.00 20.00     0.054 C 
HETATM    7  C7  UNL     1     -34.176   5.017   4.027  1.00 20.00     0.054 C 
HETATM    8  O8  UNL     1     -31.614   7.589   3.688  1.00 20.00    -0.298 OA
HETATM    9  S9  UNL     1     -35.645   6.004   4.382  1.00 20.00    -0.159 SA
ENDROOT
TORSDOF 0
ENDMDL
MODEL 6
REMARK VINA RESULT:      -3.1     19.108     20.209
REMARK  0 active torsions:
REMARK  status: ('A' for Active; 'I' for Inactive)
ROOT
HETATM    1  C1  UNL     1     -25.433  -1.311  12.017  1.00 20.00     0.129 C 
HETATM    2  C2  UNL     1     -25.824  -2.777  12.143  1.00 20.00     0.093 C 
HETATM    3  C3  UNL     1     -26.521  -0.255  12.140  1.00 20.00     0.093 C 
HETATM    4  C4  UNL     1     -27.284  -2.625  10.068  1.00 20.00     0.017 C 
HETATM    5  C5  UNL     1     -27.694  -1.141  10.065  1.00 20.00     0.017 C 
HETATM    6  C6  UNL     1     -27.176  -3.119  11.515  1.00 20.00     0.054 C 
HETATM    7  C7  UNL     1     -27.856  -0.657  11.510  1.00 20.00     0.054 C 
HETATM    8  O8  UNL     1     -24.249  -0.984  11.927  1.00 20.00    -0.298 OA
HETATM    9  S9  UNL     1     -28.458  -2.147  12.332  1.00 20.00    -0.159 SA
ENDROOT
TORSDOF 0
ENDMDL
MODEL 7
REMARK VINA RESULT:      -3.1     18.892     19.658
REMARK  0 active torsions:
REMARK  status: ('A' for Active; 'I' for Inactive)
ROOT
HETATM    1  C1  UNL     1     -33.803  16.193  -3.974  1.00 20.00     0.129 C 
HETATM    2  C2  UNL     1     -34.235  17.507  -4.610  1.00 20.00     0.093 C 
HETATM    3  C3  UNL     1     -33.603  14.981  -4.872  1.00 20.00     0.093 C 
HETATM    4  C4  UNL     1     -36.430  16.480  -5.375  1.00 20.00     0.017 C 
HETATM    5  C5  UNL     1     -36.059  14.994  -5.529  1.00 20.00     0.017 C 
HETATM    6  C6  UNL     1     -35.227  17.346  -5.763  1.00 20.00     0.054 C 
HETATM    7  C7  UNL     1     -34.611  14.880  -6.018  1.00 20.00     0.054 C 
HETATM    8  O8  UNL     1     -33.516  16.140  -2.777  1.00 20.00    -0.298 OA
HETATM    9  S9  UNL     1     -34.458  16.348  -7.056  1.00 20.00    -0.159 SA
ENDROOT
TORSDOF 0
ENDMDL
MODEL 8
REMARK VINA RESULT:      -3.1     19.447     20.246
REMARK  0 active torsions:
REMARK  status: ('A' for Active; 'I' for Inactive)
ROOT
HETATM    1  C1  UNL     1     -34.243  14.787  -4.613  1.00 20.00     0.129 C 
HETATM    2  C2  UNL     1     -35.602  14.269  -5.060  1.00 20.00     0.093 C 
HETATM    3  C3  UNL     1     -34.050  16.290  -4.467  1.00 20.00     0.093 C 
HETATM    4  C4  UNL     1     -35.382  15.452  -7.298  1.00 20.00     0.017 C 
HETATM    5  C5  UNL     1     -34.468  16.641  -6.950  1.00 20.00     0.017 C 
HETATM    6  C6  UNL     1     -36.293  15.146  -6.105  1.00 20.00     0.054 C 
HETATM    7  C7  UNL     1     -34.777  17.119  -5.527  1.00 20.00     0.054 C 
HETATM    8  O8  UNL     1     -33.353  14.005  -4.273  1.00 20.00    -0.298 OA
HETATM    9  S9  UNL     1     -36.548  16.790  -5.405  1.00 20.00    -0.159 SA
ENDROOT
TORSDOF 0
ENDMDL
MODEL 9
REMARK VINA RESULT:      -3.0     19.502     20.492
REMARK  0 active torsions:
REMARK  status: ('A' for Active; 'I' for Inactive)
ROOT
HETATM    1  C1  UNL     1     -27.424  -0.821  10.435  1.00 20.00     0.129 C 
HETATM    2  C2  UNL     1     -26.839  -0.615  11.825  1.00 20.00     0.093 C 
HETATM    3  C3  UNL     1     -27.826  -2.228  10.017  1.00 20.00     0.093 C 
HETATM    4  C4  UNL     1     -24.841  -2.081  11.264  1.00 20.00     0.017 C 
HETATM    5  C5  UNL     1     -25.421  -3.030  10.199  1.00 20.00     0.017 C 
HETATM    6  C6  UNL     1     -25.926  -1.749  12.293  1.00 20.00     0.054 C 
HETATM    7  C7  UNL     1     -26.889  -3.323  10.527  1.00 20.00     0.054 C 
HETATM    8  O8  UNL     1     -27.668   0.143   9.708  1.00 20.00    -0.298 OA
HETATM    9  S9  UNL     1     -26.877  -3.282  12.332  1.00 20.00    -0.159 SA
ENDROOT
TORSDOF 0
ENDMDL
