MODEL 1
REMARK VINA RESULT:      -5.0      0.000      0.000
REMARK  2 active torsions:
REMARK  status: ('A' for Active; 'I' for Inactive)
REMARK    1  A    between atoms: C1_1  and  C3_3 
REMARK    2  A    between atoms: C2_2  and  C5_5 
ROOT
HETATM    1  C1  UNL     1     -33.995   6.980   6.385  1.00 20.00     0.003 C 
HETATM    2  C2  UNL     1     -34.495   5.738   6.354  1.00 20.00     0.041 C 
ENDROOT
BRANCH   1   3
HETATM    3  C3  UNL     1     -33.821   7.782   5.194  1.00 20.00    -0.004 C 
HETATM    4  C4  UNL     1     -32.626   8.000   4.624  1.00 20.00    -0.031 C 
HETATM    5  C6  UNL     1     -32.435   8.827   3.396  1.00 20.00     0.036 C 
ENDBRANCH   1   3
BRANCH   2   6
HETATM    6  C5  UNL     1     -34.886   5.157   5.055  1.00 20.00     0.258 C 
HETATM    7  O7  UNL     1     -34.246   4.253   4.531  1.00 20.00    -0.302 OA
ENDBRANCH   2   6
TORSDOF 2
ENDMDL
MODEL 2
REMARK VINA RESULT:      -4.5      1.961      3.733
REMARK  2 active torsions:
REMARK  status: ('A' for Active; 'I' for Inactive)
REMARK    1  A    between atoms: C1_1  and  C3_3 
REMARK    2  A    between atoms: C2_2  and  C5_5 
ROOT
HETATM    1  C1  UNL     1     -33.244   8.436   5.069  1.00 20.00     0.003 C 
HETATM    2  C2  UNL     1     -32.308   8.607   4.127  1.00 20.00     0.041 C 
ENDROOT
BRANCH   1   3
HETATM    3  C3  UNL     1     -34.024   7.223   5.184  1.00 20.00    -0.004 C 
HETATM    4  C4  UNL     1     -34.016   6.447   6.278  1.00 20.00    -0.031 C 
HETATM    5  C6  UNL     1     -34.816   5.193   6.408  1.00 20.00     0.036 C 
ENDBRANCH   1   3
BRANCH   2   6
HETATM    6  C5  UNL     1     -32.056   7.518   3.162  1.00 20.00     0.258 C 
HETATM    7  O7  UNL     1     -32.190   7.679   1.955  1.00 20.00    -0.302 OA
ENDBRANCH   2   6
TORSDOF 2
ENDMDL
MODEL 3
REMARK VINA RESULT:      -3.9      2.248      3.067
REMARK  2 active torsions:
REMARK  status: ('A' for Active; 'I' for Inactive)
REMARK    1  A    between atoms: C1_1  and  C3_3 
REMARK    2  A    between atoms: C2_2  and  C5_5 
ROOT
HETATM    1  C1  UNL     1     -34.540   5.734   5.771  1.00 20.00     0.003 C 
HETATM    2  C2  UNL     1     -34.215   6.909   6.324  1.00 20.00     0.041 C 
ENDROOT
BRANCH   1   3
HETATM    3  C3  UNL     1     -34.458   5.492   4.347  1.00 20.00    -0.004 C 
HETATM    4  C4  UNL     1     -33.324   5.132   3.728  1.00 20.00    -0.031 C 
HETATM    5  C6  UNL     1     -33.227   4.881   2.259  1.00 20.00     0.036 C 
ENDBRANCH   1   3
BRANCH   2   6
HETATM    6  C5  UNL     1     -33.754   8.007   5.453  1.00 20.00     0.258 C 
HETATM    7  O7  UNL     1     -32.564   8.231   5.267  1.00 20.00    -0.302 OA
ENDBRANCH   2   6
TORSDOF 2
ENDMDL
MODEL 4
REMARK VINA RESULT:      -3.7      1.531      1.969
REMARK  2 active torsions:
REMARK  status: ('A' for Active; 'I' for Inactive)
REMARK    1  A    between atoms: C1_1  and  C3_3 
REMARK    2  A    between atoms: C2_2  and  C5_5 
ROOT
HETATM    1  C1  UNL     1     -34.126   5.786   3.859  1.00 20.00     0.003 C 
HETATM    2  C2  UNL     1     -34.780   5.098   4.803  1.00 20.00     0.041 C 
ENDROOT
BRANCH   1   3
HETATM    3  C3  UNL     1     -33.080   6.737   4.169  1.00 20.00    -0.004 C 
HETATM    4  C4  UNL     1     -33.312   8.042   4.373  1.00 20.00    -0.031 C 
HETATM    5  C6  UNL     1     -32.241   9.032   4.692  1.00 20.00     0.036 C 
ENDBRANCH   1   3
BRANCH   2   6
HETATM    6  C5  UNL     1     -34.427   5.313   6.220  1.00 20.00     0.258 C 
HETATM    7  O7  UNL     1     -34.842   6.277   6.852  1.00 20.00    -0.302 OA
ENDBRANCH   2   6
TORSDOF 2
ENDMDL
MODEL 5
REMARK VINA RESULT:      -3.7     12.665     13.153
REMARK  2 active torsions:
REMARK  status: ('A' for Active; 'I' for Inactive)
REMARK    1  A    between atoms: C1_1  and  C3_3 
REMARK    2  A    between atoms: C2_2  and  C5_5 
ROOT
HETATM    1  C1  UNL     1     -33.671  17.400  -1.128  1.00 20.00     0.003 C 
HETATM    2  C2  UNL     1     -33.027  18.325  -0.406  1.00 20.00     0.041 C 
ENDROOT
BRANCH   1   3
HETATM    3  C3  UNL     1     -33.171  16.908  -2.393  1.00 20.00    -0.004 C 
HETATM    4  C4  UNL     1     -33.681  15.836  -3.016  1.00 20.00    -0.031 C 
HETATM    5  C6  UNL     1     -33.173  15.318  -4.321  1.00 20.00     0.036 C 
ENDBRANCH   1   3
BRANCH   2   6
HETATM    6  C5  UNL     1     -31.754  18.871  -0.915  1.00 20.00     0.258 C 
HETATM    7  O7  UNL     1     -30.672  18.541  -0.443  1.00 20.00    -0.302 OA
ENDBRANCH   2   6
TORSDOF 2
ENDMDL
MODEL 6
REMARK VINA RESULT:      -3.6      2.419      4.068
REMARK  2 active torsions:
REMARK  status: ('A' for Active; 'I' for Inactive)
REMARK    1  A    between atoms: C1_1  and  C3_3 
REMARK    2  A    between atoms: C2_2  and  C5_5 
ROOT
HETATM    1  C1  UNL     1     -33.445   5.554   3.123  1.00 20.00     0.003 C 
HETATM    2  C2  UNL     1     -32.474   6.364   2.682  1.00 20.00     0.041 C 
ENDROOT
BRANCH   1   3
HETATM    3  C3  UNL     1     -34.235   5.851   4.299  1.00 20.00    -0.004 C 
HETATM    4  C4  UNL     1     -34.164   5.134   5.430  1.00 20.00    -0.031 C 
HETATM    5  C6  UNL     1     -34.976   5.430   6.648  1.00 20.00     0.036 C 
ENDBRANCH   1   3
BRANCH   2   6
HETATM    6  C5  UNL     1     -32.192   7.610   3.419  1.00 20.00     0.258 C 
HETATM    7  O7  UNL     1     -32.641   8.692   3.059  1.00 20.00    -0.302 OA
ENDBRANCH   2   6
TORSDOF 2
ENDMDL
MODEL 7
REMARK VINA RESULT:      -3.6      1.773      2.366
REMARK  2 active torsions:
REMARK  status: ('A' for Active; 'I' for Inactive)
REMARK    1  A    between atoms: C1_1  and  C3_3 
REMARK    2  A    between atoms: C2_2  and  C5_5 
ROOT
HETATM    1  C1  UNL     1     -32.533   6.272   2.671  1.00 20.00     0.003 C 
HETATM    2  C2  UNL     1     -33.220   5.171   3.001  1.00 20.00     0.041 C 
ENDROOT
BRANCH   1   3
HETATM    3  C3  UNL     1     -32.762   7.554   3.301  1.00 20.00    -0.004 C 
HETATM    4  C4  UNL     1     -31.994   8.033   4.290  1.00 20.00    -0.031 C 
HETATM    5  C6  UNL     1     -32.222   9.354   4.948  1.00 20.00     0.036 C 
ENDBRANCH   1   3
BRANCH   2   6
HETATM    6  C5  UNL     1     -34.256   5.262   4.048  1.00 20.00     0.258 C 
HETATM    7  O7  UNL     1     -34.441   4.360   4.856  1.00 20.00    -0.302 OA
ENDBRANCH   2   6
TORSDOF 2
ENDMDL
MODEL 8
REMARK VINA RESULT:      -3.6      2.007      2.826
REMARK  2 active torsions:
REMARK  status: ('A' for Active; 'I' for Inactive)
REMARK    1  A    between atoms: C1_1  and  C3_3 
REMARK    2  A    between atoms: C2_2  and  C5_5 
ROOT
HETATM    1  C1  UNL     1     -33.161   8.250   4.307  1.00 20.00     0.003 C 
HETATM    2  C2  UNL     1     -33.660   8.240   5.549  1.00 20.00     0.041 C 
ENDROOT
BRANCH   1   3
HETATM    3  C3  UNL     1     -32.612   7.070   3.675  1.00 20.00    -0.004 C 
HETATM    4  C4  UNL     1     -33.371   6.114   3.122  1.00 20.00    -0.031 C 
HETATM    5  C6  UNL     1     -32.815   4.891   2.469  1.00 20.00     0.036 C 
ENDBRANCH   1   3
BRANCH   2   6
HETATM    6  C5  UNL     1     -33.651   6.977   6.313  1.00 20.00     0.258 C 
HETATM    7  O7  UNL     1     -34.663   6.301   6.460  1.00 20.00    -0.302 OA
ENDBRANCH   2   6
TORSDOF 2
ENDMDL
MODEL 9
REMARK VINA RESULT:      -3.4     15.274     16.344
REMARK  2 active torsions:
REMARK  status: ('A' for Active; 'I' for Inactive)
REMARK    1  A    between atoms: C1_1  and  C3_3 
REMARK    2  A    between atoms: C2_2  and  C5_5 
ROOT
HETATM    1  C1  UNL     1     -23.331  18.892   9.445  1.00 20.00     0.003 C 
HETATM    2  C2  UNL     1     -22.564  18.765   8.355  1.00 20.00     0.041 C 
ENDROOT
BRANCH   1   3
HETATM    3  C3  UNL     1     -23.324  17.926  10.522  1.00 20.00    -0.004 C 
HETATM    4  C4  UNL     1     -24.362  17.120  10.792  1.00 20.00    -0.031 C 
HETATM    5  C6  UNL     1     -24.366  16.120  11.901  1.00 20.00     0.036 C 
ENDBRANCH   1   3
BRANCH   2   6
HETATM    6  C5  UNL     1     -21.673  17.595   8.239  1.00 20.00     0.258 C 
HETATM    7  O7  UNL     1     -21.603  16.934   7.210  1.00 20.00    -0.302 OA
ENDBRANCH   2   6
TORSDOF 2
ENDMDL
