MODEL 1
REMARK VINA RESULT:      -4.7      0.000      0.000
REMARK  3 active torsions:
REMARK  status: ('A' for Active; 'I' for Inactive)
REMARK    1  A    between atoms: C1_1  and  C2_2 
REMARK    2  A    between atoms: C4_4  and  C6_6 
REMARK    3  A    between atoms: C6_6  and  O7_7 
ROOT
HETATM    1  C2  UNL     1     -33.995   7.223   5.189  1.00 20.00    -0.002 C 
HETATM    2  C4  UNL     1     -33.996   6.456   6.290  1.00 20.00    -0.001 C 
ENDROOT
BRANCH   1   3
HETATM    3  C1  UNL     1     -33.197   8.420   5.061  1.00 20.00    -0.005 C 
HETATM    4  C3  UNL     1     -32.337   8.624   4.051  1.00 20.00    -0.031 C 
HETATM    5  C5  UNL     1     -32.106   7.642   2.949  1.00 20.00     0.036 C 
ENDBRANCH   1   3
BRANCH   2   6
HETATM    6  C6  UNL     1     -34.817   5.213   6.430  1.00 20.00     0.191 C 
BRANCH   6   7
HETATM    7  O7  UNL     1     -35.253   4.780   5.149  1.00 20.00    -0.397 OA
HETATM    8  H17 UNL     1     -35.559   5.571   4.676  1.00 20.00     0.209 HD
ENDBRANCH   6   7
ENDBRANCH   2   6
TORSDOF 3
ENDMDL
MODEL 2
REMARK VINA RESULT:      -4.6      2.121      3.841
REMARK  3 active torsions:
REMARK  status: ('A' for Active; 'I' for Inactive)
REMARK    1  A    between atoms: C1_1  and  C2_2 
REMARK    2  A    between atoms: C4_4  and  C6_6 
REMARK    3  A    between atoms: C6_6  and  O7_7 
ROOT
HETATM    1  C2  UNL     1     -33.832   7.792   5.126  1.00 20.00    -0.002 C 
HETATM    2  C4  UNL     1     -32.632   7.901   4.536  1.00 20.00    -0.001 C 
ENDROOT
BRANCH   1   3
HETATM    3  C1  UNL     1     -34.047   7.053   6.349  1.00 20.00    -0.005 C 
HETATM    4  C3  UNL     1     -34.447   5.773   6.372  1.00 20.00    -0.031 C 
HETATM    5  C5  UNL     1     -34.716   4.967   5.143  1.00 20.00     0.036 C 
ENDBRANCH   1   3
BRANCH   2   6
HETATM    6  C6  UNL     1     -32.399   8.666   3.272  1.00 20.00     0.191 C 
BRANCH   6   7
HETATM    7  O7  UNL     1     -32.164   7.762   2.202  1.00 20.00    -0.397 OA
HETATM    8  H17 UNL     1     -31.203   7.733   2.067  1.00 20.00     0.209 HD
ENDBRANCH   6   7
ENDBRANCH   2   6
TORSDOF 3
ENDMDL
MODEL 3
REMARK VINA RESULT:      -4.4      2.381      3.924
REMARK  3 active torsions:
REMARK  status: ('A' for Active; 'I' for Inactive)
REMARK    1  A    between atoms: C1_1  and  C2_2 
REMARK    2  A    between atoms: C4_4  and  C6_6 
REMARK    3  A    between atoms: C6_6  and  O7_7 
ROOT
HETATM    1  C2  UNL     1     -33.412   7.157   5.952  1.00 20.00    -0.002 C 
HETATM    2  C4  UNL     1     -33.547   7.977   4.899  1.00 20.00    -0.001 C 
ENDROOT
BRANCH   1   3
HETATM    3  C1  UNL     1     -34.488   6.335   6.457  1.00 20.00    -0.005 C 
HETATM    4  C3  UNL     1     -34.896   5.208   5.854  1.00 20.00    -0.031 C 
HETATM    5  C5  UNL     1     -34.289   4.676   4.597  1.00 20.00     0.036 C 
ENDBRANCH   1   3
BRANCH   2   6
HETATM    6  C6  UNL     1     -32.438   8.829   4.367  1.00 20.00     0.191 C 
BRANCH   6   7
HETATM    7  O7  UNL     1     -31.661   9.331   5.445  1.00 20.00    -0.397 OA
HETATM    8  H17 UNL     1     -31.897   8.808   6.228  1.00 20.00     0.209 HD
ENDBRANCH   6   7
ENDBRANCH   2   6
TORSDOF 3
ENDMDL
MODEL 4
REMARK VINA RESULT:      -3.9      2.314      4.163
REMARK  3 active torsions:
REMARK  status: ('A' for Active; 'I' for Inactive)
REMARK    1  A    between atoms: C1_1  and  C2_2 
REMARK    2  A    between atoms: C4_4  and  C6_6 
REMARK    3  A    between atoms: C6_6  and  O7_7 
ROOT
HETATM    1  C2  UNL     1     -33.840   7.045   4.278  1.00 20.00    -0.002 C 
HETATM    2  C4  UNL     1     -32.674   7.490   3.786  1.00 20.00    -0.001 C 
ENDROOT
BRANCH   1   3
HETATM    3  C1  UNL     1     -34.291   5.680   4.131  1.00 20.00    -0.005 C 
HETATM    4  C3  UNL     1     -34.641   4.907   5.170  1.00 20.00    -0.031 C 
HETATM    5  C5  UNL     1     -34.604   5.364   6.592  1.00 20.00     0.036 C 
ENDBRANCH   1   3
BRANCH   2   6
HETATM    6  C6  UNL     1     -32.197   8.899   3.937  1.00 20.00     0.191 C 
BRANCH   6   7
HETATM    7  O7  UNL     1     -32.014   9.198   5.314  1.00 20.00    -0.397 OA
HETATM    8  H17 UNL     1     -32.815   9.661   5.608  1.00 20.00     0.209 HD
ENDBRANCH   6   7
ENDBRANCH   2   6
TORSDOF 3
ENDMDL
MODEL 5
REMARK VINA RESULT:      -3.8     12.182     12.522
REMARK  3 active torsions:
REMARK  status: ('A' for Active; 'I' for Inactive)
REMARK    1  A    between atoms: C1_1  and  C2_2 
REMARK    2  A    between atoms: C4_4  and  C6_6 
REMARK    3  A    between atoms: C6_6  and  O7_7 
ROOT
HETATM    1  C2  UNL     1     -33.187  16.884  -2.594  1.00 20.00    -0.002 C 
HETATM    2  C4  UNL     1     -33.622  15.766  -3.193  1.00 20.00    -0.001 C 
ENDROOT
BRANCH   1   3
HETATM    3  C1  UNL     1     -33.750  17.392  -1.363  1.00 20.00    -0.005 C 
HETATM    4  C3  UNL     1     -33.047  18.118  -0.480  1.00 20.00    -0.031 C 
HETATM    5  C5  UNL     1     -31.610  18.482  -0.664  1.00 20.00     0.036 C 
ENDBRANCH   1   3
BRANCH   2   6
HETATM    6  C6  UNL     1     -33.044  15.230  -4.464  1.00 20.00     0.191 C 
BRANCH   6   7
HETATM    7  O7  UNL     1     -33.307  13.838  -4.561  1.00 20.00    -0.397 OA
HETATM    8  H17 UNL     1     -32.938  13.542  -5.409  1.00 20.00     0.209 HD
ENDBRANCH   6   7
ENDBRANCH   2   6
TORSDOF 3
ENDMDL
MODEL 6
REMARK VINA RESULT:      -3.7      2.512      4.071
REMARK  3 active torsions:
REMARK  status: ('A' for Active; 'I' for Inactive)
REMARK    1  A    between atoms: C1_1  and  C2_2 
REMARK    2  A    between atoms: C4_4  and  C6_6 
REMARK    3  A    between atoms: C6_6  and  O7_7 
ROOT
HETATM    1  C2  UNL     1     -34.245   5.684   3.921  1.00 20.00    -0.002 C 
HETATM    2  C4  UNL     1     -33.006   5.589   3.414  1.00 20.00    -0.001 C 
ENDROOT
BRANCH   1   3
HETATM    3  C1  UNL     1     -34.676   4.957   5.094  1.00 20.00    -0.005 C 
HETATM    4  C3  UNL     1     -34.662   5.482   6.328  1.00 20.00    -0.031 C 
HETATM    5  C5  UNL     1     -34.200   6.869   6.633  1.00 20.00     0.036 C 
ENDBRANCH   1   3
BRANCH   2   6
HETATM    6  C6  UNL     1     -32.550   6.340   2.203  1.00 20.00     0.191 C 
BRANCH   6   7
HETATM    7  O7  UNL     1     -32.153   7.653   2.575  1.00 20.00    -0.397 OA
HETATM    8  H17 UNL     1     -32.140   7.676   3.546  1.00 20.00     0.209 HD
ENDBRANCH   6   7
ENDBRANCH   2   6
TORSDOF 3
ENDMDL
MODEL 7
REMARK VINA RESULT:      -3.5      1.358      1.933
REMARK  3 active torsions:
REMARK  status: ('A' for Active; 'I' for Inactive)
REMARK    1  A    between atoms: C1_1  and  C2_2 
REMARK    2  A    between atoms: C4_4  and  C6_6 
REMARK    3  A    between atoms: C6_6  and  O7_7 
ROOT
HETATM    1  C2  UNL     1     -32.937   6.089   3.528  1.00 20.00    -0.002 C 
HETATM    2  C4  UNL     1     -34.140   5.996   4.115  1.00 20.00    -0.001 C 
ENDROOT
BRANCH   1   3
HETATM    3  C1  UNL     1     -32.496   7.262   2.808  1.00 20.00    -0.005 C 
HETATM    4  C3  UNL     1     -32.264   8.442   3.402  1.00 20.00    -0.031 C 
HETATM    5  C5  UNL     1     -32.433   8.680   4.867  1.00 20.00     0.036 C 
ENDBRANCH   1   3
BRANCH   2   6
HETATM    6  C6  UNL     1     -34.602   4.787   4.865  1.00 20.00     0.191 C 
BRANCH   6   7
HETATM    7  O7  UNL     1     -35.122   5.178   6.128  1.00 20.00    -0.397 OA
HETATM    8  H17 UNL     1     -36.046   4.882   6.154  1.00 20.00     0.209 HD
ENDBRANCH   6   7
ENDBRANCH   2   6
TORSDOF 3
ENDMDL
MODEL 8
REMARK VINA RESULT:      -3.5     12.617     13.277
REMARK  3 active torsions:
REMARK  status: ('A' for Active; 'I' for Inactive)
REMARK    1  A    between atoms: C1_1  and  C2_2 
REMARK    2  A    between atoms: C4_4  and  C6_6 
REMARK    3  A    between atoms: C6_6  and  O7_7 
ROOT
HETATM    1  C2  UNL     1     -33.786  16.395  -3.785  1.00 20.00    -0.002 C 
HETATM    2  C4  UNL     1     -33.734  15.248  -4.478  1.00 20.00    -0.001 C 
ENDROOT
BRANCH   1   3
HETATM    3  C1  UNL     1     -33.264  16.533  -2.444  1.00 20.00    -0.005 C 
HETATM    4  C3  UNL     1     -33.678  17.481  -1.590  1.00 20.00    -0.031 C 
HETATM    5  C5  UNL     1     -34.718  18.500  -1.924  1.00 20.00     0.036 C 
ENDBRANCH   1   3
BRANCH   2   6
HETATM    6  C6  UNL     1     -34.269  15.097  -5.867  1.00 20.00     0.191 C 
BRANCH   6   7
HETATM    7  O7  UNL     1     -33.222  14.705  -6.743  1.00 20.00    -0.397 OA
HETATM    8  H17 UNL     1     -32.422  14.615  -6.200  1.00 20.00     0.209 HD
ENDBRANCH   6   7
ENDBRANCH   2   6
TORSDOF 3
ENDMDL
MODEL 9
REMARK VINA RESULT:      -3.3      1.901      2.376
REMARK  3 active torsions:
REMARK  status: ('A' for Active; 'I' for Inactive)
REMARK    1  A    between atoms: C1_1  and  C2_2 
REMARK    2  A    between atoms: C4_4  and  C6_6 
REMARK    3  A    between atoms: C6_6  and  O7_7 
ROOT
HETATM    1  C2  UNL     1     -34.287   5.575   4.161  1.00 20.00    -0.002 C 
HETATM    2  C4  UNL     1     -34.080   5.121   5.407  1.00 20.00    -0.001 C 
ENDROOT
BRANCH   1   3
HETATM    3  C1  UNL     1     -33.499   5.155   3.025  1.00 20.00    -0.005 C 
HETATM    4  C3  UNL     1     -32.545   5.919   2.472  1.00 20.00    -0.031 C 
HETATM    5  C5  UNL     1     -32.190   7.285   2.962  1.00 20.00     0.036 C 
ENDBRANCH   1   3
BRANCH   2   6
HETATM    6  C6  UNL     1     -34.893   5.547   6.588  1.00 20.00     0.191 C 
BRANCH   6   7
HETATM    7  O7  UNL     1     -34.581   6.892   6.923  1.00 20.00    -0.397 OA
HETATM    8  H17 UNL     1     -33.807   7.140   6.393  1.00 20.00     0.209 HD
ENDBRANCH   6   7
ENDBRANCH   2   6
TORSDOF 3
ENDMDL
