MODEL 1
REMARK VINA RESULT:      -3.8      0.000      0.000
REMARK  1 active torsions:
REMARK  status: ('A' for Active; 'I' for Inactive)
REMARK    1  A    between atoms: C2_2  and  C3_3 
ROOT
HETATM    1  C1  UNL     1     -33.064  18.484  -0.440  1.00 20.00     0.010 C 
HETATM    2  C2  UNL     1     -33.882  18.199  -1.461  1.00 20.00     0.074 C 
HETATM    3  C4  UNL     1     -31.564  18.353  -0.539  1.00 20.00     0.058 C 
HETATM    4  C5  UNL     1     -31.075  19.212   0.630  1.00 20.00     0.026 C 
HETATM    5  C6  UNL     1     -32.203  19.141   1.662  1.00 20.00     0.122 C 
HETATM    6  C8  UNL     1     -34.699  19.058   1.405  1.00 20.00     0.149 C 
HETATM    7  N9  UNL     1     -33.378  18.939   0.829  1.00 20.00    -0.388 N 
ENDROOT
BRANCH   2   8
HETATM    8  C3  UNL     1     -33.336  17.733  -2.762  1.00 20.00     0.147 C 
HETATM    9  C7  UNL     1     -33.336  16.246  -3.000  1.00 20.00     0.096 C 
HETATM   10  O10 UNL     1     -32.925  18.514  -3.618  1.00 20.00    -0.294 OA
ENDBRANCH   2   8
TORSDOF 1
ENDMDL
MODEL 2
REMARK VINA RESULT:      -3.7      2.777      5.113
REMARK  1 active torsions:
REMARK  status: ('A' for Active; 'I' for Inactive)
REMARK    1  A    between atoms: C2_2  and  C3_3 
ROOT
HETATM    1  C1  UNL     1     -34.058  17.011  -3.827  1.00 20.00     0.010 C 
HETATM    2  C2  UNL     1     -34.099  18.152  -3.129  1.00 20.00     0.074 C 
HETATM    3  C4  UNL     1     -33.098  15.893  -3.501  1.00 20.00     0.058 C 
HETATM    4  C5  UNL     1     -33.731  14.691  -4.206  1.00 20.00     0.026 C 
HETATM    5  C6  UNL     1     -34.488  15.292  -5.393  1.00 20.00     0.122 C 
HETATM    6  C8  UNL     1     -35.767  17.438  -5.644  1.00 20.00     0.149 C 
HETATM    7  N9  UNL     1     -34.830  16.620  -4.907  1.00 20.00    -0.388 N 
ENDROOT
BRANCH   2   8
HETATM    8  C3  UNL     1     -33.183  18.371  -1.979  1.00 20.00     0.147 C 
HETATM    9  C7  UNL     1     -33.627  17.821  -0.650  1.00 20.00     0.096 C 
HETATM   10  O10 UNL     1     -32.105  18.948  -2.100  1.00 20.00    -0.294 OA
ENDBRANCH   2   8
TORSDOF 1
ENDMDL
MODEL 3
REMARK VINA RESULT:      -3.7      2.631      5.050
REMARK  1 active torsions:
REMARK  status: ('A' for Active; 'I' for Inactive)
REMARK    1  A    between atoms: C2_2  and  C3_3 
ROOT
HETATM    1  C1  UNL     1     -33.789  17.030  -3.433  1.00 20.00     0.010 C 
HETATM    2  C2  UNL     1     -33.110  16.879  -2.289  1.00 20.00     0.074 C 
HETATM    3  C4  UNL     1     -34.327  18.365  -3.887  1.00 20.00     0.058 C 
HETATM    4  C5  UNL     1     -34.569  18.136  -5.381  1.00 20.00     0.026 C 
HETATM    5  C6  UNL     1     -34.863  16.639  -5.503  1.00 20.00     0.122 C 
HETATM    6  C8  UNL     1     -33.933  14.651  -4.284  1.00 20.00     0.149 C 
HETATM    7  N9  UNL     1     -34.116  16.081  -4.386  1.00 20.00    -0.388 N 
ENDROOT
BRANCH   2   8
HETATM    8  C3  UNL     1     -32.849  18.042  -1.402  1.00 20.00     0.147 C 
HETATM    9  C7  UNL     1     -33.764  18.203  -0.217  1.00 20.00     0.096 C 
HETATM   10  O10 UNL     1     -31.923  18.825  -1.602  1.00 20.00    -0.294 OA
ENDBRANCH   2   8
TORSDOF 1
ENDMDL
MODEL 4
REMARK VINA RESULT:      -3.6      3.027      4.216
REMARK  1 active torsions:
REMARK  status: ('A' for Active; 'I' for Inactive)
REMARK    1  A    between atoms: C2_2  and  C3_3 
ROOT
HETATM    1  C1  UNL     1     -33.637  17.003  -3.781  1.00 20.00     0.010 C 
HETATM    2  C2  UNL     1     -33.922  16.202  -4.815  1.00 20.00     0.074 C 
HETATM    3  C4  UNL     1     -33.582  16.504  -2.358  1.00 20.00     0.058 C 
HETATM    4  C5  UNL     1     -32.781  17.600  -1.650  1.00 20.00     0.026 C 
HETATM    5  C6  UNL     1     -33.077  18.873  -2.446  1.00 20.00     0.122 C 
HETATM    6  C8  UNL     1     -33.428  19.262  -4.901  1.00 20.00     0.149 C 
HETATM    7  N9  UNL     1     -33.339  18.354  -3.780  1.00 20.00    -0.388 N 
ENDROOT
BRANCH   2   8
HETATM    8  C3  UNL     1     -34.201  14.758  -4.601  1.00 20.00     0.147 C 
HETATM    9  C7  UNL     1     -35.617  14.303  -4.835  1.00 20.00     0.096 C 
HETATM   10  O10 UNL     1     -33.323  13.962  -4.274  1.00 20.00    -0.294 OA
ENDBRANCH   2   8
TORSDOF 1
ENDMDL
MODEL 5
REMARK VINA RESULT:      -3.5      3.883      5.187
REMARK  1 active torsions:
REMARK  status: ('A' for Active; 'I' for Inactive)
REMARK    1  A    between atoms: C2_2  and  C3_3 
ROOT
HETATM    1  C1  UNL     1     -34.778  16.684  -4.796  1.00 20.00     0.010 C 
HETATM    2  C2  UNL     1     -35.342  16.582  -6.006  1.00 20.00     0.074 C 
HETATM    3  C4  UNL     1     -33.889  15.609  -4.221  1.00 20.00     0.058 C 
HETATM    4  C5  UNL     1     -33.137  16.353  -3.115  1.00 20.00     0.026 C 
HETATM    5  C6  UNL     1     -34.097  17.458  -2.668  1.00 20.00     0.122 C 
HETATM    6  C8  UNL     1     -35.727  18.872  -3.951  1.00 20.00     0.149 C 
HETATM    7  N9  UNL     1     -34.862  17.716  -3.878  1.00 20.00    -0.388 N 
ENDROOT
BRANCH   2   8
HETATM    8  C3  UNL     1     -35.109  15.382  -6.852  1.00 20.00     0.147 C 
HETATM    9  C7  UNL     1     -33.917  15.427  -7.771  1.00 20.00     0.096 C 
HETATM   10  O10 UNL     1     -35.831  14.389  -6.795  1.00 20.00    -0.294 OA
ENDBRANCH   2   8
TORSDOF 1
ENDMDL
MODEL 6
REMARK VINA RESULT:      -3.4     11.412     12.919
REMARK  1 active torsions:
REMARK  status: ('A' for Active; 'I' for Inactive)
REMARK    1  A    between atoms: C2_2  and  C3_3 
ROOT
HETATM    1  C1  UNL     1     -41.634  13.444   7.335  1.00 20.00     0.010 C 
HETATM    2  C2  UNL     1     -40.570  13.663   6.552  1.00 20.00     0.074 C 
HETATM    3  C4  UNL     1     -42.730  12.475   6.963  1.00 20.00     0.058 C 
HETATM    4  C5  UNL     1     -43.417  12.215   8.306  1.00 20.00     0.026 C 
HETATM    5  C6  UNL     1     -43.195  13.499   9.110  1.00 20.00     0.122 C 
HETATM    6  C8  UNL     1     -41.249  15.081   9.226  1.00 20.00     0.149 C 
HETATM    7  N9  UNL     1     -41.942  13.997   8.565  1.00 20.00    -0.388 N 
ENDROOT
BRANCH   2   8
HETATM    8  C3  UNL     1     -40.420  12.945   5.260  1.00 20.00     0.147 C 
HETATM    9  C7  UNL     1     -39.589  11.689   5.279  1.00 20.00     0.096 C 
HETATM   10  O10 UNL     1     -40.960  13.334   4.227  1.00 20.00    -0.294 OA
ENDBRANCH   2   8
TORSDOF 1
ENDMDL
MODEL 7
REMARK VINA RESULT:      -3.3     11.438     12.468
REMARK  1 active torsions:
REMARK  status: ('A' for Active; 'I' for Inactive)
REMARK    1  A    between atoms: C2_2  and  C3_3 
ROOT
HETATM    1  C1  UNL     1     -41.470  13.696   7.408  1.00 20.00     0.010 C 
HETATM    2  C2  UNL     1     -41.514  12.715   6.498  1.00 20.00     0.074 C 
HETATM    3  C4  UNL     1     -40.445  14.802   7.360  1.00 20.00     0.058 C 
HETATM    4  C5  UNL     1     -41.071  15.877   8.252  1.00 20.00     0.026 C 
HETATM    5  C6  UNL     1     -41.926  15.099   9.256  1.00 20.00     0.122 C 
HETATM    6  C8  UNL     1     -43.306  13.016   9.011  1.00 20.00     0.149 C 
HETATM    7  N9  UNL     1     -42.291  13.910   8.500  1.00 20.00    -0.388 N 
ENDROOT
BRANCH   2   8
HETATM    8  C3  UNL     1     -40.537  12.674   5.379  1.00 20.00     0.147 C 
HETATM    9  C7  UNL     1     -39.260  11.917   5.626  1.00 20.00     0.096 C 
HETATM   10  O10 UNL     1     -40.761  13.207   4.294  1.00 20.00    -0.294 OA
ENDBRANCH   2   8
TORSDOF 1
ENDMDL
MODEL 8
REMARK VINA RESULT:      -3.3     12.430     12.968
REMARK  1 active torsions:
REMARK  status: ('A' for Active; 'I' for Inactive)
REMARK    1  A    between atoms: C2_2  and  C3_3 
ROOT
HETATM    1  C1  UNL     1     -33.334   7.105   4.168  1.00 20.00     0.010 C 
HETATM    2  C2  UNL     1     -33.801   5.859   4.026  1.00 20.00     0.074 C 
HETATM    3  C4  UNL     1     -33.675   7.970   5.357  1.00 20.00     0.058 C 
HETATM    4  C5  UNL     1     -32.579   9.039   5.319  1.00 20.00     0.026 C 
HETATM    5  C6  UNL     1     -32.204   9.156   3.840  1.00 20.00     0.122 C 
HETATM    6  C8  UNL     1     -32.045   7.438   2.016  1.00 20.00     0.149 C 
HETATM    7  N9  UNL     1     -32.492   7.822   3.336  1.00 20.00    -0.388 N 
ENDROOT
BRANCH   2   8
HETATM    8  C3  UNL     1     -34.692   5.261   5.055  1.00 20.00     0.147 C 
HETATM    9  C7  UNL     1     -34.128   5.141   6.446  1.00 20.00     0.096 C 
HETATM   10  O10 UNL     1     -35.840   4.903   4.801  1.00 20.00    -0.294 OA
ENDBRANCH   2   8
TORSDOF 1
ENDMDL
MODEL 9
REMARK VINA RESULT:      -3.3     11.489     12.617
REMARK  1 active torsions:
REMARK  status: ('A' for Active; 'I' for Inactive)
REMARK    1  A    between atoms: C2_2  and  C3_3 
ROOT
HETATM    1  C1  UNL     1     -40.830  13.568   6.595  1.00 20.00     0.010 C 
HETATM    2  C2  UNL     1     -41.507  14.309   7.481  1.00 20.00     0.074 C 
HETATM    3  C4  UNL     1     -39.667  12.691   6.990  1.00 20.00     0.058 C 
HETATM    4  C5  UNL     1     -39.555  11.730   5.804  1.00 20.00     0.026 C 
HETATM    5  C6  UNL     1     -40.084  12.526   4.608  1.00 20.00     0.122 C 
HETATM    6  C8  UNL     1     -41.935  14.210   4.411  1.00 20.00     0.149 C 
HETATM    7  N9  UNL     1     -41.031  13.437   5.232  1.00 20.00    -0.388 N 
ENDROOT
BRANCH   2   8
HETATM    8  C3  UNL     1     -41.136  14.297   8.920  1.00 20.00     0.147 C 
HETATM    9  C7  UNL     1     -40.155  15.346   9.372  1.00 20.00     0.096 C 
HETATM   10  O10 UNL     1     -41.618  13.492   9.715  1.00 20.00    -0.294 OA
ENDBRANCH   2   8
TORSDOF 1
ENDMDL
