MODEL 1
REMARK VINA RESULT:      -3.7      0.000      0.000
REMARK  2 active torsions:
REMARK  status: ('A' for Active; 'I' for Inactive)
REMARK    1  A    between atoms: C4_4  and  C10_10 
REMARK    2  A    between atoms: C10_10  and  O11_11 
ROOT
HETATM    1  C1  UNL     1     -34.737  16.494  -4.711  1.00 20.00    -0.069 C 
HETATM    2  C2  UNL     1     -33.760  16.022  -3.931  1.00 20.00    -0.085 C 
HETATM    3  C3  UNL     1     -35.645  17.693  -4.578  1.00 20.00     0.043 C 
HETATM    4  C4  UNL     1     -36.470  17.053  -5.722  1.00 20.00     0.025 C 
HETATM    5  C5  UNL     1     -35.316  16.032  -6.045  1.00 20.00    -0.018 C 
HETATM    6  C6  UNL     1     -32.983  14.785  -4.284  1.00 20.00     0.043 C 
HETATM    7  C7  UNL     1     -33.367  16.695  -2.645  1.00 20.00     0.043 C 
HETATM    8  C8  UNL     1     -35.696  14.555  -6.110  1.00 20.00     0.020 C 
HETATM    9  C9  UNL     1     -34.479  16.438  -7.262  1.00 20.00     0.020 C 
ENDROOT
BRANCH   4  10
HETATM   10  C10 UNL     1     -37.837  16.528  -5.290  1.00 20.00     0.170 C 
BRANCH  10  11
HETATM   11  O11 UNL     1     -38.676  16.451  -6.430  1.00 20.00    -0.400 OA
HETATM   12  H29 UNL     1     -38.163  16.018  -7.132  1.00 20.00     0.209 HD
ENDBRANCH  10  11
ENDBRANCH   4  10
TORSDOF 2
ENDMDL
MODEL 2
REMARK VINA RESULT:      -3.7     12.203     13.211
REMARK  2 active torsions:
REMARK  status: ('A' for Active; 'I' for Inactive)
REMARK    1  A    between atoms: C4_4  and  C10_10 
REMARK    2  A    between atoms: C10_10  and  O11_11 
ROOT
HETATM    1  C1  UNL     1     -41.010  13.189   5.470  1.00 20.00    -0.069 C 
HETATM    2  C2  UNL     1     -39.915  12.446   5.285  1.00 20.00    -0.085 C 
HETATM    3  C3  UNL     1     -41.895  13.942   4.505  1.00 20.00     0.043 C 
HETATM    4  C4  UNL     1     -42.503  14.613   5.761  1.00 20.00     0.025 C 
HETATM    5  C5  UNL     1     -41.817  13.562   6.711  1.00 20.00    -0.018 C 
HETATM    6  C6  UNL     1     -39.197  11.785   6.428  1.00 20.00     0.043 C 
HETATM    7  C7  UNL     1     -39.324  12.218   3.922  1.00 20.00     0.043 C 
HETATM    8  C8  UNL     1     -40.996  14.113   7.875  1.00 20.00     0.020 C 
HETATM    9  C9  UNL     1     -42.775  12.466   7.185  1.00 20.00     0.020 C 
ENDROOT
BRANCH   4  10
HETATM   10  C10 UNL     1     -42.160  16.094   5.908  1.00 20.00     0.170 C 
BRANCH  10  11
HETATM   11  O11 UNL     1     -43.288  16.773   6.432  1.00 20.00    -0.400 OA
HETATM   12  H29 UNL     1     -43.645  17.325   5.717  1.00 20.00     0.209 HD
ENDBRANCH  10  11
ENDBRANCH   4  10
TORSDOF 2
ENDMDL
MODEL 3
REMARK VINA RESULT:      -3.6      2.326      4.099
REMARK  2 active torsions:
REMARK  status: ('A' for Active; 'I' for Inactive)
REMARK    1  A    between atoms: C4_4  and  C10_10 
REMARK    2  A    between atoms: C10_10  and  O11_11 
ROOT
HETATM    1  C1  UNL     1     -36.348  16.161  -5.465  1.00 20.00    -0.069 C 
HETATM    2  C2  UNL     1     -37.454  16.869  -5.219  1.00 20.00    -0.085 C 
HETATM    3  C3  UNL     1     -36.105  14.675  -5.579  1.00 20.00     0.043 C 
HETATM    4  C4  UNL     1     -34.599  15.030  -5.508  1.00 20.00     0.025 C 
HETATM    5  C5  UNL     1     -34.901  16.557  -5.745  1.00 20.00    -0.018 C 
HETATM    6  C6  UNL     1     -37.443  18.371  -5.154  1.00 20.00     0.043 C 
HETATM    7  C7  UNL     1     -38.789  16.215  -4.991  1.00 20.00     0.043 C 
HETATM    8  C8  UNL     1     -34.296  17.545  -4.751  1.00 20.00     0.020 C 
HETATM    9  C9  UNL     1     -34.645  17.003  -7.188  1.00 20.00     0.020 C 
ENDROOT
BRANCH   4  10
HETATM   10  C10 UNL     1     -33.913  14.593  -4.216  1.00 20.00     0.170 C 
BRANCH  10  11
HETATM   11  O11 UNL     1     -32.860  13.701  -4.539  1.00 20.00    -0.400 OA
HETATM   12  H29 UNL     1     -33.064  13.324  -5.411  1.00 20.00     0.209 HD
ENDBRANCH  10  11
ENDBRANCH   4  10
TORSDOF 2
ENDMDL
MODEL 4
REMARK VINA RESULT:      -3.6      2.450      4.254
REMARK  2 active torsions:
REMARK  status: ('A' for Active; 'I' for Inactive)
REMARK    1  A    between atoms: C4_4  and  C10_10 
REMARK    2  A    between atoms: C10_10  and  O11_11 
ROOT
HETATM    1  C1  UNL     1     -35.253  17.698  -3.839  1.00 20.00    -0.069 C 
HETATM    2  C2  UNL     1     -36.221  18.456  -3.315  1.00 20.00    -0.085 C 
HETATM    3  C3  UNL     1     -35.213  16.814  -5.062  1.00 20.00     0.043 C 
HETATM    4  C4  UNL     1     -33.888  16.261  -4.481  1.00 20.00     0.025 C 
HETATM    5  C5  UNL     1     -33.805  17.433  -3.433  1.00 20.00    -0.018 C 
HETATM    6  C6  UNL     1     -36.014  19.263  -2.064  1.00 20.00     0.043 C 
HETATM    7  C7  UNL     1     -37.584  18.556  -3.939  1.00 20.00     0.043 C 
HETATM    8  C8  UNL     1     -33.604  17.042  -1.971  1.00 20.00     0.020 C 
HETATM    9  C9  UNL     1     -32.829  18.539  -3.845  1.00 20.00     0.020 C 
ENDROOT
BRANCH   4  10
HETATM   10  C10 UNL     1     -33.974  14.819  -3.988  1.00 20.00     0.170 C 
BRANCH  10  11
HETATM   11  O11 UNL     1     -33.086  14.021  -4.754  1.00 20.00    -0.400 OA
HETATM   12  H29 UNL     1     -32.494  13.574  -4.127  1.00 20.00     0.209 HD
ENDBRANCH  10  11
ENDBRANCH   4  10
TORSDOF 2
ENDMDL
MODEL 5
REMARK VINA RESULT:      -3.5      2.885      4.551
REMARK  2 active torsions:
REMARK  status: ('A' for Active; 'I' for Inactive)
REMARK    1  A    between atoms: C4_4  and  C10_10 
REMARK    2  A    between atoms: C10_10  and  O11_11 
ROOT
HETATM    1  C1  UNL     1     -34.339  16.765  -4.278  1.00 20.00    -0.069 C 
HETATM    2  C2  UNL     1     -35.207  16.257  -5.158  1.00 20.00    -0.085 C 
HETATM    3  C3  UNL     1     -33.209  16.137  -3.497  1.00 20.00     0.043 C 
HETATM    4  C4  UNL     1     -33.205  17.446  -2.669  1.00 20.00     0.025 C 
HETATM    5  C5  UNL     1     -34.123  18.170  -3.723  1.00 20.00    -0.018 C 
HETATM    6  C6  UNL     1     -36.262  17.101  -5.817  1.00 20.00     0.043 C 
HETATM    7  C7  UNL     1     -35.190  14.807  -5.553  1.00 20.00     0.043 C 
HETATM    8  C8  UNL     1     -35.379  18.856  -3.192  1.00 20.00     0.020 C 
HETATM    9  C9  UNL     1     -33.344  19.099  -4.660  1.00 20.00     0.020 C 
ENDROOT
BRANCH   4  10
HETATM   10  C10 UNL     1     -33.698  17.280  -1.233  1.00 20.00     0.170 C 
BRANCH  10  11
HETATM   11  O11 UNL     1     -32.910  18.097  -0.384  1.00 20.00    -0.400 OA
HETATM   12  H29 UNL     1     -32.299  18.593  -0.954  1.00 20.00     0.209 HD
ENDBRANCH  10  11
ENDBRANCH   4  10
TORSDOF 2
ENDMDL
MODEL 6
REMARK VINA RESULT:      -3.4      2.021      3.192
REMARK  2 active torsions:
REMARK  status: ('A' for Active; 'I' for Inactive)
REMARK    1  A    between atoms: C4_4  and  C10_10 
REMARK    2  A    between atoms: C10_10  and  O11_11 
ROOT
HETATM    1  C1  UNL     1     -35.510  16.731  -5.822  1.00 20.00    -0.069 C 
HETATM    2  C2  UNL     1     -35.344  18.041  -5.619  1.00 20.00    -0.085 C 
HETATM    3  C3  UNL     1     -36.725  15.912  -6.187  1.00 20.00     0.043 C 
HETATM    4  C4  UNL     1     -35.867  14.679  -5.810  1.00 20.00     0.025 C 
HETATM    5  C5  UNL     1     -34.552  15.544  -5.785  1.00 20.00    -0.018 C 
HETATM    6  C6  UNL     1     -34.009  18.631  -5.259  1.00 20.00     0.043 C 
HETATM    7  C7  UNL     1     -36.479  19.020  -5.739  1.00 20.00     0.043 C 
HETATM    8  C8  UNL     1     -33.684  15.450  -4.532  1.00 20.00     0.020 C 
HETATM    9  C9  UNL     1     -33.706  15.386  -7.052  1.00 20.00     0.020 C 
ENDROOT
BRANCH   4  10
HETATM   10  C10 UNL     1     -36.320  13.966  -4.537  1.00 20.00     0.170 C 
BRANCH  10  11
HETATM   11  O11 UNL     1     -35.657  12.716  -4.455  1.00 20.00    -0.400 OA
HETATM   12  H29 UNL     1     -36.038  12.146  -5.143  1.00 20.00     0.209 HD
ENDBRANCH  10  11
ENDBRANCH   4  10
TORSDOF 2
ENDMDL
MODEL 7
REMARK VINA RESULT:      -3.4     12.628     13.822
REMARK  2 active torsions:
REMARK  status: ('A' for Active; 'I' for Inactive)
REMARK    1  A    between atoms: C4_4  and  C10_10 
REMARK    2  A    between atoms: C10_10  and  O11_11 
ROOT
HETATM    1  C1  UNL     1     -41.382  15.289   7.065  1.00 20.00    -0.069 C 
HETATM    2  C2  UNL     1     -41.531  16.612   6.954  1.00 20.00    -0.085 C 
HETATM    3  C3  UNL     1     -40.536  14.441   7.985  1.00 20.00     0.043 C 
HETATM    4  C4  UNL     1     -40.880  13.267   7.034  1.00 20.00     0.025 C 
HETATM    5  C5  UNL     1     -42.011  14.107   6.331  1.00 20.00    -0.018 C 
HETATM    6  C6  UNL     1     -42.452  17.230   5.941  1.00 20.00     0.043 C 
HETATM    7  C7  UNL     1     -40.788  17.577   7.836  1.00 20.00     0.043 C 
HETATM    8  C8  UNL     1     -41.965  14.192   4.807  1.00 20.00     0.020 C 
HETATM    9  C9  UNL     1     -43.417  13.747   6.819  1.00 20.00     0.020 C 
ENDROOT
BRANCH   4  10
HETATM   10  C10 UNL     1     -39.698  12.763   6.209  1.00 20.00     0.170 C 
BRANCH  10  11
HETATM   11  O11 UNL     1     -39.690  11.346   6.243  1.00 20.00    -0.400 OA
HETATM   12  H29 UNL     1     -39.168  11.083   7.020  1.00 20.00     0.209 HD
ENDBRANCH  10  11
ENDBRANCH   4  10
TORSDOF 2
ENDMDL
MODEL 8
REMARK VINA RESULT:      -3.2     13.352     14.537
REMARK  2 active torsions:
REMARK  status: ('A' for Active; 'I' for Inactive)
REMARK    1  A    between atoms: C4_4  and  C10_10 
REMARK    2  A    between atoms: C10_10  and  O11_11 
ROOT
HETATM    1  C1  UNL     1     -42.418  14.747   6.566  1.00 20.00    -0.069 C 
HETATM    2  C2  UNL     1     -42.558  15.278   5.348  1.00 20.00    -0.085 C 
HETATM    3  C3  UNL     1     -42.670  15.307   7.946  1.00 20.00     0.043 C 
HETATM    4  C4  UNL     1     -41.892  14.071   8.465  1.00 20.00     0.025 C 
HETATM    5  C5  UNL     1     -41.969  13.374   7.057  1.00 20.00    -0.018 C 
HETATM    6  C6  UNL     1     -42.237  14.506   4.099  1.00 20.00     0.043 C 
HETATM    7  C7  UNL     1     -43.048  16.683   5.139  1.00 20.00     0.043 C 
HETATM    8  C8  UNL     1     -40.657  12.870   6.460  1.00 20.00     0.020 C 
HETATM    9  C9  UNL     1     -43.057  12.298   6.978  1.00 20.00     0.020 C 
ENDROOT
BRANCH   4  10
HETATM   10  C10 UNL     1     -40.527  14.398   9.067  1.00 20.00     0.170 C 
BRANCH  10  11
HETATM   11  O11 UNL     1     -40.373  13.666  10.271  1.00 20.00    -0.400 OA
HETATM   12  H29 UNL     1     -40.711  14.225  10.989  1.00 20.00     0.209 HD
ENDBRANCH  10  11
ENDBRANCH   4  10
TORSDOF 2
ENDMDL
MODEL 9
REMARK VINA RESULT:      -3.2      2.117      3.262
REMARK  2 active torsions:
REMARK  status: ('A' for Active; 'I' for Inactive)
REMARK    1  A    between atoms: C4_4  and  C10_10 
REMARK    2  A    between atoms: C10_10  and  O11_11 
ROOT
HETATM    1  C1  UNL     1     -34.616  16.469  -4.653  1.00 20.00    -0.069 C 
HETATM    2  C2  UNL     1     -34.293  17.183  -3.571  1.00 20.00    -0.085 C 
HETATM    3  C3  UNL     1     -34.118  15.142  -5.174  1.00 20.00     0.043 C 
HETATM    4  C4  UNL     1     -34.851  15.510  -6.488  1.00 20.00     0.025 C 
HETATM    5  C5  UNL     1     -35.618  16.690  -5.783  1.00 20.00    -0.018 C 
HETATM    6  C6  UNL     1     -34.942  18.502  -3.261  1.00 20.00     0.043 C 
HETATM    7  C7  UNL     1     -33.259  16.716  -2.585  1.00 20.00     0.043 C 
HETATM    8  C8  UNL     1     -35.547  18.060  -6.453  1.00 20.00     0.020 C 
HETATM    9  C9  UNL     1     -37.061  16.333  -5.415  1.00 20.00     0.020 C 
ENDROOT
BRANCH   4  10
HETATM   10  C10 UNL     1     -33.920  15.814  -7.659  1.00 20.00     0.170 C 
BRANCH  10  11
HETATM   11  O11 UNL     1     -32.967  14.770  -7.767  1.00 20.00    -0.400 OA
HETATM   12  H29 UNL     1     -33.256  14.059  -7.172  1.00 20.00     0.209 HD
ENDBRANCH  10  11
ENDBRANCH   4  10
TORSDOF 2
ENDMDL
