MODEL 1
REMARK VINA RESULT:      -4.0      0.000      0.000
REMARK  1 active torsions:
REMARK  status: ('A' for Active; 'I' for Inactive)
REMARK    1  A    between atoms: C6_6  and  C10_10 
ROOT
HETATM    1  C1  UNL     1     -32.960  19.190   1.871  1.00 20.00     0.053 C 
HETATM    2  C2  UNL     1     -31.632  19.072   2.015  1.00 20.00    -0.080 C 
HETATM    3  C3  UNL     1     -33.583  19.178   0.522  1.00 20.00     0.154 C 
HETATM    4  C4  UNL     1     -30.696  18.860   0.853  1.00 20.00     0.034 C 
HETATM    5  C5  UNL     1     -31.414  18.356  -0.398  1.00 20.00     0.017 C 
HETATM    6  C6  UNL     1     -32.663  19.186  -0.693  1.00 20.00     0.063 C 
HETATM    7  C7  UNL     1     -30.986  19.149   3.368  1.00 20.00     0.043 C 
HETATM    8  O11 UNL     1     -34.809  19.228   0.429  1.00 20.00    -0.293 OA
ENDROOT
BRANCH   6   9
HETATM    9  C10 UNL     1     -33.380  18.654  -1.931  1.00 20.00    -0.011 C 
HETATM   10  C8  UNL     1     -32.785  19.262  -3.200  1.00 20.00     0.010 C 
HETATM   11  C9  UNL     1     -33.308  17.130  -1.981  1.00 20.00     0.010 C 
ENDBRANCH   6   9
TORSDOF 1
ENDMDL
MODEL 2
REMARK VINA RESULT:      -4.0      4.156      6.050
REMARK  1 active torsions:
REMARK  status: ('A' for Active; 'I' for Inactive)
REMARK    1  A    between atoms: C6_6  and  C10_10 
ROOT
HETATM    1  C1  UNL     1     -33.277  15.976  -3.124  1.00 20.00     0.053 C 
HETATM    2  C2  UNL     1     -33.442  17.302  -3.011  1.00 20.00    -0.080 C 
HETATM    3  C3  UNL     1     -33.922  15.221  -4.230  1.00 20.00     0.154 C 
HETATM    4  C4  UNL     1     -34.221  18.120  -4.008  1.00 20.00     0.034 C 
HETATM    5  C5  UNL     1     -34.411  17.400  -5.342  1.00 20.00     0.017 C 
HETATM    6  C6  UNL     1     -34.896  15.966  -5.134  1.00 20.00     0.063 C 
HETATM    7  C7  UNL     1     -32.849  18.065  -1.862  1.00 20.00     0.043 C 
HETATM    8  O11 UNL     1     -33.703  14.015  -4.337  1.00 20.00    -0.293 OA
ENDROOT
BRANCH   6   9
HETATM    9  C10 UNL     1     -35.057  15.254  -6.475  1.00 20.00    -0.011 C 
HETATM   10  C8  UNL     1     -36.347  15.694  -7.165  1.00 20.00     0.010 C 
HETATM   11  C9  UNL     1     -33.851  15.519  -7.373  1.00 20.00     0.010 C 
ENDBRANCH   6   9
TORSDOF 1
ENDMDL
MODEL 3
REMARK VINA RESULT:      -4.0      2.385      5.412
REMARK  1 active torsions:
REMARK  status: ('A' for Active; 'I' for Inactive)
REMARK    1  A    between atoms: C6_6  and  C10_10 
ROOT
HETATM    1  C1  UNL     1     -34.973  17.461  -4.425  1.00 20.00     0.053 C 
HETATM    2  C2  UNL     1     -34.344  16.300  -4.660  1.00 20.00    -0.080 C 
HETATM    3  C3  UNL     1     -34.801  18.170  -3.130  1.00 20.00     0.154 C 
HETATM    4  C4  UNL     1     -33.388  15.671  -3.680  1.00 20.00     0.034 C 
HETATM    5  C5  UNL     1     -32.875  16.663  -2.638  1.00 20.00     0.017 C 
HETATM    6  C6  UNL     1     -34.020  17.467  -2.026  1.00 20.00     0.063 C 
HETATM    7  C7  UNL     1     -34.562  15.542  -5.938  1.00 20.00     0.043 C 
HETATM    8  O11 UNL     1     -35.345  19.262  -2.970  1.00 20.00    -0.293 OA
ENDROOT
BRANCH   6   9
HETATM    9  C10 UNL     1     -33.487  18.469  -1.005  1.00 20.00    -0.011 C 
HETATM   10  C8  UNL     1     -33.932  18.088   0.406  1.00 20.00     0.010 C 
HETATM   11  C9  UNL     1     -31.964  18.557  -1.082  1.00 20.00     0.010 C 
ENDBRANCH   6   9
TORSDOF 1
ENDMDL
MODEL 4
REMARK VINA RESULT:      -3.9      3.642      5.311
REMARK  1 active torsions:
REMARK  status: ('A' for Active; 'I' for Inactive)
REMARK    1  A    between atoms: C6_6  and  C10_10 
ROOT
HETATM    1  C1  UNL     1     -34.881  18.119  -3.011  1.00 20.00     0.053 C 
HETATM    2  C2  UNL     1     -33.917  17.500  -2.314  1.00 20.00    -0.080 C 
HETATM    3  C3  UNL     1     -35.218  17.687  -4.393  1.00 20.00     0.154 C 
HETATM    4  C4  UNL     1     -33.162  16.307  -2.840  1.00 20.00     0.034 C 
HETATM    5  C5  UNL     1     -33.880  15.619  -4.001  1.00 20.00     0.017 C 
HETATM    6  C6  UNL     1     -34.337  16.631  -5.049  1.00 20.00     0.063 C 
HETATM    7  C7  UNL     1     -33.524  17.969  -0.944  1.00 20.00     0.043 C 
HETATM    8  O11 UNL     1     -36.148  18.238  -4.981  1.00 20.00    -0.293 OA
ENDROOT
BRANCH   6   9
HETATM    9  C10 UNL     1     -35.073  15.930  -6.187  1.00 20.00    -0.011 C 
HETATM   10  C8  UNL     1     -34.098  15.541  -7.298  1.00 20.00     0.010 C 
HETATM   11  C9  UNL     1     -35.816  14.700  -5.671  1.00 20.00     0.010 C 
ENDBRANCH   6   9
TORSDOF 1
ENDMDL
MODEL 5
REMARK VINA RESULT:      -3.8     11.609     12.325
REMARK  1 active torsions:
REMARK  status: ('A' for Active; 'I' for Inactive)
REMARK    1  A    between atoms: C6_6  and  C10_10 
ROOT
HETATM    1  C1  UNL     1     -33.489   7.372   5.624  1.00 20.00     0.053 C 
HETATM    2  C2  UNL     1     -33.996   6.166   5.332  1.00 20.00    -0.080 C 
HETATM    3  C3  UNL     1     -32.694   8.127   4.619  1.00 20.00     0.154 C 
HETATM    4  C4  UNL     1     -33.858   5.523   3.976  1.00 20.00     0.034 C 
HETATM    5  C5  UNL     1     -33.499   6.527   2.882  1.00 20.00     0.017 C 
HETATM    6  C6  UNL     1     -32.342   7.427   3.312  1.00 20.00     0.063 C 
HETATM    7  C7  UNL     1     -34.744   5.367   6.359  1.00 20.00     0.043 C 
HETATM    8  O11 UNL     1     -32.295   9.256   4.899  1.00 20.00    -0.293 OA
ENDROOT
BRANCH   6   9
HETATM    9  C10 UNL     1     -32.014   8.439   2.217  1.00 20.00    -0.011 C 
HETATM   10  C8  UNL     1     -31.904   7.746   0.860  1.00 20.00     0.010 C 
HETATM   11  C9  UNL     1     -33.066   9.544   2.172  1.00 20.00     0.010 C 
ENDBRANCH   6   9
TORSDOF 1
ENDMDL
MODEL 6
REMARK VINA RESULT:      -3.7     11.218     12.586
REMARK  1 active torsions:
REMARK  status: ('A' for Active; 'I' for Inactive)
REMARK    1  A    between atoms: C6_6  and  C10_10 
ROOT
HETATM    1  C1  UNL     1     -39.667  12.691   6.699  1.00 20.00     0.053 C 
HETATM    2  C2  UNL     1     -40.024  12.605   5.409  1.00 20.00    -0.080 C 
HETATM    3  C3  UNL     1     -40.357  13.634   7.618  1.00 20.00     0.154 C 
HETATM    4  C4  UNL     1     -41.167  13.392   4.820  1.00 20.00     0.034 C 
HETATM    5  C5  UNL     1     -42.126  13.926   5.883  1.00 20.00     0.017 C 
HETATM    6  C6  UNL     1     -41.368  14.606   7.022  1.00 20.00     0.063 C 
HETATM    7  C7  UNL     1     -39.292  11.705   4.458  1.00 20.00     0.043 C 
HETATM    8  O11 UNL     1     -40.044  13.645   8.808  1.00 20.00    -0.293 OA
ENDROOT
BRANCH   6   9
HETATM    9  C10 UNL     1     -42.339  15.111   8.085  1.00 20.00    -0.011 C 
HETATM   10  C8  UNL     1     -42.972  16.432   7.651  1.00 20.00     0.010 C 
HETATM   11  C9  UNL     1     -43.417  14.068   8.369  1.00 20.00     0.010 C 
ENDBRANCH   6   9
TORSDOF 1
ENDMDL
MODEL 7
REMARK VINA RESULT:      -3.6     12.095     13.159
REMARK  1 active torsions:
REMARK  status: ('A' for Active; 'I' for Inactive)
REMARK    1  A    between atoms: C6_6  and  C10_10 
ROOT
HETATM    1  C1  UNL     1     -32.556   6.528   2.067  1.00 20.00     0.053 C 
HETATM    2  C2  UNL     1     -32.368   7.856   2.074  1.00 20.00    -0.080 C 
HETATM    3  C3  UNL     1     -33.044   5.823   3.282  1.00 20.00     0.154 C 
HETATM    4  C4  UNL     1     -32.689   8.724   3.263  1.00 20.00     0.034 C 
HETATM    5  C5  UNL     1     -33.634   8.044   4.252  1.00 20.00     0.017 C 
HETATM    6  C6  UNL     1     -33.174   6.623   4.572  1.00 20.00     0.063 C 
HETATM    7  C7  UNL     1     -31.814   8.569   0.876  1.00 20.00     0.043 C 
HETATM    8  O11 UNL     1     -33.262   4.613   3.223  1.00 20.00    -0.293 OA
ENDROOT
BRANCH   6   9
HETATM    9  C10 UNL     1     -34.142   5.951   5.542  1.00 20.00    -0.011 C 
HETATM   10  C8  UNL     1     -34.331   6.808   6.793  1.00 20.00     0.010 C 
HETATM   11  C9  UNL     1     -35.485   5.687   4.865  1.00 20.00     0.010 C 
ENDBRANCH   6   9
TORSDOF 1
ENDMDL
MODEL 8
REMARK VINA RESULT:      -3.6     10.905     12.344
REMARK  1 active torsions:
REMARK  status: ('A' for Active; 'I' for Inactive)
REMARK    1  A    between atoms: C6_6  and  C10_10 
ROOT
HETATM    1  C1  UNL     1     -40.711  13.139   4.567  1.00 20.00     0.053 C 
HETATM    2  C2  UNL     1     -39.729  12.281   4.878  1.00 20.00    -0.080 C 
HETATM    3  C3  UNL     1     -41.498  13.814   5.633  1.00 20.00     0.154 C 
HETATM    4  C4  UNL     1     -39.313  11.989   6.296  1.00 20.00     0.034 C 
HETATM    5  C5  UNL     1     -39.785  13.057   7.281  1.00 20.00     0.017 C 
HETATM    6  C6  UNL     1     -41.262  13.387   7.076  1.00 20.00     0.063 C 
HETATM    7  C7  UNL     1     -38.973  11.544   3.811  1.00 20.00     0.043 C 
HETATM    8  O11 UNL     1     -42.351  14.640   5.313  1.00 20.00    -0.293 OA
ENDROOT
BRANCH   6   9
HETATM    9  C10 UNL     1     -41.710  14.472   8.051  1.00 20.00    -0.011 C 
HETATM   10  C8  UNL     1     -42.680  13.900   9.084  1.00 20.00     0.010 C 
HETATM   11  C9  UNL     1     -40.504  15.107   8.741  1.00 20.00     0.010 C 
ENDBRANCH   6   9
TORSDOF 1
ENDMDL
MODEL 9
REMARK VINA RESULT:      -3.5     24.064     25.126
REMARK  1 active torsions:
REMARK  status: ('A' for Active; 'I' for Inactive)
REMARK    1  A    between atoms: C6_6  and  C10_10 
ROOT
HETATM    1  C1  UNL     1     -26.168  -1.060  12.289  1.00 20.00     0.053 C 
HETATM    2  C2  UNL     1     -27.283  -1.654  11.840  1.00 20.00    -0.080 C 
HETATM    3  C3  UNL     1     -24.826  -1.541  11.868  1.00 20.00     0.154 C 
HETATM    4  C4  UNL     1     -27.265  -2.788  10.847  1.00 20.00     0.034 C 
HETATM    5  C5  UNL     1     -25.943  -2.887  10.089  1.00 20.00     0.017 C 
HETATM    6  C6  UNL     1     -24.750  -2.819  11.041  1.00 20.00     0.063 C 
HETATM    7  C7  UNL     1     -28.641  -1.219  12.309  1.00 20.00     0.043 C 
HETATM    8  O11 UNL     1     -23.827  -0.936  12.253  1.00 20.00    -0.293 OA
ENDROOT
BRANCH   6   9
HETATM    9  C10 UNL     1     -23.438  -2.895  10.265  1.00 20.00    -0.011 C 
HETATM   10  C8  UNL     1     -22.506  -3.935  10.886  1.00 20.00     0.010 C 
HETATM   11  C9  UNL     1     -23.700  -3.219   8.796  1.00 20.00     0.010 C 
ENDBRANCH   6   9
TORSDOF 1
ENDMDL
