MODEL 1
REMARK VINA RESULT:      -3.7      0.000      0.000
REMARK  2 active torsions:
REMARK  status: ('A' for Active; 'I' for Inactive)
REMARK    1  A    between atoms: C4_4  and  C10_10 
REMARK    2  A    between atoms: C10_10  and  O11_11 
ROOT
HETATM    1  C1  UNL     1     -34.092  17.044  -3.308  1.00 20.00    -0.069 C 
HETATM    2  C2  UNL     1     -34.115  17.852  -2.246  1.00 20.00    -0.085 C 
HETATM    3  C3  UNL     1     -33.634  15.614  -3.496  1.00 20.00     0.043 C 
HETATM    4  C4  UNL     1     -33.586  15.976  -5.003  1.00 20.00     0.025 C 
HETATM    5  C5  UNL     1     -34.532  17.211  -4.765  1.00 20.00    -0.018 C 
HETATM    6  C6  UNL     1     -34.632  19.261  -2.324  1.00 20.00     0.043 C 
HETATM    7  C7  UNL     1     -33.627  17.410  -0.894  1.00 20.00     0.043 C 
HETATM    8  C8  UNL     1     -34.039  18.481  -5.458  1.00 20.00     0.020 C 
HETATM    9  C9  UNL     1     -36.031  17.003  -4.985  1.00 20.00     0.020 C 
ENDROOT
BRANCH   4  10
HETATM   10  C10 UNL     1     -34.027  14.881  -5.962  1.00 20.00     0.170 C 
BRANCH  10  11
HETATM   11  O11 UNL     1     -33.109  14.825  -7.041  1.00 20.00    -0.400 OA
HETATM   12  H29 UNL     1     -32.635  15.673  -7.055  1.00 20.00     0.209 HD
ENDBRANCH  10  11
ENDBRANCH   4  10
TORSDOF 2
ENDMDL
MODEL 2
REMARK VINA RESULT:      -3.7     11.662     13.333
REMARK  2 active torsions:
REMARK  status: ('A' for Active; 'I' for Inactive)
REMARK    1  A    between atoms: C4_4  and  C10_10 
REMARK    2  A    between atoms: C10_10  and  O11_11 
ROOT
HETATM    1  C1  UNL     1     -40.784  13.250   5.424  1.00 20.00    -0.069 C 
HETATM    2  C2  UNL     1     -39.772  12.401   5.236  1.00 20.00    -0.085 C 
HETATM    3  C3  UNL     1     -41.672  14.013   4.465  1.00 20.00     0.043 C 
HETATM    4  C4  UNL     1     -41.984  14.912   5.689  1.00 20.00     0.025 C 
HETATM    5  C5  UNL     1     -41.483  13.791   6.674  1.00 20.00    -0.018 C 
HETATM    6  C6  UNL     1     -39.038  11.764   6.384  1.00 20.00     0.043 C 
HETATM    7  C7  UNL     1     -39.293  12.019   3.863  1.00 20.00     0.043 C 
HETATM    8  C8  UNL     1     -40.556  14.328   7.764  1.00 20.00     0.020 C 
HETATM    9  C9  UNL     1     -42.534  12.842   7.255  1.00 20.00     0.020 C 
ENDROOT
BRANCH   4  10
HETATM   10  C10 UNL     1     -43.417  15.407   5.799  1.00 20.00     0.170 C 
BRANCH  10  11
HETATM   11  O11 UNL     1     -43.406  16.712   6.353  1.00 20.00    -0.400 OA
HETATM   12  H29 UNL     1     -43.962  17.268   5.781  1.00 20.00     0.209 HD
ENDBRANCH  10  11
ENDBRANCH   4  10
TORSDOF 2
ENDMDL
MODEL 3
REMARK VINA RESULT:      -3.5      2.681      4.251
REMARK  2 active torsions:
REMARK  status: ('A' for Active; 'I' for Inactive)
REMARK    1  A    between atoms: C4_4  and  C10_10 
REMARK    2  A    between atoms: C10_10  and  O11_11 
ROOT
HETATM    1  C1  UNL     1     -34.004  16.896  -3.887  1.00 20.00    -0.069 C 
HETATM    2  C2  UNL     1     -34.385  16.402  -5.066  1.00 20.00    -0.085 C 
HETATM    3  C3  UNL     1     -33.278  16.284  -2.707  1.00 20.00     0.043 C 
HETATM    4  C4  UNL     1     -33.861  17.478  -1.909  1.00 20.00     0.025 C 
HETATM    5  C5  UNL     1     -34.118  18.279  -3.240  1.00 20.00    -0.018 C 
HETATM    6  C6  UNL     1     -35.108  17.237  -6.087  1.00 20.00     0.043 C 
HETATM    7  C7  UNL     1     -34.119  14.976  -5.461  1.00 20.00     0.043 C 
HETATM    8  C8  UNL     1     -35.506  18.916  -3.293  1.00 20.00     0.020 C 
HETATM    9  C9  UNL     1     -33.037  19.263  -3.690  1.00 20.00     0.020 C 
ENDROOT
BRANCH   4  10
HETATM   10  C10 UNL     1     -32.948  18.077  -0.851  1.00 20.00     0.170 C 
BRANCH  10  11
HETATM   11  O11 UNL     1     -33.596  17.995   0.408  1.00 20.00    -0.400 OA
HETATM   12  H29 UNL     1     -32.923  17.733   1.058  1.00 20.00     0.209 HD
ENDBRANCH  10  11
ENDBRANCH   4  10
TORSDOF 2
ENDMDL
MODEL 4
REMARK VINA RESULT:      -3.4      2.267      3.574
REMARK  2 active torsions:
REMARK  status: ('A' for Active; 'I' for Inactive)
REMARK    1  A    between atoms: C4_4  and  C10_10 
REMARK    2  A    between atoms: C10_10  and  O11_11 
ROOT
HETATM    1  C1  UNL     1     -34.806  16.508  -4.656  1.00 20.00    -0.069 C 
HETATM    2  C2  UNL     1     -33.749  16.193  -3.905  1.00 20.00    -0.085 C 
HETATM    3  C3  UNL     1     -35.774  17.672  -4.625  1.00 20.00     0.043 C 
HETATM    4  C4  UNL     1     -36.696  16.745  -5.459  1.00 20.00     0.025 C 
HETATM    5  C5  UNL     1     -35.469  15.845  -5.866  1.00 20.00    -0.018 C 
HETATM    6  C6  UNL     1     -32.936  14.952  -4.147  1.00 20.00     0.043 C 
HETATM    7  C7  UNL     1     -33.294  17.058  -2.761  1.00 20.00     0.043 C 
HETATM    8  C8  UNL     1     -35.754  14.350  -5.722  1.00 20.00     0.020 C 
HETATM    9  C9  UNL     1     -34.779  16.155  -7.196  1.00 20.00     0.020 C 
ENDROOT
BRANCH   4  10
HETATM   10  C10 UNL     1     -37.508  17.425  -6.549  1.00 20.00     0.170 C 
BRANCH  10  11
HETATM   11  O11 UNL     1     -38.586  16.577  -6.909  1.00 20.00    -0.400 OA
HETATM   12  H29 UNL     1     -38.198  15.754  -7.251  1.00 20.00     0.209 HD
ENDBRANCH  10  11
ENDBRANCH   4  10
TORSDOF 2
ENDMDL
MODEL 5
REMARK VINA RESULT:      -3.3      2.949      4.207
REMARK  2 active torsions:
REMARK  status: ('A' for Active; 'I' for Inactive)
REMARK    1  A    between atoms: C4_4  and  C10_10 
REMARK    2  A    between atoms: C10_10  and  O11_11 
ROOT
HETATM    1  C1  UNL     1     -33.368  18.731  -0.819  1.00 20.00    -0.069 C 
HETATM    2  C2  UNL     1     -32.405  18.704   0.104  1.00 20.00    -0.085 C 
HETATM    3  C3  UNL     1     -34.788  19.257  -0.802  1.00 20.00     0.043 C 
HETATM    4  C4  UNL     1     -34.993  18.336  -2.033  1.00 20.00     0.025 C 
HETATM    5  C5  UNL     1     -33.439  18.268  -2.277  1.00 20.00    -0.018 C 
HETATM    6  C6  UNL     1     -31.050  18.112  -0.170  1.00 20.00     0.043 C 
HETATM    7  C7  UNL     1     -32.605  19.263   1.485  1.00 20.00     0.043 C 
HETATM    8  C8  UNL     1     -32.940  16.848  -2.540  1.00 20.00     0.020 C 
HETATM    9  C9  UNL     1     -32.838  19.263  -3.272  1.00 20.00     0.020 C 
ENDROOT
BRANCH   4  10
HETATM   10  C10 UNL     1     -35.890  18.888  -3.130  1.00 20.00     0.170 C 
BRANCH  10  11
HETATM   11  O11 UNL     1     -37.097  18.143  -3.148  1.00 20.00    -0.400 OA
HETATM   12  H29 UNL     1     -37.379  18.081  -4.077  1.00 20.00     0.209 HD
ENDBRANCH  10  11
ENDBRANCH   4  10
TORSDOF 2
ENDMDL
MODEL 6
REMARK VINA RESULT:      -3.2     12.341     13.150
REMARK  2 active torsions:
REMARK  status: ('A' for Active; 'I' for Inactive)
REMARK    1  A    between atoms: C4_4  and  C10_10 
REMARK    2  A    between atoms: C10_10  and  O11_11 
ROOT
HETATM    1  C1  UNL     1     -41.328  14.813   6.975  1.00 20.00    -0.069 C 
HETATM    2  C2  UNL     1     -41.759  15.986   7.441  1.00 20.00    -0.085 C 
HETATM    3  C3  UNL     1     -40.097  13.983   7.273  1.00 20.00     0.043 C 
HETATM    4  C4  UNL     1     -40.411  13.288   5.923  1.00 20.00     0.025 C 
HETATM    5  C5  UNL     1     -41.896  13.808   5.969  1.00 20.00    -0.018 C 
HETATM    6  C6  UNL     1     -43.045  16.609   6.973  1.00 20.00     0.043 C 
HETATM    7  C7  UNL     1     -40.991  16.770   8.469  1.00 20.00     0.043 C 
HETATM    8  C8  UNL     1     -42.361  14.402   4.640  1.00 20.00     0.020 C 
HETATM    9  C9  UNL     1     -42.953  12.872   6.560  1.00 20.00     0.020 C 
ENDROOT
BRANCH   4  10
HETATM   10  C10 UNL     1     -40.154  11.790   5.873  1.00 20.00     0.170 C 
BRANCH  10  11
HETATM   11  O11 UNL     1     -39.519  11.479   4.644  1.00 20.00    -0.400 OA
HETATM   12  H29 UNL     1     -40.012  11.941   3.944  1.00 20.00     0.209 HD
ENDBRANCH  10  11
ENDBRANCH   4  10
TORSDOF 2
ENDMDL
MODEL 7
REMARK VINA RESULT:      -3.1      1.965      3.655
REMARK  2 active torsions:
REMARK  status: ('A' for Active; 'I' for Inactive)
REMARK    1  A    between atoms: C4_4  and  C10_10 
REMARK    2  A    between atoms: C10_10  and  O11_11 
ROOT
HETATM    1  C1  UNL     1     -35.880  16.981  -5.472  1.00 20.00    -0.069 C 
HETATM    2  C2  UNL     1     -36.897  17.624  -6.050  1.00 20.00    -0.085 C 
HETATM    3  C3  UNL     1     -35.052  17.275  -4.239  1.00 20.00     0.043 C 
HETATM    4  C4  UNL     1     -34.027  16.295  -4.866  1.00 20.00     0.025 C 
HETATM    5  C5  UNL     1     -35.141  15.680  -5.793  1.00 20.00    -0.018 C 
HETATM    6  C6  UNL     1     -37.562  17.111  -7.297  1.00 20.00     0.043 C 
HETATM    7  C7  UNL     1     -37.452  18.907  -5.495  1.00 20.00     0.043 C 
HETATM    8  C8  UNL     1     -34.688  15.523  -7.244  1.00 20.00     0.020 C 
HETATM    9  C9  UNL     1     -35.858  14.423  -5.295  1.00 20.00     0.020 C 
ENDROOT
BRANCH   4  10
HETATM   10  C10 UNL     1     -33.295  15.388  -3.890  1.00 20.00     0.170 C 
BRANCH  10  11
HETATM   11  O11 UNL     1     -32.158  14.844  -4.540  1.00 20.00    -0.400 OA
HETATM   12  H29 UNL     1     -31.787  14.169  -3.946  1.00 20.00     0.209 HD
ENDBRANCH  10  11
ENDBRANCH   4  10
TORSDOF 2
ENDMDL
MODEL 8
REMARK VINA RESULT:      -3.1      1.531      2.859
REMARK  2 active torsions:
REMARK  status: ('A' for Active; 'I' for Inactive)
REMARK    1  A    between atoms: C4_4  and  C10_10 
REMARK    2  A    between atoms: C10_10  and  O11_11 
ROOT
HETATM    1  C1  UNL     1     -36.286  17.374  -4.931  1.00 20.00    -0.069 C 
HETATM    2  C2  UNL     1     -37.088  18.080  -4.132  1.00 20.00    -0.085 C 
HETATM    3  C3  UNL     1     -36.556  16.295  -5.958  1.00 20.00     0.043 C 
HETATM    4  C4  UNL     1     -35.054  15.951  -5.785  1.00 20.00     0.025 C 
HETATM    5  C5  UNL     1     -34.773  17.369  -5.162  1.00 20.00    -0.018 C 
HETATM    6  C6  UNL     1     -36.559  19.117  -3.180  1.00 20.00     0.043 C 
HETATM    7  C7  UNL     1     -38.580  17.890  -4.125  1.00 20.00     0.043 C 
HETATM    8  C8  UNL     1     -33.916  17.305  -3.899  1.00 20.00     0.020 C 
HETATM    9  C9  UNL     1     -34.288  18.470  -6.107  1.00 20.00     0.020 C 
ENDROOT
BRANCH   4  10
HETATM   10  C10 UNL     1     -34.319  15.540  -7.051  1.00 20.00     0.170 C 
BRANCH  10  11
HETATM   11  O11 UNL     1     -33.242  14.689  -6.695  1.00 20.00    -0.400 OA
HETATM   12  H29 UNL     1     -32.887  14.319  -7.521  1.00 20.00     0.209 HD
ENDBRANCH  10  11
ENDBRANCH   4  10
TORSDOF 2
ENDMDL
MODEL 9
REMARK VINA RESULT:      -3.1      1.825      3.468
REMARK  2 active torsions:
REMARK  status: ('A' for Active; 'I' for Inactive)
REMARK    1  A    between atoms: C4_4  and  C10_10 
REMARK    2  A    between atoms: C10_10  and  O11_11 
ROOT
HETATM    1  C1  UNL     1     -36.690  16.704  -5.337  1.00 20.00    -0.069 C 
HETATM    2  C2  UNL     1     -37.833  17.383  -5.225  1.00 20.00    -0.085 C 
HETATM    3  C3  UNL     1     -36.385  15.260  -5.674  1.00 20.00     0.043 C 
HETATM    4  C4  UNL     1     -35.007  15.546  -5.023  1.00 20.00     0.025 C 
HETATM    5  C5  UNL     1     -35.217  17.097  -5.194  1.00 20.00    -0.018 C 
HETATM    6  C6  UNL     1     -37.865  18.844  -4.872  1.00 20.00     0.043 C 
HETATM    7  C7  UNL     1     -39.172  16.736  -5.446  1.00 20.00     0.043 C 
HETATM    8  C8  UNL     1     -34.867  17.887  -3.933  1.00 20.00     0.020 C 
HETATM    9  C9  UNL     1     -34.628  17.754  -6.444  1.00 20.00     0.020 C 
ENDROOT
BRANCH   4  10
HETATM   10  C10 UNL     1     -33.810  14.884  -5.688  1.00 20.00     0.170 C 
BRANCH  10  11
HETATM   11  O11 UNL     1     -33.247  13.949  -4.783  1.00 20.00    -0.400 OA
HETATM   12  H29 UNL     1     -33.412  14.287  -3.886  1.00 20.00     0.209 HD
ENDBRANCH  10  11
ENDBRANCH   4  10
TORSDOF 2
ENDMDL
