MODEL 1
REMARK VINA RESULT:      -4.4      0.000      0.000
REMARK  3 active torsions:
REMARK  status: ('A' for Active; 'I' for Inactive)
REMARK    1  A    between atoms: C1_1  and  C4_4 
REMARK    2  A    between atoms: C4_4  and  C5_5 
REMARK    3  A    between atoms: N6_6  and  O7_7 
ROOT
HETATM    1  C1  UNL     1     -34.318   6.689   5.212  1.00 20.00     0.035 C 
HETATM    2  C2  UNL     1     -34.019   6.369   6.659  1.00 20.00     0.068 C 
HETATM    3  N6  UNL     1     -34.964   5.897   4.412  1.00 20.00    -0.146 NA
ENDROOT
BRANCH   1   4
HETATM    4  C4  UNL     1     -33.866   8.033   4.674  1.00 20.00     0.056 C 
BRANCH   4   5
HETATM    5  C5  UNL     1     -32.383   8.035   4.309  1.00 20.00     0.001 C 
HETATM    6  C3  UNL     1     -32.106   7.386   2.962  1.00 20.00     0.005 C 
ENDBRANCH   4   5
ENDBRANCH   1   4
BRANCH   3   7
HETATM    7  O7  UNL     1     -35.338   4.719   5.062  1.00 20.00    -0.266 OA
HETATM    8  H18 UNL     1     -34.559   4.545   5.615  1.00 20.00     0.247 HD
ENDBRANCH   3   7
TORSDOF 3
ENDMDL
MODEL 2
REMARK VINA RESULT:      -4.1      2.314      3.425
REMARK  3 active torsions:
REMARK  status: ('A' for Active; 'I' for Inactive)
REMARK    1  A    between atoms: C1_1  and  C4_4 
REMARK    2  A    between atoms: C4_4  and  C5_5 
REMARK    3  A    between atoms: N6_6  and  O7_7 
ROOT
HETATM    1  C1  UNL     1     -32.966   7.761   4.674  1.00 20.00     0.035 C 
HETATM    2  C2  UNL     1     -32.229   9.076   4.779  1.00 20.00     0.068 C 
HETATM    3  N6  UNL     1     -32.917   6.982   3.636  1.00 20.00    -0.146 NA
ENDROOT
BRANCH   1   4
HETATM    4  C4  UNL     1     -33.784   7.306   5.868  1.00 20.00     0.056 C 
BRANCH   4   5
HETATM    5  C5  UNL     1     -34.787   6.217   5.496  1.00 20.00     0.001 C 
HETATM    6  C3  UNL     1     -34.487   4.885   6.165  1.00 20.00     0.005 C 
ENDBRANCH   4   5
ENDBRANCH   1   4
BRANCH   3   7
HETATM    7  O7  UNL     1     -32.103   7.523   2.638  1.00 20.00    -0.266 OA
HETATM    8  H18 UNL     1     -32.244   6.896   1.910  1.00 20.00     0.247 HD
ENDBRANCH   3   7
TORSDOF 3
ENDMDL
MODEL 3
REMARK VINA RESULT:      -4.0      2.462      3.726
REMARK  3 active torsions:
REMARK  status: ('A' for Active; 'I' for Inactive)
REMARK    1  A    between atoms: C1_1  and  C4_4 
REMARK    2  A    between atoms: C4_4  and  C5_5 
REMARK    3  A    between atoms: N6_6  and  O7_7 
ROOT
HETATM    1  C1  UNL     1     -33.005   7.149   4.091  1.00 20.00     0.035 C 
HETATM    2  C2  UNL     1     -32.173   7.503   2.880  1.00 20.00     0.068 C 
HETATM    3  N6  UNL     1     -33.003   7.829   5.197  1.00 20.00    -0.146 NA
ENDROOT
BRANCH   1   4
HETATM    4  C4  UNL     1     -33.926   5.948   3.994  1.00 20.00     0.056 C 
BRANCH   4   5
HETATM    5  C5  UNL     1     -34.996   5.956   5.084  1.00 20.00     0.001 C 
HETATM    6  C3  UNL     1     -34.588   5.162   6.316  1.00 20.00     0.005 C 
ENDBRANCH   4   5
ENDBRANCH   1   4
BRANCH   3   7
HETATM    7  O7  UNL     1     -32.131   8.917   5.118  1.00 20.00    -0.266 OA
HETATM    8  H18 UNL     1     -32.479   9.391   4.346  1.00 20.00     0.247 HD
ENDBRANCH   3   7
TORSDOF 3
ENDMDL
MODEL 4
REMARK VINA RESULT:      -4.0      1.330      1.544
REMARK  3 active torsions:
REMARK  status: ('A' for Active; 'I' for Inactive)
REMARK    1  A    between atoms: C1_1  and  C4_4 
REMARK    2  A    between atoms: C4_4  and  C5_5 
REMARK    3  A    between atoms: N6_6  and  O7_7 
ROOT
HETATM    1  C1  UNL     1     -34.233   6.775   5.312  1.00 20.00     0.035 C 
HETATM    2  C2  UNL     1     -35.151   5.936   4.454  1.00 20.00     0.068 C 
HETATM    3  N6  UNL     1     -33.751   6.389   6.453  1.00 20.00    -0.146 NA
ENDROOT
BRANCH   1   4
HETATM    4  C4  UNL     1     -33.820   8.138   4.789  1.00 20.00     0.056 C 
BRANCH   4   5
HETATM    5  C5  UNL     1     -32.358   8.165   4.349  1.00 20.00     0.001 C 
HETATM    6  C3  UNL     1     -32.119   7.412   3.048  1.00 20.00     0.005 C 
ENDBRANCH   4   5
ENDBRANCH   1   4
BRANCH   3   7
HETATM    7  O7  UNL     1     -34.198   5.107   6.781  1.00 20.00    -0.266 OA
HETATM    8  H18 UNL     1     -34.910   4.976   6.134  1.00 20.00     0.247 HD
ENDBRANCH   3   7
TORSDOF 3
ENDMDL
MODEL 5
REMARK VINA RESULT:      -3.9      1.716      3.077
REMARK  3 active torsions:
REMARK  status: ('A' for Active; 'I' for Inactive)
REMARK    1  A    between atoms: C1_1  and  C4_4 
REMARK    2  A    between atoms: C4_4  and  C5_5 
REMARK    3  A    between atoms: N6_6  and  O7_7 
ROOT
HETATM    1  C1  UNL     1     -33.267   6.824   3.877  1.00 20.00     0.035 C 
HETATM    2  C2  UNL     1     -32.106   7.593   3.290  1.00 20.00     0.068 C 
HETATM    3  N6  UNL     1     -33.600   5.623   3.514  1.00 20.00    -0.146 NA
ENDROOT
BRANCH   1   4
HETATM    4  C4  UNL     1     -34.068   7.482   4.984  1.00 20.00     0.056 C 
BRANCH   4   5
HETATM    5  C5  UNL     1     -33.847   6.804   6.334  1.00 20.00     0.001 C 
HETATM    6  C3  UNL     1     -34.681   5.543   6.504  1.00 20.00     0.005 C 
ENDBRANCH   4   5
ENDBRANCH   1   4
BRANCH   3   7
HETATM    7  O7  UNL     1     -32.752   5.145   2.513  1.00 20.00    -0.266 OA
HETATM    8  H18 UNL     1     -33.389   4.836   1.848  1.00 20.00     0.247 HD
ENDBRANCH   3   7
TORSDOF 3
ENDMDL
MODEL 6
REMARK VINA RESULT:      -3.9      2.544      3.600
REMARK  3 active torsions:
REMARK  status: ('A' for Active; 'I' for Inactive)
REMARK    1  A    between atoms: C1_1  and  C4_4 
REMARK    2  A    between atoms: C4_4  and  C5_5 
REMARK    3  A    between atoms: N6_6  and  O7_7 
ROOT
HETATM    1  C1  UNL     1     -33.577   6.042   3.735  1.00 20.00     0.035 C 
HETATM    2  C2  UNL     1     -33.004   5.110   2.692  1.00 20.00     0.068 C 
HETATM    3  N6  UNL     1     -33.078   7.206   4.021  1.00 20.00    -0.146 NA
ENDROOT
BRANCH   1   4
HETATM    4  C4  UNL     1     -34.832   5.605   4.466  1.00 20.00     0.056 C 
BRANCH   4   5
HETATM    5  C5  UNL     1     -34.581   5.386   5.956  1.00 20.00     0.001 C 
HETATM    6  C3  UNL     1     -34.416   6.689   6.724  1.00 20.00     0.005 C 
ENDBRANCH   4   5
ENDBRANCH   1   4
BRANCH   3   7
HETATM    7  O7  UNL     1     -31.948   7.475   3.245  1.00 20.00    -0.266 OA
HETATM    8  H18 UNL     1     -32.222   7.136   2.377  1.00 20.00     0.247 HD
ENDBRANCH   3   7
TORSDOF 3
ENDMDL
MODEL 7
REMARK VINA RESULT:      -3.8     11.861     12.334
REMARK  3 active torsions:
REMARK  status: ('A' for Active; 'I' for Inactive)
REMARK    1  A    between atoms: C1_1  and  C4_4 
REMARK    2  A    between atoms: C4_4  and  C5_5 
REMARK    3  A    between atoms: N6_6  and  O7_7 
ROOT
HETATM    1  C1  UNL     1     -34.240  14.612  -4.564  1.00 20.00     0.035 C 
HETATM    2  C2  UNL     1     -34.828  15.018  -5.895  1.00 20.00     0.068 C 
HETATM    3  N6  UNL     1     -34.645  13.592  -3.872  1.00 20.00    -0.146 NA
ENDROOT
BRANCH   1   4
HETATM    4  C4  UNL     1     -33.080  15.426  -4.023  1.00 20.00     0.056 C 
BRANCH   4   5
HETATM    5  C5  UNL     1     -33.530  16.787  -3.497  1.00 20.00     0.001 C 
HETATM    6  C3  UNL     1     -33.452  16.889  -1.981  1.00 20.00     0.005 C 
ENDBRANCH   4   5
ENDBRANCH   1   4
BRANCH   3   7
HETATM    7  O7  UNL     1     -35.693  12.930  -4.515  1.00 20.00    -0.266 OA
HETATM    8  H18 UNL     1     -35.900  12.227  -3.878  1.00 20.00     0.247 HD
ENDBRANCH   3   7
TORSDOF 3
ENDMDL
MODEL 8
REMARK VINA RESULT:      -3.8      2.595      2.868
REMARK  3 active torsions:
REMARK  status: ('A' for Active; 'I' for Inactive)
REMARK    1  A    between atoms: C1_1  and  C4_4 
REMARK    2  A    between atoms: C4_4  and  C5_5 
REMARK    3  A    between atoms: N6_6  and  O7_7 
ROOT
HETATM    1  C1  UNL     1     -33.789   7.054   5.047  1.00 20.00     0.035 C 
HETATM    2  C2  UNL     1     -33.946   7.093   6.550  1.00 20.00     0.068 C 
HETATM    3  N6  UNL     1     -32.955   7.797   4.385  1.00 20.00    -0.146 NA
ENDROOT
BRANCH   1   4
HETATM    4  C4  UNL     1     -34.630   6.061   4.270  1.00 20.00     0.056 C 
BRANCH   4   5
HETATM    5  C5  UNL     1     -33.837   4.814   3.884  1.00 20.00     0.001 C 
HETATM    6  C3  UNL     1     -33.026   5.002   2.610  1.00 20.00     0.005 C 
ENDBRANCH   4   5
ENDBRANCH   1   4
BRANCH   3   7
HETATM    7  O7  UNL     1     -32.235   8.633   5.241  1.00 20.00    -0.266 OA
HETATM    8  H18 UNL     1     -31.734   7.989   5.767  1.00 20.00     0.247 HD
ENDBRANCH   3   7
TORSDOF 3
ENDMDL
MODEL 9
REMARK VINA RESULT:      -3.7     12.824     13.085
REMARK  3 active torsions:
REMARK  status: ('A' for Active; 'I' for Inactive)
REMARK    1  A    between atoms: C1_1  and  C4_4 
REMARK    2  A    between atoms: C4_4  and  C5_5 
REMARK    3  A    between atoms: N6_6  and  O7_7 
ROOT
HETATM    1  C1  UNL     1     -32.035  18.535  -0.504  1.00 20.00     0.035 C 
HETATM    2  C2  UNL     1     -32.953  18.525   0.696  1.00 20.00     0.068 C 
HETATM    3  N6  UNL     1     -30.755  18.743  -0.437  1.00 20.00    -0.146 NA
ENDROOT
BRANCH   1   4
HETATM    4  C4  UNL     1     -32.640  18.248  -1.865  1.00 20.00     0.056 C 
BRANCH   4   5
HETATM    5  C5  UNL     1     -33.491  16.980  -1.859  1.00 20.00     0.001 C 
HETATM    6  C3  UNL     1     -33.381  16.189  -3.154  1.00 20.00     0.005 C 
ENDBRANCH   4   5
ENDBRANCH   1   4
BRANCH   3   7
HETATM    7  O7  UNL     1     -30.348  18.960   0.881  1.00 20.00    -0.266 OA
HETATM    8  H18 UNL     1     -29.440  19.281   0.754  1.00 20.00     0.247 HD
ENDBRANCH   3   7
TORSDOF 3
ENDMDL
