MODEL 1
REMARK VINA RESULT:      -6.0      0.000      0.000
REMARK  0 active torsions:
REMARK  status: ('A' for Active; 'I' for Inactive)
ROOT
HETATM    1  C1  UNL     1     -34.437   6.501   6.128  1.00 20.00     0.027 A 
HETATM    2  C2  UNL     1     -34.852   5.250   5.696  1.00 20.00     0.116 A 
HETATM    3  C3  UNL     1     -33.621   5.370   3.739  1.00 20.00     0.124 A 
HETATM    4  C4  UNL     1     -33.584   7.185   5.285  1.00 20.00    -0.049 A 
HETATM    5  C5  UNL     1     -33.166   6.624   4.077  1.00 20.00    -0.030 A 
HETATM    6  C6  UNL     1     -32.952   8.525   5.499  1.00 20.00     0.040 C 
HETATM    7  C7  UNL     1     -32.511   8.872   4.068  1.00 20.00     0.014 C 
HETATM    8  C8  UNL     1     -32.205   7.530   3.368  1.00 20.00     0.017 C 
HETATM    9  C9  UNL     1     -32.387   7.610   1.861  1.00 20.00     0.015 C 
HETATM   10  N10 UNL     1     -34.469   4.669   4.528  1.00 20.00    -0.273 NA
ENDROOT
TORSDOF 0
ENDMDL
MODEL 2
REMARK VINA RESULT:      -5.9      1.140      2.331
REMARK  0 active torsions:
REMARK  status: ('A' for Active; 'I' for Inactive)
ROOT
HETATM    1  C1  UNL     1     -34.252   4.813   4.650  1.00 20.00     0.027 A 
HETATM    2  C2  UNL     1     -34.801   4.967   5.915  1.00 20.00     0.116 A 
HETATM    3  C3  UNL     1     -34.183   7.192   6.059  1.00 20.00     0.124 A 
HETATM    4  C4  UNL     1     -33.641   5.928   4.112  1.00 20.00    -0.049 A 
HETATM    5  C5  UNL     1     -33.600   7.133   4.814  1.00 20.00    -0.030 A 
HETATM    6  C6  UNL     1     -32.999   6.070   2.768  1.00 20.00     0.040 C 
HETATM    7  C7  UNL     1     -32.168   7.346   2.974  1.00 20.00     0.014 C 
HETATM    8  C8  UNL     1     -32.934   8.205   4.004  1.00 20.00     0.017 C 
HETATM    9  C9  UNL     1     -32.014   9.127   4.786  1.00 20.00     0.015 C 
HETATM   10  N10 UNL     1     -34.782   6.122   6.632  1.00 20.00    -0.273 NA
ENDROOT
TORSDOF 0
ENDMDL
MODEL 3
REMARK VINA RESULT:      -5.9      1.574      3.322
REMARK  0 active torsions:
REMARK  status: ('A' for Active; 'I' for Inactive)
ROOT
HETATM    1  C1  UNL     1     -32.844   8.602   5.212  1.00 20.00     0.027 A 
HETATM    2  C2  UNL     1     -32.181   8.758   4.004  1.00 20.00     0.116 A 
HETATM    3  C3  UNL     1     -32.919   6.724   3.183  1.00 20.00     0.124 A 
HETATM    4  C4  UNL     1     -33.554   7.429   5.370  1.00 20.00    -0.049 A 
HETATM    5  C5  UNL     1     -33.599   6.474   4.353  1.00 20.00    -0.030 A 
HETATM    6  C6  UNL     1     -34.385   7.003   6.540  1.00 20.00     0.040 C 
HETATM    7  C7  UNL     1     -34.517   5.496   6.272  1.00 20.00     0.014 C 
HETATM    8  C8  UNL     1     -34.474   5.319   4.738  1.00 20.00     0.017 C 
HETATM    9  C9  UNL     1     -33.952   3.951   4.329  1.00 20.00     0.015 C 
HETATM   10  N10 UNL     1     -32.199   7.854   2.989  1.00 20.00    -0.273 NA
ENDROOT
TORSDOF 0
ENDMDL
MODEL 4
REMARK VINA RESULT:      -5.0      0.838      2.504
REMARK  0 active torsions:
REMARK  status: ('A' for Active; 'I' for Inactive)
ROOT
HETATM    1  C1  UNL     1     -33.008   5.101   3.006  1.00 20.00     0.027 A 
HETATM    2  C2  UNL     1     -33.849   4.238   3.694  1.00 20.00     0.116 A 
HETATM    3  C3  UNL     1     -34.617   5.900   5.110  1.00 20.00     0.124 A 
HETATM    4  C4  UNL     1     -32.998   6.413   3.437  1.00 20.00    -0.049 A 
HETATM    5  C5  UNL     1     -33.805   6.827   4.498  1.00 20.00    -0.030 A 
HETATM    6  C6  UNL     1     -32.225   7.563   2.873  1.00 20.00     0.040 C 
HETATM    7  C7  UNL     1     -32.316   8.572   4.029  1.00 20.00     0.014 C 
HETATM    8  C8  UNL     1     -33.659   8.299   4.742  1.00 20.00     0.017 C 
HETATM    9  C9  UNL     1     -33.630   8.710   6.205  1.00 20.00     0.015 C 
HETATM   10  N10 UNL     1     -34.650   4.600   4.731  1.00 20.00    -0.273 NA
ENDROOT
TORSDOF 0
ENDMDL
MODEL 5
REMARK VINA RESULT:      -4.8      1.694      3.987
REMARK  0 active torsions:
REMARK  status: ('A' for Active; 'I' for Inactive)
ROOT
HETATM    1  C1  UNL     1     -32.393   7.575   2.785  1.00 20.00     0.027 A 
HETATM    2  C2  UNL     1     -32.179   8.798   3.404  1.00 20.00     0.116 A 
HETATM    3  C3  UNL     1     -33.055   8.081   5.422  1.00 20.00     0.124 A 
HETATM    4  C4  UNL     1     -32.980   6.595   3.560  1.00 20.00    -0.049 A 
HETATM    5  C5  UNL     1     -33.318   6.839   4.892  1.00 20.00    -0.030 A 
HETATM    6  C6  UNL     1     -33.298   5.183   3.178  1.00 20.00     0.040 C 
HETATM    7  C7  UNL     1     -34.290   4.797   4.287  1.00 20.00     0.014 C 
HETATM    8  C8  UNL     1     -33.888   5.611   5.536  1.00 20.00     0.017 C 
HETATM    9  C9  UNL     1     -35.063   5.858   6.468  1.00 20.00     0.015 C 
HETATM   10  N10 UNL     1     -32.494   9.077   4.697  1.00 20.00    -0.273 NA
ENDROOT
TORSDOF 0
ENDMDL
MODEL 6
REMARK VINA RESULT:      -4.6      1.550      3.472
REMARK  0 active torsions:
REMARK  status: ('A' for Active; 'I' for Inactive)
ROOT
HETATM    1  C1  UNL     1     -33.479   5.098   2.977  1.00 20.00     0.027 A 
HETATM    2  C2  UNL     1     -32.703   5.889   2.143  1.00 20.00     0.116 A 
HETATM    3  C3  UNL     1     -32.486   7.570   3.719  1.00 20.00     0.124 A 
HETATM    4  C4  UNL     1     -33.754   5.616   4.226  1.00 20.00    -0.049 A 
HETATM    5  C5  UNL     1     -33.259   6.863   4.612  1.00 20.00    -0.030 A 
HETATM    6  C6  UNL     1     -34.529   4.982   5.339  1.00 20.00     0.040 C 
HETATM    7  C7  UNL     1     -34.824   6.204   6.223  1.00 20.00     0.014 C 
HETATM    8  C8  UNL     1     -33.646   7.182   6.024  1.00 20.00     0.017 C 
HETATM    9  C9  UNL     1     -34.047   8.628   6.272  1.00 20.00     0.015 C 
HETATM   10  N10 UNL     1     -32.202   7.108   2.479  1.00 20.00    -0.273 NA
ENDROOT
TORSDOF 0
ENDMDL
MODEL 7
REMARK VINA RESULT:      -3.9     12.223     13.339
REMARK  0 active torsions:
REMARK  status: ('A' for Active; 'I' for Inactive)
ROOT
HETATM    1  C1  UNL     1     -33.276  15.186  -4.057  1.00 20.00     0.027 A 
HETATM    2  C2  UNL     1     -33.839  14.947  -5.303  1.00 20.00     0.116 A 
HETATM    3  C3  UNL     1     -35.002  16.948  -5.309  1.00 20.00     0.124 A 
HETATM    4  C4  UNL     1     -33.634  16.370  -3.444  1.00 20.00    -0.049 A 
HETATM    5  C5  UNL     1     -34.504  17.266  -4.066  1.00 20.00    -0.030 A 
HETATM    6  C6  UNL     1     -33.165  16.906  -2.128  1.00 20.00     0.040 C 
HETATM    7  C7  UNL     1     -34.231  17.978  -1.853  1.00 20.00     0.014 C 
HETATM    8  C8  UNL     1     -34.696  18.497  -3.231  1.00 20.00     0.017 C 
HETATM    9  C9  UNL     1     -36.117  19.037  -3.196  1.00 20.00     0.015 C 
HETATM   10  N10 UNL     1     -34.690  15.793  -5.942  1.00 20.00    -0.273 NA
ENDROOT
TORSDOF 0
ENDMDL
MODEL 8
REMARK VINA RESULT:      -3.8     12.186     13.510
REMARK  0 active torsions:
REMARK  status: ('A' for Active; 'I' for Inactive)
ROOT
HETATM    1  C1  UNL     1     -33.353  16.629  -2.410  1.00 20.00     0.027 A 
HETATM    2  C2  UNL     1     -33.732  17.930  -2.113  1.00 20.00     0.116 A 
HETATM    3  C3  UNL     1     -34.881  18.191  -4.105  1.00 20.00     0.124 A 
HETATM    4  C4  UNL     1     -33.773  16.135  -3.629  1.00 20.00    -0.049 A 
HETATM    5  C5  UNL     1     -34.544  16.914  -4.493  1.00 20.00    -0.030 A 
HETATM    6  C6  UNL     1     -33.548  14.770  -4.199  1.00 20.00     0.040 C 
HETATM    7  C7  UNL     1     -33.865  15.016  -5.682  1.00 20.00     0.014 C 
HETATM    8  C8  UNL     1     -34.919  16.144  -5.723  1.00 20.00     0.017 C 
HETATM    9  C9  UNL     1     -34.870  16.935  -7.020  1.00 20.00     0.015 C 
HETATM   10  N10 UNL     1     -34.481  18.722  -2.926  1.00 20.00    -0.273 NA
ENDROOT
TORSDOF 0
ENDMDL
MODEL 9
REMARK VINA RESULT:      -3.8     12.620     13.414
REMARK  0 active torsions:
REMARK  status: ('A' for Active; 'I' for Inactive)
ROOT
HETATM    1  C1  UNL     1     -24.539  -1.342  12.145  1.00 20.00     0.027 A 
HETATM    2  C2  UNL     1     -23.753  -2.340  11.589  1.00 20.00     0.116 A 
HETATM    3  C3  UNL     1     -25.412  -3.017  10.124  1.00 20.00     0.124 A 
HETATM    4  C4  UNL     1     -25.819  -1.224  11.642  1.00 20.00    -0.049 A 
HETATM    5  C5  UNL     1     -26.271  -2.063  10.623  1.00 20.00    -0.030 A 
HETATM    6  C6  UNL     1     -26.872  -0.229  12.020  1.00 20.00     0.040 C 
HETATM    7  C7  UNL     1     -28.129  -0.900  11.443  1.00 20.00     0.014 C 
HETATM    8  C8  UNL     1     -27.667  -1.707  10.210  1.00 20.00     0.017 C 
HETATM    9  C9  UNL     1     -28.576  -2.890   9.921  1.00 20.00     0.015 C 
HETATM   10  N10 UNL     1     -24.153  -3.178  10.596  1.00 20.00    -0.273 NA
ENDROOT
TORSDOF 0
ENDMDL
