MODEL 1
REMARK VINA RESULT:      -4.7      0.000      0.000
REMARK  1 active torsions:
REMARK  status: ('A' for Active; 'I' for Inactive)
REMARK    1  A    between atoms: C1_1  and  C2_2 
ROOT
HETATM    1  C1  UNL     1     -33.784   6.828   4.301  1.00 20.00     0.028 C 
HETATM    2  C4  UNL     1     -32.722   6.388   3.317  1.00 20.00     0.059 C 
HETATM    3  C5  UNL     1     -32.268   7.567   2.466  1.00 20.00     0.008 C 
HETATM    4  C6  UNL     1     -32.256   8.887   3.237  1.00 20.00     0.022 C 
HETATM    5  C7  UNL     1     -32.441   8.678   4.734  1.00 20.00     0.149 C 
HETATM    6  N9  UNL     1     -33.668   7.914   4.994  1.00 20.00    -0.294 NA
ENDROOT
BRANCH   1   7
HETATM    7  C2  UNL     1     -34.961   5.956   4.473  1.00 20.00     0.022 C 
HETATM    8  C3  UNL     1     -35.116   5.200   5.540  1.00 20.00    -0.029 C 
HETATM    9  C8  UNL     1     -34.111   5.174   6.644  1.00 20.00     0.036 C 
ENDBRANCH   1   7
TORSDOF 1
ENDMDL
MODEL 2
REMARK VINA RESULT:      -4.6      1.014      3.775
REMARK  1 active torsions:
REMARK  status: ('A' for Active; 'I' for Inactive)
REMARK    1  A    between atoms: C1_1  and  C2_2 
ROOT
HETATM    1  C1  UNL     1     -33.762   7.426   5.450  1.00 20.00     0.028 C 
HETATM    2  C4  UNL     1     -35.021   7.158   4.654  1.00 20.00     0.059 C 
HETATM    3  C5  UNL     1     -35.126   5.677   4.312  1.00 20.00     0.008 C 
HETATM    4  C6  UNL     1     -34.576   4.772   5.414  1.00 20.00     0.022 C 
HETATM    5  C7  UNL     1     -34.298   5.538   6.700  1.00 20.00     0.149 C 
HETATM    6  N9  UNL     1     -33.400   6.670   6.436  1.00 20.00    -0.294 NA
ENDROOT
BRANCH   1   7
HETATM    7  C2  UNL     1     -32.960   8.608   5.084  1.00 20.00     0.022 C 
HETATM    8  C3  UNL     1     -32.196   8.626   4.011  1.00 20.00    -0.029 C 
HETATM    9  C8  UNL     1     -32.091   7.451   3.095  1.00 20.00     0.036 C 
ENDBRANCH   1   7
TORSDOF 1
ENDMDL
MODEL 3
REMARK VINA RESULT:      -4.6      1.084      1.758
REMARK  1 active torsions:
REMARK  status: ('A' for Active; 'I' for Inactive)
REMARK    1  A    between atoms: C1_1  and  C2_2 
ROOT
HETATM    1  C1  UNL     1     -34.001   6.615   4.110  1.00 20.00     0.028 C 
HETATM    2  C4  UNL     1     -34.057   8.046   4.597  1.00 20.00     0.059 C 
HETATM    3  C5  UNL     1     -32.656   8.551   4.918  1.00 20.00     0.008 C 
HETATM    4  C6  UNL     1     -31.590   7.985   3.979  1.00 20.00     0.022 C 
HETATM    5  C7  UNL     1     -32.202   7.264   2.786  1.00 20.00     0.149 C 
HETATM    6  N9  UNL     1     -33.129   6.219   3.240  1.00 20.00    -0.294 NA
ENDROOT
BRANCH   1   7
HETATM    7  C2  UNL     1     -35.003   5.672   4.642  1.00 20.00     0.022 C 
HETATM    8  C3  UNL     1     -34.900   5.152   5.847  1.00 20.00    -0.029 C 
HETATM    9  C8  UNL     1     -33.760   5.481   6.755  1.00 20.00     0.036 C 
ENDBRANCH   1   7
TORSDOF 1
ENDMDL
MODEL 4
REMARK VINA RESULT:      -4.4      0.945      3.739
REMARK  1 active torsions:
REMARK  status: ('A' for Active; 'I' for Inactive)
REMARK    1  A    between atoms: C1_1  and  C2_2 
ROOT
HETATM    1  C1  UNL     1     -33.328   6.680   4.122  1.00 20.00     0.028 C 
HETATM    2  C4  UNL     1     -34.566   5.814   4.035  1.00 20.00     0.059 C 
HETATM    3  C5  UNL     1     -34.788   5.075   5.348  1.00 20.00     0.008 C 
HETATM    4  C6  UNL     1     -34.377   5.897   6.570  1.00 20.00     0.022 C 
HETATM    5  C7  UNL     1     -34.093   7.350   6.214  1.00 20.00     0.149 C 
HETATM    6  N9  UNL     1     -33.085   7.428   5.150  1.00 20.00    -0.294 NA
ENDROOT
BRANCH   1   7
HETATM    7  C2  UNL     1     -32.405   6.672   2.972  1.00 20.00     0.022 C 
HETATM    8  C3  UNL     1     -32.161   7.757   2.267  1.00 20.00    -0.029 C 
HETATM    9  C8  UNL     1     -32.804   9.067   2.584  1.00 20.00     0.036 C 
ENDBRANCH   1   7
TORSDOF 1
ENDMDL
MODEL 5
REMARK VINA RESULT:      -4.1      1.125      4.063
REMARK  1 active torsions:
REMARK  status: ('A' for Active; 'I' for Inactive)
REMARK    1  A    between atoms: C1_1  and  C2_2 
ROOT
HETATM    1  C1  UNL     1     -33.452   7.173   4.752  1.00 20.00     0.028 C 
HETATM    2  C4  UNL     1     -33.465   6.859   6.232  1.00 20.00     0.059 C 
HETATM    3  C5  UNL     1     -34.720   6.076   6.596  1.00 20.00     0.008 C 
HETATM    4  C6  UNL     1     -35.163   5.116   5.492  1.00 20.00     0.022 C 
HETATM    5  C7  UNL     1     -34.109   4.969   4.403  1.00 20.00     0.149 C 
HETATM    6  N9  UNL     1     -33.749   6.285   3.860  1.00 20.00    -0.294 NA
ENDROOT
BRANCH   1   7
HETATM    7  C2  UNL     1     -33.058   8.535   4.345  1.00 20.00     0.022 C 
HETATM    8  C3  UNL     1     -32.432   8.769   3.210  1.00 20.00    -0.029 C 
HETATM    9  C8  UNL     1     -32.080   7.672   2.261  1.00 20.00     0.036 C 
ENDBRANCH   1   7
TORSDOF 1
ENDMDL
MODEL 6
REMARK VINA RESULT:      -3.7     12.019     13.136
REMARK  1 active torsions:
REMARK  status: ('A' for Active; 'I' for Inactive)
REMARK    1  A    between atoms: C1_1  and  C2_2 
ROOT
HETATM    1  C1  UNL     1     -32.635  18.965  -1.604  1.00 20.00     0.028 C 
HETATM    2  C4  UNL     1     -33.808  19.263  -0.696  1.00 20.00     0.059 C 
HETATM    3  C5  UNL     1     -33.676  18.489   0.609  1.00 20.00     0.008 C 
HETATM    4  C6  UNL     1     -32.226  18.342   1.070  1.00 20.00     0.022 C 
HETATM    5  C7  UNL     1     -31.278  19.222   0.268  1.00 20.00     0.149 C 
HETATM    6  N9  UNL     1     -31.417  18.947  -1.168  1.00 20.00    -0.294 NA
ENDROOT
BRANCH   1   7
HETATM    7  C2  UNL     1     -32.919  18.720  -3.030  1.00 20.00     0.022 C 
HETATM    8  C3  UNL     1     -33.278  17.533  -3.474  1.00 20.00    -0.029 C 
HETATM    9  C8  UNL     1     -33.420  16.357  -2.565  1.00 20.00     0.036 C 
ENDBRANCH   1   7
TORSDOF 1
ENDMDL
MODEL 7
REMARK VINA RESULT:      -3.6      9.588     10.334
REMARK  1 active torsions:
REMARK  status: ('A' for Active; 'I' for Inactive)
REMARK    1  A    between atoms: C1_1  and  C2_2 
ROOT
HETATM    1  C1  UNL     1     -40.672  12.895   6.645  1.00 20.00     0.028 C 
HETATM    2  C4  UNL     1     -40.814  14.401   6.687  1.00 20.00     0.059 C 
HETATM    3  C5  UNL     1     -41.938  14.852   5.764  1.00 20.00     0.008 C 
HETATM    4  C6  UNL     1     -43.102  13.862   5.717  1.00 20.00     0.022 C 
HETATM    5  C7  UNL     1     -42.991  12.794   6.796  1.00 20.00     0.149 C 
HETATM    6  N9  UNL     1     -41.696  12.107   6.704  1.00 20.00    -0.294 NA
ENDROOT
BRANCH   1   7
HETATM    7  C2  UNL     1     -39.308  12.339   6.565  1.00 20.00     0.022 C 
HETATM    8  C3  UNL     1     -38.769  11.981   5.418  1.00 20.00    -0.029 C 
HETATM    9  C8  UNL     1     -39.502  12.113   4.124  1.00 20.00     0.036 C 
ENDBRANCH   1   7
TORSDOF 1
ENDMDL
MODEL 8
REMARK VINA RESULT:      -3.6     12.213     13.689
REMARK  1 active torsions:
REMARK  status: ('A' for Active; 'I' for Inactive)
REMARK    1  A    between atoms: C1_1  and  C2_2 
ROOT
HETATM    1  C1  UNL     1     -34.552  14.917  -5.694  1.00 20.00     0.028 C 
HETATM    2  C4  UNL     1     -36.047  14.835  -5.470  1.00 20.00     0.059 C 
HETATM    3  C5  UNL     1     -36.745  16.024  -6.117  1.00 20.00     0.008 C 
HETATM    4  C6  UNL     1     -36.076  16.471  -7.417  1.00 20.00     0.022 C 
HETATM    5  C7  UNL     1     -35.037  15.469  -7.901  1.00 20.00     0.149 C 
HETATM    6  N9  UNL     1     -34.047  15.211  -6.848  1.00 20.00    -0.294 NA
ENDROOT
BRANCH   1   7
HETATM    7  C2  UNL     1     -33.672  14.620  -4.549  1.00 20.00     0.022 C 
HETATM    8  C3  UNL     1     -33.285  15.555  -3.707  1.00 20.00    -0.029 C 
HETATM    9  C8  UNL     1     -33.710  16.979  -3.857  1.00 20.00     0.036 C 
ENDBRANCH   1   7
TORSDOF 1
ENDMDL
MODEL 9
REMARK VINA RESULT:      -3.6     12.285     13.057
REMARK  1 active torsions:
REMARK  status: ('A' for Active; 'I' for Inactive)
REMARK    1  A    between atoms: C1_1  and  C2_2 
ROOT
HETATM    1  C1  UNL     1     -33.687  17.701  -2.276  1.00 20.00     0.028 C 
HETATM    2  C4  UNL     1     -33.177  16.401  -2.860  1.00 20.00     0.059 C 
HETATM    3  C5  UNL     1     -33.983  16.025  -4.096  1.00 20.00     0.008 C 
HETATM    4  C6  UNL     1     -34.421  17.240  -4.913  1.00 20.00     0.022 C 
HETATM    5  C7  UNL     1     -33.733  18.519  -4.453  1.00 20.00     0.149 C 
HETATM    6  N9  UNL     1     -33.952  18.728  -3.016  1.00 20.00    -0.294 NA
ENDROOT
BRANCH   1   7
HETATM    7  C2  UNL     1     -33.848  17.777  -0.812  1.00 20.00     0.022 C 
HETATM    8  C3  UNL     1     -32.873  18.180  -0.024  1.00 20.00    -0.029 C 
HETATM    9  C8  UNL     1     -31.540  18.586  -0.560  1.00 20.00     0.036 C 
ENDBRANCH   1   7
TORSDOF 1
ENDMDL
