MODEL 1
REMARK VINA RESULT:      -4.5      0.000      0.000
REMARK  4 active torsions:
REMARK  status: ('A' for Active; 'I' for Inactive)
REMARK    1  A    between atoms: C6_6  and  C8_8 
REMARK    2  A    between atoms: C7_7  and  C9_9 
REMARK    3  A    between atoms: C10_10  and  C11_11 
REMARK    4  A    between atoms: C11_11  and  O12_12 
ROOT
HETATM    1  C4  UNL     1     -34.590  16.404  -5.436  1.00 20.00     0.012 C 
HETATM    2  C5  UNL     1     -33.423  14.519  -4.506  1.00 20.00     0.012 C 
HETATM    3  C8  UNL     1     -34.272  16.767  -3.988  1.00 20.00    -0.006 C 
HETATM    4  C9  UNL     1     -33.522  15.555  -3.391  1.00 20.00    -0.006 C 
HETATM    5  C10 UNL     1     -34.575  14.870  -5.458  1.00 20.00     0.010 C 
ENDROOT
BRANCH   5   6
HETATM    6  C11 UNL     1     -35.905  14.272  -5.000  1.00 20.00     0.168 C 
BRANCH   6   7
HETATM    7  O12 UNL     1     -35.668  12.967  -4.503  1.00 20.00    -0.400 OA
HETATM    8  H30 UNL     1     -36.229  12.856  -3.717  1.00 20.00     0.209 HD
ENDBRANCH   6   7
ENDBRANCH   5   6
BRANCH   3   9
HETATM    9  C6  UNL     1     -33.333  17.948  -3.669  1.00 20.00    -0.010 C 
HETATM   10  C1  UNL     1     -32.990  18.057  -2.173  1.00 20.00     0.005 C 
HETATM   11  C2  UNL     1     -34.319  18.492  -1.540  1.00 20.00     0.005 C 
HETATM   12  C7  UNL     1     -35.271  18.583  -2.744  1.00 20.00    -0.010 C 
HETATM   13  C3  UNL     1     -34.311  19.126  -3.815  1.00 20.00     0.010 C 
ENDBRANCH   3   9
TORSDOF 4
ENDMDL
MODEL 2
REMARK VINA RESULT:      -3.9      2.541      4.537
REMARK  4 active torsions:
REMARK  status: ('A' for Active; 'I' for Inactive)
REMARK    1  A    between atoms: C6_6  and  C8_8 
REMARK    2  A    between atoms: C7_7  and  C9_9 
REMARK    3  A    between atoms: C10_10  and  C11_11 
REMARK    4  A    between atoms: C11_11  and  O12_12 
ROOT
HETATM    1  C4  UNL     1     -34.918  18.051  -3.615  1.00 20.00     0.012 C 
HETATM    2  C5  UNL     1     -33.433  16.754  -2.240  1.00 20.00     0.012 C 
HETATM    3  C8  UNL     1     -34.316  16.981  -4.522  1.00 20.00    -0.006 C 
HETATM    4  C9  UNL     1     -33.362  16.148  -3.637  1.00 20.00    -0.006 C 
HETATM    5  C10 UNL     1     -33.906  18.196  -2.472  1.00 20.00     0.010 C 
ENDROOT
BRANCH   5   6
HETATM    6  C11 UNL     1     -32.753  19.131  -2.834  1.00 20.00     0.168 C 
BRANCH   6   7
HETATM    7  O12 UNL     1     -31.833  19.155  -1.758  1.00 20.00    -0.400 OA
HETATM    8  H30 UNL     1     -32.047  19.935  -1.218  1.00 20.00     0.209 HD
ENDBRANCH   6   7
ENDBRANCH   5   6
BRANCH   3   9
HETATM    9  C6  UNL     1     -35.218  15.908  -5.166  1.00 20.00    -0.010 C 
HETATM   10  C1  UNL     1     -34.445  14.941  -6.078  1.00 20.00     0.005 C 
HETATM   11  C2  UNL     1     -34.053  15.822  -7.271  1.00 20.00     0.005 C 
HETATM   12  C7  UNL     1     -34.646  17.194  -6.907  1.00 20.00    -0.010 C 
HETATM   13  C3  UNL     1     -35.950  16.757  -6.219  1.00 20.00     0.010 C 
ENDBRANCH   3   9
TORSDOF 4
ENDMDL
MODEL 3
REMARK VINA RESULT:      -3.4     24.403     25.770
REMARK  4 active torsions:
REMARK  status: ('A' for Active; 'I' for Inactive)
REMARK    1  A    between atoms: C6_6  and  C8_8 
REMARK    2  A    between atoms: C7_7  and  C9_9 
REMARK    3  A    between atoms: C10_10  and  C11_11 
REMARK    4  A    between atoms: C11_11  and  O12_12 
ROOT
HETATM    1  C4  UNL     1     -24.377  -1.668  11.788  1.00 20.00     0.012 C 
HETATM    2  C5  UNL     1     -24.364  -4.070  11.706  1.00 20.00     0.012 C 
HETATM    3  C8  UNL     1     -25.783  -2.092  11.372  1.00 20.00    -0.006 C 
HETATM    4  C9  UNL     1     -25.774  -3.636  11.319  1.00 20.00    -0.006 C 
HETATM    5  C10 UNL     1     -23.487  -2.852  11.389  1.00 20.00     0.010 C 
ENDROOT
BRANCH   5   6
HETATM    6  C11 UNL     1     -23.082  -2.799   9.916  1.00 20.00     0.168 C 
BRANCH   6   7
HETATM    7  O12 UNL     1     -22.005  -3.696   9.710  1.00 20.00    -0.400 OA
HETATM    8  H30 UNL     1     -21.820  -4.120  10.565  1.00 20.00     0.209 HD
ENDBRANCH   6   7
ENDBRANCH   5   6
BRANCH   3   9
HETATM    9  C6  UNL     1     -26.991  -1.782  12.279  1.00 20.00    -0.010 C 
HETATM   10  C1  UNL     1     -28.303  -2.398  11.764  1.00 20.00     0.005 C 
HETATM   11  C2  UNL     1     -28.603  -1.580  10.501  1.00 20.00     0.005 C 
HETATM   12  C7  UNL     1     -27.428  -0.589  10.436  1.00 20.00    -0.010 C 
HETATM   13  C3  UNL     1     -27.225  -0.302  11.933  1.00 20.00     0.010 C 
ENDBRANCH   3   9
TORSDOF 4
ENDMDL
MODEL 4
REMARK VINA RESULT:      -3.4      2.284      4.535
REMARK  4 active torsions:
REMARK  status: ('A' for Active; 'I' for Inactive)
REMARK    1  A    between atoms: C6_6  and  C8_8 
REMARK    2  A    between atoms: C7_7  and  C9_9 
REMARK    3  A    between atoms: C10_10  and  C11_11 
REMARK    4  A    between atoms: C11_11  and  O12_12 
ROOT
HETATM    1  C4  UNL     1     -33.041  16.407  -3.371  1.00 20.00     0.012 C 
HETATM    2  C5  UNL     1     -33.496  18.764  -3.239  1.00 20.00     0.012 C 
HETATM    3  C8  UNL     1     -34.338  16.638  -4.141  1.00 20.00    -0.006 C 
HETATM    4  C9  UNL     1     -34.630  18.153  -4.055  1.00 20.00    -0.006 C 
HETATM    5  C10 UNL     1     -32.953  17.596  -2.405  1.00 20.00     0.010 C 
ENDROOT
BRANCH   5   6
HETATM    6  C11 UNL     1     -33.765  17.367  -1.131  1.00 20.00     0.168 C 
BRANCH   6   7
HETATM    7  O12 UNL     1     -33.166  18.094  -0.074  1.00 20.00    -0.400 OA
HETATM    8  H30 UNL     1     -33.399  17.638   0.753  1.00 20.00     0.209 HD
ENDBRANCH   6   7
ENDBRANCH   5   6
BRANCH   3   9
HETATM    9  C6  UNL     1     -34.406  16.357  -5.656  1.00 20.00    -0.010 C 
HETATM   10  C1  UNL     1     -35.846  16.199  -6.174  1.00 20.00     0.005 C 
HETATM   11  C2  UNL     1     -36.298  14.869  -5.556  1.00 20.00     0.005 C 
HETATM   12  C7  UNL     1     -35.066  14.416  -4.754  1.00 20.00    -0.010 C 
HETATM   13  C3  UNL     1     -33.939  14.892  -5.686  1.00 20.00     0.010 C 
ENDBRANCH   3   9
TORSDOF 4
ENDMDL
MODEL 5
REMARK VINA RESULT:      -3.4      2.767      4.449
REMARK  4 active torsions:
REMARK  status: ('A' for Active; 'I' for Inactive)
REMARK    1  A    between atoms: C6_6  and  C8_8 
REMARK    2  A    between atoms: C7_7  and  C9_9 
REMARK    3  A    between atoms: C10_10  and  C11_11 
REMARK    4  A    between atoms: C11_11  and  O12_12 
ROOT
HETATM    1  C4  UNL     1     -33.684  17.046  -1.950  1.00 20.00     0.012 C 
HETATM    2  C5  UNL     1     -32.220  18.918  -1.587  1.00 20.00     0.012 C 
HETATM    3  C8  UNL     1     -34.001  18.059  -3.047  1.00 20.00    -0.006 C 
HETATM    4  C9  UNL     1     -33.060  19.262  -2.813  1.00 20.00    -0.006 C 
HETATM    5  C10 UNL     1     -33.059  17.883  -0.826  1.00 20.00     0.010 C 
ENDROOT
BRANCH   5   6
HETATM    6  C11 UNL     1     -34.116  18.537   0.064  1.00 20.00     0.168 C 
BRANCH   6   7
HETATM    7  O12 UNL     1     -34.310  17.725   1.209  1.00 20.00    -0.400 OA
HETATM    8  H30 UNL     1     -33.473  17.728   1.704  1.00 20.00     0.209 HD
ENDBRANCH   6   7
ENDBRANCH   5   6
BRANCH   3   9
HETATM    9  C6  UNL     1     -33.754  17.707  -4.528  1.00 20.00    -0.010 C 
HETATM   10  C1  UNL     1     -34.018  18.887  -5.479  1.00 20.00     0.005 C 
HETATM   11  C2  UNL     1     -35.542  19.055  -5.414  1.00 20.00     0.005 C 
HETATM   12  C7  UNL     1     -35.977  17.952  -4.435  1.00 20.00    -0.010 C 
HETATM   13  C3  UNL     1     -34.989  16.837  -4.816  1.00 20.00     0.010 C 
ENDBRANCH   3   9
TORSDOF 4
ENDMDL
MODEL 6
REMARK VINA RESULT:      -3.3     13.061     14.643
REMARK  4 active torsions:
REMARK  status: ('A' for Active; 'I' for Inactive)
REMARK    1  A    between atoms: C6_6  and  C8_8 
REMARK    2  A    between atoms: C7_7  and  C9_9 
REMARK    3  A    between atoms: C10_10  and  C11_11 
REMARK    4  A    between atoms: C11_11  and  O12_12 
ROOT
HETATM    1  C4  UNL     1     -40.075  14.207   8.720  1.00 20.00     0.012 C 
HETATM    2  C5  UNL     1     -40.896  16.415   9.196  1.00 20.00     0.012 C 
HETATM    3  C8  UNL     1     -41.334  14.389   7.877  1.00 20.00    -0.006 C 
HETATM    4  C9  UNL     1     -41.862  15.808   8.184  1.00 20.00    -0.006 C 
HETATM    5  C10 UNL     1     -40.240  15.204   9.873  1.00 20.00     0.010 C 
ENDROOT
BRANCH   5   6
HETATM    6  C11 UNL     1     -41.097  14.641  11.007  1.00 20.00     0.168 C 
BRANCH   6   7
HETATM    7  O12 UNL     1     -40.795  13.267  11.164  1.00 20.00    -0.400 OA
HETATM    8  H30 UNL     1     -41.217  12.975  11.991  1.00 20.00     0.209 HD
ENDBRANCH   6   7
ENDBRANCH   5   6
BRANCH   3   9
HETATM    9  C6  UNL     1     -41.249  14.375   6.337  1.00 20.00    -0.010 C 
HETATM   10  C1  UNL     1     -42.601  14.653   5.658  1.00 20.00     0.005 C 
HETATM   11  C2  UNL     1     -43.417  13.392   5.969  1.00 20.00     0.005 C 
HETATM   12  C7  UNL     1     -42.441  12.534   6.791  1.00 20.00    -0.010 C 
HETATM   13  C3  UNL     1     -41.118  12.864   6.080  1.00 20.00     0.010 C 
ENDBRANCH   3   9
TORSDOF 4
ENDMDL
MODEL 7
REMARK VINA RESULT:      -3.2      1.288      1.507
REMARK  4 active torsions:
REMARK  status: ('A' for Active; 'I' for Inactive)
REMARK    1  A    between atoms: C6_6  and  C8_8 
REMARK    2  A    between atoms: C7_7  and  C9_9 
REMARK    3  A    between atoms: C10_10  and  C11_11 
REMARK    4  A    between atoms: C11_11  and  O12_12 
ROOT
HETATM    1  C4  UNL     1     -35.394  17.842  -5.225  1.00 20.00     0.012 C 
HETATM    2  C5  UNL     1     -34.650  15.618  -5.755  1.00 20.00     0.012 C 
HETATM    3  C8  UNL     1     -34.721  17.302  -3.966  1.00 20.00    -0.006 C 
HETATM    4  C9  UNL     1     -34.244  15.872  -4.307  1.00 20.00    -0.006 C 
HETATM    5  C10 UNL     1     -35.814  16.588  -6.002  1.00 20.00     0.010 C 
ENDROOT
BRANCH   5   6
HETATM    6  C11 UNL     1     -37.148  16.025  -5.514  1.00 20.00     0.168 C 
BRANCH   6   7
HETATM    7  O12 UNL     1     -36.981  14.649  -5.220  1.00 20.00    -0.400 OA
HETATM    8  H30 UNL     1     -36.372  14.288  -5.887  1.00 20.00     0.209 HD
ENDBRANCH   6   7
ENDBRANCH   5   6
BRANCH   3   9
HETATM    9  C6  UNL     1     -33.446  17.972  -3.415  1.00 20.00    -0.010 C 
HETATM   10  C1  UNL     1     -32.920  17.301  -2.135  1.00 20.00     0.005 C 
HETATM   11  C2  UNL     1     -33.980  17.663  -1.087  1.00 20.00     0.005 C 
HETATM   12  C7  UNL     1     -34.993  18.501  -1.885  1.00 20.00    -0.010 C 
HETATM   13  C3  UNL     1     -34.044  19.261  -2.825  1.00 20.00     0.010 C 
ENDBRANCH   3   9
TORSDOF 4
ENDMDL
MODEL 8
REMARK VINA RESULT:      -3.2      1.655      2.829
REMARK  4 active torsions:
REMARK  status: ('A' for Active; 'I' for Inactive)
REMARK    1  A    between atoms: C6_6  and  C8_8 
REMARK    2  A    between atoms: C7_7  and  C9_9 
REMARK    3  A    between atoms: C10_10  and  C11_11 
REMARK    4  A    between atoms: C11_11  and  O12_12 
ROOT
HETATM    1  C4  UNL     1     -34.323  15.190  -5.944  1.00 20.00     0.012 C 
HETATM    2  C5  UNL     1     -33.111  15.661  -3.922  1.00 20.00     0.012 C 
HETATM    3  C8  UNL     1     -34.742  16.591  -5.508  1.00 20.00    -0.006 C 
HETATM    4  C9  UNL     1     -33.963  16.893  -4.208  1.00 20.00    -0.006 C 
HETATM    5  C10 UNL     1     -33.829  14.520  -4.655  1.00 20.00     0.010 C 
ENDROOT
BRANCH   5   6
HETATM    6  C11 UNL     1     -34.976  13.935  -3.831  1.00 20.00     0.168 C 
BRANCH   6   7
HETATM    7  O12 UNL     1     -35.627  12.941  -4.602  1.00 20.00    -0.400 OA
HETATM    8  H30 UNL     1     -36.188  12.431  -3.993  1.00 20.00     0.209 HD
ENDBRANCH   6   7
ENDBRANCH   5   6
BRANCH   3   9
HETATM    9  C6  UNL     1     -34.424  17.811  -6.396  1.00 20.00    -0.010 C 
HETATM   10  C1  UNL     1     -34.882  19.142  -5.775  1.00 20.00     0.005 C 
HETATM   11  C2  UNL     1     -36.412  19.054  -5.846  1.00 20.00     0.005 C 
HETATM   12  C7  UNL     1     -36.657  17.683  -6.499  1.00 20.00    -0.010 C 
HETATM   13  C3  UNL     1     -35.486  17.639  -7.495  1.00 20.00     0.010 C 
ENDBRANCH   3   9
TORSDOF 4
ENDMDL
MODEL 9
REMARK VINA RESULT:      -3.2     12.760     14.044
REMARK  4 active torsions:
REMARK  status: ('A' for Active; 'I' for Inactive)
REMARK    1  A    between atoms: C6_6  and  C8_8 
REMARK    2  A    between atoms: C7_7  and  C9_9 
REMARK    3  A    between atoms: C10_10  and  C11_11 
REMARK    4  A    between atoms: C11_11  and  O12_12 
ROOT
HETATM    1  C4  UNL     1     -40.496  13.961   6.924  1.00 20.00     0.012 C 
HETATM    2  C5  UNL     1     -42.380  12.478   6.756  1.00 20.00     0.012 C 
HETATM    3  C8  UNL     1     -41.450  14.347   8.052  1.00 20.00    -0.006 C 
HETATM    4  C9  UNL     1     -42.660  13.393   7.943  1.00 20.00    -0.006 C 
HETATM    5  C10 UNL     1     -41.390  13.267   5.889  1.00 20.00     0.010 C 
ENDROOT
BRANCH   5   6
HETATM    6  C11 UNL     1     -42.094  14.265   4.970  1.00 20.00     0.168 C 
BRANCH   6   7
HETATM    7  O12 UNL     1     -41.651  14.050   3.642  1.00 20.00    -0.400 OA
HETATM    8  H30 UNL     1     -42.439  14.079   3.072  1.00 20.00     0.209 HD
ENDBRANCH   6   7
ENDBRANCH   5   6
BRANCH   3   9
HETATM    9  C6  UNL     1     -41.018  14.192   9.524  1.00 20.00    -0.010 C 
HETATM   10  C1  UNL     1     -42.116  14.604  10.520  1.00 20.00     0.005 C 
HETATM   11  C2  UNL     1     -42.199  16.126  10.342  1.00 20.00     0.005 C 
HETATM   12  C7  UNL     1     -41.138  16.413   9.266  1.00 20.00    -0.010 C 
HETATM   13  C3  UNL     1     -40.061  15.389   9.659  1.00 20.00     0.010 C 
ENDBRANCH   3   9
TORSDOF 4
ENDMDL
