MODEL 1
REMARK VINA RESULT:      -4.0      0.000      0.000
REMARK  0 active torsions:
REMARK  status: ('A' for Active; 'I' for Inactive)
ROOT
HETATM    1  C1  UNL     1     -33.025   7.529   4.168  1.00 20.00     0.064 C 
HETATM    2  C2  UNL     1     -35.088   6.159   4.280  1.00 20.00     0.045 C 
HETATM    3  C3  UNL     1     -34.097   7.146   6.370  1.00 20.00     0.045 C 
HETATM    4  C4  UNL     1     -34.510   4.819   4.727  1.00 20.00     0.169 C 
HETATM    5  C5  UNL     1     -33.577   5.748   6.694  1.00 20.00     0.169 C 
HETATM    6  C6  UNL     1     -34.312   7.344   4.865  1.00 20.00     0.097 C 
HETATM    7  N7  UNL     1     -32.013   7.674   3.620  1.00 20.00    -0.197 NA
HETATM    8  O8  UNL     1     -34.437   4.749   6.149  1.00 20.00    -0.391 OA
ENDROOT
TORSDOF 0
ENDMDL
MODEL 2
REMARK VINA RESULT:      -3.8      1.582      2.017
REMARK  0 active torsions:
REMARK  status: ('A' for Active; 'I' for Inactive)
ROOT
HETATM    1  C1  UNL     1     -33.592   5.541   3.297  1.00 20.00     0.064 C 
HETATM    2  C2  UNL     1     -35.180   5.418   5.197  1.00 20.00     0.045 C 
HETATM    3  C3  UNL     1     -34.164   7.617   4.524  1.00 20.00     0.045 C 
HETATM    4  C4  UNL     1     -34.208   5.412   6.374  1.00 20.00     0.169 C 
HETATM    5  C5  UNL     1     -33.251   7.483   5.740  1.00 20.00     0.169 C 
HETATM    6  C6  UNL     1     -34.658   6.255   4.024  1.00 20.00     0.097 C 
HETATM    7  N7  UNL     1     -32.754   4.979   2.726  1.00 20.00    -0.197 NA
HETATM    8  O8  UNL     1     -33.894   6.744   6.777  1.00 20.00    -0.391 OA
ENDROOT
TORSDOF 0
ENDMDL
MODEL 3
REMARK VINA RESULT:      -3.5     13.247     14.033
REMARK  0 active torsions:
REMARK  status: ('A' for Active; 'I' for Inactive)
ROOT
HETATM    1  C1  UNL     1     -32.064  18.339  -0.943  1.00 20.00     0.064 C 
HETATM    2  C2  UNL     1     -34.480  18.687  -1.379  1.00 20.00     0.045 C 
HETATM    3  C3  UNL     1     -33.297  16.664  -2.291  1.00 20.00     0.045 C 
HETATM    4  C4  UNL     1     -34.428  19.263  -2.792  1.00 20.00     0.169 C 
HETATM    5  C5  UNL     1     -33.315  17.359  -3.651  1.00 20.00     0.169 C 
HETATM    6  C6  UNL     1     -33.364  17.666  -1.134  1.00 20.00     0.097 C 
HETATM    7  N7  UNL     1     -31.043  18.868  -0.793  1.00 20.00    -0.197 NA
HETATM    8  O8  UNL     1     -34.446  18.220  -3.764  1.00 20.00    -0.391 OA
ENDROOT
TORSDOF 0
ENDMDL
MODEL 4
REMARK VINA RESULT:      -3.4      9.310     10.154
REMARK  0 active torsions:
REMARK  status: ('A' for Active; 'I' for Inactive)
ROOT
HETATM    1  C1  UNL     1     -43.304   6.100   1.296  1.00 20.00     0.064 C 
HETATM    2  C2  UNL     1     -42.608   7.925  -0.230  1.00 20.00     0.045 C 
HETATM    3  C3  UNL     1     -42.260   5.520  -0.875  1.00 20.00     0.045 C 
HETATM    4  C4  UNL     1     -41.112   7.985   0.069  1.00 20.00     0.169 C 
HETATM    5  C5  UNL     1     -40.785   5.720  -0.538  1.00 20.00     0.169 C 
HETATM    6  C6  UNL     1     -43.161   6.500  -0.116  1.00 20.00     0.097 C 
HETATM    7  N7  UNL     1     -43.417   5.786   2.407  1.00 20.00    -0.197 NA
HETATM    8  O8  UNL     1     -40.394   7.074  -0.760  1.00 20.00    -0.391 OA
ENDROOT
TORSDOF 0
ENDMDL
MODEL 5
REMARK VINA RESULT:      -3.3      2.474      3.380
REMARK  0 active torsions:
REMARK  status: ('A' for Active; 'I' for Inactive)
ROOT
HETATM    1  C1  UNL     1     -34.332   5.801   5.844  1.00 20.00     0.064 C 
HETATM    2  C2  UNL     1     -33.945   7.998   4.764  1.00 20.00     0.045 C 
HETATM    3  C3  UNL     1     -34.209   5.921   3.372  1.00 20.00     0.045 C 
HETATM    4  C4  UNL     1     -32.448   7.910   4.480  1.00 20.00     0.169 C 
HETATM    5  C5  UNL     1     -32.696   5.954   3.170  1.00 20.00     0.169 C 
HETATM    6  C6  UNL     1     -34.631   6.631   4.662  1.00 20.00     0.097 C 
HETATM    7  N7  UNL     1     -34.097   5.148   6.774  1.00 20.00    -0.197 NA
HETATM    8  O8  UNL     1     -32.209   7.294   3.216  1.00 20.00    -0.391 OA
ENDROOT
TORSDOF 0
ENDMDL
MODEL 6
REMARK VINA RESULT:      -3.3     13.121     14.127
REMARK  0 active torsions:
REMARK  status: ('A' for Active; 'I' for Inactive)
ROOT
HETATM    1  C1  UNL     1     -34.205  15.132  -6.704  1.00 20.00     0.064 C 
HETATM    2  C2  UNL     1     -34.123  14.612  -4.282  1.00 20.00     0.045 C 
HETATM    3  C3  UNL     1     -35.531  16.514  -5.132  1.00 20.00     0.045 C 
HETATM    4  C4  UNL     1     -33.124  15.662  -3.804  1.00 20.00     0.169 C 
HETATM    5  C5  UNL     1     -34.448  17.452  -4.605  1.00 20.00     0.169 C 
HETATM    6  C6  UNL     1     -34.978  15.120  -5.448  1.00 20.00     0.097 C 
HETATM    7  N7  UNL     1     -33.596  15.140  -7.692  1.00 20.00    -0.197 NA
HETATM    8  O8  UNL     1     -33.788  16.881  -3.478  1.00 20.00    -0.391 OA
ENDROOT
TORSDOF 0
ENDMDL
MODEL 7
REMARK VINA RESULT:      -3.3      9.656     10.313
REMARK  0 active torsions:
REMARK  status: ('A' for Active; 'I' for Inactive)
ROOT
HETATM    1  C1  UNL     1     -42.455   5.057  -1.188  1.00 20.00     0.064 C 
HETATM    2  C2  UNL     1     -41.833   7.305  -0.347  1.00 20.00     0.045 C 
HETATM    3  C3  UNL     1     -41.855   5.324   1.202  1.00 20.00     0.045 C 
HETATM    4  C4  UNL     1     -43.146   7.734   0.301  1.00 20.00     0.169 C 
HETATM    5  C5  UNL     1     -43.167   5.869   1.759  1.00 20.00     0.169 C 
HETATM    6  C6  UNL     1     -41.603   5.794  -0.235  1.00 20.00     0.097 C 
HETATM    7  N7  UNL     1     -43.125   4.479  -1.938  1.00 20.00    -0.197 NA
HETATM    8  O8  UNL     1     -43.210   7.291   1.655  1.00 20.00    -0.391 OA
ENDROOT
TORSDOF 0
ENDMDL
MODEL 8
REMARK VINA RESULT:      -3.2     12.929     13.633
REMARK  0 active torsions:
REMARK  status: ('A' for Active; 'I' for Inactive)
ROOT
HETATM    1  C1  UNL     1     -35.211  14.032  -4.851  1.00 20.00     0.064 C 
HETATM    2  C2  UNL     1     -34.592  16.215  -5.849  1.00 20.00     0.045 C 
HETATM    3  C3  UNL     1     -33.044  15.065  -4.234  1.00 20.00     0.045 C 
HETATM    4  C4  UNL     1     -34.962  17.159  -4.708  1.00 20.00     0.169 C 
HETATM    5  C5  UNL     1     -33.506  16.076  -3.188  1.00 20.00     0.169 C 
HETATM    6  C6  UNL     1     -34.091  14.861  -5.335  1.00 20.00     0.097 C 
HETATM    7  N7  UNL     1     -36.092  13.380  -4.471  1.00 20.00    -0.197 NA
HETATM    8  O8  UNL     1     -33.870  17.310  -3.802  1.00 20.00    -0.391 OA
ENDROOT
TORSDOF 0
ENDMDL
MODEL 9
REMARK VINA RESULT:      -3.2     12.942     13.997
REMARK  0 active torsions:
REMARK  status: ('A' for Active; 'I' for Inactive)
ROOT
HETATM    1  C1  UNL     1     -34.033  16.438  -4.367  1.00 20.00     0.064 C 
HETATM    2  C2  UNL     1     -34.771  14.075  -4.506  1.00 20.00     0.045 C 
HETATM    3  C3  UNL     1     -33.826  15.238  -6.525  1.00 20.00     0.045 C 
HETATM    4  C4  UNL     1     -36.148  14.250  -5.141  1.00 20.00     0.169 C 
HETATM    5  C5  UNL     1     -35.259  15.345  -7.042  1.00 20.00     0.169 C 
HETATM    6  C6  UNL     1     -33.774  15.130  -4.998  1.00 20.00     0.097 C 
HETATM    7  N7  UNL     1     -34.237  17.466  -3.870  1.00 20.00    -0.197 NA
HETATM    8  O8  UNL     1     -36.051  14.260  -6.564  1.00 20.00    -0.391 OA
ENDROOT
TORSDOF 0
ENDMDL
