MODEL 1
REMARK VINA RESULT:      -4.9      0.000      0.000
REMARK  5 active torsions:
REMARK  status: ('A' for Active; 'I' for Inactive)
REMARK    1  A    between atoms: C3_3  and  C6_6 
REMARK    2  A    between atoms: C5_5  and  C7_7 
REMARK    3  A    between atoms: C6_6  and  C8_8 
REMARK    4  A    between atoms: C7_7  and  C9_9 
REMARK    5  A    between atoms: C8_8  and  C9_9 
ROOT
HETATM    1  C1  UNL     1     -34.467   4.868   5.112  1.00 20.00     0.059 C 
HETATM    2  C5  UNL     1     -34.859   5.773   6.201  1.00 20.00     0.124 C 
HETATM    3  N10 UNL     1     -34.159   4.152   4.253  1.00 20.00    -0.197 NA
ENDROOT
BRANCH   2   4
HETATM    4  C7  UNL     1     -33.824   6.873   6.441  1.00 20.00     0.014 C 
BRANCH   4   5
HETATM    5  C9  UNL     1     -33.899   7.998   5.402  1.00 20.00     0.001 C 
BRANCH   5   6
HETATM    6  C8  UNL     1     -32.509   8.332   4.850  1.00 20.00     0.004 C 
BRANCH   6   7
HETATM    7  C6  UNL     1     -32.547   8.913   3.431  1.00 20.00     0.033 C 
BRANCH   7   8
HETATM    8  C3  UNL     1     -32.318   7.905   2.330  1.00 20.00    -0.093 C 
HETATM    9  C2  UNL     1     -32.247   6.590   2.589  1.00 20.00     0.014 C 
HETATM   10  C4  UNL     1     -32.209   8.433   0.929  1.00 20.00     0.042 C 
ENDBRANCH   7   8
ENDBRANCH   6   7
ENDBRANCH   5   6
ENDBRANCH   4   5
ENDBRANCH   2   4
TORSDOF 5
ENDMDL
MODEL 2
REMARK VINA RESULT:      -4.9      2.036      4.158
REMARK  5 active torsions:
REMARK  status: ('A' for Active; 'I' for Inactive)
REMARK    1  A    between atoms: C3_3  and  C6_6 
REMARK    2  A    between atoms: C5_5  and  C7_7 
REMARK    3  A    between atoms: C6_6  and  C8_8 
REMARK    4  A    between atoms: C7_7  and  C9_9 
REMARK    5  A    between atoms: C8_8  and  C9_9 
ROOT
HETATM    1  C1  UNL     1     -32.227   8.026   1.927  1.00 20.00     0.059 C 
HETATM    2  C5  UNL     1     -32.189   7.373   3.243  1.00 20.00     0.124 C 
HETATM    3  N10 UNL     1     -32.256   8.539   0.887  1.00 20.00    -0.197 NA
ENDROOT
BRANCH   2   4
HETATM    4  C7  UNL     1     -32.340   8.374   4.390  1.00 20.00     0.014 C 
BRANCH   4   5
HETATM    5  C9  UNL     1     -33.643   8.188   5.175  1.00 20.00     0.001 C 
BRANCH   5   6
HETATM    6  C8  UNL     1     -33.454   7.199   6.331  1.00 20.00     0.004 C 
BRANCH   6   7
HETATM    7  C6  UNL     1     -34.509   6.085   6.350  1.00 20.00     0.033 C 
BRANCH   7   8
HETATM    8  C3  UNL     1     -34.747   5.419   5.015  1.00 20.00    -0.093 C 
HETATM    9  C2  UNL     1     -33.993   4.387   4.603  1.00 20.00     0.014 C 
HETATM   10  C4  UNL     1     -35.885   5.937   4.184  1.00 20.00     0.042 C 
ENDBRANCH   7   8
ENDBRANCH   6   7
ENDBRANCH   5   6
ENDBRANCH   4   5
ENDBRANCH   2   4
TORSDOF 5
ENDMDL
MODEL 3
REMARK VINA RESULT:      -4.9      1.589      3.855
REMARK  5 active torsions:
REMARK  status: ('A' for Active; 'I' for Inactive)
REMARK    1  A    between atoms: C3_3  and  C6_6 
REMARK    2  A    between atoms: C5_5  and  C7_7 
REMARK    3  A    between atoms: C6_6  and  C8_8 
REMARK    4  A    between atoms: C7_7  and  C9_9 
REMARK    5  A    between atoms: C8_8  and  C9_9 
ROOT
HETATM    1  C1  UNL     1     -32.284   7.618   3.278  1.00 20.00     0.059 C 
HETATM    2  C5  UNL     1     -32.307   8.682   4.292  1.00 20.00     0.124 C 
HETATM    3  N10 UNL     1     -32.265   6.779   2.477  1.00 20.00    -0.197 NA
ENDROOT
BRANCH   2   4
HETATM    4  C7  UNL     1     -33.463   8.517   5.280  1.00 20.00     0.014 C 
BRANCH   4   5
HETATM    5  C9  UNL     1     -33.187   7.450   6.346  1.00 20.00     0.001 C 
BRANCH   5   6
HETATM    6  C8  UNL     1     -34.480   6.746   6.770  1.00 20.00     0.004 C 
BRANCH   6   7
HETATM    7  C6  UNL     1     -34.554   5.287   6.302  1.00 20.00     0.033 C 
BRANCH   7   8
HETATM    8  C3  UNL     1     -34.690   5.110   4.808  1.00 20.00    -0.093 C 
HETATM    9  C2  UNL     1     -33.920   4.244   4.132  1.00 20.00     0.014 C 
HETATM   10  C4  UNL     1     -35.750   5.918   4.116  1.00 20.00     0.042 C 
ENDBRANCH   7   8
ENDBRANCH   6   7
ENDBRANCH   5   6
ENDBRANCH   4   5
ENDBRANCH   2   4
TORSDOF 5
ENDMDL
MODEL 4
REMARK VINA RESULT:      -4.8      1.073      3.780
REMARK  5 active torsions:
REMARK  status: ('A' for Active; 'I' for Inactive)
REMARK    1  A    between atoms: C3_3  and  C6_6 
REMARK    2  A    between atoms: C5_5  and  C7_7 
REMARK    3  A    between atoms: C6_6  and  C8_8 
REMARK    4  A    between atoms: C7_7  and  C9_9 
REMARK    5  A    between atoms: C8_8  and  C9_9 
ROOT
HETATM    1  C1  UNL     1     -32.524   6.076   2.630  1.00 20.00     0.059 C 
HETATM    2  C5  UNL     1     -31.899   7.407   2.623  1.00 20.00     0.124 C 
HETATM    3  N10 UNL     1     -33.015   5.026   2.633  1.00 20.00    -0.197 NA
ENDROOT
BRANCH   2   4
HETATM    4  C7  UNL     1     -32.748   8.449   3.353  1.00 20.00     0.014 C 
BRANCH   4   5
HETATM    5  C9  UNL     1     -32.556   8.414   4.873  1.00 20.00     0.001 C 
BRANCH   5   6
HETATM    6  C8  UNL     1     -33.905   8.397   5.600  1.00 20.00     0.004 C 
BRANCH   6   7
HETATM    7  C6  UNL     1     -34.110   7.144   6.462  1.00 20.00     0.033 C 
BRANCH   7   8
HETATM    8  C3  UNL     1     -34.623   5.939   5.710  1.00 20.00    -0.093 C 
HETATM    9  C2  UNL     1     -34.288   4.691   6.075  1.00 20.00     0.014 C 
HETATM   10  C4  UNL     1     -35.552   6.193   4.559  1.00 20.00     0.042 C 
ENDBRANCH   7   8
ENDBRANCH   6   7
ENDBRANCH   5   6
ENDBRANCH   4   5
ENDBRANCH   2   4
TORSDOF 5
ENDMDL
MODEL 5
REMARK VINA RESULT:      -4.6      1.315      2.453
REMARK  5 active torsions:
REMARK  status: ('A' for Active; 'I' for Inactive)
REMARK    1  A    between atoms: C3_3  and  C6_6 
REMARK    2  A    between atoms: C5_5  and  C7_7 
REMARK    3  A    between atoms: C6_6  and  C8_8 
REMARK    4  A    between atoms: C7_7  and  C9_9 
REMARK    5  A    between atoms: C8_8  and  C9_9 
ROOT
HETATM    1  C1  UNL     1     -33.400   4.811   3.274  1.00 20.00     0.059 C 
HETATM    2  C5  UNL     1     -34.111   4.335   4.469  1.00 20.00     0.124 C 
HETATM    3  N10 UNL     1     -32.837   5.184   2.331  1.00 20.00    -0.197 NA
ENDROOT
BRANCH   2   4
HETATM    4  C7  UNL     1     -34.983   5.424   5.095  1.00 20.00     0.014 C 
BRANCH   4   5
HETATM    5  C9  UNL     1     -34.436   5.927   6.436  1.00 20.00     0.001 C 
BRANCH   5   6
HETATM    6  C8  UNL     1     -33.898   7.356   6.310  1.00 20.00     0.004 C 
BRANCH   6   7
HETATM    7  C6  UNL     1     -34.043   7.934   4.896  1.00 20.00     0.033 C 
BRANCH   7   8
HETATM    8  C3  UNL     1     -32.796   8.594   4.355  1.00 20.00    -0.093 C 
HETATM    9  C2  UNL     1     -31.913   9.195   5.167  1.00 20.00     0.014 C 
HETATM   10  C4  UNL     1     -32.570   8.519   2.873  1.00 20.00     0.042 C 
ENDBRANCH   7   8
ENDBRANCH   6   7
ENDBRANCH   5   6
ENDBRANCH   4   5
ENDBRANCH   2   4
TORSDOF 5
ENDMDL
MODEL 6
REMARK VINA RESULT:      -4.3      1.888      4.550
REMARK  5 active torsions:
REMARK  status: ('A' for Active; 'I' for Inactive)
REMARK    1  A    between atoms: C3_3  and  C6_6 
REMARK    2  A    between atoms: C5_5  and  C7_7 
REMARK    3  A    between atoms: C6_6  and  C8_8 
REMARK    4  A    between atoms: C7_7  and  C9_9 
REMARK    5  A    between atoms: C8_8  and  C9_9 
ROOT
HETATM    1  C1  UNL     1     -32.924   8.441   4.936  1.00 20.00     0.059 C 
HETATM    2  C5  UNL     1     -31.925   8.072   3.923  1.00 20.00     0.124 C 
HETATM    3  N10 UNL     1     -33.711   8.733   5.737  1.00 20.00    -0.197 NA
ENDROOT
BRANCH   2   4
HETATM    4  C7  UNL     1     -32.550   7.347   2.730  1.00 20.00     0.014 C 
BRANCH   4   5
HETATM    5  C9  UNL     1     -32.211   5.853   2.698  1.00 20.00     0.001 C 
BRANCH   5   6
HETATM    6  C8  UNL     1     -33.481   4.998   2.760  1.00 20.00     0.004 C 
BRANCH   6   7
HETATM    7  C6  UNL     1     -33.785   4.471   4.168  1.00 20.00     0.033 C 
BRANCH   7   8
HETATM    8  C3  UNL     1     -34.735   5.328   4.971  1.00 20.00    -0.093 C 
HETATM    9  C2  UNL     1     -35.715   6.030   4.380  1.00 20.00     0.014 C 
HETATM   10  C4  UNL     1     -34.559   5.334   6.462  1.00 20.00     0.042 C 
ENDBRANCH   7   8
ENDBRANCH   6   7
ENDBRANCH   5   6
ENDBRANCH   4   5
ENDBRANCH   2   4
TORSDOF 5
ENDMDL
MODEL 7
REMARK VINA RESULT:      -4.3      2.267      4.770
REMARK  5 active torsions:
REMARK  status: ('A' for Active; 'I' for Inactive)
REMARK    1  A    between atoms: C3_3  and  C6_6 
REMARK    2  A    between atoms: C5_5  and  C7_7 
REMARK    3  A    between atoms: C6_6  and  C8_8 
REMARK    4  A    between atoms: C7_7  and  C9_9 
REMARK    5  A    between atoms: C8_8  and  C9_9 
ROOT
HETATM    1  C1  UNL     1     -32.548   8.843   1.409  1.00 20.00     0.059 C 
HETATM    2  C5  UNL     1     -32.561   8.717   2.873  1.00 20.00     0.124 C 
HETATM    3  N10 UNL     1     -32.540   8.945   0.253  1.00 20.00    -0.197 NA
ENDROOT
BRANCH   2   4
HETATM    4  C7  UNL     1     -32.100   7.334   3.339  1.00 20.00     0.014 C 
BRANCH   4   5
HETATM    5  C9  UNL     1     -32.775   6.192   2.571  1.00 20.00     0.001 C 
BRANCH   5   6
HETATM    6  C8  UNL     1     -33.554   5.275   3.519  1.00 20.00     0.004 C 
BRANCH   6   7
HETATM    7  C6  UNL     1     -34.678   5.999   4.272  1.00 20.00     0.033 C 
BRANCH   7   8
HETATM    8  C3  UNL     1     -34.462   6.119   5.763  1.00 20.00    -0.093 C 
HETATM    9  C2  UNL     1     -34.565   5.053   6.573  1.00 20.00     0.014 C 
HETATM   10  C4  UNL     1     -34.093   7.473   6.295  1.00 20.00     0.042 C 
ENDBRANCH   7   8
ENDBRANCH   6   7
ENDBRANCH   5   6
ENDBRANCH   4   5
ENDBRANCH   2   4
TORSDOF 5
ENDMDL
MODEL 8
REMARK VINA RESULT:      -4.2     11.837     12.730
REMARK  5 active torsions:
REMARK  status: ('A' for Active; 'I' for Inactive)
REMARK    1  A    between atoms: C3_3  and  C6_6 
REMARK    2  A    between atoms: C5_5  and  C7_7 
REMARK    3  A    between atoms: C6_6  and  C8_8 
REMARK    4  A    between atoms: C7_7  and  C9_9 
REMARK    5  A    between atoms: C8_8  and  C9_9 
ROOT
HETATM    1  C1  UNL     1     -31.774  18.544  -0.796  1.00 20.00     0.059 C 
HETATM    2  C5  UNL     1     -33.123  18.426  -1.368  1.00 20.00     0.124 C 
HETATM    3  N10 UNL     1     -30.710  18.639  -0.344  1.00 20.00    -0.197 NA
ENDROOT
BRANCH   2   4
HETATM    4  C7  UNL     1     -33.454  16.991  -1.781  1.00 20.00     0.014 C 
BRANCH   4   5
HETATM    5  C9  UNL     1     -33.626  16.832  -3.296  1.00 20.00     0.001 C 
BRANCH   5   6
HETATM    6  C8  UNL     1     -33.005  15.520  -3.787  1.00 20.00     0.004 C 
BRANCH   6   7
HETATM    7  C6  UNL     1     -34.043  14.521  -4.312  1.00 20.00     0.033 C 
BRANCH   7   8
HETATM    8  C3  UNL     1     -34.762  14.959  -5.567  1.00 20.00    -0.093 C 
HETATM    9  C2  UNL     1     -34.091  15.258  -6.690  1.00 20.00     0.014 C 
HETATM   10  C4  UNL     1     -36.261  15.013  -5.515  1.00 20.00     0.042 C 
ENDBRANCH   7   8
ENDBRANCH   6   7
ENDBRANCH   5   6
ENDBRANCH   4   5
ENDBRANCH   2   4
TORSDOF 5
ENDMDL
MODEL 9
REMARK VINA RESULT:      -4.1     11.897     12.554
REMARK  5 active torsions:
REMARK  status: ('A' for Active; 'I' for Inactive)
REMARK    1  A    between atoms: C3_3  and  C6_6 
REMARK    2  A    between atoms: C5_5  and  C7_7 
REMARK    3  A    between atoms: C6_6  and  C8_8 
REMARK    4  A    between atoms: C7_7  and  C9_9 
REMARK    5  A    between atoms: C8_8  and  C9_9 
ROOT
HETATM    1  C1  UNL     1     -31.890  18.472  -0.347  1.00 20.00     0.059 C 
HETATM    2  C5  UNL     1     -33.339  18.252  -0.246  1.00 20.00     0.124 C 
HETATM    3  N10 UNL     1     -30.746  18.647  -0.424  1.00 20.00    -0.197 NA
ENDROOT
BRANCH   2   4
HETATM    4  C7  UNL     1     -33.963  17.876  -1.591  1.00 20.00     0.014 C 
BRANCH   4   5
HETATM    5  C9  UNL     1     -33.406  16.566  -2.160  1.00 20.00     0.001 C 
BRANCH   5   6
HETATM    6  C8  UNL     1     -33.656  16.470  -3.668  1.00 20.00     0.004 C 
BRANCH   6   7
HETATM    7  C6  UNL     1     -33.773  15.025  -4.170  1.00 20.00     0.033 C 
BRANCH   7   8
HETATM    8  C3  UNL     1     -34.642  14.851  -5.394  1.00 20.00    -0.093 C 
HETATM    9  C2  UNL     1     -35.891  14.369  -5.303  1.00 20.00     0.014 C 
HETATM   10  C4  UNL     1     -34.060  15.274  -6.712  1.00 20.00     0.042 C 
ENDBRANCH   7   8
ENDBRANCH   6   7
ENDBRANCH   5   6
ENDBRANCH   4   5
ENDBRANCH   2   4
TORSDOF 5
ENDMDL
