MODEL 1
REMARK VINA RESULT:      -3.6      0.000      0.000
REMARK  0 active torsions:
REMARK  status: ('A' for Active; 'I' for Inactive)
ROOT
HETATM    1  C1  UNL     1     -32.426   7.803   4.558  1.00 20.00     0.011 C 
HETATM    2  C2  UNL     1     -33.703   8.198   5.302  1.00 20.00     0.011 C 
HETATM    3  C3  UNL     1     -32.678   7.155   3.198  1.00 20.00     0.075 C 
HETATM    4  C4  UNL     1     -34.165   7.237   6.395  1.00 20.00     0.075 C 
HETATM    5  C5  UNL     1     -34.659   5.486   4.254  1.00 20.00     0.147 C 
HETATM    6  S6  UNL     1     -33.159   5.402   3.242  1.00 20.00    -0.159 SA
HETATM    7  S7  UNL     1     -34.265   5.460   6.020  1.00 20.00    -0.159 SA
ENDROOT
TORSDOF 0
ENDMDL
MODEL 2
REMARK VINA RESULT:      -3.3      1.125      1.428
REMARK  0 active torsions:
REMARK  status: ('A' for Active; 'I' for Inactive)
ROOT
HETATM    1  C1  UNL     1     -32.248   6.980   3.345  1.00 20.00     0.011 C 
HETATM    2  C2  UNL     1     -33.072   8.190   3.789  1.00 20.00     0.011 C 
HETATM    3  C3  UNL     1     -33.086   5.837   2.777  1.00 20.00     0.075 C 
HETATM    4  C4  UNL     1     -33.345   8.300   5.287  1.00 20.00     0.075 C 
HETATM    5  C5  UNL     1     -34.921   6.010   4.881  1.00 20.00     0.147 C 
HETATM    6  S6  UNL     1     -33.913   4.785   4.008  1.00 20.00    -0.159 SA
HETATM    7  S7  UNL     1     -33.972   6.842   6.177  1.00 20.00    -0.159 SA
ENDROOT
TORSDOF 0
ENDMDL
MODEL 3
REMARK VINA RESULT:      -3.1      1.535      3.453
REMARK  0 active torsions:
REMARK  status: ('A' for Active; 'I' for Inactive)
ROOT
HETATM    1  C1  UNL     1     -33.674   4.738   4.401  1.00 20.00     0.011 C 
HETATM    2  C2  UNL     1     -33.695   5.455   3.050  1.00 20.00     0.011 C 
HETATM    3  C3  UNL     1     -34.665   5.303   5.417  1.00 20.00     0.075 C 
HETATM    4  C4  UNL     1     -32.590   6.483   2.820  1.00 20.00     0.075 C 
HETATM    5  C5  UNL     1     -33.907   7.932   4.834  1.00 20.00     0.147 C 
HETATM    6  S6  UNL     1     -34.143   6.831   6.253  1.00 20.00    -0.159 SA
HETATM    7  S7  UNL     1     -32.263   7.726   4.107  1.00 20.00    -0.159 SA
ENDROOT
TORSDOF 0
ENDMDL
MODEL 4
REMARK VINA RESULT:      -3.1      1.383      2.802
REMARK  0 active torsions:
REMARK  status: ('A' for Active; 'I' for Inactive)
ROOT
HETATM    1  C1  UNL     1     -33.963   6.790   5.959  1.00 20.00     0.011 C 
HETATM    2  C2  UNL     1     -34.933   6.067   5.023  1.00 20.00     0.011 C 
HETATM    3  C3  UNL     1     -33.510   8.155   5.444  1.00 20.00     0.075 C 
HETATM    4  C4  UNL     1     -34.325   4.983   4.137  1.00 20.00     0.075 C 
HETATM    5  C5  UNL     1     -33.020   7.134   2.887  1.00 20.00     0.147 C 
HETATM    6  S6  UNL     1     -32.211   8.121   4.173  1.00 20.00    -0.159 SA
HETATM    7  S7  UNL     1     -32.817   5.362   3.193  1.00 20.00    -0.159 SA
ENDROOT
TORSDOF 0
ENDMDL
MODEL 5
REMARK VINA RESULT:      -3.1      1.655      2.657
REMARK  0 active torsions:
REMARK  status: ('A' for Active; 'I' for Inactive)
ROOT
HETATM    1  C1  UNL     1     -32.859   6.524   2.682  1.00 20.00     0.011 C 
HETATM    2  C2  UNL     1     -32.870   5.147   3.350  1.00 20.00     0.011 C 
HETATM    3  C3  UNL     1     -32.157   7.604   3.503  1.00 20.00     0.075 C 
HETATM    4  C4  UNL     1     -34.164   4.758   4.059  1.00 20.00     0.075 C 
HETATM    5  C5  UNL     1     -33.477   6.818   5.841  1.00 20.00     0.147 C 
HETATM    6  S6  UNL     1     -33.131   8.307   4.868  1.00 20.00    -0.159 SA
HETATM    7  S7  UNL     1     -34.929   5.942   5.209  1.00 20.00    -0.159 SA
ENDROOT
TORSDOF 0
ENDMDL
MODEL 6
REMARK VINA RESULT:      -3.1      1.462      2.569
REMARK  0 active torsions:
REMARK  status: ('A' for Active; 'I' for Inactive)
ROOT
HETATM    1  C1  UNL     1     -34.888   5.163   5.175  1.00 20.00     0.011 C 
HETATM    2  C2  UNL     1     -34.154   5.882   6.308  1.00 20.00     0.011 C 
HETATM    3  C3  UNL     1     -33.960   4.569   4.117  1.00 20.00     0.075 C 
HETATM    4  C4  UNL     1     -34.098   7.405   6.209  1.00 20.00     0.075 C 
HETATM    5  C5  UNL     1     -32.445   6.917   3.991  1.00 20.00     0.147 C 
HETATM    6  S6  UNL     1     -33.300   5.749   2.901  1.00 20.00    -0.159 SA
HETATM    7  S7  UNL     1     -33.581   8.166   4.640  1.00 20.00    -0.159 SA
ENDROOT
TORSDOF 0
ENDMDL
MODEL 7
REMARK VINA RESULT:      -2.8     15.978     16.623
REMARK  0 active torsions:
REMARK  status: ('A' for Active; 'I' for Inactive)
ROOT
HETATM    1  C1  UNL     1     -22.033  18.277  10.045  1.00 20.00     0.011 C 
HETATM    2  C2  UNL     1     -22.178  18.505  11.551  1.00 20.00     0.011 C 
HETATM    3  C3  UNL     1     -22.828  19.263   9.192  1.00 20.00     0.075 C 
HETATM    4  C4  UNL     1     -23.158  17.584  12.275  1.00 20.00     0.075 C 
HETATM    5  C5  UNL     1     -25.107  18.950  10.783  1.00 20.00     0.147 C 
HETATM    6  S6  UNL     1     -24.606  18.914   9.042  1.00 20.00    -0.159 SA
HETATM    7  S7  UNL     1     -24.824  17.352  11.583  1.00 20.00    -0.159 SA
ENDROOT
TORSDOF 0
ENDMDL
MODEL 8
REMARK VINA RESULT:      -2.8      0.806      2.680
REMARK  0 active torsions:
REMARK  status: ('A' for Active; 'I' for Inactive)
ROOT
HETATM    1  C1  UNL     1     -33.809   8.044   5.143  1.00 20.00     0.011 C 
HETATM    2  C2  UNL     1     -32.381   7.876   4.618  1.00 20.00     0.011 C 
HETATM    3  C3  UNL     1     -34.294   6.875   5.998  1.00 20.00     0.075 C 
HETATM    4  C4  UNL     1     -32.252   7.405   3.172  1.00 20.00     0.075 C 
HETATM    5  C5  UNL     1     -33.331   5.005   4.154  1.00 20.00     0.147 C 
HETATM    6  S6  UNL     1     -34.838   5.404   5.077  1.00 20.00    -0.159 SA
HETATM    7  S7  UNL     1     -33.220   5.965   2.625  1.00 20.00    -0.159 SA
ENDROOT
TORSDOF 0
ENDMDL
MODEL 9
REMARK VINA RESULT:      -2.8     12.982     13.720
REMARK  0 active torsions:
REMARK  status: ('A' for Active; 'I' for Inactive)
ROOT
HETATM    1  C1  UNL     1     -33.016  15.312  -3.971  1.00 20.00     0.011 C 
HETATM    2  C2  UNL     1     -34.245  14.585  -4.519  1.00 20.00     0.011 C 
HETATM    3  C3  UNL     1     -33.350  16.454  -3.013  1.00 20.00     0.075 C 
HETATM    4  C4  UNL     1     -34.686  14.982  -5.926  1.00 20.00     0.075 C 
HETATM    5  C5  UNL     1     -35.330  17.438  -4.725  1.00 20.00     0.147 C 
HETATM    6  S6  UNL     1     -33.881  18.005  -3.798  1.00 20.00    -0.159 SA
HETATM    7  S7  UNL     1     -34.857  16.748  -6.329  1.00 20.00    -0.159 SA
ENDROOT
TORSDOF 0
ENDMDL
