MODEL 1
REMARK VINA RESULT:      -5.2      0.000      0.000
REMARK  0 active torsions:
REMARK  status: ('A' for Active; 'I' for Inactive)
ROOT
HETATM    1  C1  UNL     1     -33.278   6.504   3.042  1.00 20.00     0.029 A 
HETATM    2  C2  UNL     1     -32.468   8.577   3.933  1.00 20.00     0.136 A 
HETATM    3  C3  UNL     1     -33.793   6.242   4.296  1.00 20.00    -0.032 A 
HETATM    4  C4  UNL     1     -32.592   7.702   2.855  1.00 20.00     0.029 A 
HETATM    5  C5  UNL     1     -33.619   7.181   5.307  1.00 20.00     0.040 A 
HETATM    6  C6  UNL     1     -34.589   5.074   4.769  1.00 20.00     0.041 C 
HETATM    7  C7  UNL     1     -34.297   6.733   6.570  1.00 20.00     0.060 C 
HETATM    8  C8  UNL     1     -34.465   5.232   6.293  1.00 20.00     0.011 C 
HETATM    9  N9  UNL     1     -32.974   8.351   5.170  1.00 20.00    -0.264 NA
HETATM   10 BR10 UNL     1     -31.849   8.131   1.176  1.00 20.00    -0.050 Br
ENDROOT
TORSDOF 0
ENDMDL
MODEL 2
REMARK VINA RESULT:      -4.5      1.363      2.075
REMARK  0 active torsions:
REMARK  status: ('A' for Active; 'I' for Inactive)
ROOT
HETATM    1  C1  UNL     1     -32.964   7.812   3.933  1.00 20.00     0.029 A 
HETATM    2  C2  UNL     1     -32.973   5.919   2.460  1.00 20.00     0.136 A 
HETATM    3  C3  UNL     1     -33.554   6.996   4.877  1.00 20.00    -0.032 A 
HETATM    4  C4  UNL     1     -32.669   7.262   2.687  1.00 20.00     0.029 A 
HETATM    5  C5  UNL     1     -33.814   5.669   4.556  1.00 20.00     0.040 A 
HETATM    6  C6  UNL     1     -33.943   7.303   6.283  1.00 20.00     0.041 C 
HETATM    7  C7  UNL     1     -34.404   4.944   5.731  1.00 20.00     0.060 C 
HETATM    8  C8  UNL     1     -34.879   6.123   6.592  1.00 20.00     0.011 C 
HETATM    9  N9  UNL     1     -33.540   5.094   3.374  1.00 20.00    -0.264 NA
HETATM   10 BR10 UNL     1     -31.873   8.310   1.337  1.00 20.00    -0.050 Br
ENDROOT
TORSDOF 0
ENDMDL
MODEL 3
REMARK VINA RESULT:      -4.4     16.212     16.910
REMARK  0 active torsions:
REMARK  status: ('A' for Active; 'I' for Inactive)
ROOT
HETATM    1  C1  UNL     1     -24.850  18.993  10.175  1.00 20.00     0.029 A 
HETATM    2  C2  UNL     1     -23.946  18.461  12.331  1.00 20.00     0.136 A 
HETATM    3  C3  UNL     1     -23.588  18.771   9.664  1.00 20.00    -0.032 A 
HETATM    4  C4  UNL     1     -25.036  18.840  11.547  1.00 20.00     0.029 A 
HETATM    5  C5  UNL     1     -22.566  18.393  10.528  1.00 20.00     0.040 A 
HETATM    6  C6  UNL     1     -23.114  18.827   8.251  1.00 20.00     0.041 C 
HETATM    7  C7  UNL     1     -21.293  18.149   9.770  1.00 20.00     0.060 C 
HETATM    8  C8  UNL     1     -21.591  18.884   8.455  1.00 20.00     0.011 C 
HETATM    9  N9  UNL     1     -22.700  18.225  11.853  1.00 20.00    -0.264 NA
HETATM   10 BR10 UNL     1     -26.727  19.135  12.327  1.00 20.00    -0.050 Br
ENDROOT
TORSDOF 0
ENDMDL
MODEL 4
REMARK VINA RESULT:      -4.2     12.178     13.042
REMARK  0 active torsions:
REMARK  status: ('A' for Active; 'I' for Inactive)
ROOT
HETATM    1  C1  UNL     1     -33.375  16.641  -2.164  1.00 20.00     0.029 A 
HETATM    2  C2  UNL     1     -34.855  18.479  -2.587  1.00 20.00     0.136 A 
HETATM    3  C3  UNL     1     -33.608  16.241  -3.464  1.00 20.00    -0.032 A 
HETATM    4  C4  UNL     1     -34.020  17.789  -1.709  1.00 20.00     0.029 A 
HETATM    5  C5  UNL     1     -34.456  16.999  -4.263  1.00 20.00     0.040 A 
HETATM    6  C6  UNL     1     -33.035  15.088  -4.217  1.00 20.00     0.041 C 
HETATM    7  C7  UNL     1     -34.533  16.426  -5.650  1.00 20.00     0.060 C 
HETATM    8  C8  UNL     1     -34.006  15.004  -5.407  1.00 20.00     0.011 C 
HETATM    9  N9  UNL     1     -35.092  18.115  -3.870  1.00 20.00    -0.264 NA
HETATM   10 BR10 UNL     1     -33.764  18.399   0.057  1.00 20.00    -0.050 Br
ENDROOT
TORSDOF 0
ENDMDL
MODEL 5
REMARK VINA RESULT:      -4.1     12.425     12.624
REMARK  0 active torsions:
REMARK  status: ('A' for Active; 'I' for Inactive)
ROOT
HETATM    1  C1  UNL     1     -30.666  18.518   1.034  1.00 20.00     0.029 A 
HETATM    2  C2  UNL     1     -31.847  19.263   2.984  1.00 20.00     0.136 A 
HETATM    3  C3  UNL     1     -31.884  18.497   0.386  1.00 20.00    -0.032 A 
HETATM    4  C4  UNL     1     -30.645  18.906   2.373  1.00 20.00     0.029 A 
HETATM    5  C5  UNL     1     -33.027  18.874   1.082  1.00 20.00     0.040 A 
HETATM    6  C6  UNL     1     -32.196  18.161  -1.033  1.00 20.00     0.041 C 
HETATM    7  C7  UNL     1     -34.232  18.835   0.186  1.00 20.00     0.060 C 
HETATM    8  C8  UNL     1     -33.717  17.946  -0.956  1.00 20.00     0.011 C 
HETATM    9  N9  UNL     1     -33.054  19.263   2.367  1.00 20.00    -0.264 NA
HETATM   10 BR10 UNL     1     -29.025  18.951   3.335  1.00 20.00    -0.050 Br
ENDROOT
TORSDOF 0
ENDMDL
MODEL 6
REMARK VINA RESULT:      -3.9     12.647     13.137
REMARK  0 active torsions:
REMARK  status: ('A' for Active; 'I' for Inactive)
ROOT
HETATM    1  C1  UNL     1     -32.972  18.995   1.441  1.00 20.00     0.029 A 
HETATM    2  C2  UNL     1     -30.629  18.837   0.953  1.00 20.00     0.136 A 
HETATM    3  C3  UNL     1     -33.195  18.867   0.085  1.00 20.00    -0.032 A 
HETATM    4  C4  UNL     1     -31.652  18.986   1.889  1.00 20.00     0.029 A 
HETATM    5  C5  UNL     1     -32.107  18.720  -0.768  1.00 20.00     0.040 A 
HETATM    6  C6  UNL     1     -34.485  18.811  -0.661  1.00 20.00     0.041 C 
HETATM    7  C7  UNL     1     -32.566  18.543  -2.188  1.00 20.00     0.060 C 
HETATM    8  C8  UNL     1     -34.004  19.075  -2.098  1.00 20.00     0.011 C 
HETATM    9  N9  UNL     1     -30.822  18.697  -0.381  1.00 20.00    -0.264 NA
HETATM   10 BR10 UNL     1     -31.259  19.166   3.724  1.00 20.00    -0.050 Br
ENDROOT
TORSDOF 0
ENDMDL
MODEL 7
REMARK VINA RESULT:      -3.8     12.524     12.784
REMARK  0 active torsions:
REMARK  status: ('A' for Active; 'I' for Inactive)
ROOT
HETATM    1  C1  UNL     1     -29.179  18.724   2.525  1.00 20.00     0.029 A 
HETATM    2  C2  UNL     1     -30.289  19.121   4.613  1.00 20.00     0.136 A 
HETATM    3  C3  UNL     1     -30.415  18.845   1.921  1.00 20.00    -0.032 A 
HETATM    4  C4  UNL     1     -29.113  18.860   3.910  1.00 20.00     0.029 A 
HETATM    5  C5  UNL     1     -31.529  19.109   2.710  1.00 20.00     0.040 A 
HETATM    6  C6  UNL     1     -30.773  18.780   0.475  1.00 20.00     0.041 C 
HETATM    7  C7  UNL     1     -32.759  19.255   1.860  1.00 20.00     0.060 C 
HETATM    8  C8  UNL     1     -32.296  18.581   0.559  1.00 20.00     0.011 C 
HETATM    9  N9  UNL     1     -31.511  19.256   4.044  1.00 20.00    -0.264 NA
HETATM   10 BR10 UNL     1     -27.466  18.700   4.813  1.00 20.00    -0.050 Br
ENDROOT
TORSDOF 0
ENDMDL
MODEL 8
REMARK VINA RESULT:      -3.6      9.690     10.205
REMARK  0 active torsions:
REMARK  status: ('A' for Active; 'I' for Inactive)
ROOT
HETATM    1  C1  UNL     1     -41.449  13.890   4.805  1.00 20.00     0.029 A 
HETATM    2  C2  UNL     1     -41.520  14.295   7.167  1.00 20.00     0.136 A 
HETATM    3  C3  UNL     1     -40.419  13.006   5.054  1.00 20.00    -0.032 A 
HETATM    4  C4  UNL     1     -42.013  14.558   5.890  1.00 20.00     0.029 A 
HETATM    5  C5  UNL     1     -40.000  12.809   6.364  1.00 20.00     0.040 A 
HETATM    6  C6  UNL     1     -39.663  12.141   4.103  1.00 20.00     0.041 C 
HETATM    7  C7  UNL     1     -38.912  11.775   6.424  1.00 20.00     0.060 C 
HETATM    8  C8  UNL     1     -38.445  11.758   4.961  1.00 20.00     0.011 C 
HETATM    9  N9  UNL     1     -40.518  13.423   7.440  1.00 20.00    -0.264 NA
HETATM   10 BR10 UNL     1     -43.417  15.790   5.635  1.00 20.00    -0.050 Br
ENDROOT
TORSDOF 0
ENDMDL
MODEL 9
REMARK VINA RESULT:      -3.6     12.283     13.311
REMARK  0 active torsions:
REMARK  status: ('A' for Active; 'I' for Inactive)
ROOT
HETATM    1  C1  UNL     1     -34.925  17.209  -5.439  1.00 20.00     0.029 A 
HETATM    2  C2  UNL     1     -33.893  15.046  -5.403  1.00 20.00     0.136 A 
HETATM    3  C3  UNL     1     -34.441  17.389  -4.160  1.00 20.00    -0.032 A 
HETATM    4  C4  UNL     1     -34.649  16.003  -6.079  1.00 20.00     0.029 A 
HETATM    5  C5  UNL     1     -33.693  16.375  -3.572  1.00 20.00     0.040 A 
HETATM    6  C6  UNL     1     -34.553  18.574  -3.262  1.00 20.00     0.041 C 
HETATM    7  C7  UNL     1     -33.217  16.788  -2.208  1.00 20.00     0.060 C 
HETATM    8  C8  UNL     1     -34.172  17.954  -1.908  1.00 20.00     0.011 C 
HETATM    9  N9  UNL     1     -33.395  15.202  -4.152  1.00 20.00    -0.264 NA
HETATM   10 BR10 UNL     1     -35.283  15.673  -7.824  1.00 20.00    -0.050 Br
ENDROOT
TORSDOF 0
ENDMDL
