MODEL 1
REMARK VINA RESULT:      -4.4      0.000      0.000
REMARK  6 active torsions:
REMARK  status: ('A' for Active; 'I' for Inactive)
REMARK    1  A    between atoms: C1_1  and  C6_6 
REMARK    2  A    between atoms: C1_1  and  C10_10 
REMARK    3  A    between atoms: C7_7  and  C8_8 
REMARK    4  A    between atoms: C8_8  and  C11_11 
REMARK    5  A    between atoms: C9_9  and  C10_10 
REMARK    6  A    between atoms: C9_9  and  C11_11 
ROOT
HETATM    1  C9  UNL     1     -33.182  18.697  -1.751  1.00 20.00     0.016 C 
ENDROOT
BRANCH   1   2
HETATM    2  C10 UNL     1     -32.986  18.102  -0.346  1.00 20.00     0.051 C 
HETATM    3  C4  UNL     1     -34.097  18.487   0.629  1.00 20.00     0.018 C 
BRANCH   2   4
HETATM    4  C1  UNL     1     -31.632  18.568   0.197  1.00 20.00     0.130 C 
HETATM    5  O12 UNL     1     -30.652  18.695  -0.536  1.00 20.00    -0.298 OA
BRANCH   4   6
HETATM    6  C6  UNL     1     -31.565  18.833   1.693  1.00 20.00     0.074 C 
HETATM    7  C2  UNL     1     -30.247  18.395   2.305  1.00 20.00     0.013 C 
ENDBRANCH   4   6
ENDBRANCH   2   4
ENDBRANCH   1   2
BRANCH   1   8
HETATM    8  C11 UNL     1     -33.835  17.769  -2.801  1.00 20.00    -0.018 C 
HETATM    9  C5  UNL     1     -33.493  18.293  -4.201  1.00 20.00     0.010 C 
BRANCH   8  10
HETATM   10  C8  UNL     1     -33.401  16.301  -2.615  1.00 20.00     0.004 C 
BRANCH  10  11
HETATM   11  C7  UNL     1     -33.097  15.575  -3.929  1.00 20.00    -0.004 C 
HETATM   12  C3  UNL     1     -34.117  14.482  -4.207  1.00 20.00     0.005 C 
ENDBRANCH  10  11
ENDBRANCH   8  10
ENDBRANCH   1   8
TORSDOF 6
ENDMDL
MODEL 2
REMARK VINA RESULT:      -4.2      2.001      5.443
REMARK  6 active torsions:
REMARK  status: ('A' for Active; 'I' for Inactive)
REMARK    1  A    between atoms: C1_1  and  C6_6 
REMARK    2  A    between atoms: C1_1  and  C10_10 
REMARK    3  A    between atoms: C7_7  and  C8_8 
REMARK    4  A    between atoms: C8_8  and  C11_11 
REMARK    5  A    between atoms: C9_9  and  C10_10 
REMARK    6  A    between atoms: C9_9  and  C11_11 
ROOT
HETATM    1  C9  UNL     1     -33.344  17.430  -1.798  1.00 20.00     0.016 C 
ENDROOT
BRANCH   1   2
HETATM    2  C10 UNL     1     -33.924  18.025  -3.092  1.00 20.00     0.051 C 
HETATM    3  C4  UNL     1     -35.336  18.580  -2.917  1.00 20.00     0.018 C 
BRANCH   2   4
HETATM    4  C1  UNL     1     -33.921  16.941  -4.173  1.00 20.00     0.130 C 
HETATM    5  O12 UNL     1     -34.452  17.121  -5.269  1.00 20.00    -0.298 OA
BRANCH   4   6
HETATM    6  C6  UNL     1     -33.253  15.626  -3.803  1.00 20.00     0.074 C 
HETATM    7  C2  UNL     1     -34.065  14.418  -4.232  1.00 20.00     0.013 C 
ENDBRANCH   4   6
ENDBRANCH   2   4
ENDBRANCH   1   2
BRANCH   1   8
HETATM    8  C11 UNL     1     -32.950  18.440  -0.696  1.00 20.00    -0.018 C 
HETATM    9  C5  UNL     1     -33.810  18.174   0.546  1.00 20.00     0.010 C 
BRANCH   8  10
HETATM   10  C8  UNL     1     -31.443  18.378  -0.376  1.00 20.00     0.004 C 
BRANCH  10  11
HETATM   11  C7  UNL     1     -31.024  19.262   0.802  1.00 20.00    -0.004 C 
HETATM   12  C3  UNL     1     -30.474  18.432   1.952  1.00 20.00     0.005 C 
ENDBRANCH  10  11
ENDBRANCH   8  10
ENDBRANCH   1   8
TORSDOF 6
ENDMDL
MODEL 3
REMARK VINA RESULT:      -4.1     11.099     12.157
REMARK  6 active torsions:
REMARK  status: ('A' for Active; 'I' for Inactive)
REMARK    1  A    between atoms: C1_1  and  C6_6 
REMARK    2  A    between atoms: C1_1  and  C10_10 
REMARK    3  A    between atoms: C7_7  and  C8_8 
REMARK    4  A    between atoms: C8_8  and  C11_11 
REMARK    5  A    between atoms: C9_9  and  C10_10 
REMARK    6  A    between atoms: C9_9  and  C11_11 
ROOT
HETATM    1  C9  UNL     1     -33.844   7.760   4.645  1.00 20.00     0.016 C 
ENDROOT
BRANCH   1   2
HETATM    2  C10 UNL     1     -32.428   8.185   4.219  1.00 20.00     0.051 C 
HETATM    3  C4  UNL     1     -31.986   9.507   4.843  1.00 20.00     0.018 C 
BRANCH   2   4
HETATM    4  C1  UNL     1     -32.388   8.291   2.692  1.00 20.00     0.130 C 
HETATM    5  O12 UNL     1     -31.942   7.381   1.993  1.00 20.00    -0.298 OA
BRANCH   4   6
HETATM    6  C6  UNL     1     -32.903   9.592   2.096  1.00 20.00     0.074 C 
HETATM    7  C2  UNL     1     -32.837   9.606   0.580  1.00 20.00     0.013 C 
ENDBRANCH   4   6
ENDBRANCH   2   4
ENDBRANCH   1   2
BRANCH   1   8
HETATM    8  C11 UNL     1     -33.948   6.450   5.460  1.00 20.00    -0.018 C 
HETATM    9  C5  UNL     1     -34.494   6.781   6.855  1.00 20.00     0.010 C 
BRANCH   8  10
HETATM   10  C8  UNL     1     -34.814   5.397   4.740  1.00 20.00     0.004 C 
BRANCH  10  11
HETATM   11  C7  UNL     1     -34.007   4.252   4.121  1.00 20.00    -0.004 C 
HETATM   12  C3  UNL     1     -33.266   4.707   2.872  1.00 20.00     0.005 C 
ENDBRANCH  10  11
ENDBRANCH   8  10
ENDBRANCH   1   8
TORSDOF 6
ENDMDL
MODEL 4
REMARK VINA RESULT:      -4.0     11.045     11.986
REMARK  6 active torsions:
REMARK  status: ('A' for Active; 'I' for Inactive)
REMARK    1  A    between atoms: C1_1  and  C6_6 
REMARK    2  A    between atoms: C1_1  and  C10_10 
REMARK    3  A    between atoms: C7_7  and  C8_8 
REMARK    4  A    between atoms: C8_8  and  C11_11 
REMARK    5  A    between atoms: C9_9  and  C10_10 
REMARK    6  A    between atoms: C9_9  and  C11_11 
ROOT
HETATM    1  C9  UNL     1     -33.723   7.733   3.497  1.00 20.00     0.016 C 
ENDROOT
BRANCH   1   2
HETATM    2  C10 UNL     1     -33.616   8.279   4.931  1.00 20.00     0.051 C 
HETATM    3  C4  UNL     1     -32.284   8.973   5.211  1.00 20.00     0.018 C 
BRANCH   2   4
HETATM    4  C1  UNL     1     -33.814   7.120   5.912  1.00 20.00     0.130 C 
HETATM    5  O12 UNL     1     -33.083   6.970   6.890  1.00 20.00    -0.298 OA
BRANCH   4   6
HETATM    6  C6  UNL     1     -34.944   6.155   5.590  1.00 20.00     0.074 C 
HETATM    7  C2  UNL     1     -34.495   4.705   5.601  1.00 20.00     0.013 C 
ENDBRANCH   4   6
ENDBRANCH   2   4
ENDBRANCH   1   2
BRANCH   1   8
HETATM    8  C11 UNL     1     -32.453   7.061   2.925  1.00 20.00    -0.018 C 
HETATM    9  C5  UNL     1     -32.782   5.603   2.578  1.00 20.00     0.010 C 
BRANCH   8  10
HETATM   10  C8  UNL     1     -31.900   7.829   1.708  1.00 20.00     0.004 C 
BRANCH  10  11
HETATM   11  C7  UNL     1     -32.664   9.118   1.391  1.00 20.00    -0.004 C 
HETATM   12  C3  UNL     1     -32.986   9.222  -0.092  1.00 20.00     0.005 C 
ENDBRANCH  10  11
ENDBRANCH   8  10
ENDBRANCH   1   8
TORSDOF 6
ENDMDL
MODEL 5
REMARK VINA RESULT:      -4.0     11.082     13.253
REMARK  6 active torsions:
REMARK  status: ('A' for Active; 'I' for Inactive)
REMARK    1  A    between atoms: C1_1  and  C6_6 
REMARK    2  A    between atoms: C1_1  and  C10_10 
REMARK    3  A    between atoms: C7_7  and  C8_8 
REMARK    4  A    between atoms: C8_8  and  C11_11 
REMARK    5  A    between atoms: C9_9  and  C10_10 
REMARK    6  A    between atoms: C9_9  and  C11_11 
ROOT
HETATM    1  C9  UNL     1     -40.421  13.946   7.527  1.00 20.00     0.016 C 
ENDROOT
BRANCH   1   2
HETATM    2  C10 UNL     1     -41.499  13.591   6.489  1.00 20.00     0.051 C 
HETATM    3  C4  UNL     1     -42.487  12.538   6.986  1.00 20.00     0.018 C 
BRANCH   2   4
HETATM    4  C1  UNL     1     -40.808  13.096   5.216  1.00 20.00     0.130 C 
HETATM    5  O12 UNL     1     -41.114  13.529   4.105  1.00 20.00    -0.298 OA
BRANCH   4   6
HETATM    6  C6  UNL     1     -39.747  12.022   5.403  1.00 20.00     0.074 C 
HETATM    7  C2  UNL     1     -39.044  11.664   4.106  1.00 20.00     0.013 C 
ENDBRANCH   4   6
ENDBRANCH   2   4
ENDBRANCH   1   2
BRANCH   1   8
HETATM    8  C11 UNL     1     -40.362  15.426   7.973  1.00 20.00    -0.018 C 
HETATM    9  C5  UNL     1     -41.542  16.176   7.344  1.00 20.00     0.010 C 
BRANCH   8  10
HETATM   10  C8  UNL     1     -40.350  15.559   9.509  1.00 20.00     0.004 C 
BRANCH  10  11
HETATM   11  C7  UNL     1     -40.724  14.268  10.244  1.00 20.00    -0.004 C 
HETATM   12  C3  UNL     1     -42.169  14.299  10.719  1.00 20.00     0.005 C 
ENDBRANCH  10  11
ENDBRANCH   8  10
ENDBRANCH   1   8
TORSDOF 6
ENDMDL
MODEL 6
REMARK VINA RESULT:      -4.0     11.375     12.438
REMARK  6 active torsions:
REMARK  status: ('A' for Active; 'I' for Inactive)
REMARK    1  A    between atoms: C1_1  and  C6_6 
REMARK    2  A    between atoms: C1_1  and  C10_10 
REMARK    3  A    between atoms: C7_7  and  C8_8 
REMARK    4  A    between atoms: C8_8  and  C11_11 
REMARK    5  A    between atoms: C9_9  and  C10_10 
REMARK    6  A    between atoms: C9_9  and  C11_11 
ROOT
HETATM    1  C9  UNL     1     -33.964   7.325   3.619  1.00 20.00     0.016 C 
ENDROOT
BRANCH   1   2
HETATM    2  C10 UNL     1     -33.245   5.973   3.767  1.00 20.00     0.051 C 
HETATM    3  C4  UNL     1     -32.886   5.335   2.427  1.00 20.00     0.018 C 
BRANCH   2   4
HETATM    4  C1  UNL     1     -34.141   5.027   4.571  1.00 20.00     0.130 C 
HETATM    5  O12 UNL     1     -34.077   3.806   4.433  1.00 20.00    -0.298 OA
BRANCH   4   6
HETATM    6  C6  UNL     1     -35.129   5.685   5.521  1.00 20.00     0.074 C 
HETATM    7  C2  UNL     1     -34.454   6.282   6.743  1.00 20.00     0.013 C 
ENDBRANCH   4   6
ENDBRANCH   2   4
ENDBRANCH   1   2
BRANCH   1   8
HETATM    8  C11 UNL     1     -33.074   8.586   3.702  1.00 20.00    -0.018 C 
HETATM    9  C5  UNL     1     -32.194   8.485   4.955  1.00 20.00     0.010 C 
BRANCH   8  10
HETATM   10  C8  UNL     1     -32.233   8.776   2.424  1.00 20.00     0.004 C 
BRANCH  10  11
HETATM   11  C7  UNL     1     -32.910   9.647   1.362  1.00 20.00    -0.004 C 
HETATM   12  C3  UNL     1     -32.838   9.001  -0.014  1.00 20.00     0.005 C 
ENDBRANCH  10  11
ENDBRANCH   8  10
ENDBRANCH   1   8
TORSDOF 6
ENDMDL
MODEL 7
REMARK VINA RESULT:      -3.9      1.545      2.500
REMARK  6 active torsions:
REMARK  status: ('A' for Active; 'I' for Inactive)
REMARK    1  A    between atoms: C1_1  and  C6_6 
REMARK    2  A    between atoms: C1_1  and  C10_10 
REMARK    3  A    between atoms: C7_7  and  C8_8 
REMARK    4  A    between atoms: C8_8  and  C11_11 
REMARK    5  A    between atoms: C9_9  and  C10_10 
REMARK    6  A    between atoms: C9_9  and  C11_11 
ROOT
HETATM    1  C9  UNL     1     -33.551  16.598  -2.388  1.00 20.00     0.016 C 
ENDROOT
BRANCH   1   2
HETATM    2  C10 UNL     1     -33.564  18.067  -1.933  1.00 20.00     0.051 C 
HETATM    3  C4  UNL     1     -32.805  18.995  -2.880  1.00 20.00     0.018 C 
BRANCH   2   4
HETATM    4  C1  UNL     1     -32.960  18.150  -0.529  1.00 20.00     0.130 C 
HETATM    5  O12 UNL     1     -33.645  17.978   0.479  1.00 20.00    -0.298 OA
BRANCH   4   6
HETATM    6  C6  UNL     1     -31.478  18.484  -0.455  1.00 20.00     0.074 C 
HETATM    7  C2  UNL     1     -30.950  18.483   0.969  1.00 20.00     0.013 C 
ENDBRANCH   4   6
ENDBRANCH   2   4
ENDBRANCH   1   2
BRANCH   1   8
HETATM    8  C11 UNL     1     -33.363  16.353  -3.903  1.00 20.00    -0.018 C 
HETATM    9  C5  UNL     1     -32.712  14.978  -4.101  1.00 20.00     0.010 C 
BRANCH   8  10
HETATM   10  C8  UNL     1     -34.694  16.473  -4.671  1.00 20.00     0.004 C 
BRANCH  10  11
HETATM   11  C7  UNL     1     -34.881  15.409  -5.756  1.00 20.00    -0.004 C 
HETATM   12  C3  UNL     1     -36.076  14.516  -5.458  1.00 20.00     0.005 C 
ENDBRANCH  10  11
ENDBRANCH   8  10
ENDBRANCH   1   8
TORSDOF 6
ENDMDL
MODEL 8
REMARK VINA RESULT:      -3.9      3.980      7.222
REMARK  6 active torsions:
REMARK  status: ('A' for Active; 'I' for Inactive)
REMARK    1  A    between atoms: C1_1  and  C6_6 
REMARK    2  A    between atoms: C1_1  and  C10_10 
REMARK    3  A    between atoms: C7_7  and  C8_8 
REMARK    4  A    between atoms: C8_8  and  C11_11 
REMARK    5  A    between atoms: C9_9  and  C10_10 
REMARK    6  A    between atoms: C9_9  and  C11_11 
ROOT
HETATM    1  C9  UNL     1     -33.844  15.094  -6.247  1.00 20.00     0.016 C 
ENDROOT
BRANCH   1   2
HETATM    2  C10 UNL     1     -34.495  15.986  -7.317  1.00 20.00     0.051 C 
HETATM    3  C4  UNL     1     -34.409  17.476  -6.991  1.00 20.00     0.018 C 
BRANCH   2   4
HETATM    4  C1  UNL     1     -35.960  15.572  -7.474  1.00 20.00     0.130 C 
HETATM    5  O12 UNL     1     -36.275  14.441  -7.844  1.00 20.00    -0.298 OA
BRANCH   4   6
HETATM    6  C6  UNL     1     -36.997  16.644  -7.175  1.00 20.00     0.074 C 
HETATM    7  C2  UNL     1     -37.695  16.426  -5.846  1.00 20.00     0.013 C 
ENDBRANCH   4   6
ENDBRANCH   2   4
ENDBRANCH   1   2
BRANCH   1   8
HETATM    8  C11 UNL     1     -34.372  15.262  -4.804  1.00 20.00    -0.018 C 
HETATM    9  C5  UNL     1     -35.107  13.978  -4.397  1.00 20.00     0.010 C 
BRANCH   8  10
HETATM   10  C8  UNL     1     -33.239  15.612  -3.818  1.00 20.00     0.004 C 
BRANCH  10  11
HETATM   11  C7  UNL     1     -33.314  17.041  -3.272  1.00 20.00    -0.004 C 
HETATM   12  C3  UNL     1     -33.544  17.049  -1.768  1.00 20.00     0.005 C 
ENDBRANCH  10  11
ENDBRANCH   8  10
ENDBRANCH   1   8
TORSDOF 6
ENDMDL
MODEL 9
REMARK VINA RESULT:      -3.9     11.337     12.406
REMARK  6 active torsions:
REMARK  status: ('A' for Active; 'I' for Inactive)
REMARK    1  A    between atoms: C1_1  and  C6_6 
REMARK    2  A    between atoms: C1_1  and  C10_10 
REMARK    3  A    between atoms: C7_7  and  C8_8 
REMARK    4  A    between atoms: C8_8  and  C11_11 
REMARK    5  A    between atoms: C9_9  and  C10_10 
REMARK    6  A    between atoms: C9_9  and  C11_11 
ROOT
HETATM    1  C9  UNL     1     -32.989   7.276   4.994  1.00 20.00     0.016 C 
ENDROOT
BRANCH   1   2
HETATM    2  C10 UNL     1     -34.394   6.845   5.448  1.00 20.00     0.051 C 
HETATM    3  C4  UNL     1     -34.416   6.258   6.858  1.00 20.00     0.018 C 
BRANCH   2   4
HETATM    4  C1  UNL     1     -34.937   5.819   4.449  1.00 20.00     0.130 C 
HETATM    5  O12 UNL     1     -36.073   5.910   3.984  1.00 20.00    -0.298 OA
BRANCH   4   6
HETATM    6  C6  UNL     1     -34.004   4.673   4.091  1.00 20.00     0.074 C 
HETATM    7  C2  UNL     1     -33.314   4.878   2.754  1.00 20.00     0.013 C 
ENDBRANCH   4   6
ENDBRANCH   2   4
ENDBRANCH   1   2
BRANCH   1   8
HETATM    8  C11 UNL     1     -32.903   8.596   4.195  1.00 20.00    -0.018 C 
HETATM    9  C5  UNL     1     -31.957   9.555   4.929  1.00 20.00     0.010 C 
BRANCH   8  10
HETATM   10  C8  UNL     1     -32.459   8.355   2.738  1.00 20.00     0.004 C 
BRANCH  10  11
HETATM   11  C7  UNL     1     -32.908   9.449   1.765  1.00 20.00    -0.004 C 
HETATM   12  C3  UNL     1     -32.620   9.060   0.323  1.00 20.00     0.005 C 
ENDBRANCH  10  11
ENDBRANCH   8  10
ENDBRANCH   1   8
TORSDOF 6
ENDMDL
