MODEL 1
REMARK VINA RESULT:      -5.0      0.000      0.000
REMARK  1 active torsions:
REMARK  status: ('A' for Active; 'I' for Inactive)
REMARK    1  A    between atoms: C3_3  and  C4_4 
ROOT
HETATM    1  C1  UNL     1     -34.451   4.879   5.209  1.00 20.00     0.087 C 
HETATM    2  C2  UNL     1     -34.808   5.706   6.307  1.00 20.00     0.093 C 
HETATM    3  C3  UNL     1     -34.232   6.901   6.501  1.00 20.00     0.011 C 
HETATM    4  N7  UNL     1     -34.162   4.201   4.313  1.00 20.00    -0.192 NA
ENDROOT
BRANCH   3   5
HETATM    5  C4  UNL     1     -33.216   7.437   5.622  1.00 20.00    -0.004 C 
HETATM    6  C5  UNL     1     -33.498   8.177   4.540  1.00 20.00    -0.031 C 
HETATM    7  C6  UNL     1     -32.458   8.737   3.626  1.00 20.00     0.036 C 
ENDBRANCH   3   5
TORSDOF 1
ENDMDL
MODEL 2
REMARK VINA RESULT:      -4.9      0.813      1.075
REMARK  1 active torsions:
REMARK  status: ('A' for Active; 'I' for Inactive)
REMARK    1  A    between atoms: C3_3  and  C4_4 
ROOT
HETATM    1  C1  UNL     1     -34.541   5.426   5.552  1.00 20.00     0.087 C 
HETATM    2  C2  UNL     1     -34.248   6.499   6.435  1.00 20.00     0.093 C 
HETATM    3  C3  UNL     1     -33.802   7.679   5.979  1.00 20.00     0.011 C 
HETATM    4  N7  UNL     1     -34.782   4.547   4.834  1.00 20.00    -0.192 NA
ENDROOT
BRANCH   3   5
HETATM    5  C4  UNL     1     -33.587   7.950   4.575  1.00 20.00    -0.004 C 
HETATM    6  C5  UNL     1     -32.393   7.823   3.978  1.00 20.00    -0.031 C 
HETATM    7  C6  UNL     1     -32.158   8.097   2.529  1.00 20.00     0.036 C 
ENDBRANCH   3   5
TORSDOF 1
ENDMDL
MODEL 3
REMARK VINA RESULT:      -4.7      1.059      1.192
REMARK  1 active torsions:
REMARK  status: ('A' for Active; 'I' for Inactive)
REMARK    1  A    between atoms: C3_3  and  C4_4 
ROOT
HETATM    1  C1  UNL     1     -34.005   5.091   3.971  1.00 20.00     0.087 C 
HETATM    2  C2  UNL     1     -34.827   5.188   5.126  1.00 20.00     0.093 C 
HETATM    3  C3  UNL     1     -34.605   6.116   6.068  1.00 20.00     0.011 C 
HETATM    4  N7  UNL     1     -33.337   5.010   3.026  1.00 20.00    -0.192 NA
ENDROOT
BRANCH   3   5
HETATM    5  C4  UNL     1     -33.529   7.079   5.986  1.00 20.00    -0.004 C 
HETATM    6  C5  UNL     1     -33.487   8.056   5.068  1.00 20.00    -0.031 C 
HETATM    7  C6  UNL     1     -32.383   9.057   4.974  1.00 20.00     0.036 C 
ENDBRANCH   3   5
TORSDOF 1
ENDMDL
MODEL 4
REMARK VINA RESULT:      -4.5      1.774      3.662
REMARK  1 active torsions:
REMARK  status: ('A' for Active; 'I' for Inactive)
REMARK    1  A    between atoms: C3_3  and  C4_4 
ROOT
HETATM    1  C1  UNL     1     -32.210   7.934   3.184  1.00 20.00     0.087 C 
HETATM    2  C2  UNL     1     -32.332   8.767   4.328  1.00 20.00     0.093 C 
HETATM    3  C3  UNL     1     -33.170   8.463   5.330  1.00 20.00     0.011 C 
HETATM    4  N7  UNL     1     -32.107   7.256   2.248  1.00 20.00    -0.192 NA
ENDROOT
BRANCH   3   5
HETATM    5  C4  UNL     1     -34.005   7.283   5.326  1.00 20.00    -0.004 C 
HETATM    6  C5  UNL     1     -34.008   6.382   6.319  1.00 20.00    -0.031 C 
HETATM    7  C6  UNL     1     -34.866   5.161   6.328  1.00 20.00     0.036 C 
ENDBRANCH   3   5
TORSDOF 1
ENDMDL
MODEL 5
REMARK VINA RESULT:      -4.2      2.282      3.116
REMARK  1 active torsions:
REMARK  status: ('A' for Active; 'I' for Inactive)
REMARK    1  A    between atoms: C3_3  and  C4_4 
ROOT
HETATM    1  C1  UNL     1     -33.657   7.593   5.802  1.00 20.00     0.087 C 
HETATM    2  C2  UNL     1     -34.312   6.494   6.419  1.00 20.00     0.093 C 
HETATM    3  C3  UNL     1     -34.712   5.429   5.710  1.00 20.00     0.011 C 
HETATM    4  N7  UNL     1     -33.120   8.492   5.302  1.00 20.00    -0.192 NA
ENDROOT
BRANCH   3   5
HETATM    5  C4  UNL     1     -34.511   5.314   4.282  1.00 20.00    -0.004 C 
HETATM    6  C5  UNL     1     -33.319   5.050   3.728  1.00 20.00    -0.031 C 
HETATM    7  C6  UNL     1     -33.099   4.926   2.256  1.00 20.00     0.036 C 
ENDBRANCH   3   5
TORSDOF 1
ENDMDL
MODEL 6
REMARK VINA RESULT:      -4.0     12.869     13.182
REMARK  1 active torsions:
REMARK  status: ('A' for Active; 'I' for Inactive)
REMARK    1  A    between atoms: C3_3  and  C4_4 
ROOT
HETATM    1  C1  UNL     1     -31.784  18.454  -0.357  1.00 20.00     0.087 C 
HETATM    2  C2  UNL     1     -33.191  18.265  -0.315  1.00 20.00     0.093 C 
HETATM    3  C3  UNL     1     -33.829  17.542  -1.247  1.00 20.00     0.011 C 
HETATM    4  N7  UNL     1     -30.634  18.609  -0.387  1.00 20.00    -0.192 NA
ENDROOT
BRANCH   3   5
HETATM    5  C4  UNL     1     -33.147  16.907  -2.353  1.00 20.00    -0.004 C 
HETATM    6  C5  UNL     1     -33.674  15.894  -3.056  1.00 20.00    -0.031 C 
HETATM    7  C6  UNL     1     -32.982  15.231  -4.201  1.00 20.00     0.036 C 
ENDBRANCH   3   5
TORSDOF 1
ENDMDL
MODEL 7
REMARK VINA RESULT:      -4.0      2.409      4.060
REMARK  1 active torsions:
REMARK  status: ('A' for Active; 'I' for Inactive)
REMARK    1  A    between atoms: C3_3  and  C4_4 
ROOT
HETATM    1  C1  UNL     1     -32.282   7.672   3.578  1.00 20.00     0.087 C 
HETATM    2  C2  UNL     1     -32.489   6.757   2.512  1.00 20.00     0.093 C 
HETATM    3  C3  UNL     1     -33.065   5.564   2.713  1.00 20.00     0.011 C 
HETATM    4  N7  UNL     1     -32.112   8.422   4.448  1.00 20.00    -0.192 NA
ENDROOT
BRANCH   3   5
HETATM    5  C4  UNL     1     -33.516   5.118   4.013  1.00 20.00    -0.004 C 
HETATM    6  C5  UNL     1     -34.532   5.690   4.674  1.00 20.00    -0.031 C 
HETATM    7  C6  UNL     1     -35.009   5.238   6.015  1.00 20.00     0.036 C 
ENDBRANCH   3   5
TORSDOF 1
ENDMDL
MODEL 8
REMARK VINA RESULT:      -3.9      1.937      2.520
REMARK  1 active torsions:
REMARK  status: ('A' for Active; 'I' for Inactive)
REMARK    1  A    between atoms: C3_3  and  C4_4 
ROOT
HETATM    1  C1  UNL     1     -34.033   4.876   4.029  1.00 20.00     0.087 C 
HETATM    2  C2  UNL     1     -33.151   5.063   2.932  1.00 20.00     0.093 C 
HETATM    3  C3  UNL     1     -32.623   6.263   2.654  1.00 20.00     0.011 C 
HETATM    4  N7  UNL     1     -34.754   4.720   4.925  1.00 20.00    -0.192 NA
ENDROOT
BRANCH   3   5
HETATM    5  C4  UNL     1     -32.905   7.447   3.436  1.00 20.00    -0.004 C 
HETATM    6  C5  UNL     1     -31.995   8.041   4.222  1.00 20.00    -0.031 C 
HETATM    7  C6  UNL     1     -32.273   9.264   5.032  1.00 20.00     0.036 C 
ENDBRANCH   3   5
TORSDOF 1
ENDMDL
MODEL 9
REMARK VINA RESULT:      -3.8      2.072      3.083
REMARK  1 active torsions:
REMARK  status: ('A' for Active; 'I' for Inactive)
REMARK    1  A    between atoms: C3_3  and  C4_4 
ROOT
HETATM    1  C1  UNL     1     -33.744   7.313   5.894  1.00 20.00     0.087 C 
HETATM    2  C2  UNL     1     -33.349   8.473   5.176  1.00 20.00     0.093 C 
HETATM    3  C3  UNL     1     -32.677   8.387   4.019  1.00 20.00     0.011 C 
HETATM    4  N7  UNL     1     -34.069   6.367   6.483  1.00 20.00    -0.192 NA
ENDROOT
BRANCH   3   5
HETATM    5  C4  UNL     1     -32.305   7.125   3.418  1.00 20.00    -0.004 C 
HETATM    6  C5  UNL     1     -33.200   6.208   3.024  1.00 20.00    -0.031 C 
HETATM    7  C6  UNL     1     -32.829   4.902   2.401  1.00 20.00     0.036 C 
ENDBRANCH   3   5
TORSDOF 1
ENDMDL
