MODEL 1
REMARK VINA RESULT:      -4.6      0.000      0.000
REMARK  1 active torsions:
REMARK  status: ('A' for Active; 'I' for Inactive)
REMARK    1  A    between atoms: C3_3  and  C4_4 
ROOT
HETATM    1  C1  UNL     1     -32.273   7.863   3.395  1.00 20.00     0.087 C 
HETATM    2  C2  UNL     1     -32.547   8.245   4.736  1.00 20.00     0.093 C 
HETATM    3  C3  UNL     1     -33.639   7.810   5.379  1.00 20.00     0.011 C 
HETATM    4  N7  UNL     1     -32.046   7.552   2.301  1.00 20.00    -0.192 NA
ENDROOT
BRANCH   3   5
HETATM    5  C4  UNL     1     -34.613   6.931   4.770  1.00 20.00    -0.004 C 
HETATM    6  C5  UNL     1     -34.938   5.733   5.278  1.00 20.00    -0.031 C 
HETATM    7  C6  UNL     1     -34.338   5.171   6.524  1.00 20.00     0.036 C 
ENDBRANCH   3   5
TORSDOF 1
ENDMDL
MODEL 2
REMARK VINA RESULT:      -4.5      1.017      1.480
REMARK  1 active torsions:
REMARK  status: ('A' for Active; 'I' for Inactive)
REMARK    1  A    between atoms: C3_3  and  C4_4 
ROOT
HETATM    1  C1  UNL     1     -32.728   7.855   4.367  1.00 20.00     0.087 C 
HETATM    2  C2  UNL     1     -33.543   8.293   5.446  1.00 20.00     0.093 C 
HETATM    3  C3  UNL     1     -34.068   7.428   6.324  1.00 20.00     0.011 C 
HETATM    4  N7  UNL     1     -32.062   7.500   3.487  1.00 20.00    -0.192 NA
ENDROOT
BRANCH   3   5
HETATM    5  C4  UNL     1     -33.852   6.000   6.246  1.00 20.00    -0.004 C 
HETATM    6  C5  UNL     1     -34.549   5.197   5.430  1.00 20.00    -0.031 C 
HETATM    7  C6  UNL     1     -35.623   5.679   4.510  1.00 20.00     0.036 C 
ENDBRANCH   3   5
TORSDOF 1
ENDMDL
MODEL 3
REMARK VINA RESULT:      -4.3      2.037      3.611
REMARK  1 active torsions:
REMARK  status: ('A' for Active; 'I' for Inactive)
REMARK    1  A    between atoms: C3_3  and  C4_4 
ROOT
HETATM    1  C1  UNL     1     -34.444   5.112   5.481  1.00 20.00     0.087 C 
HETATM    2  C2  UNL     1     -34.342   6.222   6.364  1.00 20.00     0.093 C 
HETATM    3  C3  UNL     1     -34.020   7.444   5.918  1.00 20.00     0.011 C 
HETATM    4  N7  UNL     1     -34.529   4.205   4.764  1.00 20.00    -0.192 NA
ENDROOT
BRANCH   3   5
HETATM    5  C4  UNL     1     -33.755   7.729   4.525  1.00 20.00    -0.004 C 
HETATM    6  C5  UNL     1     -32.792   8.569   4.119  1.00 20.00    -0.031 C 
HETATM    7  C6  UNL     1     -31.886   9.304   5.052  1.00 20.00     0.036 C 
ENDBRANCH   3   5
TORSDOF 1
ENDMDL
MODEL 4
REMARK VINA RESULT:      -4.1      1.412      1.788
REMARK  1 active torsions:
REMARK  status: ('A' for Active; 'I' for Inactive)
REMARK    1  A    between atoms: C3_3  and  C4_4 
ROOT
HETATM    1  C1  UNL     1     -32.909   8.022   5.114  1.00 20.00     0.087 C 
HETATM    2  C2  UNL     1     -33.347   7.358   6.292  1.00 20.00     0.093 C 
HETATM    3  C3  UNL     1     -34.386   6.511   6.274  1.00 20.00     0.011 C 
HETATM    4  N7  UNL     1     -32.548   8.564   4.155  1.00 20.00    -0.192 NA
ENDROOT
BRANCH   3   5
HETATM    5  C4  UNL     1     -35.134   6.210   5.073  1.00 20.00    -0.004 C 
HETATM    6  C5  UNL     1     -34.864   5.159   4.286  1.00 20.00    -0.031 C 
HETATM    7  C6  UNL     1     -33.767   4.182   4.555  1.00 20.00     0.036 C 
ENDBRANCH   3   5
TORSDOF 1
ENDMDL
MODEL 5
REMARK VINA RESULT:      -4.0      1.421      1.940
REMARK  1 active torsions:
REMARK  status: ('A' for Active; 'I' for Inactive)
REMARK    1  A    between atoms: C3_3  and  C4_4 
ROOT
HETATM    1  C1  UNL     1     -32.526   6.755   2.981  1.00 20.00     0.087 C 
HETATM    2  C2  UNL     1     -32.905   5.385   2.998  1.00 20.00     0.093 C 
HETATM    3  C3  UNL     1     -34.013   4.972   3.628  1.00 20.00     0.011 C 
HETATM    4  N7  UNL     1     -32.215   7.872   2.965  1.00 20.00    -0.192 NA
ENDROOT
BRANCH   3   5
HETATM    5  C4  UNL     1     -34.899   5.873   4.332  1.00 20.00    -0.004 C 
HETATM    6  C5  UNL     1     -34.912   5.994   5.668  1.00 20.00    -0.031 C 
HETATM    7  C6  UNL     1     -34.018   5.219   6.579  1.00 20.00     0.036 C 
ENDBRANCH   3   5
TORSDOF 1
ENDMDL
MODEL 6
REMARK VINA RESULT:      -3.9      1.936      3.878
REMARK  1 active torsions:
REMARK  status: ('A' for Active; 'I' for Inactive)
REMARK    1  A    between atoms: C3_3  and  C4_4 
ROOT
HETATM    1  C1  UNL     1     -34.255   6.520   4.963  1.00 20.00     0.087 C 
HETATM    2  C2  UNL     1     -33.605   7.766   5.179  1.00 20.00     0.093 C 
HETATM    3  C3  UNL     1     -32.644   8.206   4.356  1.00 20.00     0.011 C 
HETATM    4  N7  UNL     1     -34.789   5.506   4.788  1.00 20.00    -0.192 NA
ENDROOT
BRANCH   3   5
HETATM    5  C4  UNL     1     -32.197   7.462   3.200  1.00 20.00    -0.004 C 
HETATM    6  C5  UNL     1     -32.252   7.946   1.950  1.00 20.00    -0.031 C 
HETATM    7  C6  UNL     1     -32.778   9.302   1.609  1.00 20.00     0.036 C 
ENDBRANCH   3   5
TORSDOF 1
ENDMDL
MODEL 7
REMARK VINA RESULT:      -3.9      1.635      2.991
REMARK  1 active torsions:
REMARK  status: ('A' for Active; 'I' for Inactive)
REMARK    1  A    between atoms: C3_3  and  C4_4 
ROOT
HETATM    1  C1  UNL     1     -33.912   5.180   3.737  1.00 20.00     0.087 C 
HETATM    2  C2  UNL     1     -34.989   5.304   4.657  1.00 20.00     0.093 C 
HETATM    3  C3  UNL     1     -34.839   5.931   5.831  1.00 20.00     0.011 C 
HETATM    4  N7  UNL     1     -33.035   5.079   2.985  1.00 20.00    -0.192 NA
ENDROOT
BRANCH   3   5
HETATM    5  C4  UNL     1     -33.589   6.522   6.254  1.00 20.00    -0.004 C 
HETATM    6  C5  UNL     1     -33.147   7.704   5.800  1.00 20.00    -0.031 C 
HETATM    7  C6  UNL     1     -33.890   8.544   4.813  1.00 20.00     0.036 C 
ENDBRANCH   3   5
TORSDOF 1
ENDMDL
MODEL 8
REMARK VINA RESULT:      -3.8      1.569      2.548
REMARK  1 active torsions:
REMARK  status: ('A' for Active; 'I' for Inactive)
REMARK    1  A    between atoms: C3_3  and  C4_4 
ROOT
HETATM    1  C1  UNL     1     -32.529   8.719   1.404  1.00 20.00     0.087 C 
HETATM    2  C2  UNL     1     -32.210   7.511   2.083  1.00 20.00     0.093 C 
HETATM    3  C3  UNL     1     -32.284   7.417   3.417  1.00 20.00     0.011 C 
HETATM    4  N7  UNL     1     -32.789   9.702   0.847  1.00 20.00    -0.192 NA
ENDROOT
BRANCH   3   5
HETATM    5  C4  UNL     1     -32.687   8.520   4.262  1.00 20.00    -0.004 C 
HETATM    6  C5  UNL     1     -33.408   8.360   5.381  1.00 20.00    -0.031 C 
HETATM    7  C6  UNL     1     -33.875   7.033   5.884  1.00 20.00     0.036 C 
ENDBRANCH   3   5
TORSDOF 1
ENDMDL
MODEL 9
REMARK VINA RESULT:      -3.7      2.432      4.118
REMARK  1 active torsions:
REMARK  status: ('A' for Active; 'I' for Inactive)
REMARK    1  A    between atoms: C3_3  and  C4_4 
ROOT
HETATM    1  C1  UNL     1     -34.078   4.987   4.096  1.00 20.00     0.087 C 
HETATM    2  C2  UNL     1     -33.255   5.206   2.958  1.00 20.00     0.093 C 
HETATM    3  C3  UNL     1     -32.547   6.334   2.813  1.00 20.00     0.011 C 
HETATM    4  N7  UNL     1     -34.749   4.804   5.024  1.00 20.00    -0.192 NA
ENDROOT
BRANCH   3   5
HETATM    5  C4  UNL     1     -32.563   7.404   3.786  1.00 20.00    -0.004 C 
HETATM    6  C5  UNL     1     -32.651   8.700   3.450  1.00 20.00    -0.031 C 
HETATM    7  C6  UNL     1     -32.741   9.186   2.041  1.00 20.00     0.036 C 
ENDBRANCH   3   5
TORSDOF 1
ENDMDL
