MODEL 1
REMARK VINA RESULT:      -4.6      0.000      0.000
REMARK  1 active torsions:
REMARK  status: ('A' for Active; 'I' for Inactive)
REMARK    1  A    between atoms: C3_3  and  C5_5 
ROOT
HETATM    1  C1  UNL     1     -33.090   8.185   5.398  1.00 20.00     0.025 A 
HETATM    2  C2  UNL     1     -32.487   8.665   4.199  1.00 20.00     0.028 A 
HETATM    3  C3  UNL     1     -33.660   6.942   5.229  1.00 20.00     0.089 A 
HETATM    4  C4  UNL     1     -32.618   7.771   3.160  1.00 20.00     0.052 A 
HETATM    5  S9  UNL     1     -33.466   6.360   3.631  1.00 20.00    -0.078 SA
HETATM    6 BR10 UNL     1     -31.946   8.055   1.407  1.00 20.00    -0.043 Br
ENDROOT
BRANCH   3   7
HETATM    7  C5  UNL     1     -34.375   6.115   6.224  1.00 20.00     0.423 C 
HETATM    8  F6  UNL     1     -35.462   5.448   5.722  1.00 20.00    -0.166 F 
HETATM    9  F7  UNL     1     -33.603   5.137   6.796  1.00 20.00    -0.166 F 
HETATM   10  F8  UNL     1     -34.862   6.843   7.278  1.00 20.00    -0.166 F 
ENDBRANCH   3   7
TORSDOF 1
ENDMDL
MODEL 2
REMARK VINA RESULT:      -4.4      1.164      2.006
REMARK  1 active torsions:
REMARK  status: ('A' for Active; 'I' for Inactive)
REMARK    1  A    between atoms: C3_3  and  C5_5 
ROOT
HETATM    1  C1  UNL     1     -33.613   5.251   3.849  1.00 20.00     0.025 A 
HETATM    2  C2  UNL     1     -33.026   5.806   2.676  1.00 20.00     0.028 A 
HETATM    3  C3  UNL     1     -33.749   6.185   4.852  1.00 20.00     0.089 A 
HETATM    4  C4  UNL     1     -32.735   7.144   2.826  1.00 20.00     0.052 A 
HETATM    5  S9  UNL     1     -33.170   7.724   4.377  1.00 20.00    -0.078 SA
HETATM    6 BR10 UNL     1     -31.946   8.230   1.483  1.00 20.00    -0.043 Br
ENDROOT
BRANCH   3   7
HETATM    7  C5  UNL     1     -34.308   6.004   6.209  1.00 20.00     0.423 C 
HETATM    8  F6  UNL     1     -33.515   5.267   7.049  1.00 20.00    -0.166 F 
HETATM    9  F7  UNL     1     -34.529   7.177   6.883  1.00 20.00    -0.166 F 
HETATM   10  F8  UNL     1     -35.518   5.362   6.210  1.00 20.00    -0.166 F 
ENDBRANCH   3   7
TORSDOF 1
ENDMDL
MODEL 3
REMARK VINA RESULT:      -3.9      9.712     10.131
REMARK  1 active torsions:
REMARK  status: ('A' for Active; 'I' for Inactive)
REMARK    1  A    between atoms: C3_3  and  C5_5 
ROOT
HETATM    1  C1  UNL     1     -41.211  13.406   4.910  1.00 20.00     0.025 A 
HETATM    2  C2  UNL     1     -42.073  14.491   5.240  1.00 20.00     0.028 A 
HETATM    3  C3  UNL     1     -40.333  13.114   5.931  1.00 20.00     0.089 A 
HETATM    4  C4  UNL     1     -41.824  14.986   6.501  1.00 20.00     0.052 A 
HETATM    5  S9  UNL     1     -40.552  14.145   7.280  1.00 20.00    -0.078 SA
HETATM    6 BR10 UNL     1     -42.767  16.430   7.295  1.00 20.00    -0.043 Br
ENDROOT
BRANCH   3   7
HETATM    7  C5  UNL     1     -39.289  12.067   5.976  1.00 20.00     0.423 C 
HETATM    8  F6  UNL     1     -38.253  12.271   5.101  1.00 20.00    -0.166 F 
HETATM    9  F7  UNL     1     -38.686  11.932   7.199  1.00 20.00    -0.166 F 
HETATM   10  F8  UNL     1     -39.766  10.819   5.676  1.00 20.00    -0.166 F 
ENDBRANCH   3   7
TORSDOF 1
ENDMDL
MODEL 4
REMARK VINA RESULT:      -3.9      9.714     10.103
REMARK  1 active torsions:
REMARK  status: ('A' for Active; 'I' for Inactive)
REMARK    1  A    between atoms: C3_3  and  C5_5 
ROOT
HETATM    1  C1  UNL     1     -41.220  13.414   4.913  1.00 20.00     0.025 A 
HETATM    2  C2  UNL     1     -42.076  14.501   5.252  1.00 20.00     0.028 A 
HETATM    3  C3  UNL     1     -40.338  13.113   5.927  1.00 20.00     0.089 A 
HETATM    4  C4  UNL     1     -41.816  14.990   6.513  1.00 20.00     0.052 A 
HETATM    5  S9  UNL     1     -40.543  14.139   7.281  1.00 20.00    -0.078 SA
HETATM    6 BR10 UNL     1     -42.747  16.435   7.320  1.00 20.00    -0.043 Br
ENDROOT
BRANCH   3   7
HETATM    7  C5  UNL     1     -39.298  12.061   5.960  1.00 20.00     0.423 C 
HETATM    8  F6  UNL     1     -39.761  10.806   5.661  1.00 20.00    -0.166 F 
HETATM    9  F7  UNL     1     -38.266  12.267   5.082  1.00 20.00    -0.166 F 
HETATM   10  F8  UNL     1     -38.700  11.936   7.186  1.00 20.00    -0.166 F 
ENDBRANCH   3   7
TORSDOF 1
ENDMDL
MODEL 5
REMARK VINA RESULT:      -3.7     12.603     13.400
REMARK  1 active torsions:
REMARK  status: ('A' for Active; 'I' for Inactive)
REMARK    1  A    between atoms: C3_3  and  C5_5 
ROOT
HETATM    1  C1  UNL     1     -33.394  15.356  -3.877  1.00 20.00     0.025 A 
HETATM    2  C2  UNL     1     -33.763  14.928  -5.184  1.00 20.00     0.028 A 
HETATM    3  C3  UNL     1     -33.846  16.628  -3.601  1.00 20.00     0.089 A 
HETATM    4  C4  UNL     1     -34.485  15.887  -5.858  1.00 20.00     0.052 A 
HETATM    5  S9  UNL     1     -34.713  17.299  -4.916  1.00 20.00    -0.078 SA
HETATM    6 BR10 UNL     1     -35.154  15.686  -7.625  1.00 20.00    -0.043 Br
ENDROOT
BRANCH   3   7
HETATM    7  C5  UNL     1     -33.670  17.420  -2.365  1.00 20.00     0.423 C 
HETATM    8  F6  UNL     1     -32.478  18.091  -2.294  1.00 20.00    -0.166 F 
HETATM    9  F7  UNL     1     -34.623  18.387  -2.181  1.00 20.00    -0.166 F 
HETATM   10  F8  UNL     1     -33.716  16.657  -1.227  1.00 20.00    -0.166 F 
ENDBRANCH   3   7
TORSDOF 1
ENDMDL
MODEL 6
REMARK VINA RESULT:      -3.7     12.584     13.349
REMARK  1 active torsions:
REMARK  status: ('A' for Active; 'I' for Inactive)
REMARK    1  A    between atoms: C3_3  and  C5_5 
ROOT
HETATM    1  C1  UNL     1     -33.388  15.354  -3.855  1.00 20.00     0.025 A 
HETATM    2  C2  UNL     1     -33.756  14.926  -5.163  1.00 20.00     0.028 A 
HETATM    3  C3  UNL     1     -33.848  16.623  -3.577  1.00 20.00     0.089 A 
HETATM    4  C4  UNL     1     -34.485  15.882  -5.834  1.00 20.00     0.052 A 
HETATM    5  S9  UNL     1     -34.720  17.291  -4.889  1.00 20.00    -0.078 SA
HETATM    6 BR10 UNL     1     -35.154  15.680  -7.600  1.00 20.00    -0.043 Br
ENDROOT
BRANCH   3   7
HETATM    7  C5  UNL     1     -33.675  17.414  -2.339  1.00 20.00     0.423 C 
HETATM    8  F6  UNL     1     -34.628  18.381  -2.154  1.00 20.00    -0.166 F 
HETATM    9  F7  UNL     1     -33.712  16.668  -1.190  1.00 20.00    -0.166 F 
HETATM   10  F8  UNL     1     -32.480  18.081  -2.291  1.00 20.00    -0.166 F 
ENDBRANCH   3   7
TORSDOF 1
ENDMDL
MODEL 7
REMARK VINA RESULT:      -3.7     13.116     13.881
REMARK  1 active torsions:
REMARK  status: ('A' for Active; 'I' for Inactive)
REMARK    1  A    between atoms: C3_3  and  C5_5 
ROOT
HETATM    1  C1  UNL     1     -33.463  15.526  -3.796  1.00 20.00     0.025 A 
HETATM    2  C2  UNL     1     -33.371  16.438  -2.706  1.00 20.00     0.028 A 
HETATM    3  C3  UNL     1     -34.256  16.012  -4.812  1.00 20.00     0.089 A 
HETATM    4  C4  UNL     1     -34.095  17.588  -2.931  1.00 20.00     0.052 A 
HETATM    5  S9  UNL     1     -34.883  17.563  -4.451  1.00 20.00    -0.078 SA
HETATM    6 BR10 UNL     1     -34.217  19.038  -1.710  1.00 20.00    -0.043 Br
ENDROOT
BRANCH   3   7
HETATM    7  C5  UNL     1     -34.597  15.370  -6.101  1.00 20.00     0.423 C 
HETATM    8  F6  UNL     1     -35.468  14.319  -5.990  1.00 20.00    -0.166 F 
HETATM    9  F7  UNL     1     -35.186  16.213  -7.006  1.00 20.00    -0.166 F 
HETATM   10  F8  UNL     1     -33.505  14.858  -6.751  1.00 20.00    -0.166 F 
ENDBRANCH   3   7
TORSDOF 1
ENDMDL
MODEL 8
REMARK VINA RESULT:      -3.7      9.724     10.128
REMARK  1 active torsions:
REMARK  status: ('A' for Active; 'I' for Inactive)
REMARK    1  A    between atoms: C3_3  and  C5_5 
ROOT
HETATM    1  C1  UNL     1     -40.131  13.641   7.210  1.00 20.00     0.025 A 
HETATM    2  C2  UNL     1     -41.111  14.627   7.523  1.00 20.00     0.028 A 
HETATM    3  C3  UNL     1     -40.287  13.144   5.935  1.00 20.00     0.089 A 
HETATM    4  C4  UNL     1     -41.978  14.846   6.475  1.00 20.00     0.052 A 
HETATM    5  S9  UNL     1     -41.609  13.865   5.122  1.00 20.00    -0.078 SA
HETATM    6 BR10 UNL     1     -43.417  16.085   6.512  1.00 20.00    -0.043 Br
ENDROOT
BRANCH   3   7
HETATM    7  C5  UNL     1     -39.478  12.116   5.243  1.00 20.00     0.423 C 
HETATM    8  F6  UNL     1     -39.633  12.104   3.882  1.00 20.00    -0.166 F 
HETATM    9  F7  UNL     1     -38.128  12.245   5.436  1.00 20.00    -0.166 F 
HETATM   10  F8  UNL     1     -39.773  10.840   5.645  1.00 20.00    -0.166 F 
ENDBRANCH   3   7
TORSDOF 1
ENDMDL
MODEL 9
REMARK VINA RESULT:      -3.7     13.153     13.941
REMARK  1 active torsions:
REMARK  status: ('A' for Active; 'I' for Inactive)
REMARK    1  A    between atoms: C3_3  and  C5_5 
ROOT
HETATM    1  C1  UNL     1     -34.104  15.262  -6.562  1.00 20.00     0.025 A 
HETATM    2  C2  UNL     1     -34.701  16.188  -7.465  1.00 20.00     0.028 A 
HETATM    3  C3  UNL     1     -34.148  15.708  -5.260  1.00 20.00     0.089 A 
HETATM    4  C4  UNL     1     -35.179  17.306  -6.820  1.00 20.00     0.052 A 
HETATM    5  S9  UNL     1     -34.907  17.237  -5.131  1.00 20.00    -0.078 SA
HETATM    6 BR10 UNL     1     -36.040  18.761  -7.685  1.00 20.00    -0.043 Br
ENDROOT
BRANCH   3   7
HETATM    7  C5  UNL     1     -33.638  15.043  -4.041  1.00 20.00     0.423 C 
HETATM    8  F6  UNL     1     -32.336  14.625  -4.133  1.00 20.00    -0.166 F 
HETATM    9  F7  UNL     1     -33.669  15.830  -2.920  1.00 20.00    -0.166 F 
HETATM   10  F8  UNL     1     -34.348  13.920  -3.705  1.00 20.00    -0.166 F 
ENDBRANCH   3   7
TORSDOF 1
ENDMDL
