MODEL 1
REMARK VINA RESULT:      -4.7      0.000      0.000
REMARK  2 active torsions:
REMARK  status: ('A' for Active; 'I' for Inactive)
REMARK    1  A    between atoms: C1_1  and  C6_6 
REMARK    2  A    between atoms: C5_5  and  N7_7 
ROOT
HETATM    1  C1  UNL     1     -32.979   6.585   3.454  1.00 20.00     0.108 C 
HETATM    2  C2  UNL     1     -32.890   5.320   2.637  1.00 20.00     0.075 C 
HETATM    3  N7  UNL     1     -33.702   6.724   4.514  1.00 20.00    -0.285 NA
ENDROOT
BRANCH   1   4
HETATM    4  C6  UNL     1     -32.154   7.755   2.998  1.00 20.00     0.430 C 
HETATM    5  F8  UNL     1     -30.983   7.837   3.679  1.00 20.00    -0.165 F 
HETATM    6  F9  UNL     1     -32.790   8.943   3.164  1.00 20.00    -0.165 F 
HETATM    7  F10 UNL     1     -31.838   7.661   1.681  1.00 20.00    -0.165 F 
ENDBRANCH   1   4
BRANCH   3   8
HETATM    8  C5  UNL     1     -34.495   5.590   4.966  1.00 20.00     0.100 C 
HETATM    9  C3  UNL     1     -34.509   5.574   6.487  1.00 20.00     0.034 C 
HETATM   10  C4  UNL     1     -35.897   5.707   4.389  1.00 20.00     0.034 C 
ENDBRANCH   3   8
TORSDOF 2
ENDMDL
MODEL 2
REMARK VINA RESULT:      -4.6      2.920      4.125
REMARK  2 active torsions:
REMARK  status: ('A' for Active; 'I' for Inactive)
REMARK    1  A    between atoms: C1_1  and  C6_6 
REMARK    2  A    between atoms: C5_5  and  N7_7 
ROOT
HETATM    1  C1  UNL     1     -33.764   6.312   4.187  1.00 20.00     0.108 C 
HETATM    2  C2  UNL     1     -32.974   5.594   3.121  1.00 20.00     0.075 C 
HETATM    3  N7  UNL     1     -33.519   7.509   4.600  1.00 20.00    -0.285 NA
ENDROOT
BRANCH   1   4
HETATM    4  C6  UNL     1     -34.925   5.574   4.795  1.00 20.00     0.430 C 
HETATM    5  F8  UNL     1     -36.100   5.929   4.216  1.00 20.00    -0.165 F 
HETATM    6  F9  UNL     1     -35.056   5.806   6.126  1.00 20.00    -0.165 F 
HETATM    7  F10 UNL     1     -34.799   4.231   4.641  1.00 20.00    -0.165 F 
ENDBRANCH   1   4
BRANCH   3   8
HETATM    8  C5  UNL     1     -32.403   8.232   4.007  1.00 20.00     0.100 C 
HETATM    9  C3  UNL     1     -32.865   8.871   2.706  1.00 20.00     0.034 C 
HETATM   10  C4  UNL     1     -31.904   9.270   5.000  1.00 20.00     0.034 C 
ENDBRANCH   3   8
TORSDOF 2
ENDMDL
MODEL 3
REMARK VINA RESULT:      -4.3      2.981      4.325
REMARK  2 active torsions:
REMARK  status: ('A' for Active; 'I' for Inactive)
REMARK    1  A    between atoms: C1_1  and  C6_6 
REMARK    2  A    between atoms: C5_5  and  N7_7 
ROOT
HETATM    1  C1  UNL     1     -33.826   6.495   4.909  1.00 20.00     0.108 C 
HETATM    2  C2  UNL     1     -33.358   7.216   6.148  1.00 20.00     0.075 C 
HETATM    3  N7  UNL     1     -33.355   6.692   3.724  1.00 20.00    -0.285 NA
ENDROOT
BRANCH   1   4
HETATM    4  C6  UNL     1     -34.910   5.468   5.081  1.00 20.00     0.430 C 
HETATM    5  F8  UNL     1     -36.051   5.836   4.445  1.00 20.00    -0.165 F 
HETATM    6  F9  UNL     1     -35.235   5.260   6.383  1.00 20.00    -0.165 F 
HETATM    7  F10 UNL     1     -34.545   4.264   4.570  1.00 20.00    -0.165 F 
ENDBRANCH   1   4
BRANCH   3   8
HETATM    8  C5  UNL     1     -32.297   7.677   3.553  1.00 20.00     0.100 C 
HETATM    9  C3  UNL     1     -31.935   7.761   2.078  1.00 20.00     0.034 C 
HETATM   10  C4  UNL     1     -32.778   9.015   4.094  1.00 20.00     0.034 C 
ENDBRANCH   3   8
TORSDOF 2
ENDMDL
MODEL 4
REMARK VINA RESULT:      -4.3      2.982      4.327
REMARK  2 active torsions:
REMARK  status: ('A' for Active; 'I' for Inactive)
REMARK    1  A    between atoms: C1_1  and  C6_6 
REMARK    2  A    between atoms: C5_5  and  N7_7 
ROOT
HETATM    1  C1  UNL     1     -33.830   6.503   4.902  1.00 20.00     0.108 C 
HETATM    2  C2  UNL     1     -33.353   7.206   6.149  1.00 20.00     0.075 C 
HETATM    3  N7  UNL     1     -33.362   6.712   3.718  1.00 20.00    -0.285 NA
ENDROOT
BRANCH   1   4
HETATM    4  C6  UNL     1     -34.920   5.481   5.065  1.00 20.00     0.430 C 
HETATM    5  F8  UNL     1     -34.551   4.274   4.565  1.00 20.00    -0.165 F 
HETATM    6  F9  UNL     1     -36.070   5.833   4.436  1.00 20.00    -0.165 F 
HETATM    7  F10 UNL     1     -35.232   5.287   6.373  1.00 20.00    -0.165 F 
ENDBRANCH   1   4
BRANCH   3   8
HETATM    8  C5  UNL     1     -32.300   7.694   3.556  1.00 20.00     0.100 C 
HETATM    9  C3  UNL     1     -31.925   7.777   2.084  1.00 20.00     0.034 C 
HETATM   10  C4  UNL     1     -32.779   9.033   4.093  1.00 20.00     0.034 C 
ENDBRANCH   3   8
TORSDOF 2
ENDMDL
MODEL 5
REMARK VINA RESULT:      -4.3      1.421      2.297
REMARK  2 active torsions:
REMARK  status: ('A' for Active; 'I' for Inactive)
REMARK    1  A    between atoms: C1_1  and  C6_6 
REMARK    2  A    between atoms: C5_5  and  N7_7 
ROOT
HETATM    1  C1  UNL     1     -33.271   7.561   4.937  1.00 20.00     0.108 C 
HETATM    2  C2  UNL     1     -33.738   7.814   6.349  1.00 20.00     0.075 C 
HETATM    3  N7  UNL     1     -33.640   6.560   4.211  1.00 20.00    -0.285 NA
ENDROOT
BRANCH   1   4
HETATM    4  C6  UNL     1     -32.318   8.559   4.341  1.00 20.00     0.430 C 
HETATM    5  F8  UNL     1     -32.109   9.610   5.174  1.00 20.00    -0.165 F 
HETATM    6  F9  UNL     1     -32.761   9.071   3.164  1.00 20.00    -0.165 F 
HETATM    7  F10 UNL     1     -31.103   8.004   4.094  1.00 20.00    -0.165 F 
ENDBRANCH   1   4
BRANCH   3   8
HETATM    8  C5  UNL     1     -34.571   5.597   4.780  1.00 20.00     0.100 C 
HETATM    9  C3  UNL     1     -35.955   5.847   4.199  1.00 20.00     0.034 C 
HETATM   10  C4  UNL     1     -34.076   4.192   4.474  1.00 20.00     0.034 C 
ENDBRANCH   3   8
TORSDOF 2
ENDMDL
MODEL 6
REMARK VINA RESULT:      -4.1      2.571      3.941
REMARK  2 active torsions:
REMARK  status: ('A' for Active; 'I' for Inactive)
REMARK    1  A    between atoms: C1_1  and  C6_6 
REMARK    2  A    between atoms: C5_5  and  N7_7 
ROOT
HETATM    1  C1  UNL     1     -34.128   6.547   4.906  1.00 20.00     0.108 C 
HETATM    2  C2  UNL     1     -35.362   5.876   4.358  1.00 20.00     0.075 C 
HETATM    3  N7  UNL     1     -33.095   6.871   4.204  1.00 20.00    -0.285 NA
ENDROOT
BRANCH   1   4
HETATM    4  C6  UNL     1     -34.118   6.869   6.375  1.00 20.00     0.430 C 
HETATM    5  F8  UNL     1     -35.041   6.138   7.052  1.00 20.00    -0.165 F 
HETATM    6  F9  UNL     1     -34.387   8.175   6.629  1.00 20.00    -0.165 F 
HETATM    7  F10 UNL     1     -32.912   6.600   6.938  1.00 20.00    -0.165 F 
ENDBRANCH   1   4
BRANCH   3   8
HETATM    8  C5  UNL     1     -33.104   6.572   2.780  1.00 20.00     0.100 C 
HETATM    9  C3  UNL     1     -32.132   7.505   2.074  1.00 20.00     0.034 C 
HETATM   10  C4  UNL     1     -32.731   5.111   2.580  1.00 20.00     0.034 C 
ENDBRANCH   3   8
TORSDOF 2
ENDMDL
MODEL 7
REMARK VINA RESULT:      -4.1      2.791      4.180
REMARK  2 active torsions:
REMARK  status: ('A' for Active; 'I' for Inactive)
REMARK    1  A    between atoms: C1_1  and  C6_6 
REMARK    2  A    between atoms: C5_5  and  N7_7 
ROOT
HETATM    1  C1  UNL     1     -34.304   6.202   4.964  1.00 20.00     0.108 C 
HETATM    2  C2  UNL     1     -35.589   5.917   4.227  1.00 20.00     0.075 C 
HETATM    3  N7  UNL     1     -33.179   6.480   4.398  1.00 20.00    -0.285 NA
ENDROOT
BRANCH   1   4
HETATM    4  C6  UNL     1     -34.354   6.170   6.467  1.00 20.00     0.430 C 
HETATM    5  F8  UNL     1     -34.371   7.421   6.993  1.00 20.00    -0.165 F 
HETATM    6  F9  UNL     1     -33.291   5.527   7.014  1.00 20.00    -0.165 F 
HETATM    7  F10 UNL     1     -35.469   5.538   6.916  1.00 20.00    -0.165 F 
ENDBRANCH   1   4
BRANCH   3   8
HETATM    8  C5  UNL     1     -33.128   6.523   2.944  1.00 20.00     0.100 C 
HETATM    9  C3  UNL     1     -32.092   7.553   2.517  1.00 20.00     0.034 C 
HETATM   10  C4  UNL     1     -32.792   5.135   2.420  1.00 20.00     0.034 C 
ENDBRANCH   3   8
TORSDOF 2
ENDMDL
MODEL 8
REMARK VINA RESULT:      -4.1      9.222     10.185
REMARK  2 active torsions:
REMARK  status: ('A' for Active; 'I' for Inactive)
REMARK    1  A    between atoms: C1_1  and  C6_6 
REMARK    2  A    between atoms: C5_5  and  N7_7 
ROOT
HETATM    1  C1  UNL     1     -40.405  13.110   5.917  1.00 20.00     0.108 C 
HETATM    2  C2  UNL     1     -41.390  13.779   4.991  1.00 20.00     0.075 C 
HETATM    3  N7  UNL     1     -40.288  13.371   7.175  1.00 20.00    -0.285 NA
ENDROOT
BRANCH   1   4
HETATM    4  C6  UNL     1     -39.510  12.059   5.323  1.00 20.00     0.430 C 
HETATM    5  F8  UNL     1     -39.776  10.830   5.834  1.00 20.00    -0.165 F 
HETATM    6  F9  UNL     1     -38.193  12.302   5.547  1.00 20.00    -0.165 F 
HETATM    7  F10 UNL     1     -39.669  11.970   3.977  1.00 20.00    -0.165 F 
ENDBRANCH   1   4
BRANCH   3   8
HETATM    8  C5  UNL     1     -41.160  14.380   7.758  1.00 20.00     0.100 C 
HETATM    9  C3  UNL     1     -42.222  13.688   8.600  1.00 20.00     0.034 C 
HETATM   10  C4  UNL     1     -40.320  15.340   8.587  1.00 20.00     0.034 C 
ENDBRANCH   3   8
TORSDOF 2
ENDMDL
MODEL 9
REMARK VINA RESULT:      -4.0     11.549     12.374
REMARK  2 active torsions:
REMARK  status: ('A' for Active; 'I' for Inactive)
REMARK    1  A    between atoms: C1_1  and  C6_6 
REMARK    2  A    between atoms: C5_5  and  N7_7 
ROOT
HETATM    1  C1  UNL     1     -33.744  16.393  -3.686  1.00 20.00     0.108 C 
HETATM    2  C2  UNL     1     -34.709  17.270  -4.443  1.00 20.00     0.075 C 
HETATM    3  N7  UNL     1     -33.227  16.687  -2.541  1.00 20.00    -0.285 NA
ENDROOT
BRANCH   1   4
HETATM    4  C6  UNL     1     -33.374  15.078  -4.315  1.00 20.00     0.430 C 
HETATM    5  F8  UNL     1     -32.066  14.778  -4.114  1.00 20.00    -0.165 F 
HETATM    6  F9  UNL     1     -33.579  15.062  -5.657  1.00 20.00    -0.165 F 
HETATM    7  F10 UNL     1     -34.099  14.054  -3.796  1.00 20.00    -0.165 F 
ENDBRANCH   1   4
BRANCH   3   8
HETATM    8  C5  UNL     1     -33.590  17.954  -1.922  1.00 20.00     0.100 C 
HETATM    9  C3  UNL     1     -33.843  17.724  -0.440  1.00 20.00     0.034 C 
HETATM   10  C4  UNL     1     -32.469  18.955  -2.155  1.00 20.00     0.034 C 
ENDBRANCH   3   8
TORSDOF 2
ENDMDL
