MODEL 1
REMARK VINA RESULT:      -3.0      0.000      0.000
REMARK  2 active torsions:
REMARK  status: ('A' for Active; 'I' for Inactive)
REMARK    1  A    between atoms: C1_1  and  N7_7 
REMARK    2  A    between atoms: N6_6  and  N8_8 
ROOT
HETATM    1  C1  UNL     1     -32.916  17.679  -1.972  1.00 20.00     0.220 C 
HETATM    2  N6  UNL     1     -33.443  16.544  -2.307  1.00 20.00    -0.195 NA
ENDROOT
BRANCH   1   3
HETATM    3  N7  UNL     1     -32.726  18.188  -0.698  1.00 20.00    -0.383 N 
HETATM    4  C2  UNL     1     -31.401  18.581  -0.238  1.00 20.00     0.150 C 
HETATM    5  C3  UNL     1     -33.772  18.106   0.310  1.00 20.00     0.150 C 
ENDBRANCH   1   3
BRANCH   2   6
HETATM    6  N8  UNL     1     -33.469  16.352  -3.652  1.00 20.00    -0.216 NA
HETATM    7  C4  UNL     1     -33.649  14.957  -4.077  1.00 20.00     0.138 C 
HETATM    8  C5  UNL     1     -34.457  17.187  -4.340  1.00 20.00     0.138 C 
ENDBRANCH   2   6
TORSDOF 2
ENDMDL
MODEL 2
REMARK VINA RESULT:      -2.8      0.759      4.223
REMARK  2 active torsions:
REMARK  status: ('A' for Active; 'I' for Inactive)
REMARK    1  A    between atoms: C1_1  and  N7_7 
REMARK    2  A    between atoms: N6_6  and  N8_8 
ROOT
HETATM    1  C1  UNL     1     -33.331  16.644  -2.614  1.00 20.00     0.220 C 
HETATM    2  N6  UNL     1     -33.856  17.571  -1.876  1.00 20.00    -0.195 NA
ENDROOT
BRANCH   1   3
HETATM    3  N7  UNL     1     -33.764  16.187  -3.846  1.00 20.00    -0.383 N 
HETATM    4  C2  UNL     1     -34.606  17.015  -4.699  1.00 20.00     0.150 C 
HETATM    5  C3  UNL     1     -33.623  14.789  -4.225  1.00 20.00     0.150 C 
ENDBRANCH   1   3
BRANCH   2   6
HETATM    6  N8  UNL     1     -33.169  17.778  -0.722  1.00 20.00    -0.216 NA
HETATM    7  C4  UNL     1     -31.924  18.544  -0.869  1.00 20.00     0.138 C 
HETATM    8  C5  UNL     1     -33.978  18.389   0.336  1.00 20.00     0.138 C 
ENDBRANCH   2   6
TORSDOF 2
ENDMDL
MODEL 3
REMARK VINA RESULT:      -2.8     11.953     12.452
REMARK  2 active torsions:
REMARK  status: ('A' for Active; 'I' for Inactive)
REMARK    1  A    between atoms: C1_1  and  N7_7 
REMARK    2  A    between atoms: N6_6  and  N8_8 
ROOT
HETATM    1  C1  UNL     1     -40.519  14.571   7.532  1.00 20.00     0.220 C 
HETATM    2  N6  UNL     1     -40.236  13.316   7.690  1.00 20.00    -0.195 NA
ENDROOT
BRANCH   1   3
HETATM    3  N7  UNL     1     -40.393  15.596   8.453  1.00 20.00    -0.383 N 
HETATM    4  C2  UNL     1     -40.162  15.313   9.863  1.00 20.00     0.150 C 
HETATM    5  C3  UNL     1     -40.742  16.967   8.109  1.00 20.00     0.150 C 
ENDBRANCH   1   3
BRANCH   2   6
HETATM    6  N8  UNL     1     -40.471  12.578   6.573  1.00 20.00    -0.216 NA
HETATM    7  C4  UNL     1     -41.098  13.311   5.465  1.00 20.00     0.138 C 
HETATM    8  C5  UNL     1     -39.281  11.888   6.069  1.00 20.00     0.138 C 
ENDBRANCH   2   6
TORSDOF 2
ENDMDL
MODEL 4
REMARK VINA RESULT:      -2.8      0.755      4.163
REMARK  2 active torsions:
REMARK  status: ('A' for Active; 'I' for Inactive)
REMARK    1  A    between atoms: C1_1  and  N7_7 
REMARK    2  A    between atoms: N6_6  and  N8_8 
ROOT
HETATM    1  C1  UNL     1     -33.293  16.696  -2.514  1.00 20.00     0.220 C 
HETATM    2  N6  UNL     1     -33.910  17.517  -1.724  1.00 20.00    -0.195 NA
ENDROOT
BRANCH   1   3
HETATM    3  N7  UNL     1     -33.717  16.210  -3.738  1.00 20.00    -0.383 N 
HETATM    4  C2  UNL     1     -33.235  14.934  -4.248  1.00 20.00     0.150 C 
HETATM    5  C3  UNL     1     -34.444  17.056  -4.674  1.00 20.00     0.150 C 
ENDBRANCH   1   3
BRANCH   2   6
HETATM    6  N8  UNL     1     -33.202  17.796  -0.597  1.00 20.00    -0.216 NA
HETATM    7  C4  UNL     1     -31.950  18.532  -0.816  1.00 20.00     0.138 C 
HETATM    8  C5  UNL     1     -33.986  18.492   0.426  1.00 20.00     0.138 C 
ENDBRANCH   2   6
TORSDOF 2
ENDMDL
MODEL 5
REMARK VINA RESULT:      -2.8     12.021     12.688
REMARK  2 active torsions:
REMARK  status: ('A' for Active; 'I' for Inactive)
REMARK    1  A    between atoms: C1_1  and  N7_7 
REMARK    2  A    between atoms: N6_6  and  N8_8 
ROOT
HETATM    1  C1  UNL     1     -33.289   6.905   4.420  1.00 20.00     0.220 C 
HETATM    2  N6  UNL     1     -34.560   6.659   4.492  1.00 20.00    -0.195 NA
ENDROOT
BRANCH   1   3
HETATM    3  N7  UNL     1     -32.667   8.029   3.906  1.00 20.00    -0.383 N 
HETATM    4  C2  UNL     1     -32.206   8.067   2.525  1.00 20.00     0.150 C 
HETATM    5  C3  UNL     1     -32.214   9.105   4.777  1.00 20.00     0.150 C 
ENDBRANCH   1   3
BRANCH   2   6
HETATM    6  N8  UNL     1     -34.832   5.457   5.066  1.00 20.00    -0.216 NA
HETATM    7  C4  UNL     1     -34.128   4.312   4.472  1.00 20.00     0.138 C 
HETATM    8  C5  UNL     1     -34.622   5.442   6.515  1.00 20.00     0.138 C 
ENDBRANCH   2   6
TORSDOF 2
ENDMDL
MODEL 6
REMARK VINA RESULT:      -2.8      1.820      4.739
REMARK  2 active torsions:
REMARK  status: ('A' for Active; 'I' for Inactive)
REMARK    1  A    between atoms: C1_1  and  N7_7 
REMARK    2  A    between atoms: N6_6  and  N8_8 
ROOT
HETATM    1  C1  UNL     1     -34.064  16.164  -4.602  1.00 20.00     0.220 C 
HETATM    2  N6  UNL     1     -33.301  15.928  -3.581  1.00 20.00    -0.195 NA
ENDROOT
BRANCH   1   3
HETATM    3  N7  UNL     1     -34.565  15.256  -5.519  1.00 20.00    -0.383 N 
HETATM    4  C2  UNL     1     -34.087  15.237  -6.895  1.00 20.00     0.150 C 
HETATM    5  C3  UNL     1     -35.757  14.473  -5.230  1.00 20.00     0.150 C 
ENDBRANCH   1   3
BRANCH   2   6
HETATM    6  N8  UNL     1     -32.999  17.052  -2.879  1.00 20.00    -0.216 NA
HETATM    7  C4  UNL     1     -33.255  18.314  -3.585  1.00 20.00     0.138 C 
HETATM    8  C5  UNL     1     -33.641  17.107  -1.563  1.00 20.00     0.138 C 
ENDBRANCH   2   6
TORSDOF 2
ENDMDL
MODEL 7
REMARK VINA RESULT:      -2.7      2.043      2.979
REMARK  2 active torsions:
REMARK  status: ('A' for Active; 'I' for Inactive)
REMARK    1  A    between atoms: C1_1  and  N7_7 
REMARK    2  A    between atoms: N6_6  and  N8_8 
ROOT
HETATM    1  C1  UNL     1     -34.118  16.524  -4.389  1.00 20.00     0.220 C 
HETATM    2  N6  UNL     1     -33.766  15.296  -4.607  1.00 20.00    -0.195 NA
ENDROOT
BRANCH   1   3
HETATM    3  N7  UNL     1     -33.660  17.379  -3.402  1.00 20.00    -0.383 N 
HETATM    4  C2  UNL     1     -33.136  18.697  -3.735  1.00 20.00     0.150 C 
HETATM    5  C3  UNL     1     -33.437  16.911  -2.042  1.00 20.00     0.150 C 
ENDBRANCH   1   3
BRANCH   2   6
HETATM    6  N8  UNL     1     -34.409  14.745  -5.671  1.00 20.00    -0.216 NA
HETATM    7  C4  UNL     1     -35.852  14.541  -5.487  1.00 20.00     0.138 C 
HETATM    8  C5  UNL     1     -34.190  15.471  -6.924  1.00 20.00     0.138 C 
ENDBRANCH   2   6
TORSDOF 2
ENDMDL
MODEL 8
REMARK VINA RESULT:      -2.7     11.694     12.474
REMARK  2 active torsions:
REMARK  status: ('A' for Active; 'I' for Inactive)
REMARK    1  A    between atoms: C1_1  and  N7_7 
REMARK    2  A    between atoms: N6_6  and  N8_8 
ROOT
HETATM    1  C1  UNL     1     -33.535   6.927   4.691  1.00 20.00     0.220 C 
HETATM    2  N6  UNL     1     -32.791   7.022   3.634  1.00 20.00    -0.195 NA
ENDROOT
BRANCH   1   3
HETATM    3  N7  UNL     1     -34.258   5.831   5.128  1.00 20.00    -0.383 N 
HETATM    4  C2  UNL     1     -34.808   5.785   6.476  1.00 20.00     0.150 C 
HETATM    5  C3  UNL     1     -34.277   4.589   4.370  1.00 20.00     0.150 C 
ENDBRANCH   1   3
BRANCH   2   6
HETATM    6  N8  UNL     1     -32.211   8.245   3.505  1.00 20.00    -0.216 NA
HETATM    7  C4  UNL     1     -32.702   9.048   2.377  1.00 20.00     0.138 C 
HETATM    8  C5  UNL     1     -32.277   9.052   4.725  1.00 20.00     0.138 C 
ENDBRANCH   2   6
TORSDOF 2
ENDMDL
MODEL 9
REMARK VINA RESULT:      -2.6     11.775     13.457
REMARK  2 active torsions:
REMARK  status: ('A' for Active; 'I' for Inactive)
REMARK    1  A    between atoms: C1_1  and  N7_7 
REMARK    2  A    between atoms: N6_6  and  N8_8 
ROOT
HETATM    1  C1  UNL     1     -40.509  13.743   7.150  1.00 20.00     0.220 C 
HETATM    2  N6  UNL     1     -41.284  13.488   8.157  1.00 20.00    -0.195 NA
ENDROOT
BRANCH   1   3
HETATM    3  N7  UNL     1     -40.707  13.418   5.819  1.00 20.00    -0.383 N 
HETATM    4  C2  UNL     1     -41.804  14.002   5.059  1.00 20.00     0.150 C 
HETATM    5  C3  UNL     1     -40.007  12.300   5.203  1.00 20.00     0.150 C 
ENDBRANCH   1   3
BRANCH   2   6
HETATM    6  N8  UNL     1     -40.791  13.958   9.333  1.00 20.00    -0.216 NA
HETATM    7  C4  UNL     1     -40.142  15.274   9.253  1.00 20.00     0.138 C 
HETATM    8  C5  UNL     1     -41.782  13.985  10.412  1.00 20.00     0.138 C 
ENDBRANCH   2   6
TORSDOF 2
ENDMDL
