MODEL 1
REMARK VINA RESULT:      -3.9      0.000      0.000
REMARK  3 active torsions:
REMARK  status: ('A' for Active; 'I' for Inactive)
REMARK    1  A    between atoms: C1_1  and  C5_5 
REMARK    2  A    between atoms: C5_5  and  C6_6 
REMARK    3  A    between atoms: C5_5  and  O8_8 
ROOT
HETATM    1  C5  UNL     1     -33.613   7.041   4.165  1.00 20.00     0.186 C 
ENDROOT
BRANCH   1   2
HETATM    2  C1  UNL     1     -32.937   7.929   5.194  1.00 20.00     0.263 C 
HETATM    3  O7  UNL     1     -32.244   8.904   4.917  1.00 20.00    -0.304 OA
ENDBRANCH   1   2
BRANCH   1   4
HETATM    4  C6  UNL     1     -34.428   5.878   4.792  1.00 20.00    -0.019 C 
HETATM    5  C2  UNL     1     -33.870   4.513   4.350  1.00 20.00     0.017 C 
HETATM    6  C3  UNL     1     -35.893   5.974   4.315  1.00 20.00     0.017 C 
HETATM    7  C4  UNL     1     -34.421   5.954   6.331  1.00 20.00     0.017 C 
ENDBRANCH   1   4
BRANCH   1   8
HETATM    8  O8  UNL     1     -32.603   6.527   3.307  1.00 20.00    -0.388 OA
HETATM    9  H20 UNL     1     -32.134   5.841   3.807  1.00 20.00     0.210 HD
ENDBRANCH   1   8
TORSDOF 3
ENDMDL
MODEL 2
REMARK VINA RESULT:      -3.9      0.033      1.527
REMARK  3 active torsions:
REMARK  status: ('A' for Active; 'I' for Inactive)
REMARK    1  A    between atoms: C1_1  and  C5_5 
REMARK    2  A    between atoms: C5_5  and  C6_6 
REMARK    3  A    between atoms: C5_5  and  O8_8 
ROOT
HETATM    1  C5  UNL     1     -33.602   7.055   4.160  1.00 20.00     0.186 C 
ENDROOT
BRANCH   1   2
HETATM    2  C1  UNL     1     -32.919   7.918   5.205  1.00 20.00     0.263 C 
HETATM    3  O7  UNL     1     -32.270   8.929   4.950  1.00 20.00    -0.304 OA
ENDBRANCH   1   2
BRANCH   1   4
HETATM    4  C6  UNL     1     -34.438   5.897   4.765  1.00 20.00    -0.019 C 
HETATM    5  C2  UNL     1     -35.906   5.978   4.308  1.00 20.00     0.017 C 
HETATM    6  C3  UNL     1     -34.409   6.004   6.305  1.00 20.00     0.017 C 
HETATM    7  C4  UNL     1     -33.861   4.523   4.372  1.00 20.00     0.017 C 
ENDBRANCH   1   4
BRANCH   1   8
HETATM    8  O8  UNL     1     -32.594   6.537   3.302  1.00 20.00    -0.388 OA
HETATM    9  H20 UNL     1     -32.738   6.935   2.429  1.00 20.00     0.210 HD
ENDBRANCH   1   8
TORSDOF 3
ENDMDL
MODEL 3
REMARK VINA RESULT:      -3.7      1.123      2.125
REMARK  3 active torsions:
REMARK  status: ('A' for Active; 'I' for Inactive)
REMARK    1  A    between atoms: C1_1  and  C5_5 
REMARK    2  A    between atoms: C5_5  and  C6_6 
REMARK    3  A    between atoms: C5_5  and  O8_8 
ROOT
HETATM    1  C5  UNL     1     -33.353   7.114   5.027  1.00 20.00     0.186 C 
ENDROOT
BRANCH   1   2
HETATM    2  C1  UNL     1     -32.648   7.483   3.735  1.00 20.00     0.263 C 
HETATM    3  O7  UNL     1     -32.620   8.616   3.263  1.00 20.00    -0.304 OA
ENDBRANCH   1   2
BRANCH   1   4
HETATM    4  C6  UNL     1     -34.309   5.900   4.884  1.00 20.00    -0.019 C 
HETATM    5  C2  UNL     1     -35.672   6.335   4.314  1.00 20.00     0.017 C 
HETATM    6  C3  UNL     1     -34.549   5.279   6.277  1.00 20.00     0.017 C 
HETATM    7  C4  UNL     1     -33.704   4.813   3.975  1.00 20.00     0.017 C 
ENDBRANCH   1   4
BRANCH   1   8
HETATM    8  O8  UNL     1     -34.073   8.257   5.469  1.00 20.00    -0.388 OA
HETATM    9  H20 UNL     1     -34.994   8.132   5.191  1.00 20.00     0.210 HD
ENDBRANCH   1   8
TORSDOF 3
ENDMDL
MODEL 4
REMARK VINA RESULT:      -3.6      1.134      1.466
REMARK  3 active torsions:
REMARK  status: ('A' for Active; 'I' for Inactive)
REMARK    1  A    between atoms: C1_1  and  C5_5 
REMARK    2  A    between atoms: C5_5  and  C6_6 
REMARK    3  A    between atoms: C5_5  and  O8_8 
ROOT
HETATM    1  C5  UNL     1     -33.347   7.149   5.028  1.00 20.00     0.186 C 
ENDROOT
BRANCH   1   2
HETATM    2  C1  UNL     1     -32.648   7.516   3.732  1.00 20.00     0.263 C 
HETATM    3  O7  UNL     1     -32.624   8.648   3.257  1.00 20.00    -0.304 OA
ENDBRANCH   1   2
BRANCH   1   4
HETATM    4  C6  UNL     1     -34.278   5.914   4.899  1.00 20.00    -0.019 C 
HETATM    5  C2  UNL     1     -33.681   4.871   3.937  1.00 20.00     0.017 C 
HETATM    6  C3  UNL     1     -35.641   6.366   4.331  1.00 20.00     0.017 C 
HETATM    7  C4  UNL     1     -34.528   5.254   6.269  1.00 20.00     0.017 C 
ENDBRANCH   1   4
BRANCH   1   8
HETATM    8  O8  UNL     1     -34.091   8.282   5.455  1.00 20.00    -0.388 OA
HETATM    9  H20 UNL     1     -34.854   7.946   5.949  1.00 20.00     0.210 HD
ENDBRANCH   1   8
TORSDOF 3
ENDMDL
MODEL 5
REMARK VINA RESULT:      -3.5      8.431      9.369
REMARK  3 active torsions:
REMARK  status: ('A' for Active; 'I' for Inactive)
REMARK    1  A    between atoms: C1_1  and  C5_5 
REMARK    2  A    between atoms: C5_5  and  C6_6 
REMARK    3  A    between atoms: C5_5  and  O8_8 
ROOT
HETATM    1  C5  UNL     1     -40.061  11.911   6.064  1.00 20.00     0.186 C 
ENDROOT
BRANCH   1   2
HETATM    2  C1  UNL     1     -39.539  11.889   4.639  1.00 20.00     0.263 C 
HETATM    3  O7  UNL     1     -38.357  11.740   4.338  1.00 20.00    -0.304 OA
ENDBRANCH   1   2
BRANCH   1   4
HETATM    4  C6  UNL     1     -41.131  13.006   6.313  1.00 20.00    -0.019 C 
HETATM    5  C2  UNL     1     -41.468  13.754   5.010  1.00 20.00     0.017 C 
HETATM    6  C3  UNL     1     -40.579  14.032   7.326  1.00 20.00     0.017 C 
HETATM    7  C4  UNL     1     -42.423  12.405   6.900  1.00 20.00     0.017 C 
ENDBRANCH   1   4
BRANCH   1   8
HETATM    8  O8  UNL     1     -38.950  12.105   6.929  1.00 20.00    -0.388 OA
HETATM    9  H20 UNL     1     -38.987  13.026   7.231  1.00 20.00     0.210 HD
ENDBRANCH   1   8
TORSDOF 3
ENDMDL
MODEL 6
REMARK VINA RESULT:      -3.4      8.434     10.072
REMARK  3 active torsions:
REMARK  status: ('A' for Active; 'I' for Inactive)
REMARK    1  A    between atoms: C1_1  and  C5_5 
REMARK    2  A    between atoms: C5_5  and  C6_6 
REMARK    3  A    between atoms: C5_5  and  O8_8 
ROOT
HETATM    1  C5  UNL     1     -41.860   5.549   0.067  1.00 20.00     0.186 C 
ENDROOT
BRANCH   1   2
HETATM    2  C1  UNL     1     -43.012   5.090  -0.808  1.00 20.00     0.263 C 
HETATM    3  O7  UNL     1     -42.881   4.628  -1.938  1.00 20.00    -0.304 OA
ENDBRANCH   1   2
BRANCH   1   4
HETATM    4  C6  UNL     1     -41.995   7.019   0.544  1.00 20.00    -0.019 C 
HETATM    5  C2  UNL     1     -40.673   7.526   1.148  1.00 20.00     0.017 C 
HETATM    6  C3  UNL     1     -43.083   7.098   1.637  1.00 20.00     0.017 C 
HETATM    7  C4  UNL     1     -42.412   7.949  -0.612  1.00 20.00     0.017 C 
ENDBRANCH   1   4
BRANCH   1   8
HETATM    8  O8  UNL     1     -40.660   5.381  -0.676  1.00 20.00    -0.388 OA
HETATM    9  H20 UNL     1     -40.513   6.208  -1.160  1.00 20.00     0.210 HD
ENDBRANCH   1   8
TORSDOF 3
ENDMDL
MODEL 7
REMARK VINA RESULT:      -3.3      1.229      2.174
REMARK  3 active torsions:
REMARK  status: ('A' for Active; 'I' for Inactive)
REMARK    1  A    between atoms: C1_1  and  C5_5 
REMARK    2  A    between atoms: C5_5  and  C6_6 
REMARK    3  A    between atoms: C5_5  and  O8_8 
ROOT
HETATM    1  C5  UNL     1     -33.112   6.609   4.225  1.00 20.00     0.186 C 
ENDROOT
BRANCH   1   2
HETATM    2  C1  UNL     1     -33.173   6.006   2.834  1.00 20.00     0.263 C 
HETATM    3  O7  UNL     1     -32.688   4.920   2.529  1.00 20.00    -0.304 OA
ENDBRANCH   1   2
BRANCH   1   4
HETATM    4  C6  UNL     1     -34.262   6.136   5.154  1.00 20.00    -0.019 C 
HETATM    5  C2  UNL     1     -34.053   4.675   5.589  1.00 20.00     0.017 C 
HETATM    6  C3  UNL     1     -35.599   6.222   4.386  1.00 20.00     0.017 C 
HETATM    7  C4  UNL     1     -34.374   7.027   6.406  1.00 20.00     0.017 C 
ENDBRANCH   1   4
BRANCH   1   8
HETATM    8  O8  UNL     1     -33.144   8.023   4.086  1.00 20.00    -0.388 OA
HETATM    9  H20 UNL     1     -32.239   8.305   3.881  1.00 20.00     0.210 HD
ENDBRANCH   1   8
TORSDOF 3
ENDMDL
MODEL 8
REMARK VINA RESULT:      -3.3     12.872     13.822
REMARK  3 active torsions:
REMARK  status: ('A' for Active; 'I' for Inactive)
REMARK    1  A    between atoms: C1_1  and  C5_5 
REMARK    2  A    between atoms: C5_5  and  C6_6 
REMARK    3  A    between atoms: C5_5  and  O8_8 
ROOT
HETATM    1  C5  UNL     1     -34.665  14.883  -5.093  1.00 20.00     0.186 C 
ENDROOT
BRANCH   1   2
HETATM    2  C1  UNL     1     -35.862  13.969  -4.907  1.00 20.00     0.263 C 
HETATM    3  O7  UNL     1     -35.840  12.924  -4.263  1.00 20.00    -0.304 OA
ENDBRANCH   1   2
BRANCH   1   4
HETATM    4  C6  UNL     1     -34.746  15.755  -6.373  1.00 20.00    -0.019 C 
HETATM    5  C2  UNL     1     -34.595  17.249  -6.034  1.00 20.00     0.017 C 
HETATM    6  C3  UNL     1     -36.125  15.551  -7.037  1.00 20.00     0.017 C 
HETATM    7  C4  UNL     1     -33.662  15.356  -7.394  1.00 20.00     0.017 C 
ENDBRANCH   1   4
BRANCH   1   8
HETATM    8  O8  UNL     1     -33.500  14.069  -5.125  1.00 20.00    -0.388 OA
HETATM    9  H20 UNL     1     -32.829  14.560  -5.624  1.00 20.00     0.210 HD
ENDBRANCH   1   8
TORSDOF 3
ENDMDL
MODEL 9
REMARK VINA RESULT:      -3.2     12.391     13.234
REMARK  3 active torsions:
REMARK  status: ('A' for Active; 'I' for Inactive)
REMARK    1  A    between atoms: C1_1  and  C5_5 
REMARK    2  A    between atoms: C5_5  and  C6_6 
REMARK    3  A    between atoms: C5_5  and  O8_8 
ROOT
HETATM    1  C5  UNL     1     -33.451  15.186  -4.734  1.00 20.00     0.186 C 
ENDROOT
BRANCH   1   2
HETATM    2  C1  UNL     1     -33.712  15.746  -3.348  1.00 20.00     0.263 C 
HETATM    3  O7  UNL     1     -32.970  16.537  -2.772  1.00 20.00    -0.304 OA
ENDBRANCH   1   2
BRANCH   1   4
HETATM    4  C6  UNL     1     -34.594  15.475  -5.743  1.00 20.00    -0.019 C 
HETATM    5  C2  UNL     1     -34.082  15.403  -7.193  1.00 20.00     0.017 C 
HETATM    6  C3  UNL     1     -35.137  16.899  -5.496  1.00 20.00     0.017 C 
HETATM    7  C4  UNL     1     -35.761  14.483  -5.569  1.00 20.00     0.017 C 
ENDBRANCH   1   4
BRANCH   1   8
HETATM    8  O8  UNL     1     -33.253  13.784  -4.604  1.00 20.00    -0.388 OA
HETATM    9  H20 UNL     1     -33.795  13.493  -3.854  1.00 20.00     0.210 HD
ENDBRANCH   1   8
TORSDOF 3
ENDMDL
