MODEL 1
REMARK VINA RESULT:      -3.4      0.000      0.000
REMARK  0 active torsions:
REMARK  status: ('A' for Active; 'I' for Inactive)
ROOT
HETATM    1  C1  UNL     1     -34.424   5.369   4.564  1.00 20.00     0.184 C 
HETATM    2  C2  UNL     1     -34.326   6.324   6.384  1.00 20.00     0.184 C 
HETATM    3  C3  UNL     1     -34.447   6.845   4.954  1.00 20.00     0.101 C 
HETATM    4  O4  UNL     1     -34.557   4.962   5.948  1.00 20.00    -0.389 OA
HETATM    5  I5  UNL     1     -32.640   8.097   4.200  1.00 20.00    -0.080 I 
ENDROOT
TORSDOF 0
ENDMDL
MODEL 2
REMARK VINA RESULT:      -3.2      2.997      3.406
REMARK  0 active torsions:
REMARK  status: ('A' for Active; 'I' for Inactive)
ROOT
HETATM    1  C1  UNL     1     -32.627   8.362   5.062  1.00 20.00     0.184 C 
HETATM    2  C2  UNL     1     -32.741   7.032   3.496  1.00 20.00     0.184 C 
HETATM    3  C3  UNL     1     -33.761   7.481   4.541  1.00 20.00     0.101 C 
HETATM    4  O4  UNL     1     -31.814   8.069   3.901  1.00 20.00    -0.389 OA
HETATM    5  I5  UNL     1     -34.476   5.821   6.002  1.00 20.00    -0.080 I 
ENDROOT
TORSDOF 0
ENDMDL
MODEL 3
REMARK VINA RESULT:      -2.8      3.084      3.305
REMARK  0 active torsions:
REMARK  status: ('A' for Active; 'I' for Inactive)
ROOT
HETATM    1  C1  UNL     1     -32.406   7.478   3.640  1.00 20.00     0.184 C 
HETATM    2  C2  UNL     1     -33.470   8.648   4.957  1.00 20.00     0.184 C 
HETATM    3  C3  UNL     1     -33.047   7.180   4.994  1.00 20.00     0.101 C 
HETATM    4  O4  UNL     1     -32.632   8.899   3.802  1.00 20.00    -0.389 OA
HETATM    5  I5  UNL     1     -34.793   5.647   4.947  1.00 20.00    -0.080 I 
ENDROOT
TORSDOF 0
ENDMDL
MODEL 4
REMARK VINA RESULT:      -2.5     17.103     17.341
REMARK  0 active torsions:
REMARK  status: ('A' for Active; 'I' for Inactive)
ROOT
HETATM    1  C1  UNL     1     -22.088  17.416   8.915  1.00 20.00     0.184 C 
HETATM    2  C2  UNL     1     -22.990  19.263   8.822  1.00 20.00     0.184 C 
HETATM    3  C3  UNL     1     -22.111  18.599   9.881  1.00 20.00     0.101 C 
HETATM    4  O4  UNL     1     -22.712  18.204   7.874  1.00 20.00    -0.389 OA
HETATM    5  I5  UNL     1     -23.153  18.193  11.918  1.00 20.00    -0.080 I 
ENDROOT
TORSDOF 0
ENDMDL
MODEL 5
REMARK VINA RESULT:      -2.5      8.368      8.518
REMARK  0 active torsions:
REMARK  status: ('A' for Active; 'I' for Inactive)
ROOT
HETATM    1  C1  UNL     1     -39.511  12.051   4.467  1.00 20.00     0.184 C 
HETATM    2  C2  UNL     1     -38.759  12.114   6.382  1.00 20.00     0.184 C 
HETATM    3  C3  UNL     1     -40.154  11.822   5.833  1.00 20.00     0.101 C 
HETATM    4  O4  UNL     1     -38.186  12.071   5.052  1.00 20.00    -0.389 OA
HETATM    5  I5  UNL     1     -41.792  13.359   6.427  1.00 20.00    -0.080 I 
ENDROOT
TORSDOF 0
ENDMDL
MODEL 6
REMARK VINA RESULT:      -2.4      9.636      9.751
REMARK  0 active torsions:
REMARK  status: ('A' for Active; 'I' for Inactive)
ROOT
HETATM    1  C1  UNL     1     -42.008  12.499   6.714  1.00 20.00     0.184 C 
HETATM    2  C2  UNL     1     -40.533  13.801   7.318  1.00 20.00     0.184 C 
HETATM    3  C3  UNL     1     -40.908  13.234   5.950  1.00 20.00     0.101 C 
HETATM    4  O4  UNL     1     -41.740  13.266   7.913  1.00 20.00    -0.389 OA
HETATM    5  I5  UNL     1     -39.302  11.871   4.969  1.00 20.00    -0.080 I 
ENDROOT
TORSDOF 0
ENDMDL
MODEL 7
REMARK VINA RESULT:      -2.4     16.575     16.852
REMARK  0 active torsions:
REMARK  status: ('A' for Active; 'I' for Inactive)
ROOT
HETATM    1  C1  UNL     1     -23.923  16.973  10.795  1.00 20.00     0.184 C 
HETATM    2  C2  UNL     1     -22.629  18.345  11.617  1.00 20.00     0.184 C 
HETATM    3  C3  UNL     1     -23.289  18.249  10.243  1.00 20.00     0.101 C 
HETATM    4  O4  UNL     1     -23.456  17.273  12.132  1.00 20.00    -0.389 OA
HETATM    5  I5  UNL     1     -21.828  17.939   8.463  1.00 20.00    -0.080 I 
ENDROOT
TORSDOF 0
ENDMDL
MODEL 8
REMARK VINA RESULT:      -2.4     13.600     13.936
REMARK  0 active torsions:
REMARK  status: ('A' for Active; 'I' for Inactive)
ROOT
HETATM    1  C1  UNL     1     -35.535  14.542  -5.297  1.00 20.00     0.184 C 
HETATM    2  C2  UNL     1     -33.947  15.126  -6.468  1.00 20.00     0.184 C 
HETATM    3  C3  UNL     1     -34.048  14.720  -4.999  1.00 20.00     0.101 C 
HETATM    4  O4  UNL     1     -35.308  14.698  -6.719  1.00 20.00    -0.389 OA
HETATM    5  I5  UNL     1     -33.539  16.396  -3.472  1.00 20.00    -0.080 I 
ENDROOT
TORSDOF 0
ENDMDL
MODEL 9
REMARK VINA RESULT:      -2.3     13.353     13.627
REMARK  0 active torsions:
REMARK  status: ('A' for Active; 'I' for Inactive)
ROOT
HETATM    1  C1  UNL     1     -34.544  18.273  -2.266  1.00 20.00     0.184 C 
HETATM    2  C2  UNL     1     -33.264  16.691  -2.572  1.00 20.00     0.184 C 
HETATM    3  C3  UNL     1     -33.632  17.490  -1.323  1.00 20.00     0.101 C 
HETATM    4  O4  UNL     1     -34.326  17.317  -3.332  1.00 20.00    -0.389 OA
HETATM    5  I5  UNL     1     -31.894  18.714  -0.385  1.00 20.00    -0.080 I 
ENDROOT
TORSDOF 0
ENDMDL
