MODEL 1
REMARK VINA RESULT:      -5.5      0.000      0.000
REMARK  0 active torsions:
REMARK  status: ('A' for Active; 'I' for Inactive)
ROOT
HETATM    1  C1  UNL     1     -32.820   8.909   3.890  1.00 20.00     0.013 A 
HETATM    2  C2  UNL     1     -32.325   9.069   2.595  1.00 20.00     0.043 A 
HETATM    3  C3  UNL     1     -32.562   6.711   2.248  1.00 20.00     0.050 A 
HETATM    4  C4  UNL     1     -33.207   7.652   4.413  1.00 20.00    -0.020 A 
HETATM    5  C5  UNL     1     -33.076   6.540   3.553  1.00 20.00    -0.046 A 
HETATM    6  C6  UNL     1     -32.194   7.965   1.771  1.00 20.00     0.117 A 
HETATM    7  C7  UNL     1     -33.443   5.135   3.967  1.00 20.00     0.039 C 
HETATM    8  C8  UNL     1     -34.854   5.028   4.532  1.00 20.00     0.007 C 
HETATM    9  C9  UNL     1     -34.886   5.202   6.040  1.00 20.00     0.035 C 
HETATM   10  C10 UNL     1     -33.697   7.625   5.845  1.00 20.00     0.184 A 
HETATM   11  C11 UNL     1     -34.497   6.550   6.540  1.00 20.00     0.156 A 
HETATM   12  O12 UNL     1     -33.078   6.685   6.733  1.00 20.00    -0.370 OA
HETATM   13  F13 UNL     1     -31.719   8.099   0.529  1.00 20.00    -0.206 F 
ENDROOT
TORSDOF 0
ENDMDL
MODEL 2
REMARK VINA RESULT:      -4.6     12.228     13.443
REMARK  0 active torsions:
REMARK  status: ('A' for Active; 'I' for Inactive)
ROOT
HETATM    1  C1  UNL     1     -35.205  18.136  -3.652  1.00 20.00     0.013 A 
HETATM    2  C2  UNL     1     -34.278  18.264  -2.618  1.00 20.00     0.043 A 
HETATM    3  C3  UNL     1     -33.292  16.186  -3.286  1.00 20.00     0.050 A 
HETATM    4  C4  UNL     1     -35.212  17.035  -4.544  1.00 20.00    -0.020 A 
HETATM    5  C5  UNL     1     -34.218  16.052  -4.345  1.00 20.00    -0.046 A 
HETATM    6  C6  UNL     1     -33.318  17.284  -2.433  1.00 20.00     0.117 A 
HETATM    7  C7  UNL     1     -34.099  14.820  -5.209  1.00 20.00     0.039 C 
HETATM    8  C8  UNL     1     -34.042  15.138  -6.698  1.00 20.00     0.007 C 
HETATM    9  C9  UNL     1     -35.417  15.138  -7.341  1.00 20.00     0.035 C 
HETATM   10  C10 UNL     1     -36.297  17.013  -5.599  1.00 20.00     0.184 A 
HETATM   11  C11 UNL     1     -36.346  16.204  -6.873  1.00 20.00     0.156 A 
HETATM   12  O12 UNL     1     -37.088  15.822  -5.701  1.00 20.00    -0.370 OA
HETATM   13  F13 UNL     1     -32.424  17.390  -1.445  1.00 20.00    -0.206 F 
ENDROOT
TORSDOF 0
ENDMDL
MODEL 3
REMARK VINA RESULT:      -4.6     12.101     13.790
REMARK  0 active torsions:
REMARK  status: ('A' for Active; 'I' for Inactive)
ROOT
HETATM    1  C1  UNL     1     -33.606  15.910  -3.183  1.00 20.00     0.013 A 
HETATM    2  C2  UNL     1     -33.147  16.933  -2.353  1.00 20.00     0.043 A 
HETATM    3  C3  UNL     1     -33.740  18.524  -4.042  1.00 20.00     0.050 A 
HETATM    4  C4  UNL     1     -34.150  16.150  -4.467  1.00 20.00    -0.020 A 
HETATM    5  C5  UNL     1     -34.219  17.497  -4.885  1.00 20.00    -0.046 A 
HETATM    6  C6  UNL     1     -33.212  18.246  -2.785  1.00 20.00     0.117 A 
HETATM    7  C7  UNL     1     -34.769  17.912  -6.228  1.00 20.00     0.039 C 
HETATM    8  C8  UNL     1     -36.156  17.346  -6.506  1.00 20.00     0.007 C 
HETATM    9  C9  UNL     1     -36.100  16.014  -7.233  1.00 20.00     0.035 C 
HETATM   10  C10 UNL     1     -34.579  14.939  -5.269  1.00 20.00     0.184 A 
HETATM   11  C11 UNL     1     -35.498  14.888  -6.466  1.00 20.00     0.156 A 
HETATM   12  O12 UNL     1     -34.067  14.822  -6.603  1.00 20.00    -0.370 OA
HETATM   13  F13 UNL     1     -32.775  19.239  -2.004  1.00 20.00    -0.206 F 
ENDROOT
TORSDOF 0
ENDMDL
MODEL 4
REMARK VINA RESULT:      -4.5     12.173     13.523
REMARK  0 active torsions:
REMARK  status: ('A' for Active; 'I' for Inactive)
ROOT
HETATM    1  C1  UNL     1     -35.530  17.568  -5.826  1.00 20.00     0.013 A 
HETATM    2  C2  UNL     1     -36.002  16.394  -6.412  1.00 20.00     0.043 A 
HETATM    3  C3  UNL     1     -34.593  15.133  -4.941  1.00 20.00     0.050 A 
HETATM    4  C4  UNL     1     -34.578  17.574  -4.777  1.00 20.00    -0.020 A 
HETATM    5  C5  UNL     1     -34.118  16.315  -4.333  1.00 20.00    -0.046 A 
HETATM    6  C6  UNL     1     -35.530  15.170  -5.969  1.00 20.00     0.117 A 
HETATM    7  C7  UNL     1     -33.101  16.158  -3.228  1.00 20.00     0.039 C 
HETATM    8  C8  UNL     1     -33.479  16.908  -1.956  1.00 20.00     0.007 C 
HETATM    9  C9  UNL     1     -32.910  18.314  -1.925  1.00 20.00     0.035 C 
HETATM   10  C10 UNL     1     -34.134  18.925  -4.260  1.00 20.00     0.184 A 
HETATM   11  C11 UNL     1     -33.443  19.247  -2.956  1.00 20.00     0.156 A 
HETATM   12  O12 UNL     1     -32.723  19.173  -4.200  1.00 20.00    -0.370 OA
HETATM   13  F13 UNL     1     -35.970  14.035  -6.520  1.00 20.00    -0.206 F 
ENDROOT
TORSDOF 0
ENDMDL
MODEL 5
REMARK VINA RESULT:      -4.5     12.255     12.728
REMARK  0 active torsions:
REMARK  status: ('A' for Active; 'I' for Inactive)
ROOT
HETATM    1  C1  UNL     1     -32.161  19.263   3.268  1.00 20.00     0.013 A 
HETATM    2  C2  UNL     1     -30.933  19.117   3.915  1.00 20.00     0.043 A 
HETATM    3  C3  UNL     1     -29.976  18.356   1.855  1.00 20.00     0.050 A 
HETATM    4  C4  UNL     1     -32.345  18.967   1.896  1.00 20.00    -0.020 A 
HETATM    5  C5  UNL     1     -31.211  18.513   1.188  1.00 20.00    -0.046 A 
HETATM    6  C6  UNL     1     -29.836  18.660   3.206  1.00 20.00     0.117 A 
HETATM    7  C7  UNL     1     -31.249  18.153  -0.278  1.00 20.00     0.039 C 
HETATM    8  C8  UNL     1     -31.838  19.256  -1.149  1.00 20.00     0.007 C 
HETATM    9  C9  UNL     1     -33.336  19.103  -1.339  1.00 20.00     0.035 C 
HETATM   10  C10 UNL     1     -33.741  19.143   1.337  1.00 20.00     0.184 A 
HETATM   11  C11 UNL     1     -34.160  19.262  -0.109  1.00 20.00     0.156 A 
HETATM   12  O12 UNL     1     -34.307  18.034   0.626  1.00 20.00    -0.370 OA
HETATM   13  F13 UNL     1     -28.653  18.512   3.810  1.00 20.00    -0.206 F 
ENDROOT
TORSDOF 0
ENDMDL
MODEL 6
REMARK VINA RESULT:      -4.4      1.200      2.421
REMARK  0 active torsions:
REMARK  status: ('A' for Active; 'I' for Inactive)
ROOT
HETATM    1  C1  UNL     1     -32.946   5.451   2.473  1.00 20.00     0.013 A 
HETATM    2  C2  UNL     1     -32.273   6.283   1.578  1.00 20.00     0.043 A 
HETATM    3  C3  UNL     1     -32.708   8.139   3.029  1.00 20.00     0.050 A 
HETATM    4  C4  UNL     1     -33.521   5.924   3.677  1.00 20.00    -0.020 A 
HETATM    5  C5  UNL     1     -33.380   7.303   3.947  1.00 20.00    -0.046 A 
HETATM    6  C6  UNL     1     -32.155   7.634   1.857  1.00 20.00     0.117 A 
HETATM    7  C7  UNL     1     -33.943   7.957   5.187  1.00 20.00     0.039 C 
HETATM    8  C8  UNL     1     -33.520   7.260   6.474  1.00 20.00     0.007 C 
HETATM    9  C9  UNL     1     -34.509   6.192   6.905  1.00 20.00     0.035 C 
HETATM   10  C10 UNL     1     -34.248   4.911   4.535  1.00 20.00     0.184 A 
HETATM   11  C11 UNL     1     -34.630   5.022   5.993  1.00 20.00     0.156 A 
HETATM   12  O12 UNL     1     -35.586   5.232   4.938  1.00 20.00    -0.370 OA
HETATM   13  F13 UNL     1     -31.516   8.447   1.010  1.00 20.00    -0.206 F 
ENDROOT
TORSDOF 0
ENDMDL
MODEL 7
REMARK VINA RESULT:      -4.0      9.967     10.840
REMARK  0 active torsions:
REMARK  status: ('A' for Active; 'I' for Inactive)
ROOT
HETATM    1  C1  UNL     1     -39.365  12.672   7.047  1.00 20.00     0.013 A 
HETATM    2  C2  UNL     1     -38.958  11.983   5.904  1.00 20.00     0.043 A 
HETATM    3  C3  UNL     1     -40.755  13.001   4.691  1.00 20.00     0.050 A 
HETATM    4  C4  UNL     1     -40.474  13.551   7.059  1.00 20.00    -0.020 A 
HETATM    5  C5  UNL     1     -41.167  13.713   5.839  1.00 20.00    -0.046 A 
HETATM    6  C6  UNL     1     -39.658  12.147   4.721  1.00 20.00     0.117 A 
HETATM    7  C7  UNL     1     -42.372  14.611   5.694  1.00 20.00     0.039 C 
HETATM    8  C8  UNL     1     -42.124  16.029   6.194  1.00 20.00     0.007 C 
HETATM    9  C9  UNL     1     -42.498  16.200   7.655  1.00 20.00     0.035 C 
HETATM   10  C10 UNL     1     -40.818  14.206   8.380  1.00 20.00     0.184 A 
HETATM   11  C11 UNL     1     -41.675  15.425   8.624  1.00 20.00     0.156 A 
HETATM   12  O12 UNL     1     -42.172  14.091   8.836  1.00 20.00    -0.370 OA
HETATM   13  F13 UNL     1     -39.284  11.493   3.617  1.00 20.00    -0.206 F 
ENDROOT
TORSDOF 0
ENDMDL
MODEL 8
REMARK VINA RESULT:      -3.9      1.349      2.444
REMARK  0 active torsions:
REMARK  status: ('A' for Active; 'I' for Inactive)
ROOT
HETATM    1  C1  UNL     1     -32.677   6.517   2.398  1.00 20.00     0.013 A 
HETATM    2  C2  UNL     1     -32.309   7.745   1.848  1.00 20.00     0.043 A 
HETATM    3  C3  UNL     1     -33.282   8.846   3.740  1.00 20.00     0.050 A 
HETATM    4  C4  UNL     1     -33.355   6.403   3.636  1.00 20.00    -0.020 A 
HETATM    5  C5  UNL     1     -33.647   7.608   4.312  1.00 20.00    -0.046 A 
HETATM    6  C6  UNL     1     -32.615   8.915   2.521  1.00 20.00     0.117 A 
HETATM    7  C7  UNL     1     -34.369   7.650   5.637  1.00 20.00     0.039 C 
HETATM    8  C8  UNL     1     -33.733   6.754   6.693  1.00 20.00     0.007 C 
HETATM    9  C9  UNL     1     -34.334   5.360   6.706  1.00 20.00     0.035 C 
HETATM   10  C10 UNL     1     -33.719   5.007   4.094  1.00 20.00     0.184 A 
HETATM   11  C11 UNL     1     -34.096   4.546   5.482  1.00 20.00     0.156 A 
HETATM   12  O12 UNL     1     -35.085   4.771   4.461  1.00 20.00    -0.370 OA
HETATM   13  F13 UNL     1     -32.272  10.101   2.008  1.00 20.00    -0.206 F 
ENDROOT
TORSDOF 0
ENDMDL
MODEL 9
REMARK VINA RESULT:      -3.9     12.162     13.740
REMARK  0 active torsions:
REMARK  status: ('A' for Active; 'I' for Inactive)
ROOT
HETATM    1  C1  UNL     1     -34.391  17.136  -3.897  1.00 20.00     0.013 A 
HETATM    2  C2  UNL     1     -33.242  16.409  -3.585  1.00 20.00     0.043 A 
HETATM    3  C3  UNL     1     -33.824  14.824  -5.285  1.00 20.00     0.050 A 
HETATM    4  C4  UNL     1     -35.297  16.743  -4.912  1.00 20.00    -0.020 A 
HETATM    5  C5  UNL     1     -34.983  15.560  -5.617  1.00 20.00    -0.046 A 
HETATM    6  C6  UNL     1     -32.959  15.246  -4.281  1.00 20.00     0.117 A 
HETATM    7  C7  UNL     1     -35.852  15.010  -6.722  1.00 20.00     0.039 C 
HETATM    8  C8  UNL     1     -36.168  16.037  -7.802  1.00 20.00     0.007 C 
HETATM    9  C9  UNL     1     -37.454  16.793  -7.522  1.00 20.00     0.035 C 
HETATM   10  C10 UNL     1     -36.518  17.613  -5.119  1.00 20.00     0.184 A 
HETATM   11  C11 UNL     1     -37.437  17.667  -6.316  1.00 20.00     0.156 A 
HETATM   12  O12 UNL     1     -37.796  16.963  -5.113  1.00 20.00    -0.370 OA
HETATM   13  F13 UNL     1     -31.864  14.535  -3.993  1.00 20.00    -0.206 F 
ENDROOT
TORSDOF 0
ENDMDL
