MODEL 1
REMARK VINA RESULT:      -5.4      0.000      0.000
REMARK  1 active torsions:
REMARK  status: ('A' for Active; 'I' for Inactive)
REMARK    1  A    between atoms: C2_2  and  C4_4 
ROOT
HETATM    1  C1  UNL     1     -32.661   7.359   3.575  1.00 20.00     0.146 C 
HETATM    2  C4  UNL     1     -33.324   7.956   4.733  1.00 20.00     0.388 C 
HETATM    3  N5  UNL     1     -32.135   6.890   2.654  1.00 20.00    -0.190 NA
HETATM    4  F9  UNL     1     -32.464   8.837   5.312  1.00 20.00    -0.181 F 
HETATM    5  F10 UNL     1     -34.376   8.696   4.290  1.00 20.00    -0.181 F 
ENDROOT
BRANCH   2   6
HETATM    6  C2  UNL     1     -33.731   6.907   5.716  1.00 20.00     0.247 C 
HETATM    7  C3  UNL     1     -34.726   6.032   5.539  1.00 20.00     0.308 C 
HETATM    8  F7  UNL     1     -35.022   5.117   6.486  1.00 20.00    -0.170 F 
HETATM    9  F8  UNL     1     -35.447   6.065   4.398  1.00 20.00    -0.170 F 
HETATM   10  F6  UNL     1     -33.058   6.854   6.891  1.00 20.00    -0.197 F 
ENDBRANCH   2   6
TORSDOF 1
ENDMDL
MODEL 2
REMARK VINA RESULT:      -5.4      0.902      1.513
REMARK  1 active torsions:
REMARK  status: ('A' for Active; 'I' for Inactive)
REMARK    1  A    between atoms: C2_2  and  C4_4 
ROOT
HETATM    1  C1  UNL     1     -32.543   7.568   3.203  1.00 20.00     0.146 C 
HETATM    2  C4  UNL     1     -33.229   7.717   4.485  1.00 20.00     0.388 C 
HETATM    3  N5  UNL     1     -31.997   7.454   2.186  1.00 20.00    -0.190 NA
HETATM    4  F9  UNL     1     -32.314   8.096   5.419  1.00 20.00    -0.181 F 
HETATM    5  F10 UNL     1     -34.108   8.750   4.382  1.00 20.00    -0.181 F 
ENDROOT
BRANCH   2   6
HETATM    6  C2  UNL     1     -33.886   6.439   4.893  1.00 20.00     0.247 C 
HETATM    7  C3  UNL     1     -34.472   6.218   6.074  1.00 20.00     0.308 C 
HETATM    8  F7  UNL     1     -35.041   5.027   6.353  1.00 20.00    -0.170 F 
HETATM    9  F8  UNL     1     -34.491   7.198   7.002  1.00 20.00    -0.170 F 
HETATM   10  F6  UNL     1     -33.864   5.413   4.007  1.00 20.00    -0.197 F 
ENDBRANCH   2   6
TORSDOF 1
ENDMDL
MODEL 3
REMARK VINA RESULT:      -5.3      1.816      3.452
REMARK  1 active torsions:
REMARK  status: ('A' for Active; 'I' for Inactive)
REMARK    1  A    between atoms: C2_2  and  C4_4 
ROOT
HETATM    1  C1  UNL     1     -34.218   4.847   4.679  1.00 20.00     0.146 C 
HETATM    2  C4  UNL     1     -34.527   6.231   5.035  1.00 20.00     0.388 C 
HETATM    3  N5  UNL     1     -33.977   3.748   4.399  1.00 20.00    -0.190 NA
HETATM    4  F9  UNL     1     -35.739   6.550   4.503  1.00 20.00    -0.181 F 
HETATM    5  F10 UNL     1     -34.680   6.301   6.385  1.00 20.00    -0.181 F 
ENDROOT
BRANCH   2   6
HETATM    6  C2  UNL     1     -33.476   7.162   4.525  1.00 20.00     0.247 C 
HETATM    7  C3  UNL     1     -33.282   8.413   4.956  1.00 20.00     0.308 C 
HETATM    8  F7  UNL     1     -32.304   9.182   4.434  1.00 20.00    -0.170 F 
HETATM    9  F8  UNL     1     -34.078   8.915   5.924  1.00 20.00    -0.170 F 
HETATM   10  F6  UNL     1     -32.672   6.716   3.530  1.00 20.00    -0.197 F 
ENDBRANCH   2   6
TORSDOF 1
ENDMDL
MODEL 4
REMARK VINA RESULT:      -5.3      1.184      2.986
REMARK  1 active torsions:
REMARK  status: ('A' for Active; 'I' for Inactive)
REMARK    1  A    between atoms: C2_2  and  C4_4 
ROOT
HETATM    1  C1  UNL     1     -33.672   5.401   3.618  1.00 20.00     0.146 C 
HETATM    2  C4  UNL     1     -34.525   5.805   4.735  1.00 20.00     0.388 C 
HETATM    3  N5  UNL     1     -32.998   5.078   2.731  1.00 20.00    -0.190 NA
HETATM    4  F9  UNL     1     -35.760   6.103   4.245  1.00 20.00    -0.181 F 
HETATM    5  F10 UNL     1     -34.696   4.731   5.552  1.00 20.00    -0.181 F 
ENDROOT
BRANCH   2   6
HETATM    6  C2  UNL     1     -33.951   6.986   5.447  1.00 20.00     0.247 C 
HETATM    7  C3  UNL     1     -33.441   8.069   4.853  1.00 20.00     0.308 C 
HETATM    8  F7  UNL     1     -32.943   9.090   5.581  1.00 20.00    -0.170 F 
HETATM    9  F8  UNL     1     -33.419   8.141   3.505  1.00 20.00    -0.170 F 
HETATM   10  F6  UNL     1     -33.921   6.947   6.802  1.00 20.00    -0.197 F 
ENDBRANCH   2   6
TORSDOF 1
ENDMDL
MODEL 5
REMARK VINA RESULT:      -5.2      1.934      3.379
REMARK  1 active torsions:
REMARK  status: ('A' for Active; 'I' for Inactive)
REMARK    1  A    between atoms: C2_2  and  C4_4 
ROOT
HETATM    1  C1  UNL     1     -34.540   5.764   5.372  1.00 20.00     0.146 C 
HETATM    2  C4  UNL     1     -33.887   6.837   6.121  1.00 20.00     0.388 C 
HETATM    3  N5  UNL     1     -35.057   4.910   4.782  1.00 20.00    -0.190 NA
HETATM    4  F9  UNL     1     -34.732   7.246   7.107  1.00 20.00    -0.181 F 
HETATM    5  F10 UNL     1     -32.800   6.318   6.751  1.00 20.00    -0.181 F 
ENDROOT
BRANCH   2   6
HETATM    6  C2  UNL     1     -33.543   7.982   5.225  1.00 20.00     0.247 C 
HETATM    7  C3  UNL     1     -32.857   7.884   4.082  1.00 20.00     0.308 C 
HETATM    8  F7  UNL     1     -32.592   8.977   3.337  1.00 20.00    -0.170 F 
HETATM    9  F8  UNL     1     -32.420   6.676   3.668  1.00 20.00    -0.170 F 
HETATM   10  F6  UNL     1     -33.931   9.220   5.613  1.00 20.00    -0.197 F 
ENDBRANCH   2   6
TORSDOF 1
ENDMDL
MODEL 6
REMARK VINA RESULT:      -5.0      2.306      3.335
REMARK  1 active torsions:
REMARK  status: ('A' for Active; 'I' for Inactive)
REMARK    1  A    between atoms: C2_2  and  C4_4 
ROOT
HETATM    1  C1  UNL     1     -33.739   7.227   5.108  1.00 20.00     0.146 C 
HETATM    2  C4  UNL     1     -34.550   6.036   4.858  1.00 20.00     0.388 C 
HETATM    3  N5  UNL     1     -33.098   8.173   5.308  1.00 20.00    -0.190 NA
HETATM    4  F9  UNL     1     -34.869   5.476   6.057  1.00 20.00    -0.181 F 
HETATM    5  F10 UNL     1     -35.728   6.430   4.304  1.00 20.00    -0.181 F 
ENDROOT
BRANCH   2   6
HETATM    6  C2  UNL     1     -33.813   5.055   4.008  1.00 20.00     0.247 C 
HETATM    7  C3  UNL     1     -33.098   5.364   2.921  1.00 20.00     0.308 C 
HETATM    8  F7  UNL     1     -32.464   4.405   2.213  1.00 20.00    -0.170 F 
HETATM    9  F8  UNL     1     -33.011   6.651   2.524  1.00 20.00    -0.170 F 
HETATM   10  F6  UNL     1     -33.896   3.745   4.346  1.00 20.00    -0.197 F 
ENDBRANCH   2   6
TORSDOF 1
ENDMDL
MODEL 7
REMARK VINA RESULT:      -5.0      2.260      3.824
REMARK  1 active torsions:
REMARK  status: ('A' for Active; 'I' for Inactive)
REMARK    1  A    between atoms: C2_2  and  C4_4 
ROOT
HETATM    1  C1  UNL     1     -34.392   6.306   5.809  1.00 20.00     0.146 C 
HETATM    2  C4  UNL     1     -34.530   5.662   4.504  1.00 20.00     0.388 C 
HETATM    3  N5  UNL     1     -34.287   6.815   6.846  1.00 20.00    -0.190 NA
HETATM    4  F9  UNL     1     -34.571   4.314   4.693  1.00 20.00    -0.181 F 
HETATM    5  F10 UNL     1     -35.738   6.004   3.983  1.00 20.00    -0.181 F 
ENDROOT
BRANCH   2   6
HETATM    6  C2  UNL     1     -33.392   6.024   3.606  1.00 20.00     0.247 C 
HETATM    7  C3  UNL     1     -32.903   7.258   3.445  1.00 20.00     0.308 C 
HETATM    8  F7  UNL     1     -31.870   7.490   2.608  1.00 20.00    -0.170 F 
HETATM    9  F8  UNL     1     -33.452   8.286   4.124  1.00 20.00    -0.170 F 
HETATM   10  F6  UNL     1     -32.828   5.031   2.877  1.00 20.00    -0.197 F 
ENDBRANCH   2   6
TORSDOF 1
ENDMDL
MODEL 8
REMARK VINA RESULT:      -4.9      1.683      2.222
REMARK  1 active torsions:
REMARK  status: ('A' for Active; 'I' for Inactive)
REMARK    1  A    between atoms: C2_2  and  C4_4 
ROOT
HETATM    1  C1  UNL     1     -32.767   8.382   4.939  1.00 20.00     0.146 C 
HETATM    2  C4  UNL     1     -33.557   7.338   5.591  1.00 20.00     0.388 C 
HETATM    3  N5  UNL     1     -32.141   9.212   4.426  1.00 20.00    -0.190 NA
HETATM    4  F9  UNL     1     -32.926   6.979   6.742  1.00 20.00    -0.181 F 
HETATM    5  F10 UNL     1     -34.747   7.877   5.969  1.00 20.00    -0.181 F 
ENDROOT
BRANCH   2   6
HETATM    6  C2  UNL     1     -33.720   6.153   4.697  1.00 20.00     0.247 C 
HETATM    7  C3  UNL     1     -34.346   5.019   5.029  1.00 20.00     0.308 C 
HETATM    8  F7  UNL     1     -34.443   3.998   4.152  1.00 20.00    -0.170 F 
HETATM    9  F8  UNL     1     -34.886   4.892   6.260  1.00 20.00    -0.170 F 
HETATM   10  F6  UNL     1     -33.166   6.218   3.462  1.00 20.00    -0.197 F 
ENDBRANCH   2   6
TORSDOF 1
ENDMDL
MODEL 9
REMARK VINA RESULT:      -4.9      2.129      3.592
REMARK  1 active torsions:
REMARK  status: ('A' for Active; 'I' for Inactive)
REMARK    1  A    between atoms: C2_2  and  C4_4 
ROOT
HETATM    1  C1  UNL     1     -34.325   5.518   5.718  1.00 20.00     0.146 C 
HETATM    2  C4  UNL     1     -34.273   5.995   4.337  1.00 20.00     0.388 C 
HETATM    3  N5  UNL     1     -34.369   5.136   6.813  1.00 20.00    -0.190 NA
HETATM    4  F9  UNL     1     -33.999   4.935   3.528  1.00 20.00    -0.181 F 
HETATM    5  F10 UNL     1     -35.516   6.422   3.986  1.00 20.00    -0.181 F 
ENDROOT
BRANCH   2   6
HETATM    6  C2  UNL     1     -33.232   7.054   4.175  1.00 20.00     0.247 C 
HETATM    7  C3  UNL     1     -33.180   8.193   4.872  1.00 20.00     0.308 C 
HETATM    8  F7  UNL     1     -32.198   9.094   4.655  1.00 20.00    -0.170 F 
HETATM    9  F8  UNL     1     -34.123   8.449   5.803  1.00 20.00    -0.170 F 
HETATM   10  F6  UNL     1     -32.281   6.858   3.229  1.00 20.00    -0.197 F 
ENDBRANCH   2   6
TORSDOF 1
ENDMDL
