MODEL 1
REMARK VINA RESULT:      -6.0      0.000      0.000
REMARK  0 active torsions:
REMARK  status: ('A' for Active; 'I' for Inactive)
ROOT
HETATM    1  C1  UNL     1     -32.900   8.442   4.855  1.00 20.00     0.009 A 
HETATM    2  C2  UNL     1     -32.339   8.723   3.610  1.00 20.00     0.024 A 
HETATM    3  C3  UNL     1     -33.049   6.561   2.801  1.00 20.00     0.033 A 
HETATM    4  C4  UNL     1     -33.533   7.214   5.085  1.00 20.00    -0.048 A 
HETATM    5  C5  UNL     1     -33.626   6.273   4.044  1.00 20.00    -0.022 A 
HETATM    6  C6  UNL     1     -32.412   7.783   2.584  1.00 20.00     0.034 A 
HETATM    7  C7  UNL     1     -34.168   6.930   6.423  1.00 20.00     0.069 C 
HETATM    8  C8  UNL     1     -34.279   4.933   4.280  1.00 20.00     0.308 C 
HETATM    9  C9  UNL     1     -34.477   5.445   6.623  1.00 20.00     0.274 C 
HETATM   10  N10 UNL     1     -35.165   4.909   5.449  1.00 20.00     0.087 N 
HETATM   11 CL11 UNL     1     -31.715   8.130   1.048  1.00 20.00    -0.084 Cl
HETATM   12  H21 UNL     1     -35.992   5.473   5.256  1.00 20.00     0.316 HD
ENDROOT
TORSDOF 0
ENDMDL
MODEL 2
REMARK VINA RESULT:      -5.0     12.059     13.225
REMARK  0 active torsions:
REMARK  status: ('A' for Active; 'I' for Inactive)
ROOT
HETATM    1  C1  UNL     1     -35.014  18.140  -3.997  1.00 20.00     0.009 A 
HETATM    2  C2  UNL     1     -34.696  18.474  -2.681  1.00 20.00     0.024 A 
HETATM    3  C3  UNL     1     -33.407  16.441  -2.475  1.00 20.00     0.033 A 
HETATM    4  C4  UNL     1     -34.536  16.949  -4.560  1.00 20.00    -0.048 A 
HETATM    5  C5  UNL     1     -33.709  16.102  -3.800  1.00 20.00    -0.022 A 
HETATM    6  C6  UNL     1     -33.895  17.624  -1.920  1.00 20.00     0.034 A 
HETATM    7  C7  UNL     1     -34.853  16.611  -5.995  1.00 20.00     0.069 C 
HETATM    8  C8  UNL     1     -33.207  14.802  -4.379  1.00 20.00     0.308 C 
HETATM    9  C9  UNL     1     -34.579  15.143  -6.327  1.00 20.00     0.274 C 
HETATM   10  N10 UNL     1     -33.254  14.755  -5.844  1.00 20.00     0.087 N 
HETATM   11 CL11 UNL     1     -33.508  18.035  -0.293  1.00 20.00    -0.084 Cl
HETATM   12  H21 UNL     1     -32.556  15.394  -6.224  1.00 20.00     0.316 HD
ENDROOT
TORSDOF 0
ENDMDL
MODEL 3
REMARK VINA RESULT:      -4.5      1.141      2.213
REMARK  0 active torsions:
REMARK  status: ('A' for Active; 'I' for Inactive)
ROOT
HETATM    1  C1  UNL     1     -33.291   5.223   2.908  1.00 20.00     0.009 A 
HETATM    2  C2  UNL     1     -32.675   6.011   1.935  1.00 20.00     0.024 A 
HETATM    3  C3  UNL     1     -32.789   7.921   3.410  1.00 20.00     0.033 A 
HETATM    4  C4  UNL     1     -33.667   5.781   4.137  1.00 20.00    -0.048 A 
HETATM    5  C5  UNL     1     -33.396   7.136   4.398  1.00 20.00    -0.022 A 
HETATM    6  C6  UNL     1     -32.426   7.359   2.185  1.00 20.00     0.034 A 
HETATM    7  C7  UNL     1     -34.300   4.916   5.197  1.00 20.00     0.069 C 
HETATM    8  C8  UNL     1     -33.818   7.763   5.704  1.00 20.00     0.308 C 
HETATM    9  C9  UNL     1     -34.971   5.736   6.300  1.00 20.00     0.274 C 
HETATM   10  N10 UNL     1     -34.069   6.787   6.770  1.00 20.00     0.087 N 
HETATM   11 CL11 UNL     1     -31.671   8.331   0.982  1.00 20.00    -0.084 Cl
HETATM   12  H21 UNL     1     -33.184   6.368   7.057  1.00 20.00     0.316 HD
ENDROOT
TORSDOF 0
ENDMDL
MODEL 4
REMARK VINA RESULT:      -4.1     12.410     13.385
REMARK  0 active torsions:
REMARK  status: ('A' for Active; 'I' for Inactive)
ROOT
HETATM    1  C1  UNL     1     -33.337  15.374  -3.850  1.00 20.00     0.009 A 
HETATM    2  C2  UNL     1     -33.738  14.998  -5.132  1.00 20.00     0.024 A 
HETATM    3  C3  UNL     1     -34.945  17.077  -5.365  1.00 20.00     0.033 A 
HETATM    4  C4  UNL     1     -33.744  16.603  -3.313  1.00 20.00    -0.048 A 
HETATM    5  C5  UNL     1     -34.538  17.470  -4.084  1.00 20.00    -0.022 A 
HETATM    6  C6  UNL     1     -34.543  15.847  -5.888  1.00 20.00     0.034 A 
HETATM    7  C7  UNL     1     -33.277  17.019  -1.941  1.00 20.00     0.069 C 
HETATM    8  C8  UNL     1     -35.009  18.785  -3.514  1.00 20.00     0.308 C 
HETATM    9  C9  UNL     1     -34.092  18.182  -1.372  1.00 20.00     0.274 C 
HETATM   10  N10 UNL     1     -34.218  19.246  -2.368  1.00 20.00     0.087 N 
HETATM   11 CL11 UNL     1     -35.042  15.379  -7.468  1.00 20.00    -0.084 Cl
HETATM   12  H21 UNL     1     -33.290  19.520  -2.689  1.00 20.00     0.316 HD
ENDROOT
TORSDOF 0
ENDMDL
MODEL 5
REMARK VINA RESULT:      -4.0      2.206      3.268
REMARK  0 active torsions:
REMARK  status: ('A' for Active; 'I' for Inactive)
ROOT
HETATM    1  C1  UNL     1     -34.352   5.333   4.925  1.00 20.00     0.009 A 
HETATM    2  C2  UNL     1     -34.062   4.500   3.844  1.00 20.00     0.024 A 
HETATM    3  C3  UNL     1     -32.649   6.217   2.900  1.00 20.00     0.033 A 
HETATM    4  C4  UNL     1     -33.798   6.618   4.997  1.00 20.00    -0.048 A 
HETATM    5  C5  UNL     1     -32.924   7.057   3.986  1.00 20.00    -0.022 A 
HETATM    6  C6  UNL     1     -33.213   4.943   2.831  1.00 20.00     0.034 A 
HETATM    7  C7  UNL     1     -34.088   7.499   6.186  1.00 20.00     0.069 C 
HETATM    8  C8  UNL     1     -32.339   8.447   4.032  1.00 20.00     0.308 C 
HETATM    9  C9  UNL     1     -33.720   8.963   5.934  1.00 20.00     0.274 C 
HETATM   10  N10 UNL     1     -32.376   9.057   5.366  1.00 20.00     0.087 N 
HETATM   11 CL11 UNL     1     -32.860   3.916   1.495  1.00 20.00    -0.084 Cl
HETATM   12  H21 UNL     1     -31.718   8.572   5.975  1.00 20.00     0.316 HD
ENDROOT
TORSDOF 0
ENDMDL
MODEL 6
REMARK VINA RESULT:      -3.7     12.483     13.857
REMARK  0 active torsions:
REMARK  status: ('A' for Active; 'I' for Inactive)
ROOT
HETATM    1  C1  UNL     1     -34.398  18.061  -4.695  1.00 20.00     0.009 A 
HETATM    2  C2  UNL     1     -35.330  18.817  -5.405  1.00 20.00     0.024 A 
HETATM    3  C3  UNL     1     -36.457  16.792  -6.084  1.00 20.00     0.033 A 
HETATM    4  C4  UNL     1     -34.483  16.663  -4.681  1.00 20.00    -0.048 A 
HETATM    5  C5  UNL     1     -35.533  16.023  -5.365  1.00 20.00    -0.022 A 
HETATM    6  C6  UNL     1     -36.358  18.183  -6.101  1.00 20.00     0.034 A 
HETATM    7  C7  UNL     1     -33.493  15.853  -3.883  1.00 20.00     0.069 C 
HETATM    8  C8  UNL     1     -35.627  14.517  -5.385  1.00 20.00     0.308 C 
HETATM    9  C9  UNL     1     -33.500  14.372  -4.268  1.00 20.00     0.274 C 
HETATM   10  N10 UNL     1     -34.872  13.867  -4.308  1.00 20.00     0.087 N 
HETATM   11 CL11 UNL     1     -37.505  19.117  -6.980  1.00 20.00    -0.084 Cl
HETATM   12  H21 UNL     1     -35.328  14.056  -3.416  1.00 20.00     0.316 HD
ENDROOT
TORSDOF 0
ENDMDL
MODEL 7
REMARK VINA RESULT:      -3.6     12.708     14.272
REMARK  0 active torsions:
REMARK  status: ('A' for Active; 'I' for Inactive)
ROOT
HETATM    1  C1  UNL     1     -33.667  16.398  -2.954  1.00 20.00     0.009 A 
HETATM    2  C2  UNL     1     -33.038  17.079  -1.912  1.00 20.00     0.024 A 
HETATM    3  C3  UNL     1     -33.014  19.095  -3.242  1.00 20.00     0.033 A 
HETATM    4  C4  UNL     1     -33.966  17.060  -4.153  1.00 20.00    -0.048 A 
HETATM    5  C5  UNL     1     -33.655  18.424  -4.291  1.00 20.00    -0.022 A 
HETATM    6  C6  UNL     1     -32.710  18.425  -2.056  1.00 20.00     0.034 A 
HETATM    7  C7  UNL     1     -34.677  16.328  -5.263  1.00 20.00     0.069 C 
HETATM    8  C8  UNL     1     -33.945  19.148  -5.583  1.00 20.00     0.308 C 
HETATM    9  C9  UNL     1     -34.594  17.066  -6.600  1.00 20.00     0.274 C 
HETATM   10  N10 UNL     1     -34.942  18.475  -6.422  1.00 20.00     0.087 N 
HETATM   11 CL11 UNL     1     -31.930  19.263  -0.770  1.00 20.00    -0.084 Cl
HETATM   12  H21 UNL     1     -35.857  18.543  -5.978  1.00 20.00     0.316 HD
ENDROOT
TORSDOF 0
ENDMDL
MODEL 8
REMARK VINA RESULT:      -3.6     12.768     13.458
REMARK  0 active torsions:
REMARK  status: ('A' for Active; 'I' for Inactive)
ROOT
HETATM    1  C1  UNL     1     -34.468  19.063   0.118  1.00 20.00     0.009 A 
HETATM    2  C2  UNL     1     -33.340  18.898   0.921  1.00 20.00     0.024 A 
HETATM    3  C3  UNL     1     -32.053  18.254  -1.019  1.00 20.00     0.033 A 
HETATM    4  C4  UNL     1     -34.399  18.817  -1.259  1.00 20.00    -0.048 A 
HETATM    5  C5  UNL     1     -33.177  18.429  -1.837  1.00 20.00    -0.022 A 
HETATM    6  C6  UNL     1     -32.134  18.492   0.353  1.00 20.00     0.034 A 
HETATM    7  C7  UNL     1     -35.613  19.032  -2.127  1.00 20.00     0.069 C 
HETATM    8  C8  UNL     1     -33.088  18.133  -3.314  1.00 20.00     0.308 C 
HETATM    9  C9  UNL     1     -35.475  18.378  -3.503  1.00 20.00     0.274 C 
HETATM   10  N10 UNL     1     -34.182  18.717  -4.097  1.00 20.00     0.087 N 
HETATM   11 CL11 UNL     1     -30.743  18.284   1.346  1.00 20.00    -0.084 Cl
HETATM   12  H21 UNL     1     -34.076  19.732  -4.117  1.00 20.00     0.316 HD
ENDROOT
TORSDOF 0
ENDMDL
MODEL 9
REMARK VINA RESULT:      -3.6     12.303     12.981
REMARK  0 active torsions:
REMARK  status: ('A' for Active; 'I' for Inactive)
ROOT
HETATM    1  C1  UNL     1     -32.156  18.425  -1.479  1.00 20.00     0.009 A 
HETATM    2  C2  UNL     1     -33.338  18.531  -2.211  1.00 20.00     0.024 A 
HETATM    3  C3  UNL     1     -34.564  18.948  -0.171  1.00 20.00     0.033 A 
HETATM    4  C4  UNL     1     -32.170  18.572  -0.086  1.00 20.00    -0.048 A 
HETATM    5  C5  UNL     1     -33.380  18.855   0.572  1.00 20.00    -0.022 A 
HETATM    6  C6  UNL     1     -34.542  18.791  -1.557  1.00 20.00     0.034 A 
HETATM    7  C7  UNL     1     -30.883  18.491   0.695  1.00 20.00     0.069 C 
HETATM    8  C8  UNL     1     -33.421  18.990   2.074  1.00 20.00     0.308 C 
HETATM    9  C9  UNL     1     -31.118  18.304   2.195  1.00 20.00     0.274 C 
HETATM   10  N10 UNL     1     -32.111  19.263   2.675  1.00 20.00     0.087 N 
HETATM   11 CL11 UNL     1     -36.001  18.917  -2.462  1.00 20.00    -0.084 Cl
HETATM   12  H21 UNL     1     -31.817  20.207   2.426  1.00 20.00     0.316 HD
ENDROOT
TORSDOF 0
ENDMDL
