MODEL 1
REMARK VINA RESULT:      -4.6      0.000      0.000
REMARK  0 active torsions:
REMARK  status: ('A' for Active; 'I' for Inactive)
ROOT
HETATM    1  C1  UNL     1     -32.678   7.915   4.197  1.00 20.00     0.064 C 
HETATM    2  C2  UNL     1     -35.585   5.597   4.322  1.00 20.00     0.011 C 
HETATM    3  C3  UNL     1     -34.142   4.991   6.115  1.00 20.00     0.010 C 
HETATM    4  C4  UNL     1     -33.717   6.943   3.853  1.00 20.00     0.101 C 
HETATM    5  C5  UNL     1     -34.348   4.738   4.609  1.00 20.00    -0.009 C 
HETATM    6  C6  UNL     1     -34.918   6.888   4.824  1.00 20.00     0.007 C 
HETATM    7  C7  UNL     1     -34.587   6.459   6.279  1.00 20.00    -0.013 C 
HETATM    8  C8  UNL     1     -33.222   5.477   3.838  1.00 20.00     0.003 C 
HETATM    9  C9  UNL     1     -33.600   7.307   7.061  1.00 20.00     0.010 C 
HETATM   10  C10 UNL     1     -33.050   4.945   2.418  1.00 20.00     0.011 C 
HETATM   11  N11 UNL     1     -31.855   8.685   4.470  1.00 20.00    -0.197 NA
ENDROOT
TORSDOF 0
ENDMDL
MODEL 2
REMARK VINA RESULT:      -3.7     10.449     11.546
REMARK  0 active torsions:
REMARK  status: ('A' for Active; 'I' for Inactive)
ROOT
HETATM    1  C1  UNL     1     -42.111  14.263   4.361  1.00 20.00     0.064 C 
HETATM    2  C2  UNL     1     -41.958  13.703   8.036  1.00 20.00     0.011 C 
HETATM    3  C3  UNL     1     -40.584  15.589   7.568  1.00 20.00     0.010 C 
HETATM    4  C4  UNL     1     -41.947  13.664   5.686  1.00 20.00     0.101 C 
HETATM    5  C5  UNL     1     -40.529  14.050   7.602  1.00 20.00    -0.009 C 
HETATM    6  C6  UNL     1     -42.595  14.447   6.851  1.00 20.00     0.007 C 
HETATM    7  C7  UNL     1     -42.027  15.870   7.102  1.00 20.00    -0.013 C 
HETATM    8  C8  UNL     1     -40.473  13.537   6.138  1.00 20.00     0.003 C 
HETATM    9  C9  UNL     1     -42.114  16.877   5.970  1.00 20.00     0.010 C 
HETATM   10  C10 UNL     1     -39.968  12.100   6.049  1.00 20.00     0.011 C 
HETATM   11  N11 UNL     1     -42.240  14.739   3.312  1.00 20.00    -0.197 NA
ENDROOT
TORSDOF 0
ENDMDL
MODEL 3
REMARK VINA RESULT:      -3.6     13.095     14.291
REMARK  0 active torsions:
REMARK  status: ('A' for Active; 'I' for Inactive)
ROOT
HETATM    1  C1  UNL     1     -36.161  18.988  -2.354  1.00 20.00     0.064 C 
HETATM    2  C2  UNL     1     -32.443  18.938  -2.240  1.00 20.00     0.011 C 
HETATM    3  C3  UNL     1     -33.149  16.715  -2.712  1.00 20.00     0.010 C 
HETATM    4  C4  UNL     1     -34.766  19.144  -1.944  1.00 20.00     0.101 C 
HETATM    5  C5  UNL     1     -32.904  17.664  -1.524  1.00 20.00    -0.009 C 
HETATM    6  C6  UNL     1     -33.725  19.038  -3.082  1.00 20.00     0.007 C 
HETATM    7  C7  UNL     1     -33.664  17.668  -3.810  1.00 20.00    -0.013 C 
HETATM    8  C8  UNL     1     -34.285  18.070  -0.940  1.00 20.00     0.003 C 
HETATM    9  C9  UNL     1     -34.924  17.174  -4.499  1.00 20.00     0.010 C 
HETATM   10  C10 UNL     1     -34.171  18.621   0.479  1.00 20.00     0.011 C 
HETATM   11  N11 UNL     1     -37.267  18.864  -2.680  1.00 20.00    -0.197 NA
ENDROOT
TORSDOF 0
ENDMDL
MODEL 4
REMARK VINA RESULT:      -3.6     12.938     14.390
REMARK  0 active torsions:
REMARK  status: ('A' for Active; 'I' for Inactive)
ROOT
HETATM    1  C1  UNL     1     -35.885  14.154  -5.073  1.00 20.00     0.064 C 
HETATM    2  C2  UNL     1     -35.015  17.455  -6.552  1.00 20.00     0.011 C 
HETATM    3  C3  UNL     1     -34.930  17.714  -4.188  1.00 20.00     0.010 C 
HETATM    4  C4  UNL     1     -35.897  15.391  -5.854  1.00 20.00     0.101 C 
HETATM    5  C5  UNL     1     -35.930  17.755  -5.360  1.00 20.00    -0.009 C 
HETATM    6  C6  UNL     1     -34.537  16.117  -5.965  1.00 20.00     0.007 C 
HETATM    7  C7  UNL     1     -33.934  16.622  -4.627  1.00 20.00    -0.013 C 
HETATM    8  C8  UNL     1     -36.823  16.487  -5.275  1.00 20.00     0.003 C 
HETATM    9  C9  UNL     1     -33.646  15.595  -3.546  1.00 20.00     0.010 C 
HETATM   10  C10 UNL     1     -38.111  16.634  -6.081  1.00 20.00     0.011 C 
HETATM   11  N11 UNL     1     -35.875  13.173  -4.454  1.00 20.00    -0.197 NA
ENDROOT
TORSDOF 0
ENDMDL
MODEL 5
REMARK VINA RESULT:      -3.5     10.130     11.151
REMARK  0 active torsions:
REMARK  status: ('A' for Active; 'I' for Inactive)
ROOT
HETATM    1  C1  UNL     1     -40.256  14.875   8.430  1.00 20.00     0.064 C 
HETATM    2  C2  UNL     1     -42.013  13.997   5.269  1.00 20.00     0.011 C 
HETATM    3  C3  UNL     1     -42.989  12.676   6.991  1.00 20.00     0.010 C 
HETATM    4  C4  UNL     1     -40.562  14.468   7.058  1.00 20.00     0.101 C 
HETATM    5  C5  UNL     1     -41.798  12.675   6.013  1.00 20.00    -0.009 C 
HETATM    6  C6  UNL     1     -41.978  14.834   6.559  1.00 20.00     0.007 C 
HETATM    7  C7  UNL     1     -43.153  14.171   7.328  1.00 20.00    -0.013 C 
HETATM    8  C8  UNL     1     -40.504  12.938   6.831  1.00 20.00     0.003 C 
HETATM    9  C9  UNL     1     -43.271  14.448   8.816  1.00 20.00     0.010 C 
HETATM   10  C10 UNL     1     -39.247  12.518   6.073  1.00 20.00     0.011 C 
HETATM   11  N11 UNL     1     -40.015  15.197   9.517  1.00 20.00    -0.197 NA
ENDROOT
TORSDOF 0
ENDMDL
MODEL 6
REMARK VINA RESULT:      -3.5      8.801     10.300
REMARK  0 active torsions:
REMARK  status: ('A' for Active; 'I' for Inactive)
ROOT
HETATM    1  C1  UNL     1     -42.573   5.012  -1.511  1.00 20.00     0.064 C 
HETATM    2  C2  UNL     1     -41.195   6.640   1.537  1.00 20.00     0.011 C 
HETATM    3  C3  UNL     1     -43.417   5.968   2.059  1.00 20.00     0.010 C 
HETATM    4  C4  UNL     1     -41.953   5.954  -0.580  1.00 20.00     0.101 C 
HETATM    5  C5  UNL     1     -42.641   7.132   1.413  1.00 20.00    -0.009 C 
HETATM    6  C6  UNL     1     -41.473   5.344   0.757  1.00 20.00     0.007 C 
HETATM    7  C7  UNL     1     -42.584   4.735   1.654  1.00 20.00    -0.013 C 
HETATM    8  C8  UNL     1     -42.896   7.090  -0.118  1.00 20.00     0.003 C 
HETATM    9  C9  UNL     1     -43.416   3.602   1.081  1.00 20.00     0.010 C 
HETATM   10  C10 UNL     1     -42.568   8.419  -0.794  1.00 20.00     0.011 C 
HETATM   11  N11 UNL     1     -43.065   4.264  -2.249  1.00 20.00    -0.197 NA
ENDROOT
TORSDOF 0
ENDMDL
MODEL 7
REMARK VINA RESULT:      -3.5      1.742      3.387
REMARK  0 active torsions:
REMARK  status: ('A' for Active; 'I' for Inactive)
ROOT
HETATM    1  C1  UNL     1     -33.465   5.359   3.262  1.00 20.00     0.064 C 
HETATM    2  C2  UNL     1     -34.664   8.343   5.133  1.00 20.00     0.011 C 
HETATM    3  C3  UNL     1     -32.292   8.314   5.326  1.00 20.00     0.010 C 
HETATM    4  C4  UNL     1     -34.173   6.251   4.181  1.00 20.00     0.101 C 
HETATM    5  C5  UNL     1     -33.553   7.727   5.989  1.00 20.00    -0.009 C 
HETATM    6  C6  UNL     1     -34.108   7.754   3.826  1.00 20.00     0.007 C 
HETATM    7  C7  UNL     1     -32.691   8.387   3.838  1.00 20.00    -0.013 C 
HETATM    8  C8  UNL     1     -33.628   6.218   5.628  1.00 20.00     0.003 C 
HETATM    9  C9  UNL     1     -31.647   7.805   2.902  1.00 20.00     0.010 C 
HETATM   10  C10 UNL     1     -34.547   5.445   6.570  1.00 20.00     0.011 C 
HETATM   11  N11 UNL     1     -32.904   4.653   2.533  1.00 20.00    -0.197 NA
ENDROOT
TORSDOF 0
ENDMDL
MODEL 8
REMARK VINA RESULT:      -3.4     12.636     14.305
REMARK  0 active torsions:
REMARK  status: ('A' for Active; 'I' for Inactive)
ROOT
HETATM    1  C1  UNL     1     -36.030  16.474  -5.284  1.00 20.00     0.064 C 
HETATM    2  C2  UNL     1     -33.258  18.491  -3.840  1.00 20.00     0.011 C 
HETATM    3  C3  UNL     1     -33.626  16.665  -2.359  1.00 20.00     0.010 C 
HETATM    4  C4  UNL     1     -35.215  17.570  -4.760  1.00 20.00     0.101 C 
HETATM    5  C5  UNL     1     -34.144  18.085  -2.657  1.00 20.00    -0.009 C 
HETATM    6  C6  UNL     1     -33.695  17.292  -4.697  1.00 20.00     0.007 C 
HETATM    7  C7  UNL     1     -33.263  16.132  -3.760  1.00 20.00    -0.013 C 
HETATM    8  C8  UNL     1     -35.552  17.958  -3.301  1.00 20.00     0.003 C 
HETATM    9  C9  UNL     1     -33.816  14.747  -4.044  1.00 20.00     0.010 C 
HETATM   10  C10 UNL     1     -36.341  19.263  -3.223  1.00 20.00     0.011 C 
HETATM   11  N11 UNL     1     -36.676  15.605  -5.699  1.00 20.00    -0.197 NA
ENDROOT
TORSDOF 0
ENDMDL
MODEL 9
REMARK VINA RESULT:      -3.4     13.522     15.177
REMARK  0 active torsions:
REMARK  status: ('A' for Active; 'I' for Inactive)
ROOT
HETATM    1  C1  UNL     1     -34.355  15.580  -5.895  1.00 20.00     0.064 C 
HETATM    2  C2  UNL     1     -35.539  18.498  -3.914  1.00 20.00     0.011 C 
HETATM    3  C3  UNL     1     -33.683  19.246  -5.202  1.00 20.00     0.010 C 
HETATM    4  C4  UNL     1     -34.777  16.461  -4.806  1.00 20.00     0.101 C 
HETATM    5  C5  UNL     1     -34.009  18.550  -3.866  1.00 20.00    -0.009 C 
HETATM    6  C6  UNL     1     -35.563  17.720  -5.240  1.00 20.00     0.007 C 
HETATM    7  C7  UNL     1     -34.788  18.719  -6.140  1.00 20.00    -0.013 C 
HETATM    8  C8  UNL     1     -33.603  17.056  -3.991  1.00 20.00     0.003 C 
HETATM    9  C9  UNL     1     -34.261  18.212  -7.471  1.00 20.00     0.010 C 
HETATM   10  C10 UNL     1     -33.452  16.384  -2.629  1.00 20.00     0.011 C 
HETATM   11  N11 UNL     1     -34.021  14.882  -6.758  1.00 20.00    -0.197 NA
ENDROOT
TORSDOF 0
ENDMDL
