MODEL 1
REMARK VINA RESULT:      -4.1      0.000      0.000
REMARK  1 active torsions:
REMARK  status: ('A' for Active; 'I' for Inactive)
REMARK    1  A    between atoms: C3_3  and  C4_4 
ROOT
HETATM    1  C1  UNL     1     -33.787   7.038   5.906  1.00 20.00     0.087 A 
HETATM    2  C2  UNL     1     -34.533   5.074   4.726  1.00 20.00     0.166 A 
HETATM    3  C3  UNL     1     -33.423   6.960   4.577  1.00 20.00     0.125 A 
HETATM    4  N5  UNL     1     -33.849   5.835   3.900  1.00 20.00    -0.249 NA
HETATM    5  S7  UNL     1     -34.703   5.652   6.334  1.00 20.00    -0.092 SA
ENDROOT
BRANCH   3   6
HETATM    6  C4  UNL     1     -32.649   7.962   3.902  1.00 20.00     0.271 C 
HETATM    7  O6  UNL     1     -32.288   8.996   4.521  1.00 20.00    -0.272 OA
HETATM    8 CL8  UNL     1     -32.173   7.788   2.192  1.00 20.00    -0.037 Cl
ENDBRANCH   3   6
TORSDOF 1
ENDMDL
MODEL 2
REMARK VINA RESULT:      -3.9      1.165      1.459
REMARK  1 active torsions:
REMARK  status: ('A' for Active; 'I' for Inactive)
REMARK    1  A    between atoms: C3_3  and  C4_4 
ROOT
HETATM    1  C1  UNL     1     -33.916   5.980   4.089  1.00 20.00     0.087 A 
HETATM    2  C2  UNL     1     -34.421   6.343   6.417  1.00 20.00     0.166 A 
HETATM    3  C3  UNL     1     -33.398   7.131   4.644  1.00 20.00     0.125 A 
HETATM    4  N5  UNL     1     -33.687   7.341   5.978  1.00 20.00    -0.249 NA
HETATM    5  S7  UNL     1     -34.801   5.116   5.278  1.00 20.00    -0.092 SA
ENDROOT
BRANCH   3   6
HETATM    6  C4  UNL     1     -32.604   8.081   3.917  1.00 20.00     0.271 C 
HETATM    7  O6  UNL     1     -32.210   9.132   4.486  1.00 20.00    -0.272 OA
HETATM    8 CL8  UNL     1     -32.150   7.817   2.213  1.00 20.00    -0.037 Cl
ENDBRANCH   3   6
TORSDOF 1
ENDMDL
MODEL 3
REMARK VINA RESULT:      -3.8      3.165      3.580
REMARK  1 active torsions:
REMARK  status: ('A' for Active; 'I' for Inactive)
REMARK    1  A    between atoms: C3_3  and  C4_4 
ROOT
HETATM    1  C1  UNL     1     -33.509   8.108   5.288  1.00 20.00     0.087 A 
HETATM    2  C2  UNL     1     -32.137   7.659   3.359  1.00 20.00     0.166 A 
HETATM    3  C3  UNL     1     -33.759   6.918   4.635  1.00 20.00     0.125 A 
HETATM    4  N5  UNL     1     -32.974   6.660   3.530  1.00 20.00    -0.249 NA
HETATM    5  S7  UNL     1     -32.239   8.944   4.493  1.00 20.00    -0.092 SA
ENDROOT
BRANCH   3   6
HETATM    6  C4  UNL     1     -34.765   5.980   5.045  1.00 20.00     0.271 C 
HETATM    7  O6  UNL     1     -35.789   5.811   4.333  1.00 20.00    -0.272 OA
HETATM    8 CL8  UNL     1     -34.609   5.030   6.546  1.00 20.00    -0.037 Cl
ENDBRANCH   3   6
TORSDOF 1
ENDMDL
MODEL 4
REMARK VINA RESULT:      -3.5      9.736      9.965
REMARK  1 active torsions:
REMARK  status: ('A' for Active; 'I' for Inactive)
REMARK    1  A    between atoms: C3_3  and  C4_4 
ROOT
HETATM    1  C1  UNL     1     -41.494  13.734   5.174  1.00 20.00     0.087 A 
HETATM    2  C2  UNL     1     -43.029  12.981   6.871  1.00 20.00     0.166 A 
HETATM    3  C3  UNL     1     -41.049  12.700   5.971  1.00 20.00     0.125 A 
HETATM    4  N5  UNL     1     -41.927  12.268   6.945  1.00 20.00    -0.249 NA
HETATM    5  S7  UNL     1     -43.077  14.189   5.653  1.00 20.00    -0.092 SA
ENDROOT
BRANCH   3   6
HETATM    6  C4  UNL     1     -39.759  12.085   5.834  1.00 20.00     0.271 C 
HETATM    7  O6  UNL     1     -39.070  11.843   6.859  1.00 20.00    -0.272 OA
HETATM    8 CL8  UNL     1     -39.094  11.642   4.240  1.00 20.00    -0.037 Cl
ENDBRANCH   3   6
TORSDOF 1
ENDMDL
MODEL 5
REMARK VINA RESULT:      -3.5     12.689     12.929
REMARK  1 active torsions:
REMARK  status: ('A' for Active; 'I' for Inactive)
REMARK    1  A    between atoms: C3_3  and  C4_4 
ROOT
HETATM    1  C1  UNL     1     -32.840  18.608   0.794  1.00 20.00     0.087 A 
HETATM    2  C2  UNL     1     -30.509  19.106   1.146  1.00 20.00     0.166 A 
HETATM    3  C3  UNL     1     -32.043  18.581  -0.331  1.00 20.00     0.125 A 
HETATM    4  N5  UNL     1     -30.707  18.866  -0.132  1.00 20.00    -0.249 NA
HETATM    5  S7  UNL     1     -31.887  19.005   2.165  1.00 20.00    -0.092 SA
ENDROOT
BRANCH   3   6
HETATM    6  C4  UNL     1     -32.530  18.281  -1.648  1.00 20.00     0.271 C 
HETATM    7  O6  UNL     1     -32.289  19.069  -2.598  1.00 20.00    -0.272 OA
HETATM    8 CL8  UNL     1     -33.477  16.808  -1.987  1.00 20.00    -0.037 Cl
ENDBRANCH   3   6
TORSDOF 1
ENDMDL
MODEL 6
REMARK VINA RESULT:      -3.5      3.382      3.920
REMARK  1 active torsions:
REMARK  status: ('A' for Active; 'I' for Inactive)
REMARK    1  A    between atoms: C3_3  and  C4_4 
ROOT
HETATM    1  C1  UNL     1     -32.919   6.234   3.074  1.00 20.00     0.087 A 
HETATM    2  C2  UNL     1     -32.607   8.430   4.015  1.00 20.00     0.166 A 
HETATM    3  C3  UNL     1     -33.503   6.449   4.305  1.00 20.00     0.125 A 
HETATM    4  N5  UNL     1     -33.325   7.706   4.846  1.00 20.00    -0.249 NA
HETATM    5  S7  UNL     1     -32.112   7.660   2.563  1.00 20.00    -0.092 SA
ENDROOT
BRANCH   3   6
HETATM    6  C4  UNL     1     -34.256   5.455   5.015  1.00 20.00     0.271 C 
HETATM    7  O6  UNL     1     -34.474   4.336   4.481  1.00 20.00    -0.272 OA
HETATM    8 CL8  UNL     1     -34.900   5.754   6.651  1.00 20.00    -0.037 Cl
ENDBRANCH   3   6
TORSDOF 1
ENDMDL
MODEL 7
REMARK VINA RESULT:      -3.5      1.971      2.016
REMARK  1 active torsions:
REMARK  status: ('A' for Active; 'I' for Inactive)
REMARK    1  A    between atoms: C3_3  and  C4_4 
ROOT
HETATM    1  C1  UNL     1     -33.390   7.194   5.029  1.00 20.00     0.087 A 
HETATM    2  C2  UNL     1     -34.786   5.384   5.792  1.00 20.00     0.166 A 
HETATM    3  C3  UNL     1     -33.524   6.130   4.161  1.00 20.00     0.125 A 
HETATM    4  N5  UNL     1     -34.323   5.092   4.597  1.00 20.00    -0.249 NA
HETATM    5  S7  UNL     1     -34.300   6.893   6.452  1.00 20.00    -0.092 SA
ENDROOT
BRANCH   3   6
HETATM    6  C4  UNL     1     -32.889   6.064   2.875  1.00 20.00     0.271 C 
HETATM    7  O6  UNL     1     -32.812   4.962   2.272  1.00 20.00    -0.272 OA
HETATM    8 CL8  UNL     1     -32.198   7.509   2.093  1.00 20.00    -0.037 Cl
ENDBRANCH   3   6
TORSDOF 1
ENDMDL
MODEL 8
REMARK VINA RESULT:      -3.5      1.918      2.273
REMARK  1 active torsions:
REMARK  status: ('A' for Active; 'I' for Inactive)
REMARK    1  A    between atoms: C3_3  and  C4_4 
ROOT
HETATM    1  C1  UNL     1     -34.287   5.225   4.736  1.00 20.00     0.087 A 
HETATM    2  C2  UNL     1     -33.935   7.156   6.134  1.00 20.00     0.166 A 
HETATM    3  C3  UNL     1     -33.483   6.213   4.206  1.00 20.00     0.125 A 
HETATM    4  N5  UNL     1     -33.281   7.320   5.006  1.00 20.00    -0.249 NA
HETATM    5  S7  UNL     1     -34.815   5.691   6.301  1.00 20.00    -0.092 SA
ENDROOT
BRANCH   3   6
HETATM    6  C4  UNL     1     -32.876   6.137   2.908  1.00 20.00     0.271 C 
HETATM    7  O6  UNL     1     -32.813   5.031   2.311  1.00 20.00    -0.272 OA
HETATM    8 CL8  UNL     1     -32.201   7.576   2.100  1.00 20.00    -0.037 Cl
ENDBRANCH   3   6
TORSDOF 1
ENDMDL
MODEL 9
REMARK VINA RESULT:      -3.4      2.772      3.259
REMARK  1 active torsions:
REMARK  status: ('A' for Active; 'I' for Inactive)
REMARK    1  A    between atoms: C3_3  and  C4_4 
ROOT
HETATM    1  C1  UNL     1     -32.529   7.463   3.750  1.00 20.00     0.087 A 
HETATM    2  C2  UNL     1     -33.632   8.293   5.725  1.00 20.00     0.166 A 
HETATM    3  C3  UNL     1     -33.432   6.603   4.341  1.00 20.00     0.125 A 
HETATM    4  N5  UNL     1     -34.064   7.077   5.473  1.00 20.00    -0.249 NA
HETATM    5  S7  UNL     1     -32.463   8.928   4.640  1.00 20.00    -0.092 SA
ENDROOT
BRANCH   3   6
HETATM    6  C4  UNL     1     -33.725   5.289   3.844  1.00 20.00     0.271 C 
HETATM    7  O6  UNL     1     -34.506   4.539   4.485  1.00 20.00    -0.272 OA
HETATM    8 CL8  UNL     1     -33.013   4.676   2.329  1.00 20.00    -0.037 Cl
ENDBRANCH   3   6
TORSDOF 1
ENDMDL
