MODEL 1
REMARK VINA RESULT:      -4.3      0.000      0.000
REMARK  1 active torsions:
REMARK  status: ('A' for Active; 'I' for Inactive)
REMARK    1  A    between atoms: C1_1  and  C2_2 
ROOT
HETATM    1  C1  UNL     1     -34.827   5.597   4.941  1.00 20.00     0.346 C 
HETATM    2  O3  UNL     1     -34.504   4.435   4.742  1.00 20.00    -0.255 OA
HETATM    3  F4  UNL     1     -35.958   6.022   4.359  1.00 20.00    -0.160 F 
ENDROOT
BRANCH   1   4
HETATM    4  C2  UNL     1     -34.032   6.582   5.733  1.00 20.00     0.369 C 
HETATM    5  F5  UNL     1     -34.686   6.957   6.863  1.00 20.00    -0.222 F 
HETATM    6 CL6  UNL     1     -33.744   8.001   4.720  1.00 20.00    -0.078 Cl
ENDBRANCH   1   4
TORSDOF 1
ENDMDL
MODEL 2
REMARK VINA RESULT:      -3.9      1.292      1.292
REMARK  1 active torsions:
REMARK  status: ('A' for Active; 'I' for Inactive)
REMARK    1  A    between atoms: C1_1  and  C2_2 
ROOT
HETATM    1  C1  UNL     1     -34.659   5.679   5.123  1.00 20.00     0.346 C 
HETATM    2  O3  UNL     1     -35.660   5.879   4.451  1.00 20.00    -0.255 OA
HETATM    3  F4  UNL     1     -34.247   4.409   5.241  1.00 20.00    -0.160 F 
ENDROOT
BRANCH   1   4
HETATM    4  C2  UNL     1     -33.900   6.734   5.860  1.00 20.00     0.369 C 
HETATM    5  F5  UNL     1     -34.579   7.164   6.955  1.00 20.00    -0.222 F 
HETATM    6 CL6  UNL     1     -33.635   8.091   4.760  1.00 20.00    -0.078 Cl
ENDBRANCH   1   4
TORSDOF 1
ENDMDL
MODEL 3
REMARK VINA RESULT:      -3.9      1.663      1.663
REMARK  1 active torsions:
REMARK  status: ('A' for Active; 'I' for Inactive)
REMARK    1  A    between atoms: C1_1  and  C2_2 
ROOT
HETATM    1  C1  UNL     1     -35.026   5.728   4.612  1.00 20.00     0.346 C 
HETATM    2  O3  UNL     1     -34.725   4.563   4.830  1.00 20.00    -0.255 OA
HETATM    3  F4  UNL     1     -36.254   5.958   4.125  1.00 20.00    -0.160 F 
ENDROOT
BRANCH   1   4
HETATM    4  C2  UNL     1     -34.114   6.895   4.798  1.00 20.00     0.369 C 
HETATM    5  F5  UNL     1     -33.010   6.796   4.013  1.00 20.00    -0.222 F 
HETATM    6 CL6  UNL     1     -33.627   6.949   6.496  1.00 20.00    -0.078 Cl
ENDBRANCH   1   4
TORSDOF 1
ENDMDL
MODEL 4
REMARK VINA RESULT:      -3.9      2.031      2.031
REMARK  1 active torsions:
REMARK  status: ('A' for Active; 'I' for Inactive)
REMARK    1  A    between atoms: C1_1  and  C2_2 
ROOT
HETATM    1  C1  UNL     1     -34.097   5.483   4.198  1.00 20.00     0.346 C 
HETATM    2  O3  UNL     1     -34.633   4.524   4.734  1.00 20.00    -0.255 OA
HETATM    3  F4  UNL     1     -33.502   5.266   3.016  1.00 20.00    -0.160 F 
ENDROOT
BRANCH   1   4
HETATM    4  C2  UNL     1     -34.013   6.854   4.786  1.00 20.00     0.369 C 
HETATM    5  F5  UNL     1     -32.797   7.417   4.567  1.00 20.00    -0.222 F 
HETATM    6 CL6  UNL     1     -34.299   6.726   6.525  1.00 20.00    -0.078 Cl
ENDBRANCH   1   4
TORSDOF 1
ENDMDL
MODEL 5
REMARK VINA RESULT:      -3.9      2.165      2.803
REMARK  1 active torsions:
REMARK  status: ('A' for Active; 'I' for Inactive)
REMARK    1  A    between atoms: C1_1  and  C2_2 
ROOT
HETATM    1  C1  UNL     1     -33.745   7.201   4.770  1.00 20.00     0.346 C 
HETATM    2  O3  UNL     1     -32.882   7.496   3.956  1.00 20.00    -0.255 OA
HETATM    3  F4  UNL     1     -33.991   8.088   5.745  1.00 20.00    -0.160 F 
ENDROOT
BRANCH   1   4
HETATM    4  C2  UNL     1     -34.499   5.912   4.786  1.00 20.00     0.369 C 
HETATM    5  F5  UNL     1     -35.774   6.074   4.349  1.00 20.00    -0.222 F 
HETATM    6 CL6  UNL     1     -34.517   5.306   6.446  1.00 20.00    -0.078 Cl
ENDBRANCH   1   4
TORSDOF 1
ENDMDL
MODEL 6
REMARK VINA RESULT:      -3.9      2.261      2.679
REMARK  1 active torsions:
REMARK  status: ('A' for Active; 'I' for Inactive)
REMARK    1  A    between atoms: C1_1  and  C2_2 
ROOT
HETATM    1  C1  UNL     1     -33.698   5.919   3.956  1.00 20.00     0.346 C 
HETATM    2  O3  UNL     1     -33.213   7.030   4.113  1.00 20.00    -0.255 OA
HETATM    3  F4  UNL     1     -33.157   5.148   3.002  1.00 20.00    -0.160 F 
ENDROOT
BRANCH   1   4
HETATM    4  C2  UNL     1     -34.873   5.385   4.708  1.00 20.00     0.369 C 
HETATM    5  F5  UNL     1     -36.030   5.974   4.308  1.00 20.00    -0.222 F 
HETATM    6 CL6  UNL     1     -34.615   5.698   6.427  1.00 20.00    -0.078 Cl
ENDBRANCH   1   4
TORSDOF 1
ENDMDL
MODEL 7
REMARK VINA RESULT:      -3.9      2.313      2.542
REMARK  1 active torsions:
REMARK  status: ('A' for Active; 'I' for Inactive)
REMARK    1  A    between atoms: C1_1  and  C2_2 
ROOT
HETATM    1  C1  UNL     1     -33.793   7.276   4.951  1.00 20.00     0.346 C 
HETATM    2  O3  UNL     1     -33.012   7.145   4.020  1.00 20.00    -0.255 OA
HETATM    3  F4  UNL     1     -33.833   8.476   5.547  1.00 20.00    -0.160 F 
ENDROOT
BRANCH   1   4
HETATM    4  C2  UNL     1     -34.656   6.189   5.501  1.00 20.00     0.369 C 
HETATM    5  F5  UNL     1     -34.397   5.961   6.815  1.00 20.00    -0.222 F 
HETATM    6 CL6  UNL     1     -34.345   4.716   4.576  1.00 20.00    -0.078 Cl
ENDBRANCH   1   4
TORSDOF 1
ENDMDL
MODEL 8
REMARK VINA RESULT:      -3.8      2.099      2.786
REMARK  1 active torsions:
REMARK  status: ('A' for Active; 'I' for Inactive)
REMARK    1  A    between atoms: C1_1  and  C2_2 
ROOT
HETATM    1  C1  UNL     1     -34.182   6.598   5.750  1.00 20.00     0.346 C 
HETATM    2  O3  UNL     1     -33.288   7.426   5.850  1.00 20.00    -0.255 OA
HETATM    3  F4  UNL     1     -34.765   6.192   6.887  1.00 20.00    -0.160 F 
ENDROOT
BRANCH   1   4
HETATM    4  C2  UNL     1     -34.630   5.975   4.469  1.00 20.00     0.369 C 
HETATM    5  F5  UNL     1     -35.984   5.973   4.361  1.00 20.00    -0.222 F 
HETATM    6 CL6  UNL     1     -34.033   4.313   4.426  1.00 20.00    -0.078 Cl
ENDBRANCH   1   4
TORSDOF 1
ENDMDL
MODEL 9
REMARK VINA RESULT:      -3.8      2.056      2.629
REMARK  1 active torsions:
REMARK  status: ('A' for Active; 'I' for Inactive)
REMARK    1  A    between atoms: C1_1  and  C2_2 
ROOT
HETATM    1  C1  UNL     1     -34.010   6.945   5.661  1.00 20.00     0.346 C 
HETATM    2  O3  UNL     1     -33.053   7.596   5.269  1.00 20.00    -0.255 OA
HETATM    3  F4  UNL     1     -34.473   7.221   6.889  1.00 20.00    -0.160 F 
ENDROOT
BRANCH   1   4
HETATM    4  C2  UNL     1     -34.661   5.838   4.897  1.00 20.00     0.369 C 
HETATM    5  F5  UNL     1     -34.827   4.731   5.666  1.00 20.00    -0.222 F 
HETATM    6 CL6  UNL     1     -33.635   5.446   3.514  1.00 20.00    -0.078 Cl
ENDBRANCH   1   4
TORSDOF 1
ENDMDL
