MODEL 1
REMARK VINA RESULT:      -5.1      0.000      0.000
REMARK  1 active torsions:
REMARK  status: ('A' for Active; 'I' for Inactive)
REMARK    1  A    between atoms: C10_10  and  O11_11 
ROOT
HETATM    1  C1  UNL     1     -32.086   8.426   4.154  1.00 20.00    -0.030 C 
HETATM    2  C2  UNL     1     -32.241   7.325   3.384  1.00 20.00    -0.025 C 
HETATM    3  C3  UNL     1     -33.227   8.572   5.165  1.00 20.00     0.032 C 
HETATM    4  C4  UNL     1     -35.614   5.964   4.373  1.00 20.00     0.013 C 
HETATM    5  C5  UNL     1     -33.813   4.421   4.728  1.00 20.00     0.037 C 
HETATM    6  C6  UNL     1     -33.587   6.777   3.680  1.00 20.00     0.017 C 
HETATM    7  C7  UNL     1     -33.617   7.113   5.179  1.00 20.00     0.003 C 
HETATM    8  C8  UNL     1     -34.325   5.436   3.681  1.00 20.00    -0.004 C 
HETATM    9  C9  UNL     1     -34.880   6.375   5.664  1.00 20.00     0.020 C 
HETATM   10  C10 UNL     1     -34.412   4.946   6.062  1.00 20.00     0.123 C 
ENDROOT
BRANCH  10  11
HETATM   11  O11 UNL     1     -33.466   4.923   7.111  1.00 20.00    -0.395 OA
HETATM   12  H25 UNL     1     -32.597   5.120   6.721  1.00 20.00     0.210 HD
ENDBRANCH  10  11
TORSDOF 1
ENDMDL
MODEL 2
REMARK VINA RESULT:      -4.4     12.447     13.547
REMARK  1 active torsions:
REMARK  status: ('A' for Active; 'I' for Inactive)
REMARK    1  A    between atoms: C10_10  and  O11_11 
ROOT
HETATM    1  C1  UNL     1     -33.675  17.759  -2.727  1.00 20.00    -0.030 C 
HETATM    2  C2  UNL     1     -33.388  16.443  -2.601  1.00 20.00    -0.025 C 
HETATM    3  C3  UNL     1     -34.162  18.097  -4.139  1.00 20.00     0.032 C 
HETATM    4  C4  UNL     1     -33.786  15.064  -6.087  1.00 20.00     0.013 C 
HETATM    5  C5  UNL     1     -35.231  14.034  -4.474  1.00 20.00     0.037 C 
HETATM    6  C6  UNL     1     -33.463  15.853  -3.960  1.00 20.00     0.017 C 
HETATM    7  C7  UNL     1     -34.630  16.704  -4.486  1.00 20.00     0.003 C 
HETATM    8  C8  UNL     1     -33.770  14.512  -4.633  1.00 20.00    -0.004 C 
HETATM    9  C9  UNL     1     -34.967  16.019  -5.825  1.00 20.00     0.020 C 
HETATM   10  C10 UNL     1     -36.011  14.916  -5.487  1.00 20.00     0.123 C 
ENDROOT
BRANCH  10  11
HETATM   11  O11 UNL     1     -37.215  15.413  -4.938  1.00 20.00    -0.395 OA
HETATM   12  H25 UNL     1     -37.205  15.207  -3.987  1.00 20.00     0.210 HD
ENDBRANCH  10  11
TORSDOF 1
ENDMDL
MODEL 3
REMARK VINA RESULT:      -4.3     13.081     14.388
REMARK  1 active torsions:
REMARK  status: ('A' for Active; 'I' for Inactive)
REMARK    1  A    between atoms: C10_10  and  O11_11 
ROOT
HETATM    1  C1  UNL     1     -33.119  17.337  -2.978  1.00 20.00    -0.030 C 
HETATM    2  C2  UNL     1     -33.733  18.136  -3.881  1.00 20.00    -0.025 C 
HETATM    3  C3  UNL     1     -33.581  15.883  -3.105  1.00 20.00     0.032 C 
HETATM    4  C4  UNL     1     -36.255  15.887  -5.551  1.00 20.00     0.013 C 
HETATM    5  C5  UNL     1     -34.657  16.833  -7.069  1.00 20.00     0.037 C 
HETATM    6  C6  UNL     1     -34.789  17.321  -4.530  1.00 20.00     0.017 C 
HETATM    7  C7  UNL     1     -34.034  15.983  -4.543  1.00 20.00     0.003 C 
HETATM    8  C8  UNL     1     -35.538  17.232  -5.862  1.00 20.00    -0.004 C 
HETATM    9  C9  UNL     1     -34.940  15.094  -5.416  1.00 20.00     0.020 C 
HETATM   10  C10 UNL     1     -34.459  15.304  -6.880  1.00 20.00     0.123 C 
ENDROOT
BRANCH  10  11
HETATM   11  O11 UNL     1     -33.120  14.913  -7.106  1.00 20.00    -0.395 OA
HETATM   12  H25 UNL     1     -33.073  13.951  -6.969  1.00 20.00     0.210 HD
ENDBRANCH  10  11
TORSDOF 1
ENDMDL
MODEL 4
REMARK VINA RESULT:      -4.2      1.843      3.756
REMARK  1 active torsions:
REMARK  status: ('A' for Active; 'I' for Inactive)
REMARK    1  A    between atoms: C10_10  and  O11_11 
ROOT
HETATM    1  C1  UNL     1     -34.617   4.989   6.034  1.00 20.00    -0.030 C 
HETATM    2  C2  UNL     1     -33.741   5.828   6.632  1.00 20.00    -0.025 C 
HETATM    3  C3  UNL     1     -35.255   5.626   4.797  1.00 20.00     0.032 C 
HETATM    4  C4  UNL     1     -34.101   9.061   4.727  1.00 20.00     0.013 C 
HETATM    5  C5  UNL     1     -31.882   8.152   4.668  1.00 20.00     0.037 C 
HETATM    6  C6  UNL     1     -33.884   7.146   5.966  1.00 20.00     0.017 C 
HETATM    7  C7  UNL     1     -34.152   6.627   4.545  1.00 20.00     0.003 C 
HETATM    8  C8  UNL     1     -33.048   8.391   5.655  1.00 20.00    -0.004 C 
HETATM    9  C9  UNL     1     -34.082   7.913   3.699  1.00 20.00     0.020 C 
HETATM   10  C10 UNL     1     -32.590   8.072   3.288  1.00 20.00     0.123 C 
ENDROOT
BRANCH  10  11
HETATM   11  O11 UNL     1     -32.095   7.007   2.501  1.00 20.00    -0.395 OA
HETATM   12  H25 UNL     1     -32.844   6.416   2.311  1.00 20.00     0.210 HD
ENDBRANCH  10  11
TORSDOF 1
ENDMDL
MODEL 5
REMARK VINA RESULT:      -3.9     12.621     13.827
REMARK  1 active torsions:
REMARK  status: ('A' for Active; 'I' for Inactive)
REMARK    1  A    between atoms: C10_10  and  O11_11 
ROOT
HETATM    1  C1  UNL     1     -35.163  18.426  -3.684  1.00 20.00    -0.030 C 
HETATM    2  C2  UNL     1     -34.226  17.500  -3.377  1.00 20.00    -0.025 C 
HETATM    3  C3  UNL     1     -35.888  18.084  -4.989  1.00 20.00     0.032 C 
HETATM    4  C4  UNL     1     -34.185  15.194  -6.359  1.00 20.00     0.013 C 
HETATM    5  C5  UNL     1     -34.725  14.092  -4.298  1.00 20.00     0.037 C 
HETATM    6  C6  UNL     1     -34.115  16.595  -4.547  1.00 20.00     0.017 C 
HETATM    7  C7  UNL     1     -35.597  16.603  -4.951  1.00 20.00     0.003 C 
HETATM    8  C8  UNL     1     -33.746  15.144  -4.867  1.00 20.00    -0.004 C 
HETATM    9  C9  UNL     1     -35.659  15.499  -6.025  1.00 20.00     0.020 C 
HETATM   10  C10 UNL     1     -35.943  14.175  -5.259  1.00 20.00     0.123 C 
ENDROOT
BRANCH  10  11
HETATM   11  O11 UNL     1     -37.170  14.169  -4.559  1.00 20.00    -0.395 OA
HETATM   12  H25 UNL     1     -37.013  13.733  -3.704  1.00 20.00     0.210 HD
ENDBRANCH  10  11
TORSDOF 1
ENDMDL
MODEL 6
REMARK VINA RESULT:      -3.9      9.449     10.333
REMARK  1 active torsions:
REMARK  status: ('A' for Active; 'I' for Inactive)
REMARK    1  A    between atoms: C10_10  and  O11_11 
ROOT
HETATM    1  C1  UNL     1     -39.101  11.749   5.121  1.00 20.00    -0.030 C 
HETATM    2  C2  UNL     1     -40.066  12.386   4.419  1.00 20.00    -0.025 C 
HETATM    3  C3  UNL     1     -39.088  12.187   6.588  1.00 20.00     0.032 C 
HETATM    4  C4  UNL     1     -41.490  14.887   6.854  1.00 20.00     0.013 C 
HETATM    5  C5  UNL     1     -43.108  13.322   6.027  1.00 20.00     0.037 C 
HETATM    6  C6  UNL     1     -40.624  13.435   5.308  1.00 20.00     0.017 C 
HETATM    7  C7  UNL     1     -40.522  12.657   6.629  1.00 20.00     0.003 C 
HETATM    8  C8  UNL     1     -41.933  14.197   5.533  1.00 20.00    -0.004 C 
HETATM    9  C9  UNL     1     -41.299  13.557   7.610  1.00 20.00     0.020 C 
HETATM   10  C10 UNL     1     -42.782  13.096   7.529  1.00 20.00     0.123 C 
ENDROOT
BRANCH  10  11
HETATM   11  O11 UNL     1     -42.987  11.752   7.917  1.00 20.00    -0.395 OA
HETATM   12  H25 UNL     1     -42.277  11.521   8.541  1.00 20.00     0.210 HD
ENDBRANCH  10  11
TORSDOF 1
ENDMDL
MODEL 7
REMARK VINA RESULT:      -3.7      9.982     10.941
REMARK  1 active torsions:
REMARK  status: ('A' for Active; 'I' for Inactive)
REMARK    1  A    between atoms: C10_10  and  O11_11 
ROOT
HETATM    1  C1  UNL     1     -40.680  16.494   8.002  1.00 20.00    -0.030 C 
HETATM    2  C2  UNL     1     -41.452  16.349   6.902  1.00 20.00    -0.025 C 
HETATM    3  C3  UNL     1     -40.333  15.142   8.632  1.00 20.00     0.032 C 
HETATM    4  C4  UNL     1     -42.221  12.660   6.785  1.00 20.00     0.013 C 
HETATM    5  C5  UNL     1     -41.079  13.466   4.836  1.00 20.00     0.037 C 
HETATM    6  C6  UNL     1     -41.845  14.920   6.837  1.00 20.00     0.017 C 
HETATM    7  C7  UNL     1     -40.536  14.325   7.378  1.00 20.00     0.003 C 
HETATM    8  C8  UNL     1     -42.224  13.861   5.797  1.00 20.00    -0.004 C 
HETATM    9  C9  UNL     1     -40.728  12.815   7.135  1.00 20.00     0.020 C 
HETATM   10  C10 UNL     1     -40.184  12.541   5.704  1.00 20.00     0.123 C 
ENDROOT
BRANCH  10  11
HETATM   11  O11 UNL     1     -38.810  12.835   5.546  1.00 20.00    -0.395 OA
HETATM   12  H25 UNL     1     -38.588  13.527   6.192  1.00 20.00     0.210 HD
ENDBRANCH  10  11
TORSDOF 1
ENDMDL
MODEL 8
REMARK VINA RESULT:      -3.6     10.180     11.255
REMARK  1 active torsions:
REMARK  status: ('A' for Active; 'I' for Inactive)
REMARK    1  A    between atoms: C10_10  and  O11_11 
ROOT
HETATM    1  C1  UNL     1     -40.449  12.528   5.239  1.00 20.00    -0.030 C 
HETATM    2  C2  UNL     1     -41.365  13.520   5.166  1.00 20.00    -0.025 C 
HETATM    3  C3  UNL     1     -39.561  12.668   6.479  1.00 20.00     0.032 C 
HETATM    4  C4  UNL     1     -40.470  15.823   8.013  1.00 20.00     0.013 C 
HETATM    5  C5  UNL     1     -42.694  14.936   8.156  1.00 20.00     0.037 C 
HETATM    6  C6  UNL     1     -41.024  14.500   6.227  1.00 20.00     0.017 C 
HETATM    7  C7  UNL     1     -40.538  13.495   7.282  1.00 20.00     0.003 C 
HETATM    8  C8  UNL     1     -41.712  15.533   7.123  1.00 20.00    -0.004 C 
HETATM    9  C9  UNL     1     -40.375  14.376   8.536  1.00 20.00     0.020 C 
HETATM   10  C10 UNL     1     -41.757  14.358   9.251  1.00 20.00     0.123 C 
ENDROOT
BRANCH  10  11
HETATM   11  O11 UNL     1     -42.167  13.073   9.674  1.00 20.00    -0.395 OA
HETATM   12  H25 UNL     1     -42.060  13.040  10.641  1.00 20.00     0.210 HD
ENDBRANCH  10  11
TORSDOF 1
ENDMDL
MODEL 9
REMARK VINA RESULT:      -3.6     12.633     13.885
REMARK  1 active torsions:
REMARK  status: ('A' for Active; 'I' for Inactive)
REMARK    1  A    between atoms: C10_10  and  O11_11 
ROOT
HETATM    1  C1  UNL     1     -34.220  14.553  -4.742  1.00 20.00    -0.030 C 
HETATM    2  C2  UNL     1     -35.138  15.526  -4.942  1.00 20.00    -0.025 C 
HETATM    3  C3  UNL     1     -32.917  15.116  -4.167  1.00 20.00     0.032 C 
HETATM    4  C4  UNL     1     -33.293  18.721  -4.166  1.00 20.00     0.013 C 
HETATM    5  C5  UNL     1     -35.221  18.364  -2.785  1.00 20.00     0.037 C 
HETATM    6  C6  UNL     1     -34.450  16.821  -4.715  1.00 20.00     0.017 C 
HETATM    7  C7  UNL     1     -33.528  16.364  -3.574  1.00 20.00     0.003 C 
HETATM    8  C8  UNL     1     -34.771  18.247  -4.259  1.00 20.00    -0.004 C 
HETATM    9  C9  UNL     1     -32.920  17.691  -3.081  1.00 20.00     0.020 C 
HETATM   10  C10 UNL     1     -33.893  18.226  -1.991  1.00 20.00     0.123 C 
ENDROOT
BRANCH  10  11
HETATM   11  O11 UNL     1     -34.032  17.370  -0.875  1.00 20.00    -0.395 OA
HETATM   12  H25 UNL     1     -34.939  17.476  -0.541  1.00 20.00     0.210 HD
ENDBRANCH  10  11
TORSDOF 1
ENDMDL
