MODEL 1
REMARK VINA RESULT:      -3.4      0.000      0.000
REMARK  0 active torsions:
REMARK  status: ('A' for Active; 'I' for Inactive)
ROOT
HETATM    1  C1  UNL     1     -33.765   7.237   4.920  1.00 20.00     0.101 C 
HETATM    2  C2  UNL     1     -34.459   5.160   6.065  1.00 20.00     0.067 C 
HETATM    3  C3  UNL     1     -34.399   5.926   4.750  1.00 20.00     0.197 C 
HETATM    4  N4  UNL     1     -33.262   8.275   5.056  1.00 20.00    -0.194 NA
HETATM    5 CL5  UNL     1     -36.049   6.185   4.126  1.00 20.00    -0.085 Cl
HETATM    6 CL6  UNL     1     -33.452   5.003   3.555  1.00 20.00    -0.085 Cl
ENDROOT
TORSDOF 0
ENDMDL
MODEL 2
REMARK VINA RESULT:      -3.4      1.370      1.941
REMARK  0 active torsions:
REMARK  status: ('A' for Active; 'I' for Inactive)
ROOT
HETATM    1  C1  UNL     1     -33.672   7.268   4.875  1.00 20.00     0.101 C 
HETATM    2  C2  UNL     1     -35.774   6.128   4.247  1.00 20.00     0.067 C 
HETATM    3  C3  UNL     1     -34.327   5.968   4.695  1.00 20.00     0.197 C 
HETATM    4  N4  UNL     1     -33.155   8.298   5.016  1.00 20.00    -0.194 NA
HETATM    5 CL5  UNL     1     -33.413   5.052   3.467  1.00 20.00    -0.085 Cl
HETATM    6 CL6  UNL     1     -34.267   5.097   6.249  1.00 20.00    -0.085 Cl
ENDROOT
TORSDOF 0
ENDMDL
MODEL 3
REMARK VINA RESULT:      -3.3      2.081      2.480
REMARK  0 active torsions:
REMARK  status: ('A' for Active; 'I' for Inactive)
ROOT
HETATM    1  C1  UNL     1     -33.590   5.527   3.622  1.00 20.00     0.101 C 
HETATM    2  C2  UNL     1     -34.394   5.077   5.916  1.00 20.00     0.067 C 
HETATM    3  C3  UNL     1     -34.425   6.021   4.722  1.00 20.00     0.197 C 
HETATM    4  N4  UNL     1     -32.929   5.133   2.753  1.00 20.00    -0.194 NA
HETATM    5 CL5  UNL     1     -33.812   7.625   5.205  1.00 20.00    -0.085 Cl
HETATM    6 CL6  UNL     1     -36.095   6.183   4.121  1.00 20.00    -0.085 Cl
ENDROOT
TORSDOF 0
ENDMDL
MODEL 4
REMARK VINA RESULT:      -3.3      2.061      2.377
REMARK  0 active torsions:
REMARK  status: ('A' for Active; 'I' for Inactive)
ROOT
HETATM    1  C1  UNL     1     -33.552   5.531   3.603  1.00 20.00     0.101 C 
HETATM    2  C2  UNL     1     -33.859   7.461   5.117  1.00 20.00     0.067 C 
HETATM    3  C3  UNL     1     -34.355   6.083   4.699  1.00 20.00     0.197 C 
HETATM    4  N4  UNL     1     -32.915   5.096   2.736  1.00 20.00    -0.194 NA
HETATM    5 CL5  UNL     1     -36.047   6.192   4.147  1.00 20.00    -0.085 Cl
HETATM    6 CL6  UNL     1     -34.255   4.959   6.080  1.00 20.00    -0.085 Cl
ENDROOT
TORSDOF 0
ENDMDL
MODEL 5
REMARK VINA RESULT:      -3.2     16.371     16.897
REMARK  0 active torsions:
REMARK  status: ('A' for Active; 'I' for Inactive)
ROOT
HETATM    1  C1  UNL     1     -22.718  17.290   9.578  1.00 20.00     0.101 C 
HETATM    2  C2  UNL     1     -24.612  18.736  10.236  1.00 20.00     0.067 C 
HETATM    3  C3  UNL     1     -23.560  17.734  10.693  1.00 20.00     0.197 C 
HETATM    4  N4  UNL     1     -22.053  16.940   8.693  1.00 20.00    -0.194 NA
HETATM    5 CL5  UNL     1     -24.356  16.299  11.392  1.00 20.00    -0.085 Cl
HETATM    6 CL6  UNL     1     -22.505  18.482  11.920  1.00 20.00    -0.085 Cl
ENDROOT
TORSDOF 0
ENDMDL
MODEL 6
REMARK VINA RESULT:      -2.9     16.883     17.254
REMARK  0 active torsions:
REMARK  status: ('A' for Active; 'I' for Inactive)
ROOT
HETATM    1  C1  UNL     1     -22.813  18.305  11.979  1.00 20.00     0.101 C 
HETATM    2  C2  UNL     1     -25.205  18.841  12.302  1.00 20.00     0.067 C 
HETATM    3  C3  UNL     1     -24.180  18.011  11.539  1.00 20.00     0.197 C 
HETATM    4  N4  UNL     1     -21.731  18.540  12.329  1.00 20.00    -0.194 NA
HETATM    5 CL5  UNL     1     -24.291  18.369   9.795  1.00 20.00    -0.085 Cl
HETATM    6 CL6  UNL     1     -24.487  16.275  11.807  1.00 20.00    -0.085 Cl
ENDROOT
TORSDOF 0
ENDMDL
MODEL 7
REMARK VINA RESULT:      -2.9     13.342     13.958
REMARK  0 active torsions:
REMARK  status: ('A' for Active; 'I' for Inactive)
ROOT
HETATM    1  C1  UNL     1     -31.766  18.571  -0.904  1.00 20.00     0.101 C 
HETATM    2  C2  UNL     1     -32.961  19.251  -2.958  1.00 20.00     0.067 C 
HETATM    3  C3  UNL     1     -33.041  18.516  -1.626  1.00 20.00     0.197 C 
HETATM    4  N4  UNL     1     -30.756  18.616  -0.334  1.00 20.00    -0.194 NA
HETATM    5 CL5  UNL     1     -33.447  16.803  -1.905  1.00 20.00    -0.085 Cl
HETATM    6 CL6  UNL     1     -34.293  19.261  -0.598  1.00 20.00    -0.085 Cl
ENDROOT
TORSDOF 0
ENDMDL
MODEL 8
REMARK VINA RESULT:      -2.9     16.587     17.092
REMARK  0 active torsions:
REMARK  status: ('A' for Active; 'I' for Inactive)
ROOT
HETATM    1  C1  UNL     1     -22.565  18.202  11.539  1.00 20.00     0.101 C 
HETATM    2  C2  UNL     1     -24.303  16.493  11.126  1.00 20.00     0.067 C 
HETATM    3  C3  UNL     1     -23.493  17.646  10.549  1.00 20.00     0.197 C 
HETATM    4  N4  UNL     1     -21.831  18.639  12.325  1.00 20.00    -0.194 NA
HETATM    5 CL5  UNL     1     -24.590  18.951  10.024  1.00 20.00    -0.085 Cl
HETATM    6 CL6  UNL     1     -22.540  17.078   9.153  1.00 20.00    -0.085 Cl
ENDROOT
TORSDOF 0
ENDMDL
MODEL 9
REMARK VINA RESULT:      -2.8      9.257      9.888
REMARK  0 active torsions:
REMARK  status: ('A' for Active; 'I' for Inactive)
ROOT
HETATM    1  C1  UNL     1     -42.679   5.772  -0.670  1.00 20.00     0.101 C 
HETATM    2  C2  UNL     1     -40.782   6.786   0.547  1.00 20.00     0.067 C 
HETATM    3  C3  UNL     1     -42.281   6.815   0.281  1.00 20.00     0.197 C 
HETATM    4  N4  UNL     1     -42.992   4.946  -1.423  1.00 20.00    -0.194 NA
HETATM    5 CL5  UNL     1     -42.743   8.396  -0.403  1.00 20.00    -0.085 Cl
HETATM    6 CL6  UNL     1     -43.171   6.546   1.803  1.00 20.00    -0.085 Cl
ENDROOT
TORSDOF 0
ENDMDL
