MODEL 1
REMARK VINA RESULT:      -4.9      0.000      0.000
REMARK  0 active torsions:
REMARK  status: ('A' for Active; 'I' for Inactive)
ROOT
HETATM    1  C1  UNL     1     -32.839   8.917   4.921  1.00 20.00     0.015 A 
HETATM    2  C2  UNL     1     -32.348   9.028   3.615  1.00 20.00     0.025 A 
HETATM    3  C3  UNL     1     -33.997   7.244   6.554  1.00 20.00     0.031 A 
HETATM    4  C4  UNL     1     -32.992   6.738   3.122  1.00 20.00     0.054 A 
HETATM    5  C5  UNL     1     -34.395   5.941   6.365  1.00 20.00     0.091 A 
HETATM    6  C6  UNL     1     -33.415   7.700   5.338  1.00 20.00    -0.008 A 
HETATM    7  C7  UNL     1     -33.478   6.641   4.431  1.00 20.00     0.045 A 
HETATM    8  C8  UNL     1     -32.425   7.954   2.731  1.00 20.00     0.036 A 
HETATM    9  C9  UNL     1     -34.341   4.284   4.507  1.00 20.00     0.155 C 
HETATM   10  N10 UNL     1     -34.077   5.586   5.081  1.00 20.00    -0.360 N 
HETATM   11 CL11 UNL     1     -31.811   8.124   1.130  1.00 20.00    -0.084 Cl
ENDROOT
TORSDOF 0
ENDMDL
MODEL 2
REMARK VINA RESULT:      -4.1      1.713      3.245
REMARK  0 active torsions:
REMARK  status: ('A' for Active; 'I' for Inactive)
ROOT
HETATM    1  C1  UNL     1     -34.477   4.994   5.208  1.00 20.00     0.015 A 
HETATM    2  C2  UNL     1     -34.076   4.357   4.028  1.00 20.00     0.025 A 
HETATM    3  C3  UNL     1     -34.313   7.262   6.487  1.00 20.00     0.031 A 
HETATM    4  C4  UNL     1     -32.908   6.354   3.285  1.00 20.00     0.054 A 
HETATM    5  C5  UNL     1     -33.680   8.435   6.147  1.00 20.00     0.091 A 
HETATM    6  C6  UNL     1     -34.092   6.331   5.433  1.00 20.00    -0.008 A 
HETATM    7  C7  UNL     1     -33.318   6.978   4.469  1.00 20.00     0.045 A 
HETATM    8  C8  UNL     1     -33.304   5.029   3.083  1.00 20.00     0.036 A 
HETATM    9  C9  UNL     1     -32.319   9.270   4.236  1.00 20.00     0.155 C 
HETATM   10  N10 UNL     1     -33.083   8.255   4.928  1.00 20.00    -0.360 N 
HETATM   11 CL11 UNL     1     -32.826   4.215   1.641  1.00 20.00    -0.084 Cl
ENDROOT
TORSDOF 0
ENDMDL
MODEL 3
REMARK VINA RESULT:      -4.1     12.202     13.237
REMARK  0 active torsions:
REMARK  status: ('A' for Active; 'I' for Inactive)
ROOT
HETATM    1  C1  UNL     1     -33.229  15.128  -4.135  1.00 20.00     0.015 A 
HETATM    2  C2  UNL     1     -33.790  14.863  -5.390  1.00 20.00     0.025 A 
HETATM    3  C3  UNL     1     -33.288  16.845  -2.172  1.00 20.00     0.031 A 
HETATM    4  C4  UNL     1     -35.154  16.870  -5.265  1.00 20.00     0.054 A 
HETATM    5  C5  UNL     1     -34.021  17.998  -2.015  1.00 20.00     0.091 A 
HETATM    6  C6  UNL     1     -33.635  16.280  -3.431  1.00 20.00    -0.008 A 
HETATM    7  C7  UNL     1     -34.586  17.122  -4.011  1.00 20.00     0.045 A 
HETATM    8  C8  UNL     1     -34.737  15.722  -5.944  1.00 20.00     0.036 A 
HETATM    9  C9  UNL     1     -35.716  19.259  -3.333  1.00 20.00     0.155 C 
HETATM   10  N10 UNL     1     -34.802  18.157  -3.129  1.00 20.00    -0.360 N 
HETATM   11 CL11 UNL     1     -35.407  15.365  -7.491  1.00 20.00    -0.084 Cl
ENDROOT
TORSDOF 0
ENDMDL
MODEL 4
REMARK VINA RESULT:      -4.0      1.596      2.398
REMARK  0 active torsions:
REMARK  status: ('A' for Active; 'I' for Inactive)
ROOT
HETATM    1  C1  UNL     1     -34.194   7.368   6.371  1.00 20.00     0.015 A 
HETATM    2  C2  UNL     1     -33.494   8.545   6.082  1.00 20.00     0.025 A 
HETATM    3  C3  UNL     1     -34.718   4.994   5.424  1.00 20.00     0.031 A 
HETATM    4  C4  UNL     1     -32.696   7.617   3.983  1.00 20.00     0.054 A 
HETATM    5  C5  UNL     1     -34.315   4.389   4.257  1.00 20.00     0.091 A 
HETATM    6  C6  UNL     1     -34.147   6.297   5.456  1.00 20.00    -0.008 A 
HETATM    7  C7  UNL     1     -33.401   6.447   4.285  1.00 20.00     0.045 A 
HETATM    8  C8  UNL     1     -32.756   8.665   4.906  1.00 20.00     0.036 A 
HETATM    9  C9  UNL     1     -32.903   4.995   2.298  1.00 20.00     0.155 C 
HETATM   10  N10 UNL     1     -33.520   5.273   3.576  1.00 20.00    -0.360 N 
HETATM   11 CL11 UNL     1     -31.905  10.128   4.581  1.00 20.00    -0.084 Cl
ENDROOT
TORSDOF 0
ENDMDL
MODEL 5
REMARK VINA RESULT:      -3.9      1.558      2.213
REMARK  0 active torsions:
REMARK  status: ('A' for Active; 'I' for Inactive)
ROOT
HETATM    1  C1  UNL     1     -32.346   7.756   3.172  1.00 20.00     0.015 A 
HETATM    2  C2  UNL     1     -32.288   6.673   2.289  1.00 20.00     0.025 A 
HETATM    3  C3  UNL     1     -33.289   8.475   5.496  1.00 20.00     0.031 A 
HETATM    4  C4  UNL     1     -33.592   5.296   3.808  1.00 20.00     0.054 A 
HETATM    5  C5  UNL     1     -34.030   7.771   6.416  1.00 20.00     0.091 A 
HETATM    6  C6  UNL     1     -33.035   7.612   4.393  1.00 20.00    -0.008 A 
HETATM    7  C7  UNL     1     -33.641   6.388   4.682  1.00 20.00     0.045 A 
HETATM    8  C8  UNL     1     -32.902   5.463   2.604  1.00 20.00     0.036 A 
HETATM    9  C9  UNL     1     -34.979   5.477   6.601  1.00 20.00     0.155 C 
HETATM   10  N10 UNL     1     -34.238   6.513   5.916  1.00 20.00    -0.360 N 
HETATM   11 CL11 UNL     1     -32.812   4.148   1.493  1.00 20.00    -0.084 Cl
ENDROOT
TORSDOF 0
ENDMDL
MODEL 6
REMARK VINA RESULT:      -3.9      1.138      2.553
REMARK  0 active torsions:
REMARK  status: ('A' for Active; 'I' for Inactive)
ROOT
HETATM    1  C1  UNL     1     -33.518   4.922   3.141  1.00 20.00     0.015 A 
HETATM    2  C2  UNL     1     -32.866   5.731   2.204  1.00 20.00     0.025 A 
HETATM    3  C3  UNL     1     -34.540   4.958   5.541  1.00 20.00     0.031 A 
HETATM    4  C4  UNL     1     -32.932   7.630   3.718  1.00 20.00     0.054 A 
HETATM    5  C5  UNL     1     -34.621   5.976   6.462  1.00 20.00     0.091 A 
HETATM    6  C6  UNL     1     -33.885   5.471   4.386  1.00 20.00    -0.008 A 
HETATM    7  C7  UNL     1     -33.583   6.809   4.646  1.00 20.00     0.045 A 
HETATM    8  C8  UNL     1     -32.579   7.064   2.490  1.00 20.00     0.036 A 
HETATM    9  C9  UNL     1     -33.937   8.367   6.582  1.00 20.00     0.155 C 
HETATM   10  N10 UNL     1     -34.042   7.089   5.913  1.00 20.00    -0.360 N 
HETATM   11 CL11 UNL     1     -31.775   8.033   1.313  1.00 20.00    -0.084 Cl
ENDROOT
TORSDOF 0
ENDMDL
MODEL 7
REMARK VINA RESULT:      -3.8     12.222     13.845
REMARK  0 active torsions:
REMARK  status: ('A' for Active; 'I' for Inactive)
ROOT
HETATM    1  C1  UNL     1     -33.761  14.761  -4.921  1.00 20.00     0.015 A 
HETATM    2  C2  UNL     1     -33.212  15.378  -3.792  1.00 20.00     0.025 A 
HETATM    3  C3  UNL     1     -35.481  15.139  -6.846  1.00 20.00     0.031 A 
HETATM    4  C4  UNL     1     -34.576  17.358  -4.143  1.00 20.00     0.054 A 
HETATM    5  C5  UNL     1     -36.291  16.216  -7.122  1.00 20.00     0.091 A 
HETATM    6  C6  UNL     1     -34.732  15.449  -5.677  1.00 20.00    -0.008 A 
HETATM    7  C7  UNL     1     -35.117  16.729  -5.271  1.00 20.00     0.045 A 
HETATM    8  C8  UNL     1     -33.614  16.657  -3.411  1.00 20.00     0.036 A 
HETATM    9  C9  UNL     1     -36.732  18.453  -6.122  1.00 20.00     0.155 C 
HETATM   10  N10 UNL     1     -36.064  17.170  -6.167  1.00 20.00    -0.360 N 
HETATM   11 CL11 UNL     1     -32.918  17.388  -2.015  1.00 20.00    -0.084 Cl
ENDROOT
TORSDOF 0
ENDMDL
MODEL 8
REMARK VINA RESULT:      -3.8      2.594      4.437
REMARK  0 active torsions:
REMARK  status: ('A' for Active; 'I' for Inactive)
ROOT
HETATM    1  C1  UNL     1     -33.690   5.099   3.363  1.00 20.00     0.015 A 
HETATM    2  C2  UNL     1     -34.362   4.761   4.542  1.00 20.00     0.025 A 
HETATM    3  C3  UNL     1     -32.286   7.002   2.260  1.00 20.00     0.031 A 
HETATM    4  C4  UNL     1     -33.763   6.887   5.555  1.00 20.00     0.054 A 
HETATM    5  C5  UNL     1     -31.902   8.228   2.753  1.00 20.00     0.091 A 
HETATM    6  C6  UNL     1     -33.042   6.347   3.273  1.00 20.00    -0.008 A 
HETATM    7  C7  UNL     1     -33.094   7.211   4.369  1.00 20.00     0.045 A 
HETATM    8  C8  UNL     1     -34.397   5.643   5.621  1.00 20.00     0.036 A 
HETATM    9  C9  UNL     1     -32.193   9.500   4.873  1.00 20.00     0.155 C 
HETATM   10  N10 UNL     1     -32.393   8.344   4.026  1.00 20.00    -0.360 N 
HETATM   11 CL11 UNL     1     -35.234   5.195   7.059  1.00 20.00    -0.084 Cl
ENDROOT
TORSDOF 0
ENDMDL
MODEL 9
REMARK VINA RESULT:      -3.8      1.537      2.601
REMARK  0 active torsions:
REMARK  status: ('A' for Active; 'I' for Inactive)
ROOT
HETATM    1  C1  UNL     1     -32.342   7.017   2.689  1.00 20.00     0.015 A 
HETATM    2  C2  UNL     1     -31.960   8.254   3.221  1.00 20.00     0.025 A 
HETATM    3  C3  UNL     1     -33.692   4.857   3.253  1.00 20.00     0.031 A 
HETATM    4  C4  UNL     1     -33.142   7.787   5.293  1.00 20.00     0.054 A 
HETATM    5  C5  UNL     1     -34.386   4.508   4.388  1.00 20.00     0.091 A 
HETATM    6  C6  UNL     1     -33.136   6.150   3.466  1.00 20.00    -0.008 A 
HETATM    7  C7  UNL     1     -33.517   6.554   4.747  1.00 20.00     0.045 A 
HETATM    8  C8  UNL     1     -32.356   8.631   4.503  1.00 20.00     0.036 A 
HETATM    9  C9  UNL     1     -34.876   5.541   6.599  1.00 20.00     0.155 C 
HETATM   10  N10 UNL     1     -34.275   5.538   5.284  1.00 20.00    -0.360 N 
HETATM   11 CL11 UNL     1     -31.869  10.161   5.128  1.00 20.00    -0.084 Cl
ENDROOT
TORSDOF 0
ENDMDL
