MODEL 1
REMARK VINA RESULT:      -4.4      0.000      0.000
REMARK  3 active torsions:
REMARK  status: ('A' for Active; 'I' for Inactive)
REMARK    1  A    between atoms: C1_1  and  C3_3 
REMARK    2  A    between atoms: C3_3  and  O9_9 
REMARK    3  A    between atoms: C7_7  and  O9_9 
ROOT
HETATM    1  C3  UNL     1     -32.735   8.273   4.267  1.00 20.00     0.282 C 
HETATM    2  O8  UNL     1     -32.169   9.171   4.870  1.00 20.00    -0.260 OA
ENDROOT
BRANCH   1   3
HETATM    3  C1  UNL     1     -32.155   7.486   3.158  1.00 20.00     0.077 C 
HETATM    4  C2  UNL     1     -32.191   7.965   1.908  1.00 20.00    -0.025 C 
HETATM    5  C4  UNL     1     -32.797   9.283   1.550  1.00 20.00     0.036 C 
ENDBRANCH   1   3
BRANCH   1   6
HETATM    6  O9  UNL     1     -33.998   7.814   4.482  1.00 20.00    -0.314 OA
BRANCH   6   7
HETATM    7  C7  UNL     1     -34.088   6.526   5.100  1.00 20.00     0.124 C 
HETATM    8  C5  UNL     1     -34.212   6.702   6.606  1.00 20.00     0.040 C 
HETATM    9  C6  UNL     1     -35.274   5.774   4.518  1.00 20.00     0.040 C 
ENDBRANCH   6   7
ENDBRANCH   1   6
TORSDOF 3
ENDMDL
MODEL 2
REMARK VINA RESULT:      -4.0      1.439      4.251
REMARK  3 active torsions:
REMARK  status: ('A' for Active; 'I' for Inactive)
REMARK    1  A    between atoms: C1_1  and  C3_3 
REMARK    2  A    between atoms: C3_3  and  O9_9 
REMARK    3  A    between atoms: C7_7  and  O9_9 
ROOT
HETATM    1  C3  UNL     1     -33.863   5.723   3.799  1.00 20.00     0.282 C 
HETATM    2  O8  UNL     1     -33.151   4.950   3.177  1.00 20.00    -0.260 OA
ENDROOT
BRANCH   1   3
HETATM    3  C1  UNL     1     -35.004   5.336   4.656  1.00 20.00     0.077 C 
HETATM    4  C2  UNL     1     -34.912   5.458   5.987  1.00 20.00    -0.025 C 
HETATM    5  C4  UNL     1     -33.694   5.974   6.683  1.00 20.00     0.036 C 
ENDBRANCH   1   3
BRANCH   1   6
HETATM    6  O9  UNL     1     -33.763   7.079   3.833  1.00 20.00    -0.314 OA
BRANCH   6   7
HETATM    7  C7  UNL     1     -32.437   7.602   3.697  1.00 20.00     0.124 C 
HETATM    8  C5  UNL     1     -32.214   8.033   2.256  1.00 20.00     0.040 C 
HETATM    9  C6  UNL     1     -32.253   8.758   4.670  1.00 20.00     0.040 C 
ENDBRANCH   6   7
ENDBRANCH   1   6
TORSDOF 3
ENDMDL
MODEL 3
REMARK VINA RESULT:      -3.9      1.221      3.732
REMARK  3 active torsions:
REMARK  status: ('A' for Active; 'I' for Inactive)
REMARK    1  A    between atoms: C1_1  and  C3_3 
REMARK    2  A    between atoms: C3_3  and  O9_9 
REMARK    3  A    between atoms: C7_7  and  O9_9 
ROOT
HETATM    1  C3  UNL     1     -33.421   7.674   5.130  1.00 20.00     0.282 C 
HETATM    2  O8  UNL     1     -34.006   8.725   4.920  1.00 20.00    -0.260 OA
ENDROOT
BRANCH   1   3
HETATM    3  C1  UNL     1     -33.604   6.815   6.320  1.00 20.00     0.077 C 
HETATM    4  C2  UNL     1     -34.480   5.803   6.287  1.00 20.00    -0.025 C 
HETATM    5  C4  UNL     1     -35.312   5.475   5.089  1.00 20.00     0.036 C 
ENDBRANCH   1   3
BRANCH   1   6
HETATM    6  O9  UNL     1     -32.494   7.080   4.332  1.00 20.00    -0.314 OA
BRANCH   6   7
HETATM    7  C7  UNL     1     -32.898   6.861   2.976  1.00 20.00     0.124 C 
HETATM    8  C5  UNL     1     -32.053   7.726   2.055  1.00 20.00     0.040 C 
HETATM    9  C6  UNL     1     -32.762   5.382   2.647  1.00 20.00     0.040 C 
ENDBRANCH   6   7
ENDBRANCH   1   6
TORSDOF 3
ENDMDL
MODEL 4
REMARK VINA RESULT:      -3.9      2.178      3.982
REMARK  3 active torsions:
REMARK  status: ('A' for Active; 'I' for Inactive)
REMARK    1  A    between atoms: C1_1  and  C3_3 
REMARK    2  A    between atoms: C3_3  and  O9_9 
REMARK    3  A    between atoms: C7_7  and  O9_9 
ROOT
HETATM    1  C3  UNL     1     -34.837   5.677   4.753  1.00 20.00     0.282 C 
HETATM    2  O8  UNL     1     -35.890   5.914   4.183  1.00 20.00    -0.260 OA
ENDROOT
BRANCH   1   3
HETATM    3  C1  UNL     1     -34.572   5.899   6.191  1.00 20.00     0.077 C 
HETATM    4  C2  UNL     1     -34.092   7.078   6.609  1.00 20.00    -0.025 C 
HETATM    5  C4  UNL     1     -33.797   8.217   5.688  1.00 20.00     0.036 C 
ENDBRANCH   1   3
BRANCH   1   6
HETATM    6  O9  UNL     1     -33.703   5.169   4.199  1.00 20.00    -0.314 OA
BRANCH   6   7
HETATM    7  C7  UNL     1     -33.381   5.663   2.895  1.00 20.00     0.124 C 
HETATM    8  C5  UNL     1     -32.374   6.796   3.023  1.00 20.00     0.040 C 
HETATM    9  C6  UNL     1     -32.844   4.521   2.046  1.00 20.00     0.040 C 
ENDBRANCH   6   7
ENDBRANCH   1   6
TORSDOF 3
ENDMDL
MODEL 5
REMARK VINA RESULT:      -3.9      1.336      3.893
REMARK  3 active torsions:
REMARK  status: ('A' for Active; 'I' for Inactive)
REMARK    1  A    between atoms: C1_1  and  C3_3 
REMARK    2  A    between atoms: C3_3  and  O9_9 
REMARK    3  A    between atoms: C7_7  and  O9_9 
ROOT
HETATM    1  C3  UNL     1     -33.942   6.849   5.767  1.00 20.00     0.282 C 
HETATM    2  O8  UNL     1     -33.247   6.803   6.770  1.00 20.00    -0.260 OA
ENDROOT
BRANCH   1   3
HETATM    3  C1  UNL     1     -35.117   5.992   5.499  1.00 20.00     0.077 C 
HETATM    4  C2  UNL     1     -34.985   4.892   4.746  1.00 20.00    -0.025 C 
HETATM    5  C4  UNL     1     -33.689   4.462   4.140  1.00 20.00     0.036 C 
ENDBRANCH   1   3
BRANCH   1   6
HETATM    6  O9  UNL     1     -33.786   7.680   4.701  1.00 20.00    -0.314 OA
BRANCH   6   7
HETATM    7  C7  UNL     1     -32.432   7.942   4.318  1.00 20.00     0.124 C 
HETATM    8  C5  UNL     1     -32.284   7.719   2.821  1.00 20.00     0.040 C 
HETATM    9  C6  UNL     1     -32.066   9.364   4.718  1.00 20.00     0.040 C 
ENDBRANCH   6   7
ENDBRANCH   1   6
TORSDOF 3
ENDMDL
MODEL 6
REMARK VINA RESULT:      -3.4      1.525      2.246
REMARK  3 active torsions:
REMARK  status: ('A' for Active; 'I' for Inactive)
REMARK    1  A    between atoms: C1_1  and  C3_3 
REMARK    2  A    between atoms: C3_3  and  O9_9 
REMARK    3  A    between atoms: C7_7  and  O9_9 
ROOT
HETATM    1  C3  UNL     1     -33.648   7.374   5.465  1.00 20.00     0.282 C 
HETATM    2  O8  UNL     1     -33.139   6.909   6.472  1.00 20.00    -0.260 OA
ENDROOT
BRANCH   1   3
HETATM    3  C1  UNL     1     -33.246   8.634   4.805  1.00 20.00     0.077 C 
HETATM    4  C2  UNL     1     -32.522   8.599   3.679  1.00 20.00    -0.025 C 
HETATM    5  C4  UNL     1     -32.080   7.329   3.027  1.00 20.00     0.036 C 
ENDBRANCH   1   3
BRANCH   1   6
HETATM    6  O9  UNL     1     -34.677   6.844   4.750  1.00 20.00    -0.314 OA
BRANCH   6   7
HETATM    7  C7  UNL     1     -34.949   5.460   4.995  1.00 20.00     0.124 C 
HETATM    8  C5  UNL     1     -34.020   4.609   4.143  1.00 20.00     0.040 C 
HETATM    9  C6  UNL     1     -34.780   5.172   6.479  1.00 20.00     0.040 C 
ENDBRANCH   6   7
ENDBRANCH   1   6
TORSDOF 3
ENDMDL
MODEL 7
REMARK VINA RESULT:      -3.4     11.066     12.184
REMARK  3 active torsions:
REMARK  status: ('A' for Active; 'I' for Inactive)
REMARK    1  A    between atoms: C1_1  and  C3_3 
REMARK    2  A    between atoms: C3_3  and  O9_9 
REMARK    3  A    between atoms: C7_7  and  O9_9 
ROOT
HETATM    1  C3  UNL     1     -33.836  14.804  -4.557  1.00 20.00     0.282 C 
HETATM    2  O8  UNL     1     -34.306  13.870  -3.925  1.00 20.00    -0.260 OA
ENDROOT
BRANCH   1   3
HETATM    3  C1  UNL     1     -33.981  15.011  -6.013  1.00 20.00     0.077 C 
HETATM    4  C2  UNL     1     -35.169  15.355  -6.526  1.00 20.00    -0.025 C 
HETATM    5  C4  UNL     1     -36.397  15.548  -5.696  1.00 20.00     0.036 C 
ENDBRANCH   1   3
BRANCH   1   6
HETATM    6  O9  UNL     1     -33.092  15.831  -4.065  1.00 20.00    -0.314 OA
BRANCH   6   7
HETATM    7  C7  UNL     1     -33.831  16.871  -3.415  1.00 20.00     0.124 C 
HETATM    8  C5  UNL     1     -33.460  16.901  -1.941  1.00 20.00     0.040 C 
HETATM    9  C6  UNL     1     -33.539  18.197  -4.101  1.00 20.00     0.040 C 
ENDBRANCH   6   7
ENDBRANCH   1   6
TORSDOF 3
ENDMDL
MODEL 8
REMARK VINA RESULT:      -3.3      9.100      9.982
REMARK  3 active torsions:
REMARK  status: ('A' for Active; 'I' for Inactive)
REMARK    1  A    between atoms: C1_1  and  C3_3 
REMARK    2  A    between atoms: C3_3  and  O9_9 
REMARK    3  A    between atoms: C7_7  and  O9_9 
ROOT
HETATM    1  C3  UNL     1     -41.442  13.081   6.175  1.00 20.00     0.282 C 
HETATM    2  O8  UNL     1     -41.928  12.164   6.817  1.00 20.00    -0.260 OA
ENDROOT
BRANCH   1   3
HETATM    3  C1  UNL     1     -41.724  14.518   6.385  1.00 20.00     0.077 C 
HETATM    4  C2  UNL     1     -41.204  15.154   7.442  1.00 20.00    -0.025 C 
HETATM    5  C4  UNL     1     -40.331  14.487   8.455  1.00 20.00     0.036 C 
ENDBRANCH   1   3
BRANCH   1   6
HETATM    6  O9  UNL     1     -40.557  12.981   5.148  1.00 20.00    -0.314 OA
BRANCH   6   7
HETATM    7  C7  UNL     1     -39.669  11.860   5.207  1.00 20.00     0.124 C 
HETATM    8  C5  UNL     1     -39.056  11.634   3.834  1.00 20.00     0.040 C 
HETATM    9  C6  UNL     1     -38.607  12.118   6.266  1.00 20.00     0.040 C 
ENDBRANCH   6   7
ENDBRANCH   1   6
TORSDOF 3
ENDMDL
MODEL 9
REMARK VINA RESULT:      -3.3     11.156     12.040
REMARK  3 active torsions:
REMARK  status: ('A' for Active; 'I' for Inactive)
REMARK    1  A    between atoms: C1_1  and  C3_3 
REMARK    2  A    between atoms: C3_3  and  O9_9 
REMARK    3  A    between atoms: C7_7  and  O9_9 
ROOT
HETATM    1  C3  UNL     1     -31.984  18.634  -0.249  1.00 20.00     0.282 C 
HETATM    2  O8  UNL     1     -30.931  18.866  -0.822  1.00 20.00    -0.260 OA
ENDROOT
BRANCH   1   3
HETATM    3  C1  UNL     1     -32.428  19.258   1.016  1.00 20.00     0.077 C 
HETATM    4  C2  UNL     1     -31.720  19.075   2.137  1.00 20.00    -0.025 C 
HETATM    5  C4  UNL     1     -30.471  18.256   2.195  1.00 20.00     0.036 C 
ENDBRANCH   1   3
BRANCH   1   6
HETATM    6  O9  UNL     1     -32.955  17.766  -0.643  1.00 20.00    -0.314 OA
BRANCH   6   7
HETATM    7  C7  UNL     1     -33.376  17.890  -2.006  1.00 20.00     0.124 C 
HETATM    8  C5  UNL     1     -33.343  16.520  -2.666  1.00 20.00     0.040 C 
HETATM    9  C6  UNL     1     -34.766  18.507  -2.047  1.00 20.00     0.040 C 
ENDBRANCH   6   7
ENDBRANCH   1   6
TORSDOF 3
ENDMDL
