MODEL 1
REMARK VINA RESULT:      -5.0      0.000      0.000
REMARK  3 active torsions:
REMARK  status: ('A' for Active; 'I' for Inactive)
REMARK    1  A    between atoms: C3_3  and  C5_5 
REMARK    2  A    between atoms: C4_4  and  C6_6 
REMARK    3  A    between atoms: C5_5  and  C6_6 
ROOT
HETATM    1  C1  UNL     1     -32.347   7.696   3.579  1.00 20.00     0.087 C 
HETATM    2  C3  UNL     1     -32.619   8.334   4.820  1.00 20.00     0.093 C 
HETATM    3  N7  UNL     1     -32.122   7.178   2.565  1.00 20.00    -0.192 NA
ENDROOT
BRANCH   2   4
HETATM    4  C5  UNL     1     -33.755   8.102   5.492  1.00 20.00     0.011 C 
BRANCH   4   5
HETATM    5  C6  UNL     1     -33.914   7.000   6.414  1.00 20.00     0.011 C 
BRANCH   5   6
HETATM    6  C4  UNL     1     -34.727   5.961   6.177  1.00 20.00     0.093 C 
HETATM    7  C2  UNL     1     -34.436   5.006   5.167  1.00 20.00     0.087 C 
HETATM    8  N8  UNL     1     -34.201   4.224   4.343  1.00 20.00    -0.192 NA
ENDBRANCH   5   6
ENDBRANCH   4   5
ENDBRANCH   2   4
TORSDOF 3
ENDMDL
MODEL 2
REMARK VINA RESULT:      -5.0      0.078      3.317
REMARK  3 active torsions:
REMARK  status: ('A' for Active; 'I' for Inactive)
REMARK    1  A    between atoms: C3_3  and  C5_5 
REMARK    2  A    between atoms: C4_4  and  C6_6 
REMARK    3  A    between atoms: C5_5  and  C6_6 
ROOT
HETATM    1  C1  UNL     1     -34.446   4.960   5.075  1.00 20.00     0.087 C 
HETATM    2  C3  UNL     1     -34.778   5.916   6.074  1.00 20.00     0.093 C 
HETATM    3  N7  UNL     1     -34.178   4.178   4.260  1.00 20.00    -0.192 NA
ENDROOT
BRANCH   2   4
HETATM    4  C5  UNL     1     -33.953   6.928   6.376  1.00 20.00     0.011 C 
BRANCH   4   5
HETATM    5  C6  UNL     1     -33.770   8.077   5.517  1.00 20.00     0.011 C 
BRANCH   5   6
HETATM    6  C4  UNL     1     -32.635   8.313   4.844  1.00 20.00     0.093 C 
HETATM    7  C2  UNL     1     -32.361   7.677   3.604  1.00 20.00     0.087 C 
HETATM    8  N8  UNL     1     -32.136   7.160   2.590  1.00 20.00    -0.192 NA
ENDBRANCH   5   6
ENDBRANCH   4   5
ENDBRANCH   2   4
TORSDOF 3
ENDMDL
MODEL 3
REMARK VINA RESULT:      -4.7      1.077      1.597
REMARK  3 active torsions:
REMARK  status: ('A' for Active; 'I' for Inactive)
REMARK    1  A    between atoms: C3_3  and  C5_5 
REMARK    2  A    between atoms: C4_4  and  C6_6 
REMARK    3  A    between atoms: C5_5  and  C6_6 
ROOT
HETATM    1  C1  UNL     1     -32.598   6.404   2.928  1.00 20.00     0.087 C 
HETATM    2  C3  UNL     1     -32.211   7.716   3.316  1.00 20.00     0.093 C 
HETATM    3  N7  UNL     1     -32.912   5.334   2.608  1.00 20.00    -0.192 NA
ENDROOT
BRANCH   2   4
HETATM    4  C5  UNL     1     -32.404   8.162   4.565  1.00 20.00     0.011 C 
BRANCH   4   5
HETATM    5  C6  UNL     1     -33.683   8.093   5.236  1.00 20.00     0.011 C 
BRANCH   5   6
HETATM    6  C4  UNL     1     -33.950   7.210   6.209  1.00 20.00     0.093 C 
HETATM    7  C2  UNL     1     -34.425   5.903   5.916  1.00 20.00     0.087 C 
HETATM    8  N8  UNL     1     -34.812   4.836   5.680  1.00 20.00    -0.192 NA
ENDBRANCH   5   6
ENDBRANCH   4   5
ENDBRANCH   2   4
TORSDOF 3
ENDMDL
MODEL 4
REMARK VINA RESULT:      -4.7      1.072      3.181
REMARK  3 active torsions:
REMARK  status: ('A' for Active; 'I' for Inactive)
REMARK    1  A    between atoms: C3_3  and  C5_5 
REMARK    2  A    between atoms: C4_4  and  C6_6 
REMARK    3  A    between atoms: C5_5  and  C6_6 
ROOT
HETATM    1  C1  UNL     1     -34.437   5.891   5.898  1.00 20.00     0.087 C 
HETATM    2  C3  UNL     1     -33.956   7.189   6.222  1.00 20.00     0.093 C 
HETATM    3  N7  UNL     1     -34.829   4.831   5.637  1.00 20.00    -0.192 NA
ENDROOT
BRANCH   2   4
HETATM    4  C5  UNL     1     -33.689   8.095   5.271  1.00 20.00     0.011 C 
BRANCH   4   5
HETATM    5  C6  UNL     1     -32.427   8.149   4.568  1.00 20.00     0.011 C 
BRANCH   5   6
HETATM    6  C4  UNL     1     -32.276   7.724   3.305  1.00 20.00     0.093 C 
HETATM    7  C2  UNL     1     -32.611   6.398   2.923  1.00 20.00     0.087 C 
HETATM    8  N8  UNL     1     -32.885   5.315   2.608  1.00 20.00    -0.192 NA
ENDBRANCH   5   6
ENDBRANCH   4   5
ENDBRANCH   2   4
TORSDOF 3
ENDMDL
MODEL 5
REMARK VINA RESULT:      -4.7      1.356      3.062
REMARK  3 active torsions:
REMARK  status: ('A' for Active; 'I' for Inactive)
REMARK    1  A    between atoms: C3_3  and  C5_5 
REMARK    2  A    between atoms: C4_4  and  C6_6 
REMARK    3  A    between atoms: C5_5  and  C6_6 
ROOT
HETATM    1  C1  UNL     1     -33.589   5.050   3.514  1.00 20.00     0.087 C 
HETATM    2  C3  UNL     1     -34.410   4.714   4.625  1.00 20.00     0.093 C 
HETATM    3  N7  UNL     1     -32.918   5.319   2.607  1.00 20.00    -0.192 NA
ENDROOT
BRANCH   2   4
HETATM    4  C5  UNL     1     -34.946   5.659   5.411  1.00 20.00     0.011 C 
BRANCH   4   5
HETATM    5  C6  UNL     1     -34.158   6.477   6.307  1.00 20.00     0.011 C 
BRANCH   5   6
HETATM    6  C4  UNL     1     -33.875   7.764   6.062  1.00 20.00     0.093 C 
HETATM    7  C2  UNL     1     -32.915   8.140   5.085  1.00 20.00     0.087 C 
HETATM    8  N8  UNL     1     -32.132   8.450   4.287  1.00 20.00    -0.192 NA
ENDBRANCH   5   6
ENDBRANCH   4   5
ENDBRANCH   2   4
TORSDOF 3
ENDMDL
MODEL 6
REMARK VINA RESULT:      -4.2      0.981      3.772
REMARK  3 active torsions:
REMARK  status: ('A' for Active; 'I' for Inactive)
REMARK    1  A    between atoms: C3_3  and  C5_5 
REMARK    2  A    between atoms: C4_4  and  C6_6 
REMARK    3  A    between atoms: C5_5  and  C6_6 
ROOT
HETATM    1  C1  UNL     1     -34.551   5.584   5.518  1.00 20.00     0.087 C 
HETATM    2  C3  UNL     1     -34.249   6.752   6.271  1.00 20.00     0.093 C 
HETATM    3  N7  UNL     1     -34.800   4.630   4.907  1.00 20.00    -0.192 NA
ENDROOT
BRANCH   2   4
HETATM    4  C5  UNL     1     -33.373   7.664   5.826  1.00 20.00     0.011 C 
BRANCH   4   5
HETATM    5  C6  UNL     1     -33.270   8.042   4.434  1.00 20.00     0.011 C 
BRANCH   5   6
HETATM    6  C4  UNL     1     -32.260   7.650   3.644  1.00 20.00     0.093 C 
HETATM    7  C2  UNL     1     -32.215   7.999   2.268  1.00 20.00     0.087 C 
HETATM    8  N8  UNL     1     -32.176   8.282   1.143  1.00 20.00    -0.192 NA
ENDBRANCH   5   6
ENDBRANCH   4   5
ENDBRANCH   2   4
TORSDOF 3
ENDMDL
MODEL 7
REMARK VINA RESULT:      -4.2      1.034      1.288
REMARK  3 active torsions:
REMARK  status: ('A' for Active; 'I' for Inactive)
REMARK    1  A    between atoms: C3_3  and  C5_5 
REMARK    2  A    between atoms: C4_4  and  C6_6 
REMARK    3  A    between atoms: C5_5  and  C6_6 
ROOT
HETATM    1  C1  UNL     1     -32.208   8.025   2.179  1.00 20.00     0.087 C 
HETATM    2  C3  UNL     1     -32.260   7.627   3.544  1.00 20.00     0.093 C 
HETATM    3  N7  UNL     1     -32.162   8.346   1.066  1.00 20.00    -0.192 NA
ENDROOT
BRANCH   2   4
HETATM    4  C5  UNL     1     -33.254   8.024   4.351  1.00 20.00     0.011 C 
BRANCH   4   5
HETATM    5  C6  UNL     1     -33.316   7.674   5.753  1.00 20.00     0.011 C 
BRANCH   5   6
HETATM    6  C4  UNL     1     -34.195   6.790   6.246  1.00 20.00     0.093 C 
HETATM    7  C2  UNL     1     -34.565   5.626   5.520  1.00 20.00     0.087 C 
HETATM    8  N8  UNL     1     -34.869   4.675   4.929  1.00 20.00    -0.192 NA
ENDBRANCH   5   6
ENDBRANCH   4   5
ENDBRANCH   2   4
TORSDOF 3
ENDMDL
MODEL 8
REMARK VINA RESULT:      -4.1      1.892      4.024
REMARK  3 active torsions:
REMARK  status: ('A' for Active; 'I' for Inactive)
REMARK    1  A    between atoms: C3_3  and  C5_5 
REMARK    2  A    between atoms: C4_4  and  C6_6 
REMARK    3  A    between atoms: C5_5  and  C6_6 
ROOT
HETATM    1  C1  UNL     1     -34.445   6.063   6.015  1.00 20.00     0.087 C 
HETATM    2  C3  UNL     1     -34.518   5.007   5.066  1.00 20.00     0.093 C 
HETATM    3  N7  UNL     1     -34.385   6.922   6.792  1.00 20.00    -0.192 NA
ENDROOT
BRANCH   2   4
HETATM    4  C5  UNL     1     -34.326   5.227   3.758  1.00 20.00     0.011 C 
BRANCH   4   5
HETATM    5  C6  UNL     1     -33.013   5.376   3.170  1.00 20.00     0.011 C 
BRANCH   5   6
HETATM    6  C4  UNL     1     -32.532   6.553   2.747  1.00 20.00     0.093 C 
HETATM    7  C2  UNL     1     -32.360   7.648   3.636  1.00 20.00     0.087 C 
HETATM    8  N8  UNL     1     -32.218   8.543   4.360  1.00 20.00    -0.192 NA
ENDBRANCH   5   6
ENDBRANCH   4   5
ENDBRANCH   2   4
TORSDOF 3
ENDMDL
MODEL 9
REMARK VINA RESULT:      -4.1      1.903      2.592
REMARK  3 active torsions:
REMARK  status: ('A' for Active; 'I' for Inactive)
REMARK    1  A    between atoms: C3_3  and  C5_5 
REMARK    2  A    between atoms: C4_4  and  C6_6 
REMARK    3  A    between atoms: C5_5  and  C6_6 
ROOT
HETATM    1  C1  UNL     1     -32.350   7.641   3.607  1.00 20.00     0.087 C 
HETATM    2  C3  UNL     1     -32.536   6.542   2.725  1.00 20.00     0.093 C 
HETATM    3  N7  UNL     1     -32.197   8.541   4.324  1.00 20.00    -0.192 NA
ENDROOT
BRANCH   2   4
HETATM    4  C5  UNL     1     -33.055   5.382   3.152  1.00 20.00     0.011 C 
BRANCH   4   5
HETATM    5  C6  UNL     1     -34.350   5.285   3.788  1.00 20.00     0.011 C 
BRANCH   5   6
HETATM    6  C4  UNL     1     -34.504   5.057   5.100  1.00 20.00     0.093 C 
HETATM    7  C2  UNL     1     -34.429   6.110   6.051  1.00 20.00     0.087 C 
HETATM    8  N8  UNL     1     -34.369   6.968   6.830  1.00 20.00    -0.192 NA
ENDBRANCH   5   6
ENDBRANCH   4   5
ENDBRANCH   2   4
TORSDOF 3
ENDMDL
