MODEL 1
REMARK VINA RESULT:      -3.6      0.000      0.000
REMARK  0 active torsions:
REMARK  status: ('A' for Active; 'I' for Inactive)
ROOT
HETATM    1  C1  UNL     1     -30.270  -2.677  11.337  1.00 20.00     0.086 C 
HETATM    2  C2  UNL     1     -26.717  -2.591  10.217  1.00 20.00     0.017 C 
HETATM    3  C3  UNL     1     -28.011  -3.629  11.933  1.00 20.00     0.049 C 
HETATM    4  C4  UNL     1     -26.755  -2.734  11.750  1.00 20.00     0.020 C 
HETATM    5  C5  UNL     1     -28.134  -1.974  10.160  1.00 20.00     0.055 C 
HETATM    6  C6  UNL     1     -27.121  -1.336  12.218  1.00 20.00     0.155 A 
HETATM    7  C7  UNL     1     -28.028  -0.817  11.155  1.00 20.00     0.158 A 
HETATM    8  C8  UNL     1     -28.970  -3.114  10.817  1.00 20.00     0.132 C 
HETATM    9  N9  UNL     1     -31.299  -2.332  11.749  1.00 20.00    -0.195 NA
HETATM   10  O10 UNL     1     -26.739  -0.238  11.385  1.00 20.00    -0.374 OA
HETATM   11 CL11 UNL     1     -29.315  -4.412   9.628  1.00 20.00    -0.102 Cl
ENDROOT
TORSDOF 0
ENDMDL
MODEL 2
REMARK VINA RESULT:      -3.6     25.293     26.177
REMARK  0 active torsions:
REMARK  status: ('A' for Active; 'I' for Inactive)
ROOT
HETATM    1  C1  UNL     1     -33.852  16.728  -3.868  1.00 20.00     0.086 C 
HETATM    2  C2  UNL     1     -35.727  16.880  -7.084  1.00 20.00     0.017 C 
HETATM    3  C3  UNL     1     -36.105  17.397  -4.785  1.00 20.00     0.049 C 
HETATM    4  C4  UNL     1     -36.713  16.561  -5.945  1.00 20.00     0.020 C 
HETATM    5  C5  UNL     1     -34.512  16.348  -6.288  1.00 20.00     0.055 C 
HETATM    6  C6  UNL     1     -36.434  15.098  -5.646  1.00 20.00     0.155 A 
HETATM    7  C7  UNL     1     -34.971  14.944  -5.888  1.00 20.00     0.158 A 
HETATM    8  C8  UNL     1     -34.571  17.264  -5.029  1.00 20.00     0.132 C 
HETATM    9  N9  UNL     1     -33.283  16.305  -2.949  1.00 20.00    -0.195 NA
HETATM   10  O10 UNL     1     -35.938  14.287  -6.714  1.00 20.00    -0.374 OA
HETATM   11 CL11 UNL     1     -33.843  18.865  -5.376  1.00 20.00    -0.102 Cl
ENDROOT
TORSDOF 0
ENDMDL
MODEL 3
REMARK VINA RESULT:      -3.5     25.458     26.298
REMARK  0 active torsions:
REMARK  status: ('A' for Active; 'I' for Inactive)
ROOT
HETATM    1  C1  UNL     1     -36.062  17.649  -4.591  1.00 20.00     0.086 C 
HETATM    2  C2  UNL     1     -33.843  15.136  -6.216  1.00 20.00     0.017 C 
HETATM    3  C3  UNL     1     -34.468  17.418  -6.532  1.00 20.00     0.049 C 
HETATM    4  C4  UNL     1     -34.421  16.067  -7.299  1.00 20.00     0.020 C 
HETATM    5  C5  UNL     1     -34.995  15.437  -5.229  1.00 20.00     0.055 C 
HETATM    6  C6  UNL     1     -35.852  15.578  -7.446  1.00 20.00     0.155 A 
HETATM    7  C7  UNL     1     -36.236  15.141  -6.073  1.00 20.00     0.158 A 
HETATM    8  C8  UNL     1     -34.853  16.983  -5.086  1.00 20.00     0.132 C 
HETATM    9  N9  UNL     1     -37.018  18.177  -4.198  1.00 20.00    -0.195 NA
HETATM   10  O10 UNL     1     -36.116  14.204  -7.149  1.00 20.00    -0.374 OA
HETATM   11 CL11 UNL     1     -33.544  17.393  -3.931  1.00 20.00    -0.102 Cl
ENDROOT
TORSDOF 0
ENDMDL
MODEL 4
REMARK VINA RESULT:      -3.5      2.886      3.685
REMARK  0 active torsions:
REMARK  status: ('A' for Active; 'I' for Inactive)
ROOT
HETATM    1  C1  UNL     1     -24.791  -1.787  11.957  1.00 20.00     0.086 C 
HETATM    2  C2  UNL     1     -28.223  -3.084  11.310  1.00 20.00     0.017 C 
HETATM    3  C3  UNL     1     -26.201  -2.735  10.092  1.00 20.00     0.049 C 
HETATM    4  C4  UNL     1     -27.711  -2.373  10.044  1.00 20.00     0.020 C 
HETATM    5  C5  UNL     1     -27.259  -2.304  12.235  1.00 20.00     0.055 C 
HETATM    6  C6  UNL     1     -27.837  -0.901  10.400  1.00 20.00     0.155 A 
HETATM    7  C7  UNL     1     -27.553  -0.850  11.863  1.00 20.00     0.158 A 
HETATM    8  C8  UNL     1     -25.885  -2.703  11.618  1.00 20.00     0.132 C 
HETATM    9  N9  UNL     1     -23.924  -1.062  12.225  1.00 20.00    -0.195 NA
HETATM   10  O10 UNL     1     -28.848  -0.532  11.341  1.00 20.00    -0.374 OA
HETATM   11 CL11 UNL     1     -25.379  -4.324  12.195  1.00 20.00    -0.102 Cl
ENDROOT
TORSDOF 0
ENDMDL
MODEL 5
REMARK VINA RESULT:      -3.4      3.177      3.858
REMARK  0 active torsions:
REMARK  status: ('A' for Active; 'I' for Inactive)
ROOT
HETATM    1  C1  UNL     1     -25.114  -2.787  10.237  1.00 20.00     0.086 C 
HETATM    2  C2  UNL     1     -27.492  -0.804  12.310  1.00 20.00     0.017 C 
HETATM    3  C3  UNL     1     -26.542  -2.994  12.307  1.00 20.00     0.049 C 
HETATM    4  C4  UNL     1     -27.923  -2.283  12.331  1.00 20.00     0.020 C 
HETATM    5  C5  UNL     1     -26.717  -0.966  10.982  1.00 20.00     0.055 C 
HETATM    6  C6  UNL     1     -28.558  -2.477  10.964  1.00 20.00     0.155 A 
HETATM    7  C7  UNL     1     -27.769  -1.589  10.062  1.00 20.00     0.158 A 
HETATM    8  C8  UNL     1     -25.693  -2.072  11.380  1.00 20.00     0.132 C 
HETATM    9  N9  UNL     1     -24.654  -3.352   9.334  1.00 20.00    -0.195 NA
HETATM   10  O10 UNL     1     -29.150  -1.333  10.342  1.00 20.00    -0.374 OA
HETATM   11 CL11 UNL     1     -24.314  -1.362  12.280  1.00 20.00    -0.102 Cl
ENDROOT
TORSDOF 0
ENDMDL
MODEL 6
REMARK VINA RESULT:      -3.4     25.201     26.041
REMARK  0 active torsions:
REMARK  status: ('A' for Active; 'I' for Inactive)
ROOT
HETATM    1  C1  UNL     1     -33.869  15.798  -4.053  1.00 20.00     0.086 C 
HETATM    2  C2  UNL     1     -36.243  15.809  -6.925  1.00 20.00     0.017 C 
HETATM    3  C3  UNL     1     -34.005  15.112  -6.476  1.00 20.00     0.049 C 
HETATM    4  C4  UNL     1     -34.812  16.005  -7.458  1.00 20.00     0.020 C 
HETATM    5  C5  UNL     1     -35.874  16.328  -5.515  1.00 20.00     0.055 C 
HETATM    6  C6  UNL     1     -34.508  17.452  -7.109  1.00 20.00     0.155 A 
HETATM    7  C7  UNL     1     -35.227  17.680  -5.823  1.00 20.00     0.158 A 
HETATM    8  C8  UNL     1     -34.751  15.321  -5.124  1.00 20.00     0.132 C 
HETATM    9  N9  UNL     1     -33.172  16.175  -3.205  1.00 20.00    -0.195 NA
HETATM   10  O10 UNL     1     -35.612  18.358  -7.024  1.00 20.00    -0.374 OA
HETATM   11 CL11 UNL     1     -35.458  13.779  -4.543  1.00 20.00    -0.102 Cl
ENDROOT
TORSDOF 0
ENDMDL
MODEL 7
REMARK VINA RESULT:      -3.3     21.160     21.839
REMARK  0 active torsions:
REMARK  status: ('A' for Active; 'I' for Inactive)
ROOT
HETATM    1  C1  UNL     1     -41.621  13.950   4.773  1.00 20.00     0.086 C 
HETATM    2  C2  UNL     1     -40.706  14.109   8.381  1.00 20.00     0.017 C 
HETATM    3  C3  UNL     1     -42.258  12.940   6.995  1.00 20.00     0.049 C 
HETATM    4  C4  UNL     1     -42.218  13.841   8.260  1.00 20.00     0.020 C 
HETATM    5  C5  UNL     1     -40.623  14.736   6.970  1.00 20.00     0.055 C 
HETATM    6  C6  UNL     1     -42.779  15.198   7.869  1.00 20.00     0.155 A 
HETATM    7  C7  UNL     1     -41.714  15.807   7.022  1.00 20.00     0.158 A 
HETATM    8  C8  UNL     1     -41.138  13.550   6.099  1.00 20.00     0.132 C 
HETATM    9  N9  UNL     1     -42.002  14.266   3.723  1.00 20.00    -0.195 NA
HETATM   10  O10 UNL     1     -42.062  16.359   8.297  1.00 20.00    -0.374 OA
HETATM   11 CL11 UNL     1     -39.829  12.357   5.818  1.00 20.00    -0.102 Cl
ENDROOT
TORSDOF 0
ENDMDL
MODEL 8
REMARK VINA RESULT:      -3.3     25.405     26.258
REMARK  0 active torsions:
REMARK  status: ('A' for Active; 'I' for Inactive)
ROOT
HETATM    1  C1  UNL     1     -33.994  14.860  -5.233  1.00 20.00     0.086 C 
HETATM    2  C2  UNL     1     -36.435  16.396  -7.591  1.00 20.00     0.017 C 
HETATM    3  C3  UNL     1     -34.676  17.110  -6.145  1.00 20.00     0.049 C 
HETATM    4  C4  UNL     1     -36.180  17.374  -6.428  1.00 20.00     0.020 C 
HETATM    5  C5  UNL     1     -35.997  15.168  -6.760  1.00 20.00     0.055 C 
HETATM    6  C6  UNL     1     -36.971  16.762  -5.283  1.00 20.00     0.155 A 
HETATM    7  C7  UNL     1     -36.867  15.291  -5.508  1.00 20.00     0.158 A 
HETATM    8  C8  UNL     1     -34.539  15.577  -6.390  1.00 20.00     0.132 C 
HETATM    9  N9  UNL     1     -33.562  14.291  -4.317  1.00 20.00    -0.195 NA
HETATM   10  O10 UNL     1     -38.119  15.977  -5.618  1.00 20.00    -0.374 OA
HETATM   11 CL11 UNL     1     -33.424  15.250  -7.755  1.00 20.00    -0.102 Cl
ENDROOT
TORSDOF 0
ENDMDL
MODEL 9
REMARK VINA RESULT:      -3.3     24.867     25.695
REMARK  0 active torsions:
REMARK  status: ('A' for Active; 'I' for Inactive)
ROOT
HETATM    1  C1  UNL     1     -35.736  17.803  -4.333  1.00 20.00     0.086 C 
HETATM    2  C2  UNL     1     -34.513  15.150  -6.645  1.00 20.00     0.017 C 
HETATM    3  C3  UNL     1     -36.562  15.783  -5.597  1.00 20.00     0.049 C 
HETATM    4  C4  UNL     1     -35.616  14.560  -5.746  1.00 20.00     0.020 C 
HETATM    5  C5  UNL     1     -34.185  16.278  -5.639  1.00 20.00     0.055 C 
HETATM    6  C6  UNL     1     -34.909  14.369  -4.414  1.00 20.00     0.155 A 
HETATM    7  C7  UNL     1     -33.942  15.501  -4.344  1.00 20.00     0.158 A 
HETATM    8  C8  UNL     1     -35.570  16.984  -5.538  1.00 20.00     0.132 C 
HETATM    9  N9  UNL     1     -35.867  18.452  -3.379  1.00 20.00    -0.195 NA
HETATM   10  O10 UNL     1     -33.497  14.144  -4.441  1.00 20.00    -0.374 OA
HETATM   11 CL11 UNL     1     -35.823  18.084  -6.932  1.00 20.00    -0.102 Cl
ENDROOT
TORSDOF 0
ENDMDL
