MODEL 1
REMARK VINA RESULT:      -3.8      0.000      0.000
REMARK  3 active torsions:
REMARK  status: ('A' for Active; 'I' for Inactive)
REMARK    1  A    between atoms: C3_3  and  C7_7 
REMARK    2  A    between atoms: C4_4  and  C5_5 
REMARK    3  A    between atoms: C7_7  and  O9_9 
ROOT
HETATM    1  C1  UNL     1     -33.295  16.436  -2.643  1.00 20.00     0.031 A 
HETATM    2  C2  UNL     1     -34.027  18.450  -3.540  1.00 20.00     0.060 A 
HETATM    3  C3  UNL     1     -33.462  17.837  -2.444  1.00 20.00    -0.027 A 
HETATM    4  C4  UNL     1     -33.741  16.032  -3.882  1.00 20.00     0.043 A 
HETATM    5  S10 UNL     1     -34.355  17.340  -4.801  1.00 20.00    -0.098 SA
ENDROOT
BRANCH   3   6
HETATM    6  C7  UNL     1     -33.072  18.548  -1.205  1.00 20.00     0.206 C 
BRANCH   6   7
HETATM    7  O9  UNL     1     -31.684  18.874  -1.252  1.00 20.00    -0.391 OA
HETATM    8  C6  UNL     1     -31.041  18.577  -0.022  1.00 20.00     0.201 C 
ENDBRANCH   6   7
ENDBRANCH   3   6
BRANCH   4   9
HETATM    9  C5  UNL     1     -33.744  14.722  -4.449  1.00 20.00     0.277 C 
HETATM   10  O8  UNL     1     -34.416  13.767  -4.004  1.00 20.00    -0.301 OA
ENDBRANCH   4   9
TORSDOF 3
ENDMDL
MODEL 2
REMARK VINA RESULT:      -3.6      1.426      4.740
REMARK  3 active torsions:
REMARK  status: ('A' for Active; 'I' for Inactive)
REMARK    1  A    between atoms: C3_3  and  C7_7 
REMARK    2  A    between atoms: C4_4  and  C5_5 
REMARK    3  A    between atoms: C7_7  and  O9_9 
ROOT
HETATM    1  C1  UNL     1     -33.080  16.646  -2.323  1.00 20.00     0.031 A 
HETATM    2  C2  UNL     1     -33.791  17.654  -4.292  1.00 20.00     0.060 A 
HETATM    3  C3  UNL     1     -33.658  16.463  -3.613  1.00 20.00    -0.027 A 
HETATM    4  C4  UNL     1     -32.792  17.968  -2.067  1.00 20.00     0.043 A 
HETATM    5  S10 UNL     1     -33.220  18.984  -3.378  1.00 20.00    -0.098 SA
ENDROOT
BRANCH   3   6
HETATM    6  C7  UNL     1     -34.068  15.148  -4.155  1.00 20.00     0.206 C 
BRANCH   6   7
HETATM    7  O9  UNL     1     -34.148  15.217  -5.578  1.00 20.00    -0.391 OA
HETATM    8  C6  UNL     1     -35.439  14.851  -6.041  1.00 20.00     0.201 C 
ENDBRANCH   6   7
ENDBRANCH   3   6
BRANCH   4   9
HETATM    9  C5  UNL     1     -32.213  18.549  -0.899  1.00 20.00     0.277 C 
HETATM   10  O8  UNL     1     -30.996  18.809  -0.774  1.00 20.00    -0.301 OA
ENDBRANCH   4   9
TORSDOF 3
ENDMDL
MODEL 3
REMARK VINA RESULT:      -3.5     16.008     16.712
REMARK  3 active torsions:
REMARK  status: ('A' for Active; 'I' for Inactive)
REMARK    1  A    between atoms: C3_3  and  C7_7 
REMARK    2  A    between atoms: C4_4  and  C5_5 
REMARK    3  A    between atoms: C7_7  and  O9_9 
ROOT
HETATM    1  C1  UNL     1     -24.470  18.455  10.114  1.00 20.00     0.031 A 
HETATM    2  C2  UNL     1     -22.296  18.599  10.921  1.00 20.00     0.060 A 
HETATM    3  C3  UNL     1     -23.113  18.781   9.827  1.00 20.00    -0.027 A 
HETATM    4  C4  UNL     1     -24.638  18.035  11.415  1.00 20.00     0.043 A 
HETATM    5  S10 UNL     1     -23.163  18.037  12.285  1.00 20.00    -0.098 SA
ENDROOT
BRANCH   3   6
HETATM    6  C7  UNL     1     -22.640  19.260   8.508  1.00 20.00     0.206 C 
BRANCH   6   7
HETATM    7  O9  UNL     1     -22.619  18.176   7.581  1.00 20.00    -0.391 OA
HETATM    8  C6  UNL     1     -21.293  17.736   7.329  1.00 20.00     0.201 C 
ENDBRANCH   6   7
ENDBRANCH   3   6
BRANCH   4   9
HETATM    9  C5  UNL     1     -25.834  17.626  12.077  1.00 20.00     0.277 C 
HETATM   10  O8  UNL     1     -26.794  18.387  12.326  1.00 20.00    -0.301 OA
ENDBRANCH   4   9
TORSDOF 3
ENDMDL
MODEL 4
REMARK VINA RESULT:      -3.5     11.517     12.366
REMARK  3 active torsions:
REMARK  status: ('A' for Active; 'I' for Inactive)
REMARK    1  A    between atoms: C3_3  and  C7_7 
REMARK    2  A    between atoms: C4_4  and  C5_5 
REMARK    3  A    between atoms: C7_7  and  O9_9 
ROOT
HETATM    1  C1  UNL     1     -33.426   6.752   3.735  1.00 20.00     0.031 A 
HETATM    2  C2  UNL     1     -33.137   8.452   5.293  1.00 20.00     0.060 A 
HETATM    3  C3  UNL     1     -32.940   8.068   3.985  1.00 20.00    -0.027 A 
HETATM    4  C4  UNL     1     -33.975   6.180   4.862  1.00 20.00     0.043 A 
HETATM    5  S10 UNL     1     -33.905   7.229   6.213  1.00 20.00    -0.098 SA
ENDROOT
BRANCH   3   6
HETATM    6  C7  UNL     1     -32.299   8.920   2.957  1.00 20.00     0.206 C 
BRANCH   6   7
HETATM    7  O9  UNL     1     -32.315   8.251   1.697  1.00 20.00    -0.391 OA
HETATM    8  C6  UNL     1     -32.618   9.148   0.639  1.00 20.00     0.201 C 
ENDBRANCH   6   7
ENDBRANCH   3   6
BRANCH   4   9
HETATM    9  C5  UNL     1     -34.561   4.888   5.016  1.00 20.00     0.277 C 
HETATM   10  O8  UNL     1     -34.128   3.852   4.468  1.00 20.00    -0.301 OA
ENDBRANCH   4   9
TORSDOF 3
ENDMDL
MODEL 5
REMARK VINA RESULT:      -3.4      2.515      5.198
REMARK  3 active torsions:
REMARK  status: ('A' for Active; 'I' for Inactive)
REMARK    1  A    between atoms: C3_3  and  C7_7 
REMARK    2  A    between atoms: C4_4  and  C5_5 
REMARK    3  A    between atoms: C7_7  and  O9_9 
ROOT
HETATM    1  C1  UNL     1     -31.719  18.252  -0.973  1.00 20.00     0.031 A 
HETATM    2  C2  UNL     1     -34.005  18.157  -0.568  1.00 20.00     0.060 A 
HETATM    3  C3  UNL     1     -33.007  17.926  -1.489  1.00 20.00    -0.027 A 
HETATM    4  C4  UNL     1     -31.783  18.721   0.320  1.00 20.00     0.043 A 
HETATM    5  S10 UNL     1     -33.389  18.765   0.909  1.00 20.00    -0.098 SA
ENDROOT
BRANCH   3   6
HETATM    6  C7  UNL     1     -33.242  17.400  -2.853  1.00 20.00     0.206 C 
BRANCH   6   7
HETATM    7  O9  UNL     1     -33.495  15.997  -2.792  1.00 20.00    -0.391 OA
HETATM    8  C6  UNL     1     -33.408  15.400  -4.076  1.00 20.00     0.201 C 
ENDBRANCH   6   7
ENDBRANCH   3   6
BRANCH   4   9
HETATM    9  C5  UNL     1     -30.719  19.148   1.171  1.00 20.00     0.277 C 
HETATM   10  O8  UNL     1     -30.265  18.471   2.119  1.00 20.00    -0.301 OA
ENDBRANCH   4   9
TORSDOF 3
ENDMDL
MODEL 6
REMARK VINA RESULT:      -3.4      1.981      2.501
REMARK  3 active torsions:
REMARK  status: ('A' for Active; 'I' for Inactive)
REMARK    1  A    between atoms: C3_3  and  C7_7 
REMARK    2  A    between atoms: C4_4  and  C5_5 
REMARK    3  A    between atoms: C7_7  and  O9_9 
ROOT
HETATM    1  C1  UNL     1     -34.701  17.044  -4.837  1.00 20.00     0.031 A 
HETATM    2  C2  UNL     1     -33.236  15.728  -3.603  1.00 20.00     0.060 A 
HETATM    3  C3  UNL     1     -33.758  16.992  -3.769  1.00 20.00    -0.027 A 
HETATM    4  C4  UNL     1     -34.860  15.819  -5.446  1.00 20.00     0.043 A 
HETATM    5  S10 UNL     1     -33.879  14.612  -4.731  1.00 20.00    -0.098 SA
ENDROOT
BRANCH   3   6
HETATM    6  C7  UNL     1     -33.388  18.159  -2.937  1.00 20.00     0.206 C 
BRANCH   6   7
HETATM    7  O9  UNL     1     -32.797  17.714  -1.718  1.00 20.00    -0.391 OA
HETATM    8  C6  UNL     1     -33.662  17.932  -0.614  1.00 20.00     0.201 C 
ENDBRANCH   6   7
ENDBRANCH   3   6
BRANCH   4   9
HETATM    9  C5  UNL     1     -35.705  15.467  -6.542  1.00 20.00     0.277 C 
HETATM   10  O8  UNL     1     -35.981  14.292  -6.866  1.00 20.00    -0.301 OA
ENDBRANCH   4   9
TORSDOF 3
ENDMDL
MODEL 7
REMARK VINA RESULT:      -3.1     11.591     12.164
REMARK  3 active torsions:
REMARK  status: ('A' for Active; 'I' for Inactive)
REMARK    1  A    between atoms: C3_3  and  C7_7 
REMARK    2  A    between atoms: C4_4  and  C5_5 
REMARK    3  A    between atoms: C7_7  and  O9_9 
ROOT
HETATM    1  C1  UNL     1     -41.011  13.214   4.894  1.00 20.00     0.031 A 
HETATM    2  C2  UNL     1     -41.879  14.663   6.490  1.00 20.00     0.060 A 
HETATM    3  C3  UNL     1     -41.999  14.194   5.200  1.00 20.00    -0.027 A 
HETATM    4  C4  UNL     1     -40.173  12.973   5.961  1.00 20.00     0.043 A 
HETATM    5  S10 UNL     1     -40.580  13.923   7.325  1.00 20.00    -0.098 SA
ENDROOT
BRANCH   3   6
HETATM    6  C7  UNL     1     -43.032  14.652   4.244  1.00 20.00     0.206 C 
BRANCH   6   7
HETATM    7  O9  UNL     1     -42.527  14.571   2.913  1.00 20.00    -0.391 OA
HETATM    8  C6  UNL     1     -42.331  15.862   2.354  1.00 20.00     0.201 C 
ENDBRANCH   6   7
ENDBRANCH   3   6
BRANCH   4   9
HETATM    9  C5  UNL     1     -39.071  12.069   6.047  1.00 20.00     0.277 C 
HETATM   10  O8  UNL     1     -38.048  12.141   5.332  1.00 20.00    -0.301 OA
ENDBRANCH   4   9
TORSDOF 3
ENDMDL
MODEL 8
REMARK VINA RESULT:      -3.1     24.157     24.945
REMARK  3 active torsions:
REMARK  status: ('A' for Active; 'I' for Inactive)
REMARK    1  A    between atoms: C3_3  and  C7_7 
REMARK    2  A    between atoms: C4_4  and  C5_5 
REMARK    3  A    between atoms: C7_7  and  O9_9 
ROOT
HETATM    1  C1  UNL     1     -25.912  -2.768  10.204  1.00 20.00     0.031 A 
HETATM    2  C2  UNL     1     -24.444  -1.774  11.706  1.00 20.00     0.060 A 
HETATM    3  C3  UNL     1     -24.574  -2.693  10.689  1.00 20.00    -0.027 A 
HETATM    4  C4  UNL     1     -26.753  -1.905  10.872  1.00 20.00     0.043 A 
HETATM    5  S10 UNL     1     -25.930  -1.008  12.075  1.00 20.00    -0.098 SA
ENDROOT
BRANCH   3   6
HETATM    6  C7  UNL     1     -23.457  -3.507  10.158  1.00 20.00     0.206 C 
BRANCH   6   7
HETATM    7  O9  UNL     1     -22.762  -2.775   9.150  1.00 20.00    -0.391 OA
HETATM    8  C6  UNL     1     -23.089  -3.245   7.851  1.00 20.00     0.201 C 
ENDBRANCH   6   7
ENDBRANCH   3   6
BRANCH   4   9
HETATM    9  C5  UNL     1     -28.151  -1.690  10.679  1.00 20.00     0.277 C 
HETATM   10  O8  UNL     1     -28.685  -0.561  10.615  1.00 20.00    -0.301 OA
ENDBRANCH   4   9
TORSDOF 3
ENDMDL
MODEL 9
REMARK VINA RESULT:      -3.1      3.347      5.952
REMARK  3 active torsions:
REMARK  status: ('A' for Active; 'I' for Inactive)
REMARK    1  A    between atoms: C3_3  and  C7_7 
REMARK    2  A    between atoms: C4_4  and  C5_5 
REMARK    3  A    between atoms: C7_7  and  O9_9 
ROOT
HETATM    1  C1  UNL     1     -33.147  18.500   1.244  1.00 20.00     0.031 A 
HETATM    2  C2  UNL     1     -31.456  18.522  -0.349  1.00 20.00     0.060 A 
HETATM    3  C3  UNL     1     -32.789  18.264  -0.115  1.00 20.00    -0.027 A 
HETATM    4  C4  UNL     1     -32.074  18.927   1.996  1.00 20.00     0.043 A 
HETATM    5  S10 UNL     1     -30.643  19.045   1.064  1.00 20.00    -0.098 SA
ENDROOT
BRANCH   3   6
HETATM    6  C7  UNL     1     -33.739  17.798  -1.151  1.00 20.00     0.206 C 
BRANCH   6   7
HETATM    7  O9  UNL     1     -33.055  17.631  -2.392  1.00 20.00    -0.391 OA
HETATM    8  C6  UNL     1     -33.259  16.331  -2.923  1.00 20.00     0.201 C 
ENDBRANCH   6   7
ENDBRANCH   3   6
BRANCH   4   9
HETATM    9  C5  UNL     1     -32.031  19.263   3.382  1.00 20.00     0.277 C 
HETATM   10  O8  UNL     1     -31.014  19.147   4.100  1.00 20.00    -0.301 OA
ENDBRANCH   4   9
TORSDOF 3
ENDMDL
