MODEL 1
REMARK VINA RESULT:      -4.4      0.000      0.000
REMARK  3 active torsions:
REMARK  status: ('A' for Active; 'I' for Inactive)
REMARK    1  A    between atoms: C3_3  and  C6_6 
REMARK    2  A    between atoms: C4_4  and  C7_7 
REMARK    3  A    between atoms: C5_5  and  C8_8 
ROOT
HETATM    1  C1  UNL     1     -35.355   5.765   4.484  1.00 20.00     0.012 C 
HETATM    2  C2  UNL     1     -34.710   6.607   6.579  1.00 20.00     0.012 C 
HETATM    3  C3  UNL     1     -34.650   6.977   5.096  1.00 20.00    -0.005 C 
HETATM    4  C4  UNL     1     -34.301   4.788   4.991  1.00 20.00     0.022 C 
HETATM    5  C5  UNL     1     -33.871   5.349   6.389  1.00 20.00     0.022 C 
ENDROOT
BRANCH   3   6
HETATM    6  C6  UNL     1     -33.158   6.716   4.742  1.00 20.00     0.048 C 
HETATM    7  C7  UNL     1     -32.451   8.100   4.759  1.00 20.00     0.133 C 
HETATM    8  O9  UNL     1     -31.767   7.749   3.515  1.00 20.00    -0.379 OA
HETATM    9  C8  UNL     1     -33.004   7.024   3.226  1.00 20.00     0.133 C 
ENDBRANCH   3   6
TORSDOF 3
ENDMDL
MODEL 2
REMARK VINA RESULT:      -3.8     15.386     16.472
REMARK  3 active torsions:
REMARK  status: ('A' for Active; 'I' for Inactive)
REMARK    1  A    between atoms: C3_3  and  C6_6 
REMARK    2  A    between atoms: C4_4  and  C7_7 
REMARK    3  A    between atoms: C5_5  and  C8_8 
ROOT
HETATM    1  C1  UNL     1     -24.310  16.473  11.246  1.00 20.00     0.012 C 
HETATM    2  C2  UNL     1     -24.999  18.717  11.345  1.00 20.00     0.012 C 
HETATM    3  C3  UNL     1     -24.386  17.718  10.361  1.00 20.00    -0.005 C 
HETATM    4  C4  UNL     1     -23.359  17.132  12.239  1.00 20.00     0.022 C 
HETATM    5  C5  UNL     1     -23.818  18.627  12.305  1.00 20.00     0.022 C 
ENDROOT
BRANCH   3   6
HETATM    6  C6  UNL     1     -22.902  18.177  10.294  1.00 20.00     0.048 C 
HETATM    7  C7  UNL     1     -22.825  19.263   9.183  1.00 20.00     0.133 C 
HETATM    8  O9  UNL     1     -21.607  18.633   8.674  1.00 20.00    -0.379 OA
HETATM    9  C8  UNL     1     -22.251  17.397   9.116  1.00 20.00     0.133 C 
ENDBRANCH   3   6
TORSDOF 3
ENDMDL
MODEL 3
REMARK VINA RESULT:      -3.7      1.105      1.274
REMARK  3 active torsions:
REMARK  status: ('A' for Active; 'I' for Inactive)
REMARK    1  A    between atoms: C3_3  and  C6_6 
REMARK    2  A    between atoms: C4_4  and  C7_7 
REMARK    3  A    between atoms: C5_5  and  C8_8 
ROOT
HETATM    1  C1  UNL     1     -35.281   5.498   5.339  1.00 20.00     0.012 C 
HETATM    2  C2  UNL     1     -34.367   7.599   5.858  1.00 20.00     0.012 C 
HETATM    3  C3  UNL     1     -34.643   6.705   4.648  1.00 20.00    -0.005 C 
HETATM    4  C4  UNL     1     -34.027   5.191   6.149  1.00 20.00     0.022 C 
HETATM    5  C5  UNL     1     -33.418   6.591   6.496  1.00 20.00     0.022 C 
ENDROOT
BRANCH   3   6
HETATM    6  C6  UNL     1     -33.225   6.177   4.287  1.00 20.00     0.048 C 
HETATM    7  C7  UNL     1     -32.547   7.285   3.432  1.00 20.00     0.133 C 
HETATM    8  O9  UNL     1     -32.070   6.256   2.507  1.00 20.00    -0.379 OA
HETATM    9  C8  UNL     1     -33.325   5.590   2.850  1.00 20.00     0.133 C 
ENDBRANCH   3   6
TORSDOF 3
ENDMDL
MODEL 4
REMARK VINA RESULT:      -3.7     15.350     16.187
REMARK  3 active torsions:
REMARK  status: ('A' for Active; 'I' for Inactive)
REMARK    1  A    between atoms: C3_3  and  C6_6 
REMARK    2  A    between atoms: C4_4  and  C7_7 
REMARK    3  A    between atoms: C5_5  and  C8_8 
ROOT
HETATM    1  C1  UNL     1     -25.092  18.722  12.260  1.00 20.00     0.012 C 
HETATM    2  C2  UNL     1     -23.017  17.628  12.128  1.00 20.00     0.012 C 
HETATM    3  C3  UNL     1     -23.795  18.756  11.448  1.00 20.00    -0.005 C 
HETATM    4  C4  UNL     1     -25.426  17.299  11.828  1.00 20.00     0.022 C 
HETATM    5  C5  UNL     1     -24.043  16.569  11.740  1.00 20.00     0.022 C 
ENDROOT
BRANCH   3   6
HETATM    6  C6  UNL     1     -24.222  18.108  10.101  1.00 20.00     0.048 C 
HETATM    7  C7  UNL     1     -23.041  18.323   9.113  1.00 20.00     0.133 C 
HETATM    8  O9  UNL     1     -23.998  18.711   8.077  1.00 20.00    -0.379 OA
HETATM    9  C8  UNL     1     -24.750  19.263   9.203  1.00 20.00     0.133 C 
ENDBRANCH   3   6
TORSDOF 3
ENDMDL
MODEL 5
REMARK VINA RESULT:      -3.7      9.083     10.191
REMARK  3 active torsions:
REMARK  status: ('A' for Active; 'I' for Inactive)
REMARK    1  A    between atoms: C3_3  and  C6_6 
REMARK    2  A    between atoms: C4_4  and  C7_7 
REMARK    3  A    between atoms: C5_5  and  C8_8 
ROOT
HETATM    1  C1  UNL     1     -42.063   7.729  -0.706  1.00 20.00     0.012 C 
HETATM    2  C2  UNL     1     -41.808   5.456  -1.241  1.00 20.00     0.012 C 
HETATM    3  C3  UNL     1     -42.730   6.378  -0.440  1.00 20.00    -0.005 C 
HETATM    4  C4  UNL     1     -40.758   7.313  -0.038  1.00 20.00     0.022 C 
HETATM    5  C5  UNL     1     -40.587   5.798  -0.395  1.00 20.00     0.022 C 
ENDROOT
BRANCH   3   6
HETATM    6  C6  UNL     1     -42.315   6.079   1.028  1.00 20.00     0.048 C 
HETATM    7  C7  UNL     1     -43.128   4.830   1.471  1.00 20.00     0.133 C 
HETATM    8  O9  UNL     1     -43.416   5.490   2.745  1.00 20.00    -0.379 OA
HETATM    9  C8  UNL     1     -43.412   6.706   1.934  1.00 20.00     0.133 C 
ENDBRANCH   3   6
TORSDOF 3
ENDMDL
MODEL 6
REMARK VINA RESULT:      -3.5      0.767      2.058
REMARK  3 active torsions:
REMARK  status: ('A' for Active; 'I' for Inactive)
REMARK    1  A    between atoms: C3_3  and  C6_6 
REMARK    2  A    between atoms: C4_4  and  C7_7 
REMARK    3  A    between atoms: C5_5  and  C8_8 
ROOT
HETATM    1  C1  UNL     1     -33.845   5.690   6.451  1.00 20.00     0.012 C 
HETATM    2  C2  UNL     1     -34.252   4.785   4.322  1.00 20.00     0.012 C 
HETATM    3  C3  UNL     1     -33.252   5.692   5.041  1.00 20.00    -0.005 C 
HETATM    4  C4  UNL     1     -35.150   6.331   5.996  1.00 20.00     0.022 C 
HETATM    5  C5  UNL     1     -35.422   5.728   4.577  1.00 20.00     0.022 C 
ENDROOT
BRANCH   3   6
HETATM    6  C6  UNL     1     -33.636   7.104   4.514  1.00 20.00     0.048 C 
HETATM    7  C7  UNL     1     -32.640   7.433   3.366  1.00 20.00     0.133 C 
HETATM    8  O9  UNL     1     -32.480   8.780   3.913  1.00 20.00    -0.379 OA
HETATM    9  C8  UNL     1     -32.667   8.109   5.198  1.00 20.00     0.133 C 
ENDBRANCH   3   6
TORSDOF 3
ENDMDL
MODEL 7
REMARK VINA RESULT:      -3.3      9.366     10.270
REMARK  3 active torsions:
REMARK  status: ('A' for Active; 'I' for Inactive)
REMARK    1  A    between atoms: C3_3  and  C6_6 
REMARK    2  A    between atoms: C4_4  and  C7_7 
REMARK    3  A    between atoms: C5_5  and  C8_8 
ROOT
HETATM    1  C1  UNL     1     -42.331   5.142   1.274  1.00 20.00     0.012 C 
HETATM    2  C2  UNL     1     -40.785   5.569  -0.443  1.00 20.00     0.012 C 
HETATM    3  C3  UNL     1     -41.600   6.314   0.616  1.00 20.00    -0.005 C 
HETATM    4  C4  UNL     1     -43.057   4.763  -0.011  1.00 20.00     0.022 C 
HETATM    5  C5  UNL     1     -42.028   5.047  -1.156  1.00 20.00     0.022 C 
ENDROOT
BRANCH   3   6
HETATM    6  C6  UNL     1     -42.722   6.982  -0.228  1.00 20.00     0.048 C 
HETATM    7  C7  UNL     1     -42.143   8.329  -0.745  1.00 20.00     0.133 C 
HETATM    8  O9  UNL     1     -43.401   8.987  -0.392  1.00 20.00    -0.379 OA
HETATM    9  C8  UNL     1     -43.417   8.017   0.701  1.00 20.00     0.133 C 
ENDBRANCH   3   6
TORSDOF 3
ENDMDL
MODEL 8
REMARK VINA RESULT:      -3.2      1.792      3.492
REMARK  3 active torsions:
REMARK  status: ('A' for Active; 'I' for Inactive)
REMARK    1  A    between atoms: C3_3  and  C6_6 
REMARK    2  A    between atoms: C4_4  and  C7_7 
REMARK    3  A    between atoms: C5_5  and  C8_8 
ROOT
HETATM    1  C1  UNL     1     -33.552   9.024   5.209  1.00 20.00     0.012 C 
HETATM    2  C2  UNL     1     -33.369   8.054   3.078  1.00 20.00     0.012 C 
HETATM    3  C3  UNL     1     -34.180   7.913   4.367  1.00 20.00    -0.005 C 
HETATM    4  C4  UNL     1     -32.173   8.376   5.191  1.00 20.00     0.022 C 
HETATM    5  C5  UNL     1     -32.050   7.729   3.770  1.00 20.00     0.022 C 
ENDROOT
BRANCH   3   6
HETATM    6  C6  UNL     1     -33.583   6.626   5.004  1.00 20.00     0.048 C 
HETATM    7  C7  UNL     1     -34.478   5.444   4.535  1.00 20.00     0.133 C 
HETATM    8  O9  UNL     1     -34.469   4.917   5.900  1.00 20.00    -0.379 OA
HETATM    9  C8  UNL     1     -34.427   6.330   6.275  1.00 20.00     0.133 C 
ENDBRANCH   3   6
TORSDOF 3
ENDMDL
MODEL 9
REMARK VINA RESULT:      -3.1     12.647     13.574
REMARK  3 active torsions:
REMARK  status: ('A' for Active; 'I' for Inactive)
REMARK    1  A    between atoms: C3_3  and  C6_6 
REMARK    2  A    between atoms: C4_4  and  C7_7 
REMARK    3  A    between atoms: C5_5  and  C8_8 
ROOT
HETATM    1  C1  UNL     1     -33.968  19.263  -2.832  1.00 20.00     0.012 C 
HETATM    2  C2  UNL     1     -32.434  17.980  -1.600  1.00 20.00     0.012 C 
HETATM    3  C3  UNL     1     -32.985  18.106  -3.022  1.00 20.00    -0.005 C 
HETATM    4  C4  UNL     1     -34.819  18.489  -1.832  1.00 20.00     0.022 C 
HETATM    5  C5  UNL     1     -33.797  17.634  -1.010  1.00 20.00     0.022 C 
ENDROOT
BRANCH   3   6
HETATM    6  C6  UNL     1     -33.928  16.874  -3.129  1.00 20.00     0.048 C 
HETATM    7  C7  UNL     1     -33.081  15.721  -3.736  1.00 20.00     0.133 C 
HETATM    8  O9  UNL     1     -34.195  15.391  -4.625  1.00 20.00    -0.379 OA
HETATM    9  C8  UNL     1     -34.435  16.833  -4.599  1.00 20.00     0.133 C 
ENDBRANCH   3   6
TORSDOF 3
ENDMDL
