MODEL 1
REMARK VINA RESULT:      -6.2      0.000      0.000
REMARK  0 active torsions:
REMARK  status: ('A' for Active; 'I' for Inactive)
ROOT
HETATM    1  C1  UNL     1     -32.573   8.633   5.023  1.00 20.00     0.179 A 
HETATM    2  C2  UNL     1     -33.332   7.517   5.253  1.00 20.00    -0.007 A 
HETATM    3  C3  UNL     1     -33.204   6.771   4.060  1.00 20.00     0.070 A 
HETATM    4  C4  UNL     1     -34.153   7.091   6.410  1.00 20.00     0.043 C 
HETATM    5  C5  UNL     1     -33.840   5.447   3.842  1.00 20.00     0.062 C 
HETATM    6  C6  UNL     1     -34.507   5.595   6.310  1.00 20.00     0.005 C 
HETATM    7  C7  UNL     1     -34.944   5.193   4.887  1.00 20.00     0.006 C 
HETATM    8  N8  UNL     1     -32.420   7.374   3.164  1.00 20.00    -0.133 NA
HETATM    9  O9  UNL     1     -32.023   8.558   3.780  1.00 20.00    -0.225 OA
ENDROOT
TORSDOF 0
ENDMDL
MODEL 2
REMARK VINA RESULT:      -6.0      0.945      2.049
REMARK  0 active torsions:
REMARK  status: ('A' for Active; 'I' for Inactive)
ROOT
HETATM    1  C1  UNL     1     -32.397   7.588   3.276  1.00 20.00     0.179 A 
HETATM    2  C2  UNL     1     -33.203   6.788   4.041  1.00 20.00    -0.007 A 
HETATM    3  C3  UNL     1     -33.358   7.514   5.242  1.00 20.00     0.070 A 
HETATM    4  C4  UNL     1     -33.807   5.457   3.796  1.00 20.00     0.043 C 
HETATM    5  C5  UNL     1     -34.184   7.052   6.386  1.00 20.00     0.062 C 
HETATM    6  C6  UNL     1     -34.919   5.163   4.822  1.00 20.00     0.005 C 
HETATM    7  C7  UNL     1     -34.506   5.551   6.256  1.00 20.00     0.006 C 
HETATM    8  N8  UNL     1     -32.705   8.679   5.220  1.00 20.00    -0.133 NA
HETATM    9  O9  UNL     1     -32.094   8.719   3.969  1.00 20.00    -0.225 OA
ENDROOT
TORSDOF 0
ENDMDL
MODEL 3
REMARK VINA RESULT:      -5.8      2.288      3.167
REMARK  0 active torsions:
REMARK  status: ('A' for Active; 'I' for Inactive)
ROOT
HETATM    1  C1  UNL     1     -34.518   6.322   6.392  1.00 20.00     0.179 A 
HETATM    2  C2  UNL     1     -33.796   6.850   5.356  1.00 20.00    -0.007 A 
HETATM    3  C3  UNL     1     -33.829   5.839   4.371  1.00 20.00     0.070 A 
HETATM    4  C4  UNL     1     -33.083   8.139   5.193  1.00 20.00     0.043 C 
HETATM    5  C5  UNL     1     -33.194   5.965   3.035  1.00 20.00     0.062 C 
HETATM    6  C6  UNL     1     -32.742   8.393   3.712  1.00 20.00     0.005 C 
HETATM    7  C7  UNL     1     -32.188   7.133   3.018  1.00 20.00     0.006 C 
HETATM    8  N8  UNL     1     -34.526   4.769   4.763  1.00 20.00    -0.133 NA
HETATM    9  O9  UNL     1     -34.959   5.081   6.050  1.00 20.00    -0.225 OA
ENDROOT
TORSDOF 0
ENDMDL
MODEL 4
REMARK VINA RESULT:      -5.7      0.986      2.147
REMARK  0 active torsions:
REMARK  status: ('A' for Active; 'I' for Inactive)
ROOT
HETATM    1  C1  UNL     1     -32.666   6.339   2.671  1.00 20.00     0.179 A 
HETATM    2  C2  UNL     1     -33.390   6.113   3.810  1.00 20.00    -0.007 A 
HETATM    3  C3  UNL     1     -33.223   7.300   4.557  1.00 20.00     0.070 A 
HETATM    4  C4  UNL     1     -34.175   4.947   4.278  1.00 20.00     0.043 C 
HETATM    5  C5  UNL     1     -33.854   7.540   5.880  1.00 20.00     0.062 C 
HETATM    6  C6  UNL     1     -35.089   5.338   5.455  1.00 20.00     0.005 C 
HETATM    7  C7  UNL     1     -34.361   6.219   6.490  1.00 20.00     0.006 C 
HETATM    8  N8  UNL     1     -32.461   8.196   3.925  1.00 20.00    -0.133 NA
HETATM    9  O9  UNL     1     -32.108   7.579   2.727  1.00 20.00    -0.225 OA
ENDROOT
TORSDOF 0
ENDMDL
MODEL 5
REMARK VINA RESULT:      -5.7      2.279      3.691
REMARK  0 active torsions:
REMARK  status: ('A' for Active; 'I' for Inactive)
ROOT
HETATM    1  C1  UNL     1     -34.581   5.016   4.957  1.00 20.00     0.179 A 
HETATM    2  C2  UNL     1     -33.819   5.983   4.361  1.00 20.00    -0.007 A 
HETATM    3  C3  UNL     1     -33.745   7.003   5.335  1.00 20.00     0.070 A 
HETATM    4  C4  UNL     1     -33.190   6.072   3.022  1.00 20.00     0.043 C 
HETATM    5  C5  UNL     1     -32.989   8.268   5.151  1.00 20.00     0.062 C 
HETATM    6  C6  UNL     1     -32.143   7.202   2.983  1.00 20.00     0.005 C 
HETATM    7  C7  UNL     1     -32.648   8.489   3.664  1.00 20.00     0.006 C 
HETATM    8  N8  UNL     1     -34.404   6.689   6.453  1.00 20.00    -0.133 NA
HETATM    9  O9  UNL     1     -34.936   5.425   6.206  1.00 20.00    -0.225 OA
ENDROOT
TORSDOF 0
ENDMDL
MODEL 6
REMARK VINA RESULT:      -5.5      2.120      3.132
REMARK  0 active torsions:
REMARK  status: ('A' for Active; 'I' for Inactive)
ROOT
HETATM    1  C1  UNL     1     -34.805   5.404   5.743  1.00 20.00     0.179 A 
HETATM    2  C2  UNL     1     -34.047   6.474   5.350  1.00 20.00    -0.007 A 
HETATM    3  C3  UNL     1     -33.529   6.078   4.097  1.00 20.00     0.070 A 
HETATM    4  C4  UNL     1     -33.743   7.772   5.998  1.00 20.00     0.043 C 
HETATM    5  C5  UNL     1     -32.654   6.935   3.257  1.00 20.00     0.062 C 
HETATM    6  C6  UNL     1     -33.142   8.763   4.982  1.00 20.00     0.005 C 
HETATM    7  C7  UNL     1     -32.079   8.103   4.082  1.00 20.00     0.006 C 
HETATM    8  N8  UNL     1     -33.940   4.860   3.737  1.00 20.00    -0.133 NA
HETATM    9  O9  UNL     1     -34.750   4.436   4.788  1.00 20.00    -0.225 OA
ENDROOT
TORSDOF 0
ENDMDL
MODEL 7
REMARK VINA RESULT:      -5.3      2.286      3.579
REMARK  0 active torsions:
REMARK  status: ('A' for Active; 'I' for Inactive)
ROOT
HETATM    1  C1  UNL     1     -33.650   4.887   3.512  1.00 20.00     0.179 A 
HETATM    2  C2  UNL     1     -33.354   6.153   3.941  1.00 20.00    -0.007 A 
HETATM    3  C3  UNL     1     -34.002   6.245   5.192  1.00 20.00     0.070 A 
HETATM    4  C4  UNL     1     -32.581   7.258   3.327  1.00 20.00     0.043 C 
HETATM    5  C5  UNL     1     -33.945   7.445   6.065  1.00 20.00     0.062 C 
HETATM    6  C6  UNL     1     -32.243   8.338   4.374  1.00 20.00     0.005 C 
HETATM    7  C7  UNL     1     -33.448   8.672   5.275  1.00 20.00     0.006 C 
HETATM    8  N8  UNL     1     -34.642   5.120   5.518  1.00 20.00    -0.133 NA
HETATM    9  O9  UNL     1     -34.417   4.261   4.445  1.00 20.00    -0.225 OA
ENDROOT
TORSDOF 0
ENDMDL
MODEL 8
REMARK VINA RESULT:      -5.1      1.535      2.107
REMARK  0 active torsions:
REMARK  status: ('A' for Active; 'I' for Inactive)
ROOT
HETATM    1  C1  UNL     1     -32.586   6.890   2.971  1.00 20.00     0.179 A 
HETATM    2  C2  UNL     1     -33.246   6.826   4.168  1.00 20.00    -0.007 A 
HETATM    3  C3  UNL     1     -33.769   5.514   4.196  1.00 20.00     0.070 A 
HETATM    4  C4  UNL     1     -33.457   7.822   5.245  1.00 20.00     0.043 C 
HETATM    5  C5  UNL     1     -34.553   4.961   5.329  1.00 20.00     0.062 C 
HETATM    6  C6  UNL     1     -33.953   7.139   6.534  1.00 20.00     0.005 C 
HETATM    7  C7  UNL     1     -35.048   6.091   6.253  1.00 20.00     0.006 C 
HETATM    8  N8  UNL     1     -33.451   4.817   3.103  1.00 20.00    -0.133 NA
HETATM    9  O9  UNL     1     -32.700   5.697   2.327  1.00 20.00    -0.225 OA
ENDROOT
TORSDOF 0
ENDMDL
MODEL 9
REMARK VINA RESULT:      -4.0     16.129     16.908
REMARK  0 active torsions:
REMARK  status: ('A' for Active; 'I' for Inactive)
ROOT
HETATM    1  C1  UNL     1     -24.986  18.635  11.100  1.00 20.00     0.179 A 
HETATM    2  C2  UNL     1     -23.967  18.741  10.193  1.00 20.00    -0.007 A 
HETATM    3  C3  UNL     1     -22.804  18.518  10.963  1.00 20.00     0.070 A 
HETATM    4  C4  UNL     1     -23.951  19.037   8.741  1.00 20.00     0.043 C 
HETATM    5  C5  UNL     1     -21.430  18.508  10.401  1.00 20.00     0.062 C 
HETATM    6  C6  UNL     1     -22.585  18.679   8.123  1.00 20.00     0.005 C 
HETATM    7  C7  UNL     1     -21.408  19.150   9.000  1.00 20.00     0.006 C 
HETATM    8  N8  UNL     1     -23.082  18.285  12.248  1.00 20.00    -0.133 NA
HETATM    9  O9  UNL     1     -24.471  18.363  12.330  1.00 20.00    -0.225 OA
ENDROOT
TORSDOF 0
ENDMDL
