MODEL 1
REMARK VINA RESULT:      -4.7      0.000      0.000
REMARK  3 active torsions:
REMARK  status: ('A' for Active; 'I' for Inactive)
REMARK    1  A    between atoms: C3_3  and  C8_8 
REMARK    2  A    between atoms: C7_7  and  C8_8 
REMARK    3  A    between atoms: N9_9  and  O10_10 
ROOT
HETATM    1  C1  UNL     1     -33.389   6.548   3.994  1.00 20.00     0.043 C 
HETATM    2  C4  UNL     1     -34.143   7.184   5.124  1.00 20.00     0.057 C 
HETATM    3  C5  UNL     1     -33.183   8.294   5.532  1.00 20.00     0.006 C 
HETATM    4  C6  UNL     1     -32.515   8.713   4.226  1.00 20.00     0.011 C 
HETATM    5  C7  UNL     1     -32.247   7.397   3.486  1.00 20.00     0.039 C 
HETATM    6  N9  UNL     1     -33.695   5.381   3.538  1.00 20.00    -0.145 NA
ENDROOT
BRANCH   5   7
HETATM    7  C8  UNL     1     -32.236   7.574   1.979  1.00 20.00     0.036 C 
BRANCH   7   8
HETATM    8  C3  UNL     1     -32.607   8.973   1.590  1.00 20.00    -0.036 C 
HETATM    9  C2  UNL     1     -32.782   9.376   0.327  1.00 20.00     0.007 C 
ENDBRANCH   7   8
ENDBRANCH   5   7
BRANCH   6  10
HETATM   10  O10 UNL     1     -32.818   5.070   2.497  1.00 20.00    -0.266 OA
HETATM   11  H23 UNL     1     -31.957   5.265   2.903  1.00 20.00     0.247 HD
ENDBRANCH   6  10
TORSDOF 3
ENDMDL
MODEL 2
REMARK VINA RESULT:      -4.5      2.382      3.054
REMARK  3 active torsions:
REMARK  status: ('A' for Active; 'I' for Inactive)
REMARK    1  A    between atoms: C3_3  and  C8_8 
REMARK    2  A    between atoms: C7_7  and  C8_8 
REMARK    3  A    between atoms: N9_9  and  O10_10 
ROOT
HETATM    1  C1  UNL     1     -34.092   6.776   5.762  1.00 20.00     0.043 C 
HETATM    2  C4  UNL     1     -34.364   5.363   6.185  1.00 20.00     0.057 C 
HETATM    3  C5  UNL     1     -34.668   4.707   4.844  1.00 20.00     0.006 C 
HETATM    4  C6  UNL     1     -33.781   5.451   3.851  1.00 20.00     0.011 C 
HETATM    5  C7  UNL     1     -33.871   6.922   4.275  1.00 20.00     0.039 C 
HETATM    6  N9  UNL     1     -34.077   7.752   6.606  1.00 20.00    -0.145 NA
ENDROOT
BRANCH   5   7
HETATM    7  C8  UNL     1     -32.623   7.705   3.914  1.00 20.00     0.036 C 
BRANCH   7   8
HETATM    8  C3  UNL     1     -32.121   7.335   2.551  1.00 20.00    -0.036 C 
HETATM    9  C2  UNL     1     -32.148   8.156   1.496  1.00 20.00     0.007 C 
ENDBRANCH   7   8
ENDBRANCH   5   7
BRANCH   6  10
HETATM   10  O10 UNL     1     -33.797   8.930   5.913  1.00 20.00    -0.266 OA
HETATM   11  H23 UNL     1     -34.688   9.224   5.659  1.00 20.00     0.247 HD
ENDBRANCH   6  10
TORSDOF 3
ENDMDL
MODEL 3
REMARK VINA RESULT:      -4.3      1.867      2.651
REMARK  3 active torsions:
REMARK  status: ('A' for Active; 'I' for Inactive)
REMARK    1  A    between atoms: C3_3  and  C8_8 
REMARK    2  A    between atoms: C7_7  and  C8_8 
REMARK    3  A    between atoms: N9_9  and  O10_10 
ROOT
HETATM    1  C1  UNL     1     -33.795   5.582   4.187  1.00 20.00     0.043 C 
HETATM    2  C4  UNL     1     -34.684   4.730   5.044  1.00 20.00     0.057 C 
HETATM    3  C5  UNL     1     -34.540   5.419   6.395  1.00 20.00     0.006 C 
HETATM    4  C6  UNL     1     -34.359   6.894   6.049  1.00 20.00     0.011 C 
HETATM    5  C7  UNL     1     -33.424   6.896   4.833  1.00 20.00     0.039 C 
HETATM    6  N9  UNL     1     -33.385   5.192   3.028  1.00 20.00    -0.145 NA
ENDROOT
BRANCH   5   7
HETATM    7  C8  UNL     1     -33.642   8.102   3.939  1.00 20.00     0.036 C 
BRANCH   7   8
HETATM    8  C3  UNL     1     -32.514   9.082   4.059  1.00 20.00    -0.036 C 
HETATM    9  C2  UNL     1     -31.846   9.318   5.193  1.00 20.00     0.007 C 
ENDBRANCH   7   8
ENDBRANCH   5   7
BRANCH   6  10
HETATM   10  O10 UNL     1     -32.583   6.196   2.483  1.00 20.00    -0.266 OA
HETATM   11  H23 UNL     1     -31.767   5.707   2.284  1.00 20.00     0.247 HD
ENDBRANCH   6  10
TORSDOF 3
ENDMDL
MODEL 4
REMARK VINA RESULT:      -4.3      2.557      3.331
REMARK  3 active torsions:
REMARK  status: ('A' for Active; 'I' for Inactive)
REMARK    1  A    between atoms: C3_3  and  C8_8 
REMARK    2  A    between atoms: C7_7  and  C8_8 
REMARK    3  A    between atoms: N9_9  and  O10_10 
ROOT
HETATM    1  C1  UNL     1     -33.380   7.484   5.283  1.00 20.00     0.043 C 
HETATM    2  C4  UNL     1     -33.743   6.905   6.619  1.00 20.00     0.057 C 
HETATM    3  C5  UNL     1     -34.867   5.953   6.233  1.00 20.00     0.006 C 
HETATM    4  C6  UNL     1     -34.482   5.460   4.841  1.00 20.00     0.011 C 
HETATM    5  C7  UNL     1     -33.950   6.705   4.121  1.00 20.00     0.039 C 
HETATM    6  N9  UNL     1     -32.669   8.555   5.172  1.00 20.00    -0.145 NA
ENDROOT
BRANCH   5   7
HETATM    7  C8  UNL     1     -32.929   6.362   3.053  1.00 20.00     0.036 C 
BRANCH   7   8
HETATM    8  C3  UNL     1     -32.851   4.882   2.827  1.00 20.00    -0.036 C 
HETATM    9  C2  UNL     1     -32.825   4.311   1.618  1.00 20.00     0.007 C 
ENDBRANCH   7   8
ENDBRANCH   5   7
BRANCH   6  10
HETATM   10  O10 UNL     1     -32.504   8.835   3.814  1.00 20.00    -0.266 OA
HETATM   11  H23 UNL     1     -33.024   8.124   3.404  1.00 20.00     0.247 HD
ENDBRANCH   6  10
TORSDOF 3
ENDMDL
MODEL 5
REMARK VINA RESULT:      -4.2      1.841      3.637
REMARK  3 active torsions:
REMARK  status: ('A' for Active; 'I' for Inactive)
REMARK    1  A    between atoms: C3_3  and  C8_8 
REMARK    2  A    between atoms: C7_7  and  C8_8 
REMARK    3  A    between atoms: N9_9  and  O10_10 
ROOT
HETATM    1  C1  UNL     1     -32.736   6.984   3.585  1.00 20.00     0.043 C 
HETATM    2  C4  UNL     1     -31.708   7.936   4.121  1.00 20.00     0.057 C 
HETATM    3  C5  UNL     1     -32.594   9.014   4.731  1.00 20.00     0.006 C 
HETATM    4  C6  UNL     1     -33.820   8.256   5.231  1.00 20.00     0.011 C 
HETATM    5  C7  UNL     1     -34.122   7.235   4.128  1.00 20.00     0.039 C 
HETATM    6  N9  UNL     1     -32.437   6.067   2.727  1.00 20.00    -0.145 NA
ENDROOT
BRANCH   5   7
HETATM    7  C8  UNL     1     -34.806   5.991   4.664  1.00 20.00     0.036 C 
BRANCH   7   8
HETATM    8  C3  UNL     1     -34.643   5.874   6.149  1.00 20.00    -0.036 C 
HETATM    9  C2  UNL     1     -33.822   5.003   6.745  1.00 20.00     0.007 C 
ENDBRANCH   7   8
ENDBRANCH   5   7
BRANCH   6  10
HETATM   10  O10 UNL     1     -33.597   5.350   2.427  1.00 20.00    -0.266 OA
HETATM   11  H23 UNL     1     -34.176   6.051   2.083  1.00 20.00     0.247 HD
ENDBRANCH   6  10
TORSDOF 3
ENDMDL
MODEL 6
REMARK VINA RESULT:      -4.2      2.354      4.401
REMARK  3 active torsions:
REMARK  status: ('A' for Active; 'I' for Inactive)
REMARK    1  A    between atoms: C3_3  and  C8_8 
REMARK    2  A    between atoms: C7_7  and  C8_8 
REMARK    3  A    between atoms: N9_9  and  O10_10 
ROOT
HETATM    1  C1  UNL     1     -32.443   7.655   3.649  1.00 20.00     0.043 C 
HETATM    2  C4  UNL     1     -32.315   7.180   2.231  1.00 20.00     0.057 C 
HETATM    3  C5  UNL     1     -32.674   5.708   2.379  1.00 20.00     0.006 C 
HETATM    4  C6  UNL     1     -33.706   5.683   3.503  1.00 20.00     0.011 C 
HETATM    5  C7  UNL     1     -33.175   6.679   4.540  1.00 20.00     0.039 C 
HETATM    6  N9  UNL     1     -31.946   8.778   4.041  1.00 20.00    -0.145 NA
ENDROOT
BRANCH   5   7
HETATM    7  C8  UNL     1     -34.287   7.310   5.357  1.00 20.00     0.036 C 
BRANCH   7   8
HETATM    8  C3  UNL     1     -34.648   6.459   6.537  1.00 20.00    -0.036 C 
HETATM    9  C2  UNL     1     -34.470   5.135   6.586  1.00 20.00     0.007 C 
ENDBRANCH   7   8
ENDBRANCH   5   7
BRANCH   6  10
HETATM   10  O10 UNL     1     -32.229   8.935   5.399  1.00 20.00    -0.266 OA
HETATM   11  H23 UNL     1     -32.527   8.042   5.640  1.00 20.00     0.247 HD
ENDBRANCH   6  10
TORSDOF 3
ENDMDL
MODEL 7
REMARK VINA RESULT:      -4.2     15.080     16.121
REMARK  3 active torsions:
REMARK  status: ('A' for Active; 'I' for Inactive)
REMARK    1  A    between atoms: C3_3  and  C8_8 
REMARK    2  A    between atoms: C7_7  and  C8_8 
REMARK    3  A    between atoms: N9_9  and  O10_10 
ROOT
HETATM    1  C1  UNL     1     -23.546  18.878   8.450  1.00 20.00     0.043 C 
HETATM    2  C4  UNL     1     -22.187  18.586   7.885  1.00 20.00     0.057 C 
HETATM    3  C5  UNL     1     -21.293  18.945   9.064  1.00 20.00     0.006 C 
HETATM    4  C6  UNL     1     -22.123  18.579  10.291  1.00 20.00     0.011 C 
HETATM    5  C7  UNL     1     -23.545  19.041   9.951  1.00 20.00     0.039 C 
HETATM    6  N9  UNL     1     -24.588  18.995   7.698  1.00 20.00    -0.145 NA
ENDROOT
BRANCH   5   7
HETATM    7  C8  UNL     1     -24.605  18.219  10.659  1.00 20.00     0.036 C 
BRANCH   7   8
HETATM    8  C3  UNL     1     -24.172  16.793  10.822  1.00 20.00    -0.036 C 
HETATM    9  C2  UNL     1     -24.427  16.053  11.906  1.00 20.00     0.007 C 
ENDBRANCH   7   8
ENDBRANCH   5   7
BRANCH   6  10
HETATM   10  O10 UNL     1     -25.690  19.263   8.512  1.00 20.00    -0.266 OA
HETATM   11  H23 UNL     1     -25.510  18.692   9.278  1.00 20.00     0.247 HD
ENDBRANCH   6  10
TORSDOF 3
ENDMDL
MODEL 8
REMARK VINA RESULT:      -4.1     11.387     11.899
REMARK  3 active torsions:
REMARK  status: ('A' for Active; 'I' for Inactive)
REMARK    1  A    between atoms: C3_3  and  C8_8 
REMARK    2  A    between atoms: C7_7  and  C8_8 
REMARK    3  A    between atoms: N9_9  and  O10_10 
ROOT
HETATM    1  C1  UNL     1     -33.669  18.408   0.408  1.00 20.00     0.043 C 
HETATM    2  C4  UNL     1     -33.696  17.696  -0.912  1.00 20.00     0.057 C 
HETATM    3  C5  UNL     1     -32.431  18.239  -1.565  1.00 20.00     0.006 C 
HETATM    4  C6  UNL     1     -31.468  18.452  -0.401  1.00 20.00     0.011 C 
HETATM    5  C7  UNL     1     -32.334  19.042   0.718  1.00 20.00     0.039 C 
HETATM    6  N9  UNL     1     -34.708  18.474   1.170  1.00 20.00    -0.145 NA
ENDROOT
BRANCH   5   7
HETATM    7  C8  UNL     1     -31.801  18.709   2.098  1.00 20.00     0.036 C 
BRANCH   7   8
HETATM    8  C3  UNL     1     -30.332  18.415   2.060  1.00 20.00    -0.036 C 
HETATM    9  C2  UNL     1     -29.479  18.742   3.037  1.00 20.00     0.007 C 
ENDBRANCH   7   8
ENDBRANCH   5   7
BRANCH   6  10
HETATM   10  O10 UNL     1     -34.369  19.194   2.317  1.00 20.00    -0.266 OA
HETATM   11  H23 UNL     1     -33.571  18.725   2.612  1.00 20.00     0.247 HD
ENDBRANCH   6  10
TORSDOF 3
ENDMDL
MODEL 9
REMARK VINA RESULT:      -4.1     10.024     10.675
REMARK  3 active torsions:
REMARK  status: ('A' for Active; 'I' for Inactive)
REMARK    1  A    between atoms: C3_3  and  C8_8 
REMARK    2  A    between atoms: C7_7  and  C8_8 
REMARK    3  A    between atoms: N9_9  and  O10_10 
ROOT
HETATM    1  C1  UNL     1     -41.353  14.075   7.171  1.00 20.00     0.043 C 
HETATM    2  C4  UNL     1     -42.659  14.775   6.936  1.00 20.00     0.057 C 
HETATM    3  C5  UNL     1     -42.590  15.032   5.436  1.00 20.00     0.006 C 
HETATM    4  C6  UNL     1     -41.819  13.837   4.884  1.00 20.00     0.011 C 
HETATM    5  C7  UNL     1     -40.695  13.597   5.899  1.00 20.00     0.039 C 
HETATM    6  N9  UNL     1     -40.858  13.932   8.354  1.00 20.00    -0.145 NA
ENDROOT
BRANCH   5   7
HETATM    7  C8  UNL     1     -40.256  12.145   5.943  1.00 20.00     0.036 C 
BRANCH   7   8
HETATM    8  C3  UNL     1     -38.990  11.934   5.169  1.00 20.00    -0.036 C 
HETATM    9  C2  UNL     1     -38.951  11.659   3.861  1.00 20.00     0.007 C 
ENDBRANCH   7   8
ENDBRANCH   5   7
BRANCH   6  10
HETATM   10  O10 UNL     1     -39.648  13.245   8.244  1.00 20.00    -0.266 OA
HETATM   11  H23 UNL     1     -39.809  12.690   7.463  1.00 20.00     0.247 HD
ENDBRANCH   6  10
TORSDOF 3
ENDMDL
