MODEL 1
REMARK VINA RESULT:      -3.9      0.000      0.000
REMARK  1 active torsions:
REMARK  status: ('A' for Active; 'I' for Inactive)
REMARK    1  A    between atoms: C10_10  and  O12_12 
ROOT
HETATM    1  C1  UNL     1     -40.398   6.663   1.096  1.00 20.00     0.005 C 
HETATM    2  C2  UNL     1     -40.444   6.369  -0.410  1.00 20.00     0.005 C 
HETATM    3  C3  UNL     1     -43.233   5.723   1.809  1.00 20.00     0.008 C 
HETATM    4  C4  UNL     1     -43.034   4.635   0.761  1.00 20.00     0.033 C 
HETATM    5  C5  UNL     1     -41.416   8.486  -0.018  1.00 20.00     0.010 C 
HETATM    6  C6  UNL     1     -41.535   7.680   1.283  1.00 20.00    -0.010 C 
HETATM    7  C7  UNL     1     -41.604   7.247  -0.905  1.00 20.00    -0.007 C 
HETATM    8  C8  UNL     1     -42.936   7.045   1.106  1.00 20.00    -0.004 C 
HETATM    9  C9  UNL     1     -42.989   6.762  -0.413  1.00 20.00     0.023 C 
HETATM   10  C10 UNL     1     -43.413   5.304  -0.556  1.00 20.00     0.125 C 
ENDROOT
BRANCH  10  11
HETATM   11  O12 UNL     1     -42.822   4.674  -1.674  1.00 20.00    -0.390 OA
HETATM   12  C11 UNL     1     -43.415   3.408  -1.945  1.00 20.00     0.202 C 
ENDBRANCH  10  11
TORSDOF 1
ENDMDL
MODEL 2
REMARK VINA RESULT:      -3.7      9.400     10.972
REMARK  1 active torsions:
REMARK  status: ('A' for Active; 'I' for Inactive)
REMARK    1  A    between atoms: C10_10  and  O12_12 
ROOT
HETATM    1  C1  UNL     1     -41.862  14.940   9.296  1.00 20.00     0.005 C 
HETATM    2  C2  UNL     1     -40.473  14.388   8.947  1.00 20.00     0.005 C 
HETATM    3  C3  UNL     1     -43.417  13.723   6.945  1.00 20.00     0.008 C 
HETATM    4  C4  UNL     1     -42.502  12.513   7.088  1.00 20.00     0.033 C 
HETATM    5  C5  UNL     1     -40.836  16.372   7.715  1.00 20.00     0.010 C 
HETATM    6  C6  UNL     1     -42.213  15.792   8.066  1.00 20.00    -0.010 C 
HETATM    7  C7  UNL     1     -40.197  14.984   7.557  1.00 20.00    -0.007 C 
HETATM    8  C8  UNL     1     -42.498  14.934   6.810  1.00 20.00    -0.004 C 
HETATM    9  C9  UNL     1     -41.097  14.389   6.448  1.00 20.00     0.023 C 
HETATM   10  C10 UNL     1     -41.259  12.881   6.285  1.00 20.00     0.125 C 
ENDROOT
BRANCH  10  11
HETATM   11  O12 UNL     1     -40.114  12.165   6.699  1.00 20.00    -0.390 OA
HETATM   12  C11 UNL     1     -39.207  11.947   5.623  1.00 20.00     0.202 C 
ENDBRANCH  10  11
TORSDOF 1
ENDMDL
MODEL 3
REMARK VINA RESULT:      -3.5      9.682     11.453
REMARK  1 active torsions:
REMARK  status: ('A' for Active; 'I' for Inactive)
REMARK    1  A    between atoms: C10_10  and  O12_12 
ROOT
HETATM    1  C1  UNL     1     -41.102  13.256   5.700  1.00 20.00     0.005 C 
HETATM    2  C2  UNL     1     -41.947  12.422   6.674  1.00 20.00     0.005 C 
HETATM    3  C3  UNL     1     -40.430  15.582   7.589  1.00 20.00     0.008 C 
HETATM    4  C4  UNL     1     -40.361  14.538   8.697  1.00 20.00     0.033 C 
HETATM    5  C5  UNL     1     -43.324  14.071   5.688  1.00 20.00     0.010 C 
HETATM    6  C6  UNL     1     -41.878  14.580   5.617  1.00 20.00    -0.010 C 
HETATM    7  C7  UNL     1     -43.103  13.370   7.036  1.00 20.00    -0.007 C 
HETATM    8  C8  UNL     1     -41.793  15.402   6.925  1.00 20.00    -0.004 C 
HETATM    9  C9  UNL     1     -42.657  14.572   7.903  1.00 20.00     0.023 C 
HETATM   10  C10 UNL     1     -41.806  14.374   9.153  1.00 20.00     0.125 C 
ENDROOT
BRANCH  10  11
HETATM   11  O12 UNL     1     -42.040  13.127   9.776  1.00 20.00    -0.390 OA
HETATM   12  C11 UNL     1     -43.025  13.222  10.800  1.00 20.00     0.202 C 
ENDBRANCH  10  11
TORSDOF 1
ENDMDL
MODEL 4
REMARK VINA RESULT:      -3.4     19.459     21.005
REMARK  1 active torsions:
REMARK  status: ('A' for Active; 'I' for Inactive)
REMARK    1  A    between atoms: C10_10  and  O12_12 
ROOT
HETATM    1  C1  UNL     1     -28.483  -1.613  12.318  1.00 20.00     0.005 C 
HETATM    2  C2  UNL     1     -27.038  -1.094  12.327  1.00 20.00     0.005 C 
HETATM    3  C3  UNL     1     -27.987  -4.254  10.832  1.00 20.00     0.008 C 
HETATM    4  C4  UNL     1     -26.661  -4.317  11.581  1.00 20.00     0.033 C 
HETATM    5  C5  UNL     1     -28.041  -0.519  10.266  1.00 20.00     0.010 C 
HETATM    6  C6  UNL     1     -28.795  -1.737  10.818  1.00 20.00    -0.010 C 
HETATM    7  C7  UNL     1     -26.693  -0.988  10.833  1.00 20.00    -0.007 C 
HETATM    8  C8  UNL     1     -28.018  -2.893  10.142  1.00 20.00    -0.004 C 
HETATM    9  C9  UNL     1     -26.565  -2.365  10.137  1.00 20.00     0.023 C 
HETATM   10  C10 UNL     1     -25.710  -3.477  10.737  1.00 20.00     0.125 C 
ENDROOT
BRANCH  10  11
HETATM   11  O12 UNL     1     -24.618  -2.979  11.483  1.00 20.00    -0.390 OA
HETATM   12  C11 UNL     1     -23.442  -2.862  10.689  1.00 20.00     0.202 C 
ENDBRANCH  10  11
TORSDOF 1
ENDMDL
MODEL 5
REMARK VINA RESULT:      -3.4      9.782     11.459
REMARK  1 active torsions:
REMARK  status: ('A' for Active; 'I' for Inactive)
REMARK    1  A    between atoms: C10_10  and  O12_12 
ROOT
HETATM    1  C1  UNL     1     -42.795  14.975   9.013  1.00 20.00     0.005 C 
HETATM    2  C2  UNL     1     -41.610  14.030   9.258  1.00 20.00     0.005 C 
HETATM    3  C3  UNL     1     -42.621  15.104   5.949  1.00 20.00     0.008 C 
HETATM    4  C4  UNL     1     -42.206  13.639   6.005  1.00 20.00     0.033 C 
HETATM    5  C5  UNL     1     -40.794  16.239   9.056  1.00 20.00     0.010 C 
HETATM    6  C6  UNL     1     -42.138  16.178   8.316  1.00 20.00    -0.010 C 
HETATM    7  C7  UNL     1     -40.418  14.801   8.668  1.00 20.00    -0.007 C 
HETATM    8  C8  UNL     1     -41.666  15.848   6.880  1.00 20.00    -0.004 C 
HETATM    9  C9  UNL     1     -40.464  14.909   7.125  1.00 20.00     0.023 C 
HETATM   10  C10 UNL     1     -40.702  13.681   6.254  1.00 20.00     0.125 C 
ENDROOT
BRANCH  10  11
HETATM   11  O12 UNL     1     -40.217  12.493   6.845  1.00 20.00    -0.390 OA
HETATM   12  C11 UNL     1     -39.377  11.763   5.957  1.00 20.00     0.202 C 
ENDBRANCH  10  11
TORSDOF 1
ENDMDL
MODEL 6
REMARK VINA RESULT:      -3.4     12.122     13.930
REMARK  1 active torsions:
REMARK  status: ('A' for Active; 'I' for Inactive)
REMARK    1  A    between atoms: C10_10  and  O12_12 
ROOT
HETATM    1  C1  UNL     1     -36.475  14.680  -5.323  1.00 20.00     0.005 C 
HETATM    2  C2  UNL     1     -36.816  16.158  -5.089  1.00 20.00     0.005 C 
HETATM    3  C3  UNL     1     -33.491  14.802  -4.609  1.00 20.00     0.008 C 
HETATM    4  C4  UNL     1     -33.884  15.821  -3.546  1.00 20.00     0.033 C 
HETATM    5  C5  UNL     1     -35.933  15.916  -7.267  1.00 20.00     0.010 C 
HETATM    6  C6  UNL     1     -35.409  14.743  -6.428  1.00 20.00    -0.010 C 
HETATM    7  C7  UNL     1     -35.900  16.892  -6.082  1.00 20.00    -0.007 C 
HETATM    8  C8  UNL     1     -34.065  15.322  -5.925  1.00 20.00    -0.004 C 
HETATM    9  C9  UNL     1     -34.402  16.814  -5.702  1.00 20.00     0.023 C 
HETATM   10  C10 UNL     1     -33.925  17.150  -4.293  1.00 20.00     0.125 C 
ENDROOT
BRANCH  10  11
HETATM   11  O12 UNL     1     -34.747  18.106  -3.655  1.00 20.00    -0.390 OA
HETATM   12  C11 UNL     1     -34.437  18.233  -2.271  1.00 20.00     0.202 C 
ENDBRANCH  10  11
TORSDOF 1
ENDMDL
MODEL 7
REMARK VINA RESULT:      -3.3     23.080     24.387
REMARK  1 active torsions:
REMARK  status: ('A' for Active; 'I' for Inactive)
REMARK    1  A    between atoms: C10_10  and  O12_12 
ROOT
HETATM    1  C1  UNL     1     -23.523  17.061   9.350  1.00 20.00     0.005 C 
HETATM    2  C2  UNL     1     -24.378  18.333   9.271  1.00 20.00     0.005 C 
HETATM    3  C3  UNL     1     -24.010  16.392  12.308  1.00 20.00     0.008 C 
HETATM    4  C4  UNL     1     -25.427  16.912  12.094  1.00 20.00     0.033 C 
HETATM    5  C5  UNL     1     -22.241  18.901  10.106  1.00 20.00     0.010 C 
HETATM    6  C6  UNL     1     -22.474  17.416  10.416  1.00 20.00    -0.010 C 
HETATM    7  C7  UNL     1     -23.720  19.263  10.304  1.00 20.00    -0.007 C 
HETATM    8  C8  UNL     1     -23.077  17.505  11.838  1.00 20.00    -0.004 C 
HETATM    9  C9  UNL     1     -23.926  18.795  11.765  1.00 20.00     0.023 C 
HETATM   10  C10 UNL     1     -25.309  18.420  12.288  1.00 20.00     0.125 C 
ENDROOT
BRANCH  10  11
HETATM   11  O12 UNL     1     -26.345  19.132  11.641  1.00 20.00    -0.390 OA
HETATM   12  C11 UNL     1     -27.614  18.874  12.232  1.00 20.00     0.202 C 
ENDBRANCH  10  11
TORSDOF 1
ENDMDL
MODEL 8
REMARK VINA RESULT:      -3.3     12.645     14.365
REMARK  1 active torsions:
REMARK  status: ('A' for Active; 'I' for Inactive)
REMARK    1  A    between atoms: C10_10  and  O12_12 
ROOT
HETATM    1  C1  UNL     1     -34.427  15.693  -7.570  1.00 20.00     0.005 C 
HETATM    2  C2  UNL     1     -33.712  15.147  -6.326  1.00 20.00     0.005 C 
HETATM    3  C3  UNL     1     -35.473  18.312  -6.357  1.00 20.00     0.008 C 
HETATM    4  C4  UNL     1     -34.170  18.357  -5.567  1.00 20.00     0.033 C 
HETATM    5  C5  UNL     1     -36.001  14.575  -6.201  1.00 20.00     0.010 C 
HETATM    6  C6  UNL     1     -35.887  15.811  -7.104  1.00 20.00    -0.010 C 
HETATM    7  C7  UNL     1     -34.846  15.023  -5.295  1.00 20.00    -0.007 C 
HETATM    8  C8  UNL     1     -36.092  16.946  -6.072  1.00 20.00    -0.004 C 
HETATM    9  C9  UNL     1     -35.386  16.392  -4.814  1.00 20.00     0.023 C 
HETATM   10  C10 UNL     1     -34.442  17.492  -4.341  1.00 20.00     0.125 C 
ENDROOT
BRANCH  10  11
HETATM   11  O12 UNL     1     -33.257  16.980  -3.765  1.00 20.00    -0.390 OA
HETATM   12  C11 UNL     1     -33.397  16.769  -2.364  1.00 20.00     0.202 C 
ENDBRANCH  10  11
TORSDOF 1
ENDMDL
MODEL 9
REMARK VINA RESULT:      -3.2     19.563     21.155
REMARK  1 active torsions:
REMARK  status: ('A' for Active; 'I' for Inactive)
REMARK    1  A    between atoms: C10_10  and  O12_12 
ROOT
HETATM    1  C1  UNL     1     -27.657  -0.845   9.942  1.00 20.00     0.005 C 
HETATM    2  C2  UNL     1     -27.807  -2.358   9.726  1.00 20.00     0.005 C 
HETATM    3  C3  UNL     1     -25.370  -0.922  11.990  1.00 20.00     0.008 C 
HETATM    4  C4  UNL     1     -24.833  -2.112  11.205  1.00 20.00     0.033 C 
HETATM    5  C5  UNL     1     -29.043  -1.735  11.641  1.00 20.00     0.010 C 
HETATM    6  C6  UNL     1     -27.945  -0.681  11.442  1.00 20.00    -0.010 C 
HETATM    7  C7  UNL     1     -28.157  -2.880  11.130  1.00 20.00    -0.007 C 
HETATM    8  C8  UNL     1     -26.819  -1.261  12.331  1.00 20.00    -0.004 C 
HETATM    9  C9  UNL     1     -26.978  -2.785  12.128  1.00 20.00     0.023 C 
HETATM   10  C10 UNL     1     -25.592  -3.309  11.767  1.00 20.00     0.125 C 
ENDROOT
BRANCH  10  11
HETATM   11  O12 UNL     1     -25.641  -4.394  10.862  1.00 20.00    -0.390 OA
HETATM   12  C11 UNL     1     -24.470  -4.464  10.055  1.00 20.00     0.202 C 
ENDBRANCH  10  11
TORSDOF 1
ENDMDL
