MODEL 1
REMARK VINA RESULT:      -4.7      0.000      0.000
REMARK  3 active torsions:
REMARK  status: ('A' for Active; 'I' for Inactive)
REMARK    1  A    between atoms: C2_2  and  C7_7 
REMARK    2  A    between atoms: C3_3  and  C8_8 
REMARK    3  A    between atoms: C8_8  and  C9_9 
ROOT
HETATM    1  C1  UNL     1     -33.327   5.476   3.251  1.00 20.00     0.095 C 
HETATM    2  C2  UNL     1     -33.851   6.328   4.277  1.00 20.00     0.024 C 
HETATM    3  C3  UNL     1     -33.314   7.555   4.493  1.00 20.00    -0.067 C 
HETATM    4  C4  UNL     1     -33.805   8.518   5.553  1.00 20.00     0.044 C 
HETATM    5  N10 UNL     1     -32.913   4.776   2.422  1.00 20.00    -0.192 NA
ENDROOT
BRANCH   2   6
HETATM    6  C7  UNL     1     -34.983   5.746   5.103  1.00 20.00     0.046 C 
HETATM    7  C5  UNL     1     -34.495   5.191   6.434  1.00 20.00     0.011 C 
ENDBRANCH   2   6
BRANCH   3   8
HETATM    8  C8  UNL     1     -32.125   8.090   3.710  1.00 20.00     0.034 C 
BRANCH   8   9
HETATM    9  C9  UNL     1     -32.554   8.989   2.548  1.00 20.00    -0.000 C 
HETATM   10  C6  UNL     1     -32.176   8.379   1.208  1.00 20.00     0.005 C 
ENDBRANCH   8   9
ENDBRANCH   3   8
TORSDOF 3
ENDMDL
MODEL 2
REMARK VINA RESULT:      -4.6      1.856      2.592
REMARK  3 active torsions:
REMARK  status: ('A' for Active; 'I' for Inactive)
REMARK    1  A    between atoms: C2_2  and  C7_7 
REMARK    2  A    between atoms: C3_3  and  C8_8 
REMARK    3  A    between atoms: C8_8  and  C9_9 
ROOT
HETATM    1  C1  UNL     1     -33.701   7.938   5.142  1.00 20.00     0.095 C 
HETATM    2  C2  UNL     1     -33.757   6.711   4.403  1.00 20.00     0.024 C 
HETATM    3  C3  UNL     1     -32.931   6.505   3.348  1.00 20.00    -0.067 C 
HETATM    4  C4  UNL     1     -32.924   5.241   2.514  1.00 20.00     0.044 C 
HETATM    5  N10 UNL     1     -33.666   8.927   5.749  1.00 20.00    -0.192 NA
ENDROOT
BRANCH   2   6
HETATM    6  C7  UNL     1     -34.811   5.717   4.855  1.00 20.00     0.046 C 
HETATM    7  C5  UNL     1     -34.642   5.327   6.318  1.00 20.00     0.011 C 
ENDBRANCH   2   6
BRANCH   3   8
HETATM    8  C8  UNL     1     -31.937   7.545   2.856  1.00 20.00     0.034 C 
BRANCH   8   9
HETATM    9  C9  UNL     1     -32.245   8.013   1.432  1.00 20.00    -0.000 C 
HETATM   10  C6  UNL     1     -32.825   9.419   1.424  1.00 20.00     0.005 C 
ENDBRANCH   8   9
ENDBRANCH   3   8
TORSDOF 3
ENDMDL
MODEL 3
REMARK VINA RESULT:      -4.0      0.702      3.829
REMARK  3 active torsions:
REMARK  status: ('A' for Active; 'I' for Inactive)
REMARK    1  A    between atoms: C2_2  and  C7_7 
REMARK    2  A    between atoms: C3_3  and  C8_8 
REMARK    3  A    between atoms: C8_8  and  C9_9 
ROOT
HETATM    1  C1  UNL     1     -32.955   5.574   2.820  1.00 20.00     0.095 C 
HETATM    2  C2  UNL     1     -32.950   6.830   3.511  1.00 20.00     0.024 C 
HETATM    3  C3  UNL     1     -33.859   7.083   4.485  1.00 20.00    -0.067 C 
HETATM    4  C4  UNL     1     -33.925   8.380   5.263  1.00 20.00     0.044 C 
HETATM    5  N10 UNL     1     -32.946   4.561   2.253  1.00 20.00    -0.192 NA
ENDROOT
BRANCH   2   6
HETATM    6  C7  UNL     1     -31.910   7.834   3.046  1.00 20.00     0.046 C 
HETATM    7  C5  UNL     1     -32.098   8.220   1.585  1.00 20.00     0.011 C 
ENDBRANCH   2   6
BRANCH   3   8
HETATM    8  C8  UNL     1     -34.947   6.097   4.881  1.00 20.00     0.034 C 
BRANCH   8   9
HETATM    9  C9  UNL     1     -34.873   5.718   6.362  1.00 20.00    -0.000 C 
HETATM   10  C6  UNL     1     -33.586   4.973   6.679  1.00 20.00     0.005 C 
ENDBRANCH   8   9
ENDBRANCH   3   8
TORSDOF 3
ENDMDL
MODEL 4
REMARK VINA RESULT:      -3.9      1.806      4.530
REMARK  3 active torsions:
REMARK  status: ('A' for Active; 'I' for Inactive)
REMARK    1  A    between atoms: C2_2  and  C7_7 
REMARK    2  A    between atoms: C3_3  and  C8_8 
REMARK    3  A    between atoms: C8_8  and  C9_9 
ROOT
HETATM    1  C1  UNL     1     -32.517   8.046   4.138  1.00 20.00     0.095 C 
HETATM    2  C2  UNL     1     -32.548   7.216   2.970  1.00 20.00     0.024 C 
HETATM    3  C3  UNL     1     -32.963   5.927   3.054  1.00 20.00    -0.067 C 
HETATM    4  C4  UNL     1     -33.027   4.981   1.874  1.00 20.00     0.044 C 
HETATM    5  N10 UNL     1     -32.488   8.731   5.075  1.00 20.00    -0.192 NA
ENDROOT
BRANCH   2   6
HETATM    6  C7  UNL     1     -32.053   7.860   1.689  1.00 20.00     0.046 C 
HETATM    7  C5  UNL     1     -32.748   9.185   1.407  1.00 20.00     0.011 C 
ENDBRANCH   2   6
BRANCH   3   8
HETATM    8  C8  UNL     1     -33.378   5.271   4.362  1.00 20.00     0.034 C 
BRANCH   8   9
HETATM    9  C9  UNL     1     -34.795   5.667   4.783  1.00 20.00    -0.000 C 
HETATM   10  C6  UNL     1     -34.865   5.974   6.271  1.00 20.00     0.005 C 
ENDBRANCH   8   9
ENDBRANCH   3   8
TORSDOF 3
ENDMDL
MODEL 5
REMARK VINA RESULT:      -3.9      9.669     11.105
REMARK  3 active torsions:
REMARK  status: ('A' for Active; 'I' for Inactive)
REMARK    1  A    between atoms: C2_2  and  C7_7 
REMARK    2  A    between atoms: C3_3  and  C8_8 
REMARK    3  A    between atoms: C8_8  and  C9_9 
ROOT
HETATM    1  C1  UNL     1     -40.734  14.216   8.237  1.00 20.00     0.095 C 
HETATM    2  C2  UNL     1     -41.244  14.608   6.955  1.00 20.00     0.024 C 
HETATM    3  C3  UNL     1     -41.254  13.729   5.922  1.00 20.00    -0.067 C 
HETATM    4  C4  UNL     1     -41.773  14.059   4.538  1.00 20.00     0.044 C 
HETATM    5  N10 UNL     1     -40.325  13.912   9.280  1.00 20.00    -0.192 NA
ENDROOT
BRANCH   2   6
HETATM    6  C7  UNL     1     -41.712  16.047   6.844  1.00 20.00     0.046 C 
HETATM    7  C5  UNL     1     -40.719  17.022   7.464  1.00 20.00     0.011 C 
ENDBRANCH   2   6
BRANCH   3   8
HETATM    8  C8  UNL     1     -40.705  12.315   6.028  1.00 20.00     0.034 C 
BRANCH   8   9
HETATM    9  C9  UNL     1     -39.233  12.233   5.619  1.00 20.00    -0.000 C 
HETATM   10  C6  UNL     1     -39.076  11.634   4.230  1.00 20.00     0.005 C 
ENDBRANCH   8   9
ENDBRANCH   3   8
TORSDOF 3
ENDMDL
MODEL 6
REMARK VINA RESULT:      -3.7     11.488     12.785
REMARK  3 active torsions:
REMARK  status: ('A' for Active; 'I' for Inactive)
REMARK    1  A    between atoms: C2_2  and  C7_7 
REMARK    2  A    between atoms: C3_3  and  C8_8 
REMARK    3  A    between atoms: C8_8  and  C9_9 
ROOT
HETATM    1  C1  UNL     1     -34.347  14.777  -4.360  1.00 20.00     0.095 C 
HETATM    2  C2  UNL     1     -34.161  16.158  -4.700  1.00 20.00     0.024 C 
HETATM    3  C3  UNL     1     -33.675  17.032  -3.783  1.00 20.00    -0.067 C 
HETATM    4  C4  UNL     1     -33.449  18.504  -4.056  1.00 20.00     0.044 C 
HETATM    5  N10 UNL     1     -34.501  13.657  -4.100  1.00 20.00    -0.192 NA
ENDROOT
BRANCH   2   6
HETATM    6  C7  UNL     1     -34.583  16.555  -6.102  1.00 20.00     0.046 C 
HETATM    7  C5  UNL     1     -34.135  15.539  -7.145  1.00 20.00     0.011 C 
ENDBRANCH   2   6
BRANCH   3   8
HETATM    8  C8  UNL     1     -33.335  16.635  -2.356  1.00 20.00     0.034 C 
BRANCH   8   9
HETATM    9  C9  UNL     1     -32.874  17.829  -1.517  1.00 20.00    -0.000 C 
HETATM   10  C6  UNL     1     -33.730  17.994  -0.271  1.00 20.00     0.005 C 
ENDBRANCH   8   9
ENDBRANCH   3   8
TORSDOF 3
ENDMDL
MODEL 7
REMARK VINA RESULT:      -3.5     11.963     13.228
REMARK  3 active torsions:
REMARK  status: ('A' for Active; 'I' for Inactive)
REMARK    1  A    between atoms: C2_2  and  C7_7 
REMARK    2  A    between atoms: C3_3  and  C8_8 
REMARK    3  A    between atoms: C8_8  and  C9_9 
ROOT
HETATM    1  C1  UNL     1     -35.886  17.275  -5.033  1.00 20.00     0.095 C 
HETATM    2  C2  UNL     1     -35.151  16.044  -5.044  1.00 20.00     0.024 C 
HETATM    3  C3  UNL     1     -33.986  15.934  -4.358  1.00 20.00    -0.067 C 
HETATM    4  C4  UNL     1     -33.147  14.674  -4.316  1.00 20.00     0.044 C 
HETATM    5  N10 UNL     1     -36.492  18.265  -5.031  1.00 20.00    -0.192 NA
ENDROOT
BRANCH   2   6
HETATM    6  C7  UNL     1     -35.739  14.932  -5.893  1.00 20.00     0.046 C 
HETATM    7  C5  UNL     1     -35.777  15.299  -7.370  1.00 20.00     0.011 C 
ENDBRANCH   2   6
BRANCH   3   8
HETATM    8  C8  UNL     1     -33.368  17.083  -3.579  1.00 20.00     0.034 C 
BRANCH   8   9
HETATM    9  C9  UNL     1     -33.457  16.871  -2.066  1.00 20.00    -0.000 C 
HETATM   10  C6  UNL     1     -32.643  17.911  -1.312  1.00 20.00     0.005 C 
ENDBRANCH   8   9
ENDBRANCH   3   8
TORSDOF 3
ENDMDL
MODEL 8
REMARK VINA RESULT:      -3.5      9.989     11.326
REMARK  3 active torsions:
REMARK  status: ('A' for Active; 'I' for Inactive)
REMARK    1  A    between atoms: C2_2  and  C7_7 
REMARK    2  A    between atoms: C3_3  and  C8_8 
REMARK    3  A    between atoms: C8_8  and  C9_9 
ROOT
HETATM    1  C1  UNL     1     -41.620  13.979   4.722  1.00 20.00     0.095 C 
HETATM    2  C2  UNL     1     -41.040  13.603   5.979  1.00 20.00     0.024 C 
HETATM    3  C3  UNL     1     -41.001  14.484   7.009  1.00 20.00    -0.067 C 
HETATM    4  C4  UNL     1     -40.409  14.171   8.367  1.00 20.00     0.044 C 
HETATM    5  N10 UNL     1     -42.087  14.269   3.700  1.00 20.00    -0.192 NA
ENDROOT
BRANCH   2   6
HETATM    6  C7  UNL     1     -40.453  12.205   6.042  1.00 20.00     0.046 C 
HETATM    7  C5  UNL     1     -39.151  12.093   5.260  1.00 20.00     0.011 C 
ENDBRANCH   2   6
BRANCH   3   8
HETATM    8  C8  UNL     1     -41.520  15.909   6.903  1.00 20.00     0.034 C 
BRANCH   8   9
HETATM    9  C9  UNL     1     -40.737  16.878   7.792  1.00 20.00    -0.000 C 
HETATM   10  C6  UNL     1     -40.474  18.195   7.079  1.00 20.00     0.005 C 
ENDBRANCH   8   9
ENDBRANCH   3   8
TORSDOF 3
ENDMDL
MODEL 9
REMARK VINA RESULT:      -3.5     10.007     11.319
REMARK  3 active torsions:
REMARK  status: ('A' for Active; 'I' for Inactive)
REMARK    1  A    between atoms: C2_2  and  C7_7 
REMARK    2  A    between atoms: C3_3  and  C8_8 
REMARK    3  A    between atoms: C8_8  and  C9_9 
ROOT
HETATM    1  C1  UNL     1     -42.330  14.555   4.600  1.00 20.00     0.095 C 
HETATM    2  C2  UNL     1     -41.784  14.823   5.898  1.00 20.00     0.024 C 
HETATM    3  C3  UNL     1     -41.093  13.865   6.564  1.00 20.00    -0.067 C 
HETATM    4  C4  UNL     1     -40.484  14.064   7.936  1.00 20.00     0.044 C 
HETATM    5  N10 UNL     1     -42.777  14.351   3.548  1.00 20.00    -0.192 NA
ENDROOT
BRANCH   2   6
HETATM    6  C7  UNL     1     -42.074  16.202   6.463  1.00 20.00     0.046 C 
HETATM    7  C5  UNL     1     -43.416  16.257   7.181  1.00 20.00     0.011 C 
ENDBRANCH   2   6
BRANCH   3   8
HETATM    8  C8  UNL     1     -40.882  12.462   6.019  1.00 20.00     0.034 C 
BRANCH   8   9
HETATM    9  C9  UNL     1     -39.402  12.145   5.794  1.00 20.00    -0.000 C 
HETATM   10  C6  UNL     1     -39.136  11.739   4.352  1.00 20.00     0.005 C 
ENDBRANCH   8   9
ENDBRANCH   3   8
TORSDOF 3
ENDMDL
