MODEL 1
REMARK VINA RESULT:      -3.1      0.000      0.000
REMARK  0 active torsions:
REMARK  status: ('A' for Active; 'I' for Inactive)
ROOT
HETATM    1  C1  UNL     1     -33.849   6.991   6.140  1.00 20.00     0.096 C 
HETATM    2  C2  UNL     1     -33.367   7.452   4.990  1.00 20.00     0.096 C 
HETATM    3 CL3  UNL     1     -34.790   5.564   6.244  1.00 20.00    -0.096 Cl
HETATM    4 CL4  UNL     1     -32.426   8.880   4.886  1.00 20.00    -0.096 Cl
ENDROOT
TORSDOF 0
ENDMDL
MODEL 2
REMARK VINA RESULT:      -3.1      0.014      3.177
REMARK  0 active torsions:
REMARK  status: ('A' for Active; 'I' for Inactive)
ROOT
HETATM    1  C1  UNL     1     -33.362   7.442   5.000  1.00 20.00     0.096 C 
HETATM    2  C2  UNL     1     -33.855   6.990   6.150  1.00 20.00     0.096 C 
HETATM    3 CL3  UNL     1     -32.433   8.876   4.891  1.00 20.00    -0.096 Cl
HETATM    4 CL4  UNL     1     -34.784   5.556   6.259  1.00 20.00    -0.096 Cl
ENDROOT
TORSDOF 0
ENDMDL
MODEL 3
REMARK VINA RESULT:      -2.7      1.549      3.058
REMARK  0 active torsions:
REMARK  status: ('A' for Active; 'I' for Inactive)
ROOT
HETATM    1  C1  UNL     1     -32.835   7.715   4.480  1.00 20.00     0.096 C 
HETATM    2  C2  UNL     1     -33.749   6.862   4.932  1.00 20.00     0.096 C 
HETATM    3 CL3  UNL     1     -32.243   7.674   2.874  1.00 20.00    -0.096 Cl
HETATM    4 CL4  UNL     1     -34.341   6.902   6.539  1.00 20.00    -0.096 Cl
ENDROOT
TORSDOF 0
ENDMDL
MODEL 4
REMARK VINA RESULT:      -2.6      2.730      3.563
REMARK  0 active torsions:
REMARK  status: ('A' for Active; 'I' for Inactive)
ROOT
HETATM    1  C1  UNL     1     -33.643   5.722   3.939  1.00 20.00     0.096 C 
HETATM    2  C2  UNL     1     -34.323   4.956   4.786  1.00 20.00     0.096 C 
HETATM    3 CL3  UNL     1     -33.014   5.134   2.459  1.00 20.00    -0.096 Cl
HETATM    4 CL4  UNL     1     -34.952   5.544   6.267  1.00 20.00    -0.096 Cl
ENDROOT
TORSDOF 0
ENDMDL
MODEL 5
REMARK VINA RESULT:      -2.6      2.710      2.768
REMARK  0 active torsions:
REMARK  status: ('A' for Active; 'I' for Inactive)
ROOT
HETATM    1  C1  UNL     1     -34.347   4.989   4.774  1.00 20.00     0.096 C 
HETATM    2  C2  UNL     1     -33.634   5.733   3.933  1.00 20.00     0.096 C 
HETATM    3 CL3  UNL     1     -34.959   5.595   6.254  1.00 20.00    -0.096 Cl
HETATM    4 CL4  UNL     1     -33.021   5.127   2.453  1.00 20.00    -0.096 Cl
ENDROOT
TORSDOF 0
ENDMDL
MODEL 6
REMARK VINA RESULT:      -2.6      2.330      2.643
REMARK  0 active torsions:
REMARK  status: ('A' for Active; 'I' for Inactive)
ROOT
HETATM    1  C1  UNL     1     -32.451   6.934   3.176  1.00 20.00     0.096 C 
HETATM    2  C2  UNL     1     -32.906   7.479   4.301  1.00 20.00     0.096 C 
HETATM    3 CL3  UNL     1     -32.949   5.390   2.629  1.00 20.00    -0.096 Cl
HETATM    4 CL4  UNL     1     -32.407   9.023   4.849  1.00 20.00    -0.096 Cl
ENDROOT
TORSDOF 0
ENDMDL
MODEL 7
REMARK VINA RESULT:      -2.6      2.334      3.388
REMARK  0 active torsions:
REMARK  status: ('A' for Active; 'I' for Inactive)
ROOT
HETATM    1  C1  UNL     1     -32.895   7.527   4.309  1.00 20.00     0.096 C 
HETATM    2  C2  UNL     1     -32.410   6.970   3.204  1.00 20.00     0.096 C 
HETATM    3 CL3  UNL     1     -32.375   9.055   4.881  1.00 20.00    -0.096 Cl
HETATM    4 CL4  UNL     1     -32.930   5.441   2.632  1.00 20.00    -0.096 Cl
ENDROOT
TORSDOF 0
ENDMDL
MODEL 8
REMARK VINA RESULT:      -2.1     12.307     12.543
REMARK  0 active torsions:
REMARK  status: ('A' for Active; 'I' for Inactive)
ROOT
HETATM    1  C1  UNL     1     -33.216  16.042  -3.517  1.00 20.00     0.096 C 
HETATM    2  C2  UNL     1     -33.469  16.584  -2.329  1.00 20.00     0.096 C 
HETATM    3 CL3  UNL     1     -34.000  14.625  -4.074  1.00 20.00    -0.096 Cl
HETATM    4 CL4  UNL     1     -32.684  18.000  -1.771  1.00 20.00    -0.096 Cl
ENDROOT
TORSDOF 0
ENDMDL
MODEL 9
REMARK VINA RESULT:      -2.1      8.490      8.518
REMARK  0 active torsions:
REMARK  status: ('A' for Active; 'I' for Inactive)
ROOT
HETATM    1  C1  UNL     1     -40.758  12.690   5.683  1.00 20.00     0.096 C 
HETATM    2  C2  UNL     1     -39.840  11.732   5.591  1.00 20.00     0.096 C 
HETATM    3 CL3  UNL     1     -42.025  12.650   6.835  1.00 20.00    -0.096 Cl
HETATM    4 CL4  UNL     1     -38.573  11.771   4.439  1.00 20.00    -0.096 Cl
ENDROOT
TORSDOF 0
ENDMDL
