MODEL 1
REMARK VINA RESULT:      -5.9      0.000      0.000
REMARK  0 active torsions:
REMARK  status: ('A' for Active; 'I' for Inactive)
ROOT
HETATM    1  C1  UNL     1     -32.715   8.547   4.730  1.00 20.00     0.014 A 
HETATM    2  C2  UNL     1     -32.203   8.762   3.511  1.00 20.00     0.075 A 
HETATM    3  C3  UNL     1     -33.403   7.315   5.055  1.00 20.00    -0.035 A 
HETATM    4  C4  UNL     1     -33.523   6.360   4.113  1.00 20.00     0.018 A 
HETATM    5  C5  UNL     1     -32.340   7.714   2.462  1.00 20.00     0.245 A 
HETATM    6  C6  UNL     1     -33.962   7.169   6.444  1.00 20.00     0.040 C 
HETATM    7  C7  UNL     1     -34.203   5.043   4.363  1.00 20.00     0.057 C 
HETATM    8  C8  UNL     1     -34.948   6.004   6.572  1.00 20.00     0.005 C 
HETATM    9  C9  UNL     1     -34.433   4.762   5.850  1.00 20.00     0.006 C 
HETATM   10  N10 UNL     1     -33.004   6.563   2.852  1.00 20.00    -0.327 N 
HETATM   11  O11 UNL     1     -31.880   7.897   1.337  1.00 20.00    -0.268 OA
HETATM   12  H22 UNL     1     -33.116   5.821   2.165  1.00 20.00     0.169 HD
ENDROOT
TORSDOF 0
ENDMDL
MODEL 2
REMARK VINA RESULT:      -5.1      1.059      2.222
REMARK  0 active torsions:
REMARK  status: ('A' for Active; 'I' for Inactive)
ROOT
HETATM    1  C1  UNL     1     -33.392   5.226   2.789  1.00 20.00     0.014 A 
HETATM    2  C2  UNL     1     -32.757   5.984   1.887  1.00 20.00     0.075 A 
HETATM    3  C3  UNL     1     -33.685   5.717   4.119  1.00 20.00    -0.035 A 
HETATM    4  C4  UNL     1     -33.319   6.970   4.453  1.00 20.00     0.018 A 
HETATM    5  C5  UNL     1     -32.342   7.367   2.251  1.00 20.00     0.245 A 
HETATM    6  C6  UNL     1     -34.384   4.788   5.074  1.00 20.00     0.040 C 
HETATM    7  C7  UNL     1     -33.597   7.573   5.801  1.00 20.00     0.057 C 
HETATM    8  C8  UNL     1     -34.335   5.274   6.526  1.00 20.00     0.005 C 
HETATM    9  C9  UNL     1     -34.613   6.771   6.617  1.00 20.00     0.006 C 
HETATM   10  N10 UNL     1     -32.663   7.766   3.538  1.00 20.00    -0.327 N 
HETATM   11  O11 UNL     1     -31.755   8.075   1.437  1.00 20.00    -0.268 OA
HETATM   12  H22 UNL     1     -32.400   8.706   3.826  1.00 20.00     0.169 HD
ENDROOT
TORSDOF 0
ENDMDL
MODEL 3
REMARK VINA RESULT:      -4.8      1.782      2.535
REMARK  0 active torsions:
REMARK  status: ('A' for Active; 'I' for Inactive)
ROOT
HETATM    1  C1  UNL     1     -32.450   7.351   3.118  1.00 20.00     0.014 A 
HETATM    2  C2  UNL     1     -31.938   8.535   3.477  1.00 20.00     0.075 A 
HETATM    3  C3  UNL     1     -33.242   6.559   4.036  1.00 20.00    -0.035 A 
HETATM    4  C4  UNL     1     -33.476   7.029   5.277  1.00 20.00     0.018 A 
HETATM    5  C5  UNL     1     -32.186   9.057   4.850  1.00 20.00     0.245 A 
HETATM    6  C6  UNL     1     -33.760   5.232   3.553  1.00 20.00     0.040 C 
HETATM    7  C7  UNL     1     -34.302   6.289   6.291  1.00 20.00     0.057 C 
HETATM    8  C8  UNL     1     -34.277   4.342   4.687  1.00 20.00     0.005 C 
HETATM    9  C9  UNL     1     -35.114   5.143   5.680  1.00 20.00     0.006 C 
HETATM   10  N10 UNL     1     -32.957   8.246   5.665  1.00 20.00    -0.327 N 
HETATM   11  O11 UNL     1     -31.720  10.139   5.196  1.00 20.00    -0.268 OA
HETATM   12  H22 UNL     1     -33.153   8.568   6.610  1.00 20.00     0.169 HD
ENDROOT
TORSDOF 0
ENDMDL
MODEL 4
REMARK VINA RESULT:      -4.8      1.904      3.723
REMARK  0 active torsions:
REMARK  status: ('A' for Active; 'I' for Inactive)
ROOT
HETATM    1  C1  UNL     1     -34.350   6.478   6.037  1.00 20.00     0.014 A 
HETATM    2  C2  UNL     1     -34.560   5.188   5.745  1.00 20.00     0.075 A 
HETATM    3  C3  UNL     1     -33.593   7.340   5.154  1.00 20.00    -0.035 A 
HETATM    4  C4  UNL     1     -33.096   6.835   4.009  1.00 20.00     0.018 A 
HETATM    5  C5  UNL     1     -34.006   4.621   4.484  1.00 20.00     0.245 A 
HETATM    6  C6  UNL     1     -33.390   8.771   5.573  1.00 20.00     0.040 C 
HETATM    7  C7  UNL     1     -32.315   7.656   3.022  1.00 20.00     0.057 C 
HETATM    8  C8  UNL     1     -32.307   9.485   4.758  1.00 20.00     0.005 C 
HETATM    9  C9  UNL     1     -32.431   9.162   3.273  1.00 20.00     0.006 C 
HETATM   10  N10 UNL     1     -33.300   5.509   3.691  1.00 20.00    -0.327 N 
HETATM   11  O11 UNL     1     -34.187   3.439   4.203  1.00 20.00    -0.268 OA
HETATM   12  H22 UNL     1     -32.909   5.162   2.818  1.00 20.00     0.169 HD
ENDROOT
TORSDOF 0
ENDMDL
MODEL 5
REMARK VINA RESULT:      -4.7     12.495     12.800
REMARK  0 active torsions:
REMARK  status: ('A' for Active; 'I' for Inactive)
ROOT
HETATM    1  C1  UNL     1     -30.676  18.472   0.857  1.00 20.00     0.014 A 
HETATM    2  C2  UNL     1     -30.386  18.711   2.143  1.00 20.00     0.075 A 
HETATM    3  C3  UNL     1     -32.037  18.527   0.365  1.00 20.00    -0.035 A 
HETATM    4  C4  UNL     1     -33.033  18.835   1.218  1.00 20.00     0.018 A 
HETATM    5  C5  UNL     1     -31.484  19.044   3.093  1.00 20.00     0.245 A 
HETATM    6  C6  UNL     1     -32.270  18.224  -1.090  1.00 20.00     0.040 C 
HETATM    7  C7  UNL     1     -34.472  18.934   0.796  1.00 20.00     0.057 C 
HETATM    8  C8  UNL     1     -33.745  17.974  -1.420  1.00 20.00     0.005 C 
HETATM    9  C9  UNL     1     -34.646  18.989  -0.724  1.00 20.00     0.006 C 
HETATM   10  N10 UNL     1     -32.755  19.084   2.545  1.00 20.00    -0.327 N 
HETATM   11  O11 UNL     1     -31.236  19.263   4.276  1.00 20.00    -0.268 OA
HETATM   12  H22 UNL     1     -33.533  19.311   3.161  1.00 20.00     0.169 HD
ENDROOT
TORSDOF 0
ENDMDL
MODEL 6
REMARK VINA RESULT:      -4.6     12.049     13.382
REMARK  0 active torsions:
REMARK  status: ('A' for Active; 'I' for Inactive)
ROOT
HETATM    1  C1  UNL     1     -33.676  15.033  -3.692  1.00 20.00     0.014 A 
HETATM    2  C2  UNL     1     -33.949  14.521  -4.898  1.00 20.00     0.075 A 
HETATM    3  C3  UNL     1     -33.622  16.463  -3.471  1.00 20.00    -0.035 A 
HETATM    4  C4  UNL     1     -33.860  17.297  -4.502  1.00 20.00     0.018 A 
HETATM    5  C5  UNL     1     -34.205  15.436  -6.044  1.00 20.00     0.245 A 
HETATM    6  C6  UNL     1     -33.288  16.948  -2.087  1.00 20.00     0.040 C 
HETATM    7  C7  UNL     1     -33.845  18.793  -4.365  1.00 20.00     0.057 C 
HETATM    8  C8  UNL     1     -32.923  18.435  -2.046  1.00 20.00     0.005 C 
HETATM    9  C9  UNL     1     -33.872  19.261  -2.908  1.00 20.00     0.006 C 
HETATM   10  N10 UNL     1     -34.142  16.789  -5.752  1.00 20.00    -0.327 N 
HETATM   11  O11 UNL     1     -34.454  14.983  -7.159  1.00 20.00    -0.268 OA
HETATM   12  H22 UNL     1     -34.314  17.448  -6.507  1.00 20.00     0.169 HD
ENDROOT
TORSDOF 0
ENDMDL
MODEL 7
REMARK VINA RESULT:      -4.6      2.493      4.411
REMARK  0 active torsions:
REMARK  status: ('A' for Active; 'I' for Inactive)
ROOT
HETATM    1  C1  UNL     1     -33.688   5.309   3.745  1.00 20.00     0.014 A 
HETATM    2  C2  UNL     1     -34.346   4.694   4.736  1.00 20.00     0.075 A 
HETATM    3  C3  UNL     1     -33.242   6.680   3.869  1.00 20.00    -0.035 A 
HETATM    4  C4  UNL     1     -33.486   7.351   5.011  1.00 20.00     0.018 A 
HETATM    5  C5  UNL     1     -34.626   5.432   5.999  1.00 20.00     0.245 A 
HETATM    6  C6  UNL     1     -32.528   7.296   2.696  1.00 20.00     0.040 C 
HETATM    7  C7  UNL     1     -33.044   8.769   5.239  1.00 20.00     0.057 C 
HETATM    8  C8  UNL     1     -32.411   8.819   2.799  1.00 20.00     0.005 C 
HETATM    9  C9  UNL     1     -32.019   9.249   4.209  1.00 20.00     0.006 C 
HETATM   10  N10 UNL     1     -34.162   6.736   6.043  1.00 20.00    -0.327 N 
HETATM   11  O11 UNL     1     -35.232   4.885   6.917  1.00 20.00    -0.268 OA
HETATM   12  H22 UNL     1     -34.330   7.274   6.890  1.00 20.00     0.169 HD
ENDROOT
TORSDOF 0
ENDMDL
MODEL 8
REMARK VINA RESULT:      -4.3     12.139     13.563
REMARK  0 active torsions:
REMARK  status: ('A' for Active; 'I' for Inactive)
ROOT
HETATM    1  C1  UNL     1     -35.924  17.280  -6.082  1.00 20.00     0.014 A 
HETATM    2  C2  UNL     1     -36.299  16.386  -7.006  1.00 20.00     0.075 A 
HETATM    3  C3  UNL     1     -35.038  16.920  -4.995  1.00 20.00    -0.035 A 
HETATM    4  C4  UNL     1     -34.573  15.658  -4.917  1.00 20.00     0.018 A 
HETATM    5  C5  UNL     1     -35.795  14.987  -6.921  1.00 20.00     0.245 A 
HETATM    6  C6  UNL     1     -34.687  17.985  -3.993  1.00 20.00     0.040 C 
HETATM    7  C7  UNL     1     -33.634  15.197  -3.838  1.00 20.00     0.057 C 
HETATM    8  C8  UNL     1     -34.041  17.422  -2.723  1.00 20.00     0.005 C 
HETATM    9  C9  UNL     1     -33.005  16.354  -3.058  1.00 20.00     0.006 C 
HETATM   10  N10 UNL     1     -34.947  14.723  -5.858  1.00 20.00    -0.327 N 
HETATM   11  O11 UNL     1     -36.131  14.153  -7.758  1.00 20.00    -0.268 OA
HETATM   12  H22 UNL     1     -34.578  13.780  -5.766  1.00 20.00     0.169 HD
ENDROOT
TORSDOF 0
ENDMDL
MODEL 9
REMARK VINA RESULT:      -4.3     12.286     13.301
REMARK  0 active torsions:
REMARK  status: ('A' for Active; 'I' for Inactive)
ROOT
HETATM    1  C1  UNL     1     -33.203  16.518  -2.342  1.00 20.00     0.014 A 
HETATM    2  C2  UNL     1     -33.666  17.496  -1.554  1.00 20.00     0.075 A 
HETATM    3  C3  UNL     1     -33.758  16.279  -3.658  1.00 20.00    -0.035 A 
HETATM    4  C4  UNL     1     -34.758  17.064  -4.102  1.00 20.00     0.018 A 
HETATM    5  C5  UNL     1     -34.777  18.363  -2.035  1.00 20.00     0.245 A 
HETATM    6  C6  UNL     1     -33.188  15.145  -4.466  1.00 20.00     0.040 C 
HETATM    7  C7  UNL     1     -35.384  16.905  -5.459  1.00 20.00     0.057 C 
HETATM    8  C8  UNL     1     -34.060  14.768  -5.667  1.00 20.00     0.005 C 
HETATM    9  C9  UNL     1     -34.565  16.011  -6.394  1.00 20.00     0.006 C 
HETATM   10  N10 UNL     1     -35.250  18.076  -3.305  1.00 20.00    -0.327 N 
HETATM   11  O11 UNL     1     -35.217  19.262  -1.324  1.00 20.00    -0.268 OA
HETATM   12  H22 UNL     1     -36.006  18.648  -3.673  1.00 20.00     0.169 HD
ENDROOT
TORSDOF 0
ENDMDL
