MODEL 1
REMARK VINA RESULT:      -4.0      0.000      0.000
REMARK  0 active torsions:
REMARK  status: ('A' for Active; 'I' for Inactive)
ROOT
HETATM    1  C1  UNL     1     -31.784  18.350  -0.724  1.00 20.00     0.086 C 
HETATM    2  C2  UNL     1     -33.135  18.119  -3.947  1.00 20.00    -0.025 C 
HETATM    3  C3  UNL     1     -32.923  19.263  -3.281  1.00 20.00    -0.023 C 
HETATM    4  C4  UNL     1     -34.985  18.482  -2.616  1.00 20.00     0.020 C 
HETATM    5  C5  UNL     1     -33.444  16.820  -1.859  1.00 20.00     0.050 C 
HETATM    6  C6  UNL     1     -34.140  17.322  -3.151  1.00 20.00     0.011 C 
HETATM    7  C7  UNL     1     -33.772  19.218  -2.026  1.00 20.00     0.046 C 
HETATM    8  C8  UNL     1     -33.196  18.141  -1.064  1.00 20.00     0.133 C 
HETATM    9  N9  UNL     1     -30.667  18.514  -0.454  1.00 20.00    -0.195 NA
HETATM   10 CL10 UNL     1     -34.098  18.131   0.484  1.00 20.00    -0.102 Cl
ENDROOT
TORSDOF 0
ENDMDL
MODEL 2
REMARK VINA RESULT:      -3.6     23.860     25.010
REMARK  0 active torsions:
REMARK  status: ('A' for Active; 'I' for Inactive)
ROOT
HETATM    1  C1  UNL     1     -29.934  -2.720  11.358  1.00 20.00     0.086 C 
HETATM    2  C2  UNL     1     -27.245  -0.482  11.529  1.00 20.00    -0.025 C 
HETATM    3  C3  UNL     1     -28.033  -0.658  10.459  1.00 20.00    -0.023 C 
HETATM    4  C4  UNL     1     -26.385  -2.262  10.339  1.00 20.00     0.020 C 
HETATM    5  C5  UNL     1     -27.600  -2.802  12.324  1.00 20.00     0.050 C 
HETATM    6  C6  UNL     1     -26.548  -1.796  11.789  1.00 20.00     0.011 C 
HETATM    7  C7  UNL     1     -27.879  -2.101  10.019  1.00 20.00     0.046 C 
HETATM    8  C8  UNL     1     -28.525  -3.028  11.085  1.00 20.00     0.133 C 
HETATM    9  N9  UNL     1     -31.048  -2.477  11.574  1.00 20.00    -0.195 NA
HETATM   10 CL10 UNL     1     -28.470  -4.737  10.554  1.00 20.00    -0.102 Cl
ENDROOT
TORSDOF 0
ENDMDL
MODEL 3
REMARK VINA RESULT:      -3.6     12.516     13.731
REMARK  0 active torsions:
REMARK  status: ('A' for Active; 'I' for Inactive)
ROOT
HETATM    1  C1  UNL     1     -32.440   7.633   4.273  1.00 20.00     0.086 C 
HETATM    2  C2  UNL     1     -33.747   4.427   4.804  1.00 20.00    -0.025 C 
HETATM    3  C3  UNL     1     -34.011   5.200   3.740  1.00 20.00    -0.023 C 
HETATM    4  C4  UNL     1     -35.490   5.820   5.394  1.00 20.00     0.020 C 
HETATM    5  C5  UNL     1     -33.340   6.380   6.274  1.00 20.00     0.050 C 
HETATM    6  C6  UNL     1     -34.260   5.157   6.022  1.00 20.00     0.011 C 
HETATM    7  C7  UNL     1     -34.681   6.459   4.254  1.00 20.00     0.046 C 
HETATM    8  C8  UNL     1     -33.641   7.299   5.047  1.00 20.00     0.133 C 
HETATM    9  N9  UNL     1     -31.490   7.898   3.660  1.00 20.00    -0.195 NA
HETATM   10 CL10 UNL     1     -34.356   8.853   5.577  1.00 20.00    -0.102 Cl
ENDROOT
TORSDOF 0
ENDMDL
MODEL 4
REMARK VINA RESULT:      -3.5     23.966     25.036
REMARK  0 active torsions:
REMARK  status: ('A' for Active; 'I' for Inactive)
ROOT
HETATM    1  C1  UNL     1     -24.944  -1.730  11.869  1.00 20.00     0.086 C 
HETATM    2  C2  UNL     1     -27.853  -0.542  10.322  1.00 20.00    -0.025 C 
HETATM    3  C3  UNL     1     -27.575  -0.428  11.629  1.00 20.00    -0.023 C 
HETATM    4  C4  UNL     1     -28.546  -2.497  11.335  1.00 20.00     0.020 C 
HETATM    5  C5  UNL     1     -26.509  -2.611  10.091  1.00 20.00     0.050 C 
HETATM    6  C6  UNL     1     -27.939  -2.017  10.013  1.00 20.00     0.011 C 
HETATM    7  C7  UNL     1     -27.452  -1.833  12.187  1.00 20.00     0.046 C 
HETATM    8  C8  UNL     1     -26.169  -2.496  11.612  1.00 20.00     0.133 C 
HETATM    9  N9  UNL     1     -23.975  -1.124  12.073  1.00 20.00    -0.195 NA
HETATM   10 CL10 UNL     1     -25.919  -4.116  12.332  1.00 20.00    -0.102 Cl
ENDROOT
TORSDOF 0
ENDMDL
MODEL 5
REMARK VINA RESULT:      -3.5     12.619     13.888
REMARK  0 active torsions:
REMARK  status: ('A' for Active; 'I' for Inactive)
ROOT
HETATM    1  C1  UNL     1     -32.797   7.947   4.587  1.00 20.00     0.086 C 
HETATM    2  C2  UNL     1     -35.104   5.988   6.350  1.00 20.00    -0.025 C 
HETATM    3  C3  UNL     1     -33.773   5.929   6.497  1.00 20.00    -0.023 C 
HETATM    4  C4  UNL     1     -34.305   4.548   4.732  1.00 20.00     0.020 C 
HETATM    5  C5  UNL     1     -34.932   6.732   3.993  1.00 20.00     0.050 C 
HETATM    6  C6  UNL     1     -35.411   5.590   4.926  1.00 20.00     0.011 C 
HETATM    7  C7  UNL     1     -33.189   5.514   5.161  1.00 20.00     0.046 C 
HETATM    8  C8  UNL     1     -33.378   6.674   4.144  1.00 20.00     0.133 C 
HETATM    9  N9  UNL     1     -32.337   8.954   4.938  1.00 20.00    -0.195 NA
HETATM   10 CL10 UNL     1     -32.601   6.276   2.580  1.00 20.00    -0.102 Cl
ENDROOT
TORSDOF 0
ENDMDL
MODEL 6
REMARK VINA RESULT:      -3.5     14.661     15.628
REMARK  0 active torsions:
REMARK  status: ('A' for Active; 'I' for Inactive)
ROOT
HETATM    1  C1  UNL     1     -42.962   4.437   0.697  1.00 20.00     0.086 C 
HETATM    2  C2  UNL     1     -41.608   7.581   1.437  1.00 20.00    -0.025 C 
HETATM    3  C3  UNL     1     -42.913   7.326   1.264  1.00 20.00    -0.023 C 
HETATM    4  C4  UNL     1     -42.027   7.698  -0.830  1.00 20.00     0.020 C 
HETATM    5  C5  UNL     1     -40.923   5.726  -0.056  1.00 20.00     0.050 C 
HETATM    6  C6  UNL     1     -40.917   7.265   0.133  1.00 20.00     0.011 C 
HETATM    7  C7  UNL     1     -43.088   6.816  -0.153  1.00 20.00     0.046 C 
HETATM    8  C8  UNL     1     -42.438   5.409  -0.269  1.00 20.00     0.133 C 
HETATM    9  N9  UNL     1     -43.376   3.667   1.461  1.00 20.00    -0.195 NA
HETATM   10 CL10 UNL     1     -42.720   4.715  -1.896  1.00 20.00    -0.102 Cl
ENDROOT
TORSDOF 0
ENDMDL
MODEL 7
REMARK VINA RESULT:      -3.3      4.040      4.881
REMARK  0 active torsions:
REMARK  status: ('A' for Active; 'I' for Inactive)
ROOT
HETATM    1  C1  UNL     1     -33.867  15.795  -4.047  1.00 20.00     0.086 C 
HETATM    2  C2  UNL     1     -34.556  17.433  -7.065  1.00 20.00    -0.025 C 
HETATM    3  C3  UNL     1     -35.207  17.639  -5.911  1.00 20.00    -0.023 C 
HETATM    4  C4  UNL     1     -36.219  15.838  -6.929  1.00 20.00     0.020 C 
HETATM    5  C5  UNL     1     -33.996  15.094  -6.471  1.00 20.00     0.050 C 
HETATM    6  C6  UNL     1     -34.789  15.993  -7.454  1.00 20.00     0.011 C 
HETATM    7  C7  UNL     1     -35.855  16.326  -5.518  1.00 20.00     0.046 C 
HETATM    8  C8  UNL     1     -34.746  15.313  -5.118  1.00 20.00     0.133 C 
HETATM    9  N9  UNL     1     -33.171  16.175  -3.199  1.00 20.00    -0.195 NA
HETATM   10 CL10 UNL     1     -35.469  13.782  -4.537  1.00 20.00    -0.102 Cl
ENDROOT
TORSDOF 0
ENDMDL
MODEL 8
REMARK VINA RESULT:      -3.3      4.970      5.792
REMARK  0 active torsions:
REMARK  status: ('A' for Active; 'I' for Inactive)
ROOT
HETATM    1  C1  UNL     1     -35.436  14.160  -4.794  1.00 20.00     0.086 C 
HETATM    2  C2  UNL     1     -36.588  16.183  -7.411  1.00 20.00    -0.025 C 
HETATM    3  C3  UNL     1     -35.740  15.153  -7.549  1.00 20.00    -0.023 C 
HETATM    4  C4  UNL     1     -34.465  16.992  -7.003  1.00 20.00     0.020 C 
HETATM    5  C5  UNL     1     -35.850  16.635  -5.089  1.00 20.00     0.050 C 
HETATM    6  C6  UNL     1     -35.907  17.203  -6.531  1.00 20.00     0.011 C 
HETATM    7  C7  UNL     1     -34.500  15.478  -6.740  1.00 20.00     0.046 C 
HETATM    8  C8  UNL     1     -34.857  15.437  -5.228  1.00 20.00     0.133 C 
HETATM    9  N9  UNL     1     -35.893  13.150  -4.450  1.00 20.00    -0.195 NA
HETATM   10 CL10 UNL     1     -33.396  15.702  -4.226  1.00 20.00    -0.102 Cl
ENDROOT
TORSDOF 0
ENDMDL
MODEL 9
REMARK VINA RESULT:      -3.3     12.199     12.963
REMARK  0 active torsions:
REMARK  status: ('A' for Active; 'I' for Inactive)
ROOT
HETATM    1  C1  UNL     1     -41.591  13.899   4.851  1.00 20.00     0.086 C 
HETATM    2  C2  UNL     1     -42.557  15.348   7.889  1.00 20.00    -0.025 C 
HETATM    3  C3  UNL     1     -41.564  15.793   7.105  1.00 20.00    -0.023 C 
HETATM    4  C4  UNL     1     -40.666  14.148   8.446  1.00 20.00     0.020 C 
HETATM    5  C5  UNL     1     -42.289  13.011   7.112  1.00 20.00     0.050 C 
HETATM    6  C6  UNL     1     -42.181  13.956   8.336  1.00 20.00     0.011 C 
HETATM    7  C7  UNL     1     -40.534  14.683   7.011  1.00 20.00     0.046 C 
HETATM    8  C8  UNL     1     -41.130  13.508   6.188  1.00 20.00     0.133 C 
HETATM    9  N9  UNL     1     -41.955  14.208   3.792  1.00 20.00    -0.195 NA
HETATM   10 CL10 UNL     1     -39.909  12.219   5.951  1.00 20.00    -0.102 Cl
ENDROOT
TORSDOF 0
ENDMDL
