MODEL 1
REMARK VINA RESULT:      -3.3      0.000      0.000
REMARK  4 active torsions:
REMARK  status: ('A' for Active; 'I' for Inactive)
REMARK    1  A    between atoms: C1_1  and  O10_10 
REMARK    2  A    between atoms: C1_1  and  O11_11 
REMARK    3  A    between atoms: C7_7  and  O10_10 
REMARK    4  A    between atoms: C8_8  and  O11_11 
ROOT
HETATM    1  C1  UNL     1     -34.037  15.261  -4.292  1.00 20.00     0.407 C 
HETATM    2  O9  UNL     1     -33.960  14.047  -4.162  1.00 20.00    -0.229 OA
ENDROOT
BRANCH   1   3
HETATM    3  O10 UNL     1     -33.139  16.175  -3.828  1.00 20.00    -0.293 OA
BRANCH   3   4
HETATM    4  C7  UNL     1     -33.700  17.296  -3.136  1.00 20.00     0.126 C 
HETATM    5  C2  UNL     1     -33.535  17.093  -1.638  1.00 20.00     0.040 C 
HETATM    6  C3  UNL     1     -33.020  18.570  -3.614  1.00 20.00     0.040 C 
ENDBRANCH   3   4
ENDBRANCH   1   3
BRANCH   1   7
HETATM    7  O11 UNL     1     -35.037  15.934  -4.928  1.00 20.00    -0.288 OA
BRANCH   7   8
HETATM    8  C8  UNL     1     -34.920  16.019  -6.349  1.00 20.00     0.062 C 
HETATM    9  C4  UNL     1     -33.715  15.188  -6.788  1.00 20.00     0.046 C 
HETATM   10  C5  UNL     1     -36.206  15.459  -6.951  1.00 20.00     0.046 C 
HETATM   11  C6  UNL     1     -34.740  17.487  -6.736  1.00 20.00     0.046 C 
ENDBRANCH   7   8
ENDBRANCH   1   7
TORSDOF 4
ENDMDL
MODEL 2
REMARK VINA RESULT:      -3.3      0.024      1.315
REMARK  4 active torsions:
REMARK  status: ('A' for Active; 'I' for Inactive)
REMARK    1  A    between atoms: C1_1  and  O10_10 
REMARK    2  A    between atoms: C1_1  and  O11_11 
REMARK    3  A    between atoms: C7_7  and  O10_10 
REMARK    4  A    between atoms: C8_8  and  O11_11 
ROOT
HETATM    1  C1  UNL     1     -34.027  15.281  -4.286  1.00 20.00     0.407 C 
HETATM    2  O9  UNL     1     -33.950  14.065  -4.175  1.00 20.00    -0.229 OA
ENDROOT
BRANCH   1   3
HETATM    3  O10 UNL     1     -33.136  16.187  -3.796  1.00 20.00    -0.293 OA
BRANCH   3   4
HETATM    4  C7  UNL     1     -33.707  17.311  -3.117  1.00 20.00     0.126 C 
HETATM    5  C2  UNL     1     -33.546  17.124  -1.617  1.00 20.00     0.040 C 
HETATM    6  C3  UNL     1     -33.034  18.585  -3.604  1.00 20.00     0.040 C 
ENDBRANCH   3   4
ENDBRANCH   1   3
BRANCH   1   7
HETATM    7  O11 UNL     1     -35.020  15.964  -4.922  1.00 20.00    -0.288 OA
BRANCH   7   8
HETATM    8  C8  UNL     1     -34.918  16.022  -6.346  1.00 20.00     0.062 C 
HETATM    9  C4  UNL     1     -36.208  15.468  -6.949  1.00 20.00     0.046 C 
HETATM   10  C5  UNL     1     -34.728  17.486  -6.733  1.00 20.00     0.046 C 
HETATM   11  C6  UNL     1     -33.712  15.190  -6.781  1.00 20.00     0.046 C 
ENDBRANCH   7   8
ENDBRANCH   1   7
TORSDOF 4
ENDMDL
MODEL 3
REMARK VINA RESULT:      -3.3      1.391      1.799
REMARK  4 active torsions:
REMARK  status: ('A' for Active; 'I' for Inactive)
REMARK    1  A    between atoms: C1_1  and  O10_10 
REMARK    2  A    between atoms: C1_1  and  O11_11 
REMARK    3  A    between atoms: C7_7  and  O10_10 
REMARK    4  A    between atoms: C8_8  and  O11_11 
ROOT
HETATM    1  C1  UNL     1     -33.288  15.900  -3.721  1.00 20.00     0.407 C 
HETATM    2  O9  UNL     1     -32.376  15.145  -4.029  1.00 20.00    -0.229 OA
ENDROOT
BRANCH   1   3
HETATM    3  O10 UNL     1     -33.545  16.375  -2.469  1.00 20.00    -0.293 OA
BRANCH   3   4
HETATM    4  C7  UNL     1     -33.376  17.786  -2.297  1.00 20.00     0.126 C 
HETATM    5  C2  UNL     1     -34.711  18.408  -1.919  1.00 20.00     0.040 C 
HETATM    6  C3  UNL     1     -32.313  18.037  -1.237  1.00 20.00     0.040 C 
ENDBRANCH   3   4
ENDBRANCH   1   3
BRANCH   1   7
HETATM    7  O11 UNL     1     -34.222  16.415  -4.570  1.00 20.00    -0.288 OA
BRANCH   7   8
HETATM    8  C8  UNL     1     -34.952  15.459  -5.340  1.00 20.00     0.062 C 
HETATM    9  C4  UNL     1     -35.057  14.164  -4.535  1.00 20.00     0.046 C 
HETATM   10  C5  UNL     1     -36.338  16.043  -5.603  1.00 20.00     0.046 C 
HETATM   11  C6  UNL     1     -34.208  15.224  -6.655  1.00 20.00     0.046 C 
ENDBRANCH   7   8
ENDBRANCH   1   7
TORSDOF 4
ENDMDL
MODEL 4
REMARK VINA RESULT:      -3.2      1.364      2.083
REMARK  4 active torsions:
REMARK  status: ('A' for Active; 'I' for Inactive)
REMARK    1  A    between atoms: C1_1  and  O10_10 
REMARK    2  A    between atoms: C1_1  and  O11_11 
REMARK    3  A    between atoms: C7_7  and  O10_10 
REMARK    4  A    between atoms: C8_8  and  O11_11 
ROOT
HETATM    1  C1  UNL     1     -34.293  17.422  -4.974  1.00 20.00     0.407 C 
HETATM    2  O9  UNL     1     -34.360  18.226  -5.894  1.00 20.00    -0.229 OA
ENDROOT
BRANCH   1   3
HETATM    3  O10 UNL     1     -33.333  17.390  -4.007  1.00 20.00    -0.293 OA
BRANCH   3   4
HETATM    4  C7  UNL     1     -33.653  18.084  -2.796  1.00 20.00     0.126 C 
HETATM    5  C2  UNL     1     -33.566  17.116  -1.627  1.00 20.00     0.040 C 
HETATM    6  C3  UNL     1     -32.705  19.262  -2.629  1.00 20.00     0.040 C 
ENDBRANCH   3   4
ENDBRANCH   1   3
BRANCH   1   7
HETATM    7  O11 UNL     1     -35.166  16.402  -4.738  1.00 20.00    -0.288 OA
BRANCH   7   8
HETATM    8  C8  UNL     1     -34.782  15.126  -5.251  1.00 20.00     0.062 C 
HETATM    9  C4  UNL     1     -33.802  14.483  -4.270  1.00 20.00     0.046 C 
HETATM   10  C5  UNL     1     -36.048  14.282  -5.378  1.00 20.00     0.046 C 
HETATM   11  C6  UNL     1     -34.130  15.327  -6.619  1.00 20.00     0.046 C 
ENDBRANCH   7   8
ENDBRANCH   1   7
TORSDOF 4
ENDMDL
MODEL 5
REMARK VINA RESULT:      -3.2     12.081     13.947
REMARK  4 active torsions:
REMARK  status: ('A' for Active; 'I' for Inactive)
REMARK    1  A    between atoms: C1_1  and  O10_10 
REMARK    2  A    between atoms: C1_1  and  O11_11 
REMARK    3  A    between atoms: C7_7  and  O10_10 
REMARK    4  A    between atoms: C8_8  and  O11_11 
ROOT
HETATM    1  C1  UNL     1     -41.504  13.205   6.299  1.00 20.00     0.407 C 
HETATM    2  O9  UNL     1     -41.974  12.260   6.918  1.00 20.00    -0.229 OA
ENDROOT
BRANCH   1   3
HETATM    3  O10 UNL     1     -40.482  13.143   5.400  1.00 20.00    -0.293 OA
BRANCH   3   4
HETATM    4  C7  UNL     1     -39.719  11.931   5.412  1.00 20.00     0.126 C 
HETATM    5  C2  UNL     1     -39.186  11.661   4.015  1.00 20.00     0.040 C 
HETATM    6  C3  UNL     1     -38.598  12.056   6.433  1.00 20.00     0.040 C 
ENDBRANCH   3   4
ENDBRANCH   1   3
BRANCH   1   7
HETATM    7  O11 UNL     1     -41.912  14.502   6.388  1.00 20.00    -0.288 OA
BRANCH   7   8
HETATM    8  C8  UNL     1     -41.605  15.165   7.616  1.00 20.00     0.062 C 
HETATM    9  C4  UNL     1     -40.460  14.418   8.298  1.00 20.00     0.046 C 
HETATM   10  C5  UNL     1     -41.187  16.593   7.275  1.00 20.00     0.046 C 
HETATM   11  C6  UNL     1     -42.856  15.166   8.495  1.00 20.00     0.046 C 
ENDBRANCH   7   8
ENDBRANCH   1   7
TORSDOF 4
ENDMDL
MODEL 6
REMARK VINA RESULT:      -3.2      1.284      4.138
REMARK  4 active torsions:
REMARK  status: ('A' for Active; 'I' for Inactive)
REMARK    1  A    between atoms: C1_1  and  O10_10 
REMARK    2  A    between atoms: C1_1  and  O11_11 
REMARK    3  A    between atoms: C7_7  and  O10_10 
REMARK    4  A    between atoms: C8_8  and  O11_11 
ROOT
HETATM    1  C1  UNL     1     -33.406  15.839  -3.665  1.00 20.00     0.407 C 
HETATM    2  O9  UNL     1     -32.351  15.294  -3.959  1.00 20.00    -0.229 OA
ENDROOT
BRANCH   1   3
HETATM    3  O10 UNL     1     -34.487  15.984  -4.482  1.00 20.00    -0.293 OA
BRANCH   3   4
HETATM    4  C7  UNL     1     -34.625  14.993  -5.507  1.00 20.00     0.126 C 
HETATM    5  C2  UNL     1     -36.014  14.381  -5.428  1.00 20.00     0.040 C 
HETATM    6  C3  UNL     1     -34.364  15.634  -6.861  1.00 20.00     0.040 C 
ENDBRANCH   3   4
ENDBRANCH   1   3
BRANCH   1   7
HETATM    7  O11 UNL     1     -33.706  16.406  -2.462  1.00 20.00    -0.288 OA
BRANCH   7   8
HETATM    8  C8  UNL     1     -33.479  17.813  -2.367  1.00 20.00     0.062 C 
HETATM    9  C4  UNL     1     -33.059  18.332  -3.742  1.00 20.00     0.046 C 
HETATM   10  C5  UNL     1     -34.789  18.461  -1.926  1.00 20.00     0.046 C 
HETATM   11  C6  UNL     1     -32.381  18.060  -1.332  1.00 20.00     0.046 C 
ENDBRANCH   7   8
ENDBRANCH   1   7
TORSDOF 4
ENDMDL
MODEL 7
REMARK VINA RESULT:      -3.2     13.610     15.646
REMARK  4 active torsions:
REMARK  status: ('A' for Active; 'I' for Inactive)
REMARK    1  A    between atoms: C1_1  and  O10_10 
REMARK    2  A    between atoms: C1_1  and  O11_11 
REMARK    3  A    between atoms: C7_7  and  O10_10 
REMARK    4  A    between atoms: C8_8  and  O11_11 
ROOT
HETATM    1  C1  UNL     1     -40.403  14.272   8.405  1.00 20.00     0.407 C 
HETATM    2  O9  UNL     1     -40.131  15.403   8.024  1.00 20.00    -0.229 OA
ENDROOT
BRANCH   1   3
HETATM    3  O10 UNL     1     -40.694  13.206   7.607  1.00 20.00    -0.293 OA
BRANCH   3   4
HETATM    4  C7  UNL     1     -40.133  13.249   6.290  1.00 20.00     0.126 C 
HETATM    5  C2  UNL     1     -39.365  11.963   6.031  1.00 20.00     0.040 C 
HETATM    6  C3  UNL     1     -41.249  13.456   5.277  1.00 20.00     0.040 C 
ENDBRANCH   3   4
ENDBRANCH   1   3
BRANCH   1   7
HETATM    7  O11 UNL     1     -40.465  13.859   9.702  1.00 20.00    -0.288 OA
BRANCH   7   8
HETATM    8  C8  UNL     1     -41.552  14.382  10.467  1.00 20.00     0.062 C 
HETATM    9  C4  UNL     1     -42.757  14.555   9.543  1.00 20.00     0.046 C 
HETATM   10  C5  UNL     1     -41.862  13.376  11.573  1.00 20.00     0.046 C 
HETATM   11  C6  UNL     1     -41.126  15.723  11.065  1.00 20.00     0.046 C 
ENDBRANCH   7   8
ENDBRANCH   1   7
TORSDOF 4
ENDMDL
MODEL 8
REMARK VINA RESULT:      -3.1     12.638     13.954
REMARK  4 active torsions:
REMARK  status: ('A' for Active; 'I' for Inactive)
REMARK    1  A    between atoms: C1_1  and  O10_10 
REMARK    2  A    between atoms: C1_1  and  O11_11 
REMARK    3  A    between atoms: C7_7  and  O10_10 
REMARK    4  A    between atoms: C8_8  and  O11_11 
ROOT
HETATM    1  C1  UNL     1     -40.615  14.348   8.033  1.00 20.00     0.407 C 
HETATM    2  O9  UNL     1     -40.187  13.662   8.951  1.00 20.00    -0.229 OA
ENDROOT
BRANCH   1   3
HETATM    3  O10 UNL     1     -41.479  15.396   8.152  1.00 20.00    -0.293 OA
BRANCH   3   4
HETATM    4  C7  UNL     1     -41.288  16.464   7.217  1.00 20.00     0.126 C 
HETATM    5  C2  UNL     1     -42.605  16.760   6.519  1.00 20.00     0.040 C 
HETATM    6  C3  UNL     1     -40.750  17.682   7.953  1.00 20.00     0.040 C 
ENDBRANCH   3   4
ENDBRANCH   1   3
BRANCH   1   7
HETATM    7  O11 UNL     1     -40.310  14.198   6.713  1.00 20.00    -0.288 OA
BRANCH   7   8
HETATM    8  C8  UNL     1     -40.975  13.127   6.042  1.00 20.00     0.062 C 
HETATM    9  C4  UNL     1     -42.189  12.712   6.872  1.00 20.00     0.046 C 
HETATM   10  C5  UNL     1     -41.411  13.643   4.673  1.00 20.00     0.046 C 
HETATM   11  C6  UNL     1     -39.994  11.964   5.891  1.00 20.00     0.046 C 
ENDBRANCH   7   8
ENDBRANCH   1   7
TORSDOF 4
ENDMDL
MODEL 9
REMARK VINA RESULT:      -3.1     12.980     14.455
REMARK  4 active torsions:
REMARK  status: ('A' for Active; 'I' for Inactive)
REMARK    1  A    between atoms: C1_1  and  O10_10 
REMARK    2  A    between atoms: C1_1  and  O11_11 
REMARK    3  A    between atoms: C7_7  and  O10_10 
REMARK    4  A    between atoms: C8_8  and  O11_11 
ROOT
HETATM    1  C1  UNL     1     -40.513  14.159   8.274  1.00 20.00     0.407 C 
HETATM    2  O9  UNL     1     -40.291  13.999   9.466  1.00 20.00    -0.229 OA
ENDROOT
BRANCH   1   3
HETATM    3  O10 UNL     1     -40.846  13.183   7.383  1.00 20.00    -0.293 OA
BRANCH   3   4
HETATM    4  C7  UNL     1     -40.147  13.221   6.134  1.00 20.00     0.126 C 
HETATM    5  C2  UNL     1     -39.334  11.946   5.977  1.00 20.00     0.040 C 
HETATM    6  C3  UNL     1     -41.149  13.397   5.004  1.00 20.00     0.040 C 
ENDBRANCH   3   4
ENDBRANCH   1   3
BRANCH   1   7
HETATM    7  O11 UNL     1     -40.472  15.347   7.605  1.00 20.00    -0.288 OA
BRANCH   7   8
HETATM    8  C8  UNL     1     -41.580  16.220   7.825  1.00 20.00     0.062 C 
HETATM    9  C4  UNL     1     -41.216  17.196   8.943  1.00 20.00     0.046 C 
HETATM   10  C5  UNL     1     -41.840  16.970   6.521  1.00 20.00     0.046 C 
HETATM   11  C6  UNL     1     -42.795  15.376   8.212  1.00 20.00     0.046 C 
ENDBRANCH   7   8
ENDBRANCH   1   7
TORSDOF 4
ENDMDL
