MODEL 1
REMARK VINA RESULT:      -3.8      0.000      0.000
REMARK  1 active torsions:
REMARK  status: ('A' for Active; 'I' for Inactive)
REMARK    1  A    between atoms: C1_1  and  C3_3 
ROOT
HETATM    1  C2  UNL     1     -42.536  14.839   7.661  1.00 20.00     0.019 C 
HETATM    2  C3  UNL     1     -40.991  13.989   6.376  1.00 20.00     0.070 C 
HETATM    3  C4  UNL     1     -40.984  14.866   7.674  1.00 20.00    -0.036 C 
HETATM    4  C5  UNL     1     -42.516  13.707   6.599  1.00 20.00    -0.036 C 
HETATM    5  C7  UNL     1     -40.411  16.266   7.440  1.00 20.00     0.015 C 
HETATM    6  C8  UNL     1     -40.378  14.244   8.932  1.00 20.00     0.015 C 
HETATM    7  C9  UNL     1     -43.366  14.029   5.368  1.00 20.00     0.015 C 
HETATM    8  C10 UNL     1     -42.895  12.339   7.168  1.00 20.00     0.015 C 
ENDROOT
BRANCH   2   9
HETATM    9  C1  UNL     1     -40.021  12.807   6.268  1.00 20.00     0.128 C 
HETATM   10  C6  UNL     1     -39.817  12.221   4.898  1.00 20.00     0.091 C 
HETATM   11  O11 UNL     1     -39.438  12.360   7.254  1.00 20.00    -0.298 OA
ENDBRANCH   2   9
TORSDOF 1
ENDMDL
MODEL 2
REMARK VINA RESULT:      -3.5      1.192      3.177
REMARK  1 active torsions:
REMARK  status: ('A' for Active; 'I' for Inactive)
REMARK    1  A    between atoms: C1_1  and  C3_3 
ROOT
HETATM    1  C2  UNL     1     -42.548  14.281   8.103  1.00 20.00     0.019 C 
HETATM    2  C3  UNL     1     -41.125  12.995   7.061  1.00 20.00     0.070 C 
HETATM    3  C4  UNL     1     -42.683  13.160   7.038  1.00 20.00    -0.036 C 
HETATM    4  C5  UNL     1     -41.015  14.339   7.860  1.00 20.00    -0.036 C 
HETATM    5  C7  UNL     1     -43.417  11.924   7.562  1.00 20.00     0.015 C 
HETATM    6  C8  UNL     1     -43.312  13.641   5.730  1.00 20.00     0.015 C 
HETATM    7  C9  UNL     1     -40.202  14.199   9.149  1.00 20.00     0.015 C 
HETATM    8  C10 UNL     1     -40.574  15.578   7.081  1.00 20.00     0.015 C 
ENDROOT
BRANCH   2   9
HETATM    9  C1  UNL     1     -40.369  12.852   5.735  1.00 20.00     0.128 C 
HETATM   10  C6  UNL     1     -39.042  12.146   5.786  1.00 20.00     0.091 C 
HETATM   11  O11 UNL     1     -40.826  13.292   4.682  1.00 20.00    -0.298 OA
ENDBRANCH   2   9
TORSDOF 1
ENDMDL
MODEL 3
REMARK VINA RESULT:      -3.5     12.835     14.517
REMARK  1 active torsions:
REMARK  status: ('A' for Active; 'I' for Inactive)
REMARK    1  A    between atoms: C1_1  and  C3_3 
ROOT
HETATM    1  C2  UNL     1     -33.914  15.073  -6.392  1.00 20.00     0.019 C 
HETATM    2  C3  UNL     1     -35.411  16.419  -5.551  1.00 20.00     0.070 C 
HETATM    3  C4  UNL     1     -34.942  16.062  -7.002  1.00 20.00    -0.036 C 
HETATM    4  C5  UNL     1     -34.616  15.181  -5.012  1.00 20.00    -0.036 C 
HETATM    5  C7  UNL     1     -34.282  17.243  -7.719  1.00 20.00     0.015 C 
HETATM    6  C8  UNL     1     -35.964  15.386  -7.918  1.00 20.00     0.015 C 
HETATM    7  C9  UNL     1     -33.652  15.541  -3.879  1.00 20.00     0.015 C 
HETATM    8  C10 UNL     1     -35.427  13.937  -4.648  1.00 20.00     0.015 C 
ENDROOT
BRANCH   2   9
HETATM    9  C1  UNL     1     -36.911  16.528  -5.256  1.00 20.00     0.128 C 
HETATM   10  C6  UNL     1     -37.378  17.788  -4.580  1.00 20.00     0.091 C 
HETATM   11  O11 UNL     1     -37.695  15.629  -5.558  1.00 20.00    -0.298 OA
ENDBRANCH   2   9
TORSDOF 1
ENDMDL
MODEL 4
REMARK VINA RESULT:      -3.3      9.634     11.019
REMARK  1 active torsions:
REMARK  status: ('A' for Active; 'I' for Inactive)
REMARK    1  A    between atoms: C1_1  and  C3_3 
ROOT
HETATM    1  C2  UNL     1     -34.271   8.023   5.580  1.00 20.00     0.019 C 
HETATM    2  C3  UNL     1     -32.915   6.798   4.387  1.00 20.00     0.070 C 
HETATM    3  C4  UNL     1     -34.274   6.540   5.122  1.00 20.00    -0.036 C 
HETATM    4  C5  UNL     1     -33.128   8.339   4.579  1.00 20.00    -0.036 C 
HETATM    5  C7  UNL     1     -34.141   5.556   6.288  1.00 20.00     0.015 C 
HETATM    6  C8  UNL     1     -35.478   6.178   4.252  1.00 20.00     0.015 C 
HETATM    7  C9  UNL     1     -31.930   9.027   5.238  1.00 20.00     0.015 C 
HETATM    8  C10 UNL     1     -33.596   9.133   3.359  1.00 20.00     0.015 C 
ENDROOT
BRANCH   2   9
HETATM    9  C1  UNL     1     -32.713   6.243   2.973  1.00 20.00     0.128 C 
HETATM   10  C6  UNL     1     -33.010   4.782   2.771  1.00 20.00     0.091 C 
HETATM   11  O11 UNL     1     -32.329   6.957   2.049  1.00 20.00    -0.298 OA
ENDBRANCH   2   9
TORSDOF 1
ENDMDL
MODEL 5
REMARK VINA RESULT:      -3.2     12.713     14.078
REMARK  1 active torsions:
REMARK  status: ('A' for Active; 'I' for Inactive)
REMARK    1  A    between atoms: C1_1  and  C3_3 
ROOT
HETATM    1  C2  UNL     1     -35.672  17.004  -6.220  1.00 20.00     0.019 C 
HETATM    2  C3  UNL     1     -34.851  16.363  -4.302  1.00 20.00     0.070 C 
HETATM    3  C4  UNL     1     -35.095  15.667  -5.684  1.00 20.00    -0.036 C 
HETATM    4  C5  UNL     1     -35.114  17.752  -4.979  1.00 20.00    -0.036 C 
HETATM    5  C7  UNL     1     -36.142  14.553  -5.610  1.00 20.00     0.015 C 
HETATM    6  C8  UNL     1     -33.860  15.190  -6.451  1.00 20.00     0.015 C 
HETATM    7  C9  UNL     1     -36.179  18.576  -4.251  1.00 20.00     0.015 C 
HETATM    8  C10 UNL     1     -33.892  18.616  -5.293  1.00 20.00     0.015 C 
ENDROOT
BRANCH   2   9
HETATM    9  C1  UNL     1     -33.525  16.129  -3.571  1.00 20.00     0.128 C 
HETATM   10  C6  UNL     1     -33.355  16.814  -2.242  1.00 20.00     0.091 C 
HETATM   11  O11 UNL     1     -32.643  15.416  -4.047  1.00 20.00    -0.298 OA
ENDBRANCH   2   9
TORSDOF 1
ENDMDL
MODEL 6
REMARK VINA RESULT:      -3.2     12.983     14.558
REMARK  1 active torsions:
REMARK  status: ('A' for Active; 'I' for Inactive)
REMARK    1  A    between atoms: C1_1  and  C3_3 
ROOT
HETATM    1  C2  UNL     1     -36.117  16.169  -7.150  1.00 20.00     0.019 C 
HETATM    2  C3  UNL     1     -34.846  16.557  -5.418  1.00 20.00     0.070 C 
HETATM    3  C4  UNL     1     -36.257  15.909  -5.627  1.00 20.00    -0.036 C 
HETATM    4  C5  UNL     1     -34.608  16.483  -6.966  1.00 20.00    -0.036 C 
HETATM    5  C7  UNL     1     -37.384  16.723  -4.984  1.00 20.00     0.015 C 
HETATM    6  C8  UNL     1     -36.402  14.428  -5.276  1.00 20.00     0.015 C 
HETATM    7  C9  UNL     1     -34.201  17.829  -7.569  1.00 20.00     0.015 C 
HETATM    8  C10 UNL     1     -33.692  15.370  -7.476  1.00 20.00     0.015 C 
ENDROOT
BRANCH   2   9
HETATM    9  C1  UNL     1     -33.845  15.879  -4.476  1.00 20.00     0.128 C 
HETATM   10  C6  UNL     1     -33.410  16.668  -3.271  1.00 20.00     0.091 C 
HETATM   11  O11 UNL     1     -33.419  14.746  -4.694  1.00 20.00    -0.298 OA
ENDBRANCH   2   9
TORSDOF 1
ENDMDL
MODEL 7
REMARK VINA RESULT:      -3.1     12.936     14.366
REMARK  1 active torsions:
REMARK  status: ('A' for Active; 'I' for Inactive)
REMARK    1  A    between atoms: C1_1  and  C3_3 
ROOT
HETATM    1  C2  UNL     1     -35.533  17.225  -6.835  1.00 20.00     0.019 C 
HETATM    2  C3  UNL     1     -34.048  16.515  -5.401  1.00 20.00     0.070 C 
HETATM    3  C4  UNL     1     -35.051  17.718  -5.445  1.00 20.00    -0.036 C 
HETATM    4  C5  UNL     1     -34.797  15.875  -6.621  1.00 20.00    -0.036 C 
HETATM    5  C7  UNL     1     -34.344  19.075  -5.505  1.00 20.00     0.015 C 
HETATM    6  C8  UNL     1     -36.160  17.739  -4.392  1.00 20.00     0.015 C 
HETATM    7  C9  UNL     1     -33.856  15.520  -7.774  1.00 20.00     0.015 C 
HETATM    8  C10 UNL     1     -35.743  14.712  -6.325  1.00 20.00     0.015 C 
ENDROOT
BRANCH   2   9
HETATM    9  C1  UNL     1     -33.906  15.707  -4.107  1.00 20.00     0.128 C 
HETATM   10  C6  UNL     1     -33.321  16.425  -2.921  1.00 20.00     0.091 C 
HETATM   11  O11 UNL     1     -34.255  14.529  -4.039  1.00 20.00    -0.298 OA
ENDBRANCH   2   9
TORSDOF 1
ENDMDL
MODEL 8
REMARK VINA RESULT:      -3.1      1.525      2.997
REMARK  1 active torsions:
REMARK  status: ('A' for Active; 'I' for Inactive)
REMARK    1  A    between atoms: C1_1  and  C3_3 
ROOT
HETATM    1  C2  UNL     1     -41.926  14.762   6.007  1.00 20.00     0.019 C 
HETATM    2  C3  UNL     1     -41.055  14.419   7.979  1.00 20.00     0.070 C 
HETATM    3  C4  UNL     1     -41.837  15.600   7.310  1.00 20.00    -0.036 C 
HETATM    4  C5  UNL     1     -41.465  13.497   6.780  1.00 20.00    -0.036 C 
HETATM    5  C7  UNL     1     -40.984  16.862   7.151  1.00 20.00     0.015 C 
HETATM    6  C8  UNL     1     -43.205  15.952   7.898  1.00 20.00     0.015 C 
HETATM    7  C9  UNL     1     -40.267  12.803   6.128  1.00 20.00     0.015 C 
HETATM    8  C10 UNL     1     -42.594  12.496   7.027  1.00 20.00     0.015 C 
ENDROOT
BRANCH   2   9
HETATM    9  C1  UNL     1     -41.420  13.995   9.405  1.00 20.00     0.128 C 
HETATM   10  C6  UNL     1     -40.586  14.571  10.517  1.00 20.00     0.091 C 
HETATM   11  O11 UNL     1     -42.350  13.222   9.630  1.00 20.00    -0.298 OA
ENDBRANCH   2   9
TORSDOF 1
ENDMDL
MODEL 9
REMARK VINA RESULT:      -3.0     20.454     22.020
REMARK  1 active torsions:
REMARK  status: ('A' for Active; 'I' for Inactive)
REMARK    1  A    between atoms: C1_1  and  C3_3 
ROOT
HETATM    1  C2  UNL     1     -28.705  -1.956  11.436  1.00 20.00     0.019 C 
HETATM    2  C3  UNL     1     -26.831  -2.450  10.433  1.00 20.00     0.070 C 
HETATM    3  C4  UNL     1     -27.420  -1.157  11.094  1.00 20.00    -0.036 C 
HETATM    4  C5  UNL     1     -27.980  -3.285  11.094  1.00 20.00    -0.036 C 
HETATM    5  C7  UNL     1     -27.666  -0.034  10.083  1.00 20.00     0.015 C 
HETATM    6  C8  UNL     1     -26.697  -0.615  12.328  1.00 20.00     0.015 C 
HETATM    7  C9  UNL     1     -28.749  -4.141  10.084  1.00 20.00     0.015 C 
HETATM    8  C10 UNL     1     -27.619  -4.111  12.329  1.00 20.00     0.015 C 
ENDROOT
BRANCH   2   9
HETATM    9  C1  UNL     1     -25.374  -2.834  10.713  1.00 20.00     0.128 C 
HETATM   10  C6  UNL     1     -24.540  -3.236   9.526  1.00 20.00     0.091 C 
HETATM   11  O11 UNL     1     -24.908  -2.814  11.851  1.00 20.00    -0.298 OA
ENDBRANCH   2   9
TORSDOF 1
ENDMDL
