MODEL 1
REMARK VINA RESULT:      -4.4      0.000      0.000
REMARK  5 active torsions:
REMARK  status: ('A' for Active; 'I' for Inactive)
REMARK    1  A    between atoms: C2_2  and  C4_4 
REMARK    2  A    between atoms: C4_4  and  C6_6 
REMARK    3  A    between atoms: C5_5  and  C6_6 
REMARK    4  A    between atoms: C5_5  and  C7_7 
REMARK    5  A    between atoms: C6_6  and  O8_8 
ROOT
HETATM    1  C6  UNL     1     -32.867   7.554   5.097  1.00 20.00     0.130 C 
ENDROOT
BRANCH   1   2
HETATM    2  C4  UNL     1     -33.344   7.990   3.704  1.00 20.00     0.065 C 
BRANCH   2   3
HETATM    3  C2  UNL     1     -32.636   7.269   2.577  1.00 20.00    -0.091 C 
HETATM    4  C1  UNL     1     -32.023   7.941   1.589  1.00 20.00     0.014 C 
HETATM    5  C3  UNL     1     -32.684   5.768   2.588  1.00 20.00     0.042 C 
ENDBRANCH   2   3
ENDBRANCH   1   2
BRANCH   1   6
HETATM    6  C5  UNL     1     -34.065   7.275   6.014  1.00 20.00     0.149 C 
BRANCH   6   7
HETATM    7  C7  UNL     1     -34.706   5.925   5.760  1.00 20.00     0.390 C 
HETATM    8  F9  UNL     1     -33.796   4.999   5.393  1.00 20.00    -0.171 F 
HETATM    9  F10 UNL     1     -35.315   5.476   6.880  1.00 20.00    -0.171 F 
HETATM   10  F11 UNL     1     -35.642   6.001   4.789  1.00 20.00    -0.171 F 
ENDBRANCH   6   7
ENDBRANCH   1   6
BRANCH   1  11
HETATM   11  O8  UNL     1     -32.078   8.609   5.647  1.00 20.00    -0.395 OA
HETATM   12  H22 UNL     1     -32.028   8.445   6.601  1.00 20.00     0.210 HD
ENDBRANCH   1  11
TORSDOF 5
ENDMDL
MODEL 2
REMARK VINA RESULT:      -4.3      1.213      1.598
REMARK  5 active torsions:
REMARK  status: ('A' for Active; 'I' for Inactive)
REMARK    1  A    between atoms: C2_2  and  C4_4 
REMARK    2  A    between atoms: C4_4  and  C6_6 
REMARK    3  A    between atoms: C5_5  and  C6_6 
REMARK    4  A    between atoms: C5_5  and  C7_7 
REMARK    5  A    between atoms: C6_6  and  O8_8 
ROOT
HETATM    1  C6  UNL     1     -33.088   7.279   5.297  1.00 20.00     0.130 C 
ENDROOT
BRANCH   1   2
HETATM    2  C4  UNL     1     -32.483   8.472   4.540  1.00 20.00     0.065 C 
BRANCH   2   3
HETATM    3  C2  UNL     1     -32.444   8.270   3.041  1.00 20.00    -0.091 C 
HETATM    4  C1  UNL     1     -32.042   7.110   2.498  1.00 20.00     0.014 C 
HETATM    5  C3  UNL     1     -32.835   9.440   2.183  1.00 20.00     0.042 C 
ENDBRANCH   2   3
ENDBRANCH   1   2
BRANCH   1   6
HETATM    6  C5  UNL     1     -34.598   7.188   5.040  1.00 20.00     0.149 C 
BRANCH   6   7
HETATM    7  C7  UNL     1     -35.066   5.777   4.741  1.00 20.00     0.390 C 
HETATM    8  F9  UNL     1     -34.210   5.128   3.923  1.00 20.00    -0.171 F 
HETATM    9  F10 UNL     1     -35.159   5.061   5.884  1.00 20.00    -0.171 F 
HETATM   10  F11 UNL     1     -36.284   5.777   4.158  1.00 20.00    -0.171 F 
ENDBRANCH   6   7
ENDBRANCH   1   6
BRANCH   1  11
HETATM   11  O8  UNL     1     -32.851   7.471   6.691  1.00 20.00    -0.395 OA
HETATM   12  H22 UNL     1     -32.752   8.427   6.823  1.00 20.00     0.210 HD
ENDBRANCH   1  11
TORSDOF 5
ENDMDL
MODEL 3
REMARK VINA RESULT:      -4.2      1.933      2.561
REMARK  5 active torsions:
REMARK  status: ('A' for Active; 'I' for Inactive)
REMARK    1  A    between atoms: C2_2  and  C4_4 
REMARK    2  A    between atoms: C4_4  and  C6_6 
REMARK    3  A    between atoms: C5_5  and  C6_6 
REMARK    4  A    between atoms: C5_5  and  C7_7 
REMARK    5  A    between atoms: C6_6  and  O8_8 
ROOT
HETATM    1  C6  UNL     1     -33.389   5.946   3.204  1.00 20.00     0.130 C 
ENDROOT
BRANCH   1   2
HETATM    2  C4  UNL     1     -32.151   6.848   3.325  1.00 20.00     0.065 C 
BRANCH   2   3
HETATM    3  C2  UNL     1     -32.493   8.315   3.470  1.00 20.00    -0.091 C 
HETATM    4  C1  UNL     1     -32.846   9.061   2.412  1.00 20.00     0.014 C 
HETATM    5  C3  UNL     1     -32.377   8.911   4.844  1.00 20.00     0.042 C 
ENDBRANCH   2   3
ENDBRANCH   1   2
BRANCH   1   6
HETATM    6  C5  UNL     1     -33.681   5.250   4.540  1.00 20.00     0.149 C 
BRANCH   6   7
HETATM    7  C7  UNL     1     -34.868   5.844   5.273  1.00 20.00     0.390 C 
HETATM    8  F9  UNL     1     -35.930   6.008   4.456  1.00 20.00    -0.171 F 
HETATM    9  F10 UNL     1     -35.252   5.032   6.283  1.00 20.00    -0.171 F 
HETATM   10  F11 UNL     1     -34.563   7.046   5.808  1.00 20.00    -0.171 F 
ENDBRANCH   6   7
ENDBRANCH   1   6
BRANCH   1  11
HETATM   11  O8  UNL     1     -33.128   4.965   2.200  1.00 20.00    -0.395 OA
HETATM   12  H22 UNL     1     -33.751   4.238   2.358  1.00 20.00     0.210 HD
ENDBRANCH   1  11
TORSDOF 5
ENDMDL
MODEL 4
REMARK VINA RESULT:      -4.1      8.982     10.002
REMARK  5 active torsions:
REMARK  status: ('A' for Active; 'I' for Inactive)
REMARK    1  A    between atoms: C2_2  and  C4_4 
REMARK    2  A    between atoms: C4_4  and  C6_6 
REMARK    3  A    between atoms: C5_5  and  C6_6 
REMARK    4  A    between atoms: C5_5  and  C7_7 
REMARK    5  A    between atoms: C6_6  and  O8_8 
ROOT
HETATM    1  C6  UNL     1     -40.258  13.187   6.442  1.00 20.00     0.130 C 
ENDROOT
BRANCH   1   2
HETATM    2  C4  UNL     1     -41.750  13.546   6.518  1.00 20.00     0.065 C 
BRANCH   2   3
HETATM    3  C2  UNL     1     -42.135  14.692   5.608  1.00 20.00    -0.091 C 
HETATM    4  C1  UNL     1     -42.372  14.502   4.301  1.00 20.00     0.014 C 
HETATM    5  C3  UNL     1     -42.200  16.061   6.223  1.00 20.00     0.042 C 
ENDBRANCH   2   3
ENDBRANCH   1   2
BRANCH   1   6
HETATM    6  C5  UNL     1     -40.073  11.764   5.900  1.00 20.00     0.149 C 
BRANCH   6   7
HETATM    7  C7  UNL     1     -39.284  11.718   4.606  1.00 20.00     0.390 C 
HETATM    8  F9  UNL     1     -39.734  12.624   3.713  1.00 20.00    -0.171 F 
HETATM    9  F10 UNL     1     -37.981  11.990   4.841  1.00 20.00    -0.171 F 
HETATM   10  F11 UNL     1     -39.350  10.497   4.033  1.00 20.00    -0.171 F 
ENDBRANCH   6   7
ENDBRANCH   1   6
BRANCH   1  11
HETATM   11  O8  UNL     1     -39.713  13.272   7.759  1.00 20.00    -0.395 OA
HETATM   12  H22 UNL     1     -38.806  12.932   7.703  1.00 20.00     0.210 HD
ENDBRANCH   1  11
TORSDOF 5
ENDMDL
MODEL 5
REMARK VINA RESULT:      -4.1      2.531      3.131
REMARK  5 active torsions:
REMARK  status: ('A' for Active; 'I' for Inactive)
REMARK    1  A    between atoms: C2_2  and  C4_4 
REMARK    2  A    between atoms: C4_4  and  C6_6 
REMARK    3  A    between atoms: C5_5  and  C6_6 
REMARK    4  A    between atoms: C5_5  and  C7_7 
REMARK    5  A    between atoms: C6_6  and  O8_8 
ROOT
HETATM    1  C6  UNL     1     -34.509   5.876   4.668  1.00 20.00     0.130 C 
ENDROOT
BRANCH   1   2
HETATM    2  C4  UNL     1     -33.310   5.066   4.153  1.00 20.00     0.065 C 
BRANCH   2   3
HETATM    3  C2  UNL     1     -32.904   5.431   2.742  1.00 20.00    -0.091 C 
HETATM    4  C1  UNL     1     -33.128   4.602   1.710  1.00 20.00     0.014 C 
HETATM    5  C3  UNL     1     -32.199   6.744   2.551  1.00 20.00     0.042 C 
ENDBRANCH   2   3
ENDBRANCH   1   2
BRANCH   1   6
HETATM    6  C5  UNL     1     -34.088   6.777   5.837  1.00 20.00     0.149 C 
BRANCH   6   7
HETATM    7  C7  UNL     1     -33.684   8.171   5.398  1.00 20.00     0.390 C 
HETATM    8  F9  UNL     1     -32.344   8.313   5.349  1.00 20.00    -0.171 F 
HETATM    9  F10 UNL     1     -34.167   8.432   4.162  1.00 20.00    -0.171 F 
HETATM   10  F11 UNL     1     -34.175   9.110   6.235  1.00 20.00    -0.171 F 
ENDBRANCH   6   7
ENDBRANCH   1   6
BRANCH   1  11
HETATM   11  O8  UNL     1     -35.510   4.959   5.107  1.00 20.00    -0.395 OA
HETATM   12  H22 UNL     1     -36.363   5.402   4.980  1.00 20.00     0.210 HD
ENDBRANCH   1  11
TORSDOF 5
ENDMDL
MODEL 6
REMARK VINA RESULT:      -4.1      2.499      3.596
REMARK  5 active torsions:
REMARK  status: ('A' for Active; 'I' for Inactive)
REMARK    1  A    between atoms: C2_2  and  C4_4 
REMARK    2  A    between atoms: C4_4  and  C6_6 
REMARK    3  A    between atoms: C5_5  and  C6_6 
REMARK    4  A    between atoms: C5_5  and  C7_7 
REMARK    5  A    between atoms: C6_6  and  O8_8 
ROOT
HETATM    1  C6  UNL     1     -32.686   6.753   3.551  1.00 20.00     0.130 C 
ENDROOT
BRANCH   1   2
HETATM    2  C4  UNL     1     -33.573   5.501   3.478  1.00 20.00     0.065 C 
BRANCH   2   3
HETATM    3  C2  UNL     1     -34.689   5.499   4.499  1.00 20.00    -0.091 C 
HETATM    4  C1  UNL     1     -35.898   6.011   4.220  1.00 20.00     0.014 C 
HETATM    5  C3  UNL     1     -34.374   4.937   5.857  1.00 20.00     0.042 C 
ENDBRANCH   2   3
ENDBRANCH   1   2
BRANCH   1   6
HETATM    6  C5  UNL     1     -33.513   7.975   3.971  1.00 20.00     0.149 C 
BRANCH   6   7
HETATM    7  C7  UNL     1     -33.119   8.521   5.330  1.00 20.00     0.390 C 
HETATM    8  F9  UNL     1     -34.163   9.099   5.960  1.00 20.00    -0.171 F 
HETATM    9  F10 UNL     1     -32.666   7.525   6.123  1.00 20.00    -0.171 F 
HETATM   10  F11 UNL     1     -32.134   9.438   5.223  1.00 20.00    -0.171 F 
ENDBRANCH   6   7
ENDBRANCH   1   6
BRANCH   1  11
HETATM   11  O8  UNL     1     -32.125   6.976   2.258  1.00 20.00    -0.395 OA
HETATM   12  H22 UNL     1     -31.417   7.628   2.375  1.00 20.00     0.210 HD
ENDBRANCH   1  11
TORSDOF 5
ENDMDL
MODEL 7
REMARK VINA RESULT:      -4.1      8.930     10.144
REMARK  5 active torsions:
REMARK  status: ('A' for Active; 'I' for Inactive)
REMARK    1  A    between atoms: C2_2  and  C4_4 
REMARK    2  A    between atoms: C4_4  and  C6_6 
REMARK    3  A    between atoms: C5_5  and  C6_6 
REMARK    4  A    between atoms: C5_5  and  C7_7 
REMARK    5  A    between atoms: C6_6  and  O8_8 
ROOT
HETATM    1  C6  UNL     1     -40.761  12.962   6.411  1.00 20.00     0.130 C 
ENDROOT
BRANCH   1   2
HETATM    2  C4  UNL     1     -41.385  14.338   6.690  1.00 20.00     0.065 C 
BRANCH   2   3
HETATM    3  C2  UNL     1     -40.701  15.089   7.811  1.00 20.00    -0.091 C 
HETATM    4  C1  UNL     1     -40.241  14.456   8.902  1.00 20.00     0.014 C 
HETATM    5  C3  UNL     1     -40.595  16.581   7.671  1.00 20.00     0.042 C 
ENDBRANCH   2   3
ENDBRANCH   1   2
BRANCH   1   6
HETATM    6  C5  UNL     1     -40.430  12.814   4.920  1.00 20.00     0.149 C 
BRANCH   6   7
HETATM    7  C7  UNL     1     -39.255  11.890   4.661  1.00 20.00     0.390 C 
HETATM    8  F9  UNL     1     -38.188  12.213   5.420  1.00 20.00    -0.171 F 
HETATM    9  F10 UNL     1     -39.590  10.613   4.949  1.00 20.00    -0.171 F 
HETATM   10  F11 UNL     1     -38.876  11.931   3.366  1.00 20.00    -0.171 F 
ENDBRANCH   6   7
ENDBRANCH   1   6
BRANCH   1  11
HETATM   11  O8  UNL     1     -41.702  11.960   6.795  1.00 20.00    -0.395 OA
HETATM   12  H22 UNL     1     -41.524  11.188   6.236  1.00 20.00     0.210 HD
ENDBRANCH   1  11
TORSDOF 5
ENDMDL
MODEL 8
REMARK VINA RESULT:      -4.1      2.399      3.836
REMARK  5 active torsions:
REMARK  status: ('A' for Active; 'I' for Inactive)
REMARK    1  A    between atoms: C2_2  and  C4_4 
REMARK    2  A    between atoms: C4_4  and  C6_6 
REMARK    3  A    between atoms: C5_5  and  C6_6 
REMARK    4  A    between atoms: C5_5  and  C7_7 
REMARK    5  A    between atoms: C6_6  and  O8_8 
ROOT
HETATM    1  C6  UNL     1     -33.861   8.185   5.349  1.00 20.00     0.130 C 
ENDROOT
BRANCH   1   2
HETATM    2  C4  UNL     1     -34.164   7.046   6.334  1.00 20.00     0.065 C 
BRANCH   2   3
HETATM    3  C2  UNL     1     -34.640   5.780   5.654  1.00 20.00    -0.091 C 
HETATM    4  C1  UNL     1     -34.227   4.568   6.059  1.00 20.00     0.014 C 
HETATM    5  C3  UNL     1     -35.561   5.940   4.478  1.00 20.00     0.042 C 
ENDBRANCH   2   3
ENDBRANCH   1   2
BRANCH   1   6
HETATM    6  C5  UNL     1     -32.383   8.162   4.938  1.00 20.00     0.149 C 
BRANCH   6   7
HETATM    7  C7  UNL     1     -32.178   7.821   3.475  1.00 20.00     0.390 C 
HETATM    8  F9  UNL     1     -30.870   7.693   3.168  1.00 20.00    -0.171 F 
HETATM    9  F10 UNL     1     -32.784   6.650   3.176  1.00 20.00    -0.171 F 
HETATM   10  F11 UNL     1     -32.706   8.769   2.671  1.00 20.00    -0.171 F 
ENDBRANCH   6   7
ENDBRANCH   1   6
BRANCH   1  11
HETATM   11  O8  UNL     1     -34.158   9.422   5.996  1.00 20.00    -0.395 OA
HETATM   12  H22 UNL     1     -33.783  10.121   5.437  1.00 20.00     0.210 HD
ENDBRANCH   1  11
TORSDOF 5
ENDMDL
MODEL 9
REMARK VINA RESULT:      -4.0      2.796      4.289
REMARK  5 active torsions:
REMARK  status: ('A' for Active; 'I' for Inactive)
REMARK    1  A    between atoms: C2_2  and  C4_4 
REMARK    2  A    between atoms: C4_4  and  C6_6 
REMARK    3  A    between atoms: C5_5  and  C6_6 
REMARK    4  A    between atoms: C5_5  and  C7_7 
REMARK    5  A    between atoms: C6_6  and  O8_8 
ROOT
HETATM    1  C6  UNL     1     -32.922   6.072   3.566  1.00 20.00     0.130 C 
ENDROOT
BRANCH   1   2
HETATM    2  C4  UNL     1     -34.323   6.204   4.182  1.00 20.00     0.065 C 
BRANCH   2   3
HETATM    3  C2  UNL     1     -34.348   5.945   5.672  1.00 20.00    -0.091 C 
HETATM    4  C1  UNL     1     -34.529   4.711   6.168  1.00 20.00     0.014 C 
HETATM    5  C3  UNL     1     -34.203   7.137   6.576  1.00 20.00     0.042 C 
ENDBRANCH   2   3
ENDBRANCH   1   2
BRANCH   1   6
HETATM    6  C5  UNL     1     -32.538   7.357   2.819  1.00 20.00     0.149 C 
BRANCH   6   7
HETATM    7  C7  UNL     1     -32.629   8.598   3.687  1.00 20.00     0.390 C 
HETATM    8  F9  UNL     1     -33.886   8.808   4.130  1.00 20.00    -0.171 F 
HETATM    9  F10 UNL     1     -31.830   8.473   4.769  1.00 20.00    -0.171 F 
HETATM   10  F11 UNL     1     -32.233   9.698   3.011  1.00 20.00    -0.171 F 
ENDBRANCH   6   7
ENDBRANCH   1   6
BRANCH   1  11
HETATM   11  O8  UNL     1     -32.939   4.975   2.653  1.00 20.00    -0.395 OA
HETATM   12  H22 UNL     1     -32.069   4.961   2.225  1.00 20.00     0.210 HD
ENDBRANCH   1  11
TORSDOF 5
ENDMDL
