MODEL 1
REMARK VINA RESULT:      -4.2      0.000      0.000
REMARK  4 active torsions:
REMARK  status: ('A' for Active; 'I' for Inactive)
REMARK    1  A    between atoms: C6_6  and  C7_7 
REMARK    2  A    between atoms: C7_7  and  C9_9 
REMARK    3  A    between atoms: C8_8  and  C9_9 
REMARK    4  A    between atoms: C8_8  and  C10_10 
ROOT
HETATM    1  C1  UNL     1     -33.610   5.440   3.637  1.00 20.00     0.068 C 
HETATM    2  C4  UNL     1     -35.940   6.029   4.199  1.00 20.00     0.031 C 
HETATM    3  C5  UNL     1     -34.317   5.339   5.968  1.00 20.00     0.031 C 
HETATM    4  C10 UNL     1     -34.470   6.111   4.639  1.00 20.00     0.042 C 
HETATM    5  N11 UNL     1     -32.934   4.906   2.859  1.00 20.00    -0.196 NA
ENDROOT
BRANCH   4   6
HETATM    6  C8  UNL     1     -34.013   7.579   4.876  1.00 20.00     0.028 C 
BRANCH   6   7
HETATM    7  C9  UNL     1     -32.698   8.067   4.213  1.00 20.00    -0.017 C 
HETATM    8  C3  UNL     1     -31.898   9.027   5.100  1.00 20.00     0.010 C 
BRANCH   7   9
HETATM    9  C7  UNL     1     -32.977   8.775   2.864  1.00 20.00     0.004 C 
BRANCH   9  10
HETATM   10  C6  UNL     1     -32.179   8.210   1.685  1.00 20.00    -0.004 C 
HETATM   11  C2  UNL     1     -32.537   8.916   0.386  1.00 20.00     0.005 C 
ENDBRANCH   9  10
ENDBRANCH   7   9
ENDBRANCH   6   7
ENDBRANCH   4   6
TORSDOF 4
ENDMDL
MODEL 2
REMARK VINA RESULT:      -4.1     11.161     12.311
REMARK  4 active torsions:
REMARK  status: ('A' for Active; 'I' for Inactive)
REMARK    1  A    between atoms: C6_6  and  C7_7 
REMARK    2  A    between atoms: C7_7  and  C9_9 
REMARK    3  A    between atoms: C8_8  and  C9_9 
REMARK    4  A    between atoms: C8_8  and  C10_10 
ROOT
HETATM    1  C1  UNL     1     -35.313  14.126  -4.744  1.00 20.00     0.068 C 
HETATM    2  C4  UNL     1     -34.081  15.225  -6.578  1.00 20.00     0.031 C 
HETATM    3  C5  UNL     1     -35.778  16.468  -5.232  1.00 20.00     0.031 C 
HETATM    4  C10 UNL     1     -34.673  15.392  -5.170  1.00 20.00     0.042 C 
HETATM    5  N11 UNL     1     -35.824  13.138  -4.410  1.00 20.00    -0.196 NA
ENDROOT
BRANCH   4   6
HETATM    6  C8  UNL     1     -33.603  15.853  -4.140  1.00 20.00     0.028 C 
BRANCH   6   7
HETATM    7  C9  UNL     1     -33.868  17.138  -3.313  1.00 20.00    -0.017 C 
HETATM    8  C3  UNL     1     -33.188  18.380  -3.898  1.00 20.00     0.010 C 
BRANCH   7   9
HETATM    9  C7  UNL     1     -33.394  16.973  -1.848  1.00 20.00     0.004 C 
BRANCH   9  10
HETATM   10  C6  UNL     1     -33.153  18.296  -1.116  1.00 20.00    -0.004 C 
HETATM   11  C2  UNL     1     -31.736  18.377  -0.570  1.00 20.00     0.005 C 
ENDBRANCH   9  10
ENDBRANCH   7   9
ENDBRANCH   6   7
ENDBRANCH   4   6
TORSDOF 4
ENDMDL
MODEL 3
REMARK VINA RESULT:      -4.0     11.505     12.588
REMARK  4 active torsions:
REMARK  status: ('A' for Active; 'I' for Inactive)
REMARK    1  A    between atoms: C6_6  and  C7_7 
REMARK    2  A    between atoms: C7_7  and  C9_9 
REMARK    3  A    between atoms: C8_8  and  C9_9 
REMARK    4  A    between atoms: C8_8  and  C10_10 
ROOT
HETATM    1  C1  UNL     1     -34.150  15.251  -6.541  1.00 20.00     0.068 C 
HETATM    2  C4  UNL     1     -35.893  16.478  -5.297  1.00 20.00     0.031 C 
HETATM    3  C5  UNL     1     -35.354  14.099  -4.762  1.00 20.00     0.031 C 
HETATM    4  C10 UNL     1     -34.754  15.451  -5.203  1.00 20.00     0.042 C 
HETATM    5  N11 UNL     1     -33.681  15.084  -7.590  1.00 20.00    -0.196 NA
ENDROOT
BRANCH   4   6
HETATM    6  C8  UNL     1     -33.678  15.868  -4.160  1.00 20.00     0.028 C 
BRANCH   6   7
HETATM    7  C9  UNL     1     -33.911  17.151  -3.320  1.00 20.00    -0.017 C 
HETATM    8  C3  UNL     1     -33.236  18.391  -3.915  1.00 20.00     0.010 C 
BRANCH   7   9
HETATM    9  C7  UNL     1     -33.400  16.973  -1.869  1.00 20.00     0.004 C 
BRANCH   9  10
HETATM   10  C6  UNL     1     -33.157  18.290  -1.126  1.00 20.00    -0.004 C 
HETATM   11  C2  UNL     1     -31.738  18.365  -0.584  1.00 20.00     0.005 C 
ENDBRANCH   9  10
ENDBRANCH   7   9
ENDBRANCH   6   7
ENDBRANCH   4   6
TORSDOF 4
ENDMDL
MODEL 4
REMARK VINA RESULT:      -3.9      1.372      1.902
REMARK  4 active torsions:
REMARK  status: ('A' for Active; 'I' for Inactive)
REMARK    1  A    between atoms: C6_6  and  C7_7 
REMARK    2  A    between atoms: C7_7  and  C9_9 
REMARK    3  A    between atoms: C8_8  and  C9_9 
REMARK    4  A    between atoms: C8_8  and  C10_10 
ROOT
HETATM    1  C1  UNL     1     -34.291   5.546   5.828  1.00 20.00     0.068 C 
HETATM    2  C4  UNL     1     -33.651   5.193   3.471  1.00 20.00     0.031 C 
HETATM    3  C5  UNL     1     -35.933   6.002   4.084  1.00 20.00     0.031 C 
HETATM    4  C10 UNL     1     -34.435   6.077   4.453  1.00 20.00     0.042 C 
HETATM    5  N11 UNL     1     -34.189   5.126   6.906  1.00 20.00    -0.196 NA
ENDROOT
BRANCH   4   6
HETATM    6  C8  UNL     1     -33.991   7.566   4.379  1.00 20.00     0.028 C 
BRANCH   6   7
HETATM    7  C9  UNL     1     -32.491   7.887   4.150  1.00 20.00    -0.017 C 
HETATM    8  C3  UNL     1     -32.028   9.153   4.880  1.00 20.00     0.010 C 
BRANCH   7   9
HETATM    9  C7  UNL     1     -32.175   8.056   2.643  1.00 20.00     0.004 C 
BRANCH   9  10
HETATM   10  C6  UNL     1     -32.850   9.268   1.995  1.00 20.00    -0.004 C 
HETATM   11  C2  UNL     1     -32.664   9.264   0.486  1.00 20.00     0.005 C 
ENDBRANCH   9  10
ENDBRANCH   7   9
ENDBRANCH   6   7
ENDBRANCH   4   6
TORSDOF 4
ENDMDL
MODEL 5
REMARK VINA RESULT:      -3.8     10.266     11.195
REMARK  4 active torsions:
REMARK  status: ('A' for Active; 'I' for Inactive)
REMARK    1  A    between atoms: C6_6  and  C7_7 
REMARK    2  A    between atoms: C7_7  and  C9_9 
REMARK    3  A    between atoms: C8_8  and  C9_9 
REMARK    4  A    between atoms: C8_8  and  C10_10 
ROOT
HETATM    1  C1  UNL     1     -41.168  14.313   9.605  1.00 20.00     0.068 C 
HETATM    2  C4  UNL     1     -42.690  15.949   8.556  1.00 20.00     0.031 C 
HETATM    3  C5  UNL     1     -40.333  15.689   7.774  1.00 20.00     0.031 C 
HETATM    4  C10 UNL     1     -41.563  14.932   8.318  1.00 20.00     0.042 C 
HETATM    5  N11 UNL     1     -40.849  13.833  10.613  1.00 20.00    -0.196 NA
ENDROOT
BRANCH   4   6
HETATM    6  C8  UNL     1     -41.966  13.849   7.277  1.00 20.00     0.028 C 
BRANCH   6   7
HETATM    7  C9  UNL     1     -41.076  13.652   6.022  1.00 20.00    -0.017 C 
HETATM    8  C3  UNL     1     -41.805  13.973   4.712  1.00 20.00     0.010 C 
BRANCH   7   9
HETATM    9  C7  UNL     1     -40.540  12.202   5.934  1.00 20.00     0.004 C 
BRANCH   9  10
HETATM   10  C6  UNL     1     -39.072  12.104   5.507  1.00 20.00    -0.004 C 
HETATM   11  C2  UNL     1     -38.945  11.660   4.058  1.00 20.00     0.005 C 
ENDBRANCH   9  10
ENDBRANCH   7   9
ENDBRANCH   6   7
ENDBRANCH   4   6
TORSDOF 4
ENDMDL
MODEL 6
REMARK VINA RESULT:      -3.7     10.429     11.366
REMARK  4 active torsions:
REMARK  status: ('A' for Active; 'I' for Inactive)
REMARK    1  A    between atoms: C6_6  and  C7_7 
REMARK    2  A    between atoms: C7_7  and  C9_9 
REMARK    3  A    between atoms: C8_8  and  C9_9 
REMARK    4  A    between atoms: C8_8  and  C10_10 
ROOT
HETATM    1  C1  UNL     1     -40.936  16.307   7.760  1.00 20.00     0.068 C 
HETATM    2  C4  UNL     1     -40.200  14.430   9.182  1.00 20.00     0.031 C 
HETATM    3  C5  UNL     1     -42.500  15.381   9.384  1.00 20.00     0.031 C 
HETATM    4  C10 UNL     1     -41.368  15.039   8.391  1.00 20.00     0.042 C 
HETATM    5  N11 UNL     1     -40.604  17.308   7.272  1.00 20.00    -0.196 NA
ENDROOT
BRANCH   4   6
HETATM    6  C8  UNL     1     -41.933  14.051   7.332  1.00 20.00     0.028 C 
BRANCH   6   7
HETATM    7  C9  UNL     1     -41.093  13.759   6.061  1.00 20.00    -0.017 C 
HETATM    8  C3  UNL     1     -41.843  14.068   4.760  1.00 20.00     0.010 C 
BRANCH   7   9
HETATM    9  C7  UNL     1     -40.637  12.279   6.015  1.00 20.00     0.004 C 
BRANCH   9  10
HETATM   10  C6  UNL     1     -39.167  12.090   5.628  1.00 20.00    -0.004 C 
HETATM   11  C2  UNL     1     -39.028  11.657   4.177  1.00 20.00     0.005 C 
ENDBRANCH   9  10
ENDBRANCH   7   9
ENDBRANCH   6   7
ENDBRANCH   4   6
TORSDOF 4
ENDMDL
MODEL 7
REMARK VINA RESULT:      -3.7     11.622     12.864
REMARK  4 active torsions:
REMARK  status: ('A' for Active; 'I' for Inactive)
REMARK    1  A    between atoms: C6_6  and  C7_7 
REMARK    2  A    between atoms: C7_7  and  C9_9 
REMARK    3  A    between atoms: C8_8  and  C9_9 
REMARK    4  A    between atoms: C8_8  and  C10_10 
ROOT
HETATM    1  C1  UNL     1     -33.315  17.087  -3.360  1.00 20.00     0.068 C 
HETATM    2  C4  UNL     1     -33.047  19.250  -4.517  1.00 20.00     0.031 C 
HETATM    3  C5  UNL     1     -35.016  18.804  -3.047  1.00 20.00     0.031 C 
HETATM    4  C10 UNL     1     -33.504  18.550  -3.228  1.00 20.00     0.042 C 
HETATM    5  N11 UNL     1     -33.177  15.938  -3.464  1.00 20.00    -0.196 NA
ENDROOT
BRANCH   4   6
HETATM    6  C8  UNL     1     -32.766  19.098  -1.974  1.00 20.00     0.028 C 
BRANCH   6   7
HETATM    7  C9  UNL     1     -32.512  18.142  -0.779  1.00 20.00    -0.017 C 
HETATM    8  C3  UNL     1     -33.699  18.055   0.185  1.00 20.00     0.010 C 
BRANCH   7   9
HETATM    9  C7  UNL     1     -31.263  18.571   0.030  1.00 20.00     0.004 C 
BRANCH   9  10
HETATM   10  C6  UNL     1     -31.458  18.530   1.548  1.00 20.00    -0.004 C 
HETATM   11  C2  UNL     1     -30.128  18.625   2.279  1.00 20.00     0.005 C 
ENDBRANCH   9  10
ENDBRANCH   7   9
ENDBRANCH   6   7
ENDBRANCH   4   6
TORSDOF 4
ENDMDL
MODEL 8
REMARK VINA RESULT:      -3.7     11.440     12.854
REMARK  4 active torsions:
REMARK  status: ('A' for Active; 'I' for Inactive)
REMARK    1  A    between atoms: C6_6  and  C7_7 
REMARK    2  A    between atoms: C7_7  and  C9_9 
REMARK    3  A    between atoms: C8_8  and  C9_9 
REMARK    4  A    between atoms: C8_8  and  C10_10 
ROOT
HETATM    1  C1  UNL     1     -35.915  15.124  -5.448  1.00 20.00     0.068 C 
HETATM    2  C4  UNL     1     -33.691  14.686  -4.474  1.00 20.00     0.031 C 
HETATM    3  C5  UNL     1     -33.958  15.223  -6.898  1.00 20.00     0.031 C 
HETATM    4  C10 UNL     1     -34.491  15.527  -5.481  1.00 20.00     0.042 C 
HETATM    5  N11 UNL     1     -37.032  14.803  -5.433  1.00 20.00    -0.196 NA
ENDROOT
BRANCH   4   6
HETATM    6  C8  UNL     1     -34.335  17.052  -5.220  1.00 20.00     0.028 C 
BRANCH   6   7
HETATM    7  C9  UNL     1     -34.707  17.613  -3.823  1.00 20.00    -0.017 C 
HETATM    8  C3  UNL     1     -35.757  18.727  -3.882  1.00 20.00     0.010 C 
BRANCH   7   9
HETATM    9  C7  UNL     1     -33.461  18.162  -3.086  1.00 20.00     0.004 C 
BRANCH   9  10
HETATM   10  C6  UNL     1     -33.034  17.329  -1.874  1.00 20.00    -0.004 C 
HETATM   11  C2  UNL     1     -33.751  17.782  -0.611  1.00 20.00     0.005 C 
ENDBRANCH   9  10
ENDBRANCH   7   9
ENDBRANCH   6   7
ENDBRANCH   4   6
TORSDOF 4
ENDMDL
MODEL 9
REMARK VINA RESULT:      -3.6     11.547     13.338
REMARK  4 active torsions:
REMARK  status: ('A' for Active; 'I' for Inactive)
REMARK    1  A    between atoms: C6_6  and  C7_7 
REMARK    2  A    between atoms: C7_7  and  C9_9 
REMARK    3  A    between atoms: C8_8  and  C9_9 
REMARK    4  A    between atoms: C8_8  and  C10_10 
ROOT
HETATM    1  C1  UNL     1     -35.785  15.491  -6.567  1.00 20.00     0.068 C 
HETATM    2  C4  UNL     1     -34.512  17.544  -7.068  1.00 20.00     0.031 C 
HETATM    3  C5  UNL     1     -36.907  17.646  -6.370  1.00 20.00     0.031 C 
HETATM    4  C10 UNL     1     -35.572  16.899  -6.162  1.00 20.00     0.042 C 
HETATM    5  N11 UNL     1     -35.963  14.389  -6.888  1.00 20.00    -0.196 NA
ENDROOT
BRANCH   4   6
HETATM    6  C8  UNL     1     -35.190  16.997  -4.657  1.00 20.00     0.028 C 
BRANCH   6   7
HETATM    7  C9  UNL     1     -33.697  16.867  -4.256  1.00 20.00    -0.017 C 
HETATM    8  C3  UNL     1     -33.283  15.425  -3.942  1.00 20.00     0.010 C 
BRANCH   7   9
HETATM    9  C7  UNL     1     -33.368  17.743  -3.023  1.00 20.00     0.004 C 
BRANCH   9  10
HETATM   10  C6  UNL     1     -33.590  17.042  -1.680  1.00 20.00    -0.004 C 
HETATM   11  C2  UNL     1     -33.464  18.016  -0.519  1.00 20.00     0.005 C 
ENDBRANCH   9  10
ENDBRANCH   7   9
ENDBRANCH   6   7
ENDBRANCH   4   6
TORSDOF 4
ENDMDL
