MODEL 1
REMARK VINA RESULT:      -4.0      0.000      0.000
REMARK  4 active torsions:
REMARK  status: ('A' for Active; 'I' for Inactive)
REMARK    1  A    between atoms: C6_6  and  C7_7 
REMARK    2  A    between atoms: C7_7  and  C9_9 
REMARK    3  A    between atoms: C8_8  and  C9_9 
REMARK    4  A    between atoms: C8_8  and  C10_10 
ROOT
HETATM    1  C1  UNL     1     -35.224  14.089  -4.685  1.00 20.00     0.068 C 
HETATM    2  C4  UNL     1     -32.792  14.458  -4.489  1.00 20.00     0.031 C 
HETATM    3  C5  UNL     1     -34.061  15.241  -6.492  1.00 20.00     0.031 C 
HETATM    4  C10 UNL     1     -34.129  15.047  -4.961  1.00 20.00     0.042 C 
HETATM    5  N11 UNL     1     -36.083  13.336  -4.479  1.00 20.00    -0.196 NA
ENDROOT
BRANCH   4   6
HETATM    6  C8  UNL     1     -34.419  16.431  -4.310  1.00 20.00     0.028 C 
BRANCH   6   7
HETATM    7  C9  UNL     1     -33.311  17.100  -3.456  1.00 20.00    -0.017 C 
HETATM    8  C3  UNL     1     -33.159  18.599  -3.734  1.00 20.00     0.010 C 
BRANCH   7   9
HETATM    9  C7  UNL     1     -33.584  16.914  -1.943  1.00 20.00     0.004 C 
BRANCH   9  10
HETATM   10  C6  UNL     1     -32.933  17.978  -1.054  1.00 20.00    -0.004 C 
HETATM   11  C2  UNL     1     -33.684  18.139   0.259  1.00 20.00     0.005 C 
ENDBRANCH   9  10
ENDBRANCH   7   9
ENDBRANCH   6   7
ENDBRANCH   4   6
TORSDOF 4
ENDMDL
MODEL 2
REMARK VINA RESULT:      -3.9      1.632      2.184
REMARK  4 active torsions:
REMARK  status: ('A' for Active; 'I' for Inactive)
REMARK    1  A    between atoms: C6_6  and  C7_7 
REMARK    2  A    between atoms: C7_7  and  C9_9 
REMARK    3  A    between atoms: C8_8  and  C9_9 
REMARK    4  A    between atoms: C8_8  and  C10_10 
ROOT
HETATM    1  C1  UNL     1     -34.074  15.190  -6.676  1.00 20.00     0.068 C 
HETATM    2  C4  UNL     1     -35.826  14.288  -5.192  1.00 20.00     0.031 C 
HETATM    3  C5  UNL     1     -33.519  14.732  -4.347  1.00 20.00     0.031 C 
HETATM    4  C10 UNL     1     -34.624  15.236  -5.302  1.00 20.00     0.042 C 
HETATM    5  N11 UNL     1     -33.635  15.149  -7.750  1.00 20.00    -0.196 NA
ENDROOT
BRANCH   4   6
HETATM    6  C8  UNL     1     -34.990  16.692  -4.893  1.00 20.00     0.028 C 
BRANCH   6   7
HETATM    7  C9  UNL     1     -33.929  17.549  -4.154  1.00 20.00    -0.017 C 
HETATM    8  C3  UNL     1     -33.588  18.850  -4.888  1.00 20.00     0.010 C 
BRANCH   7   9
HETATM    9  C7  UNL     1     -34.400  17.909  -2.723  1.00 20.00     0.004 C 
BRANCH   9  10
HETATM   10  C6  UNL     1     -33.599  17.225  -1.611  1.00 20.00    -0.004 C 
HETATM   11  C2  UNL     1     -32.408  18.071  -1.186  1.00 20.00     0.005 C 
ENDBRANCH   9  10
ENDBRANCH   7   9
ENDBRANCH   6   7
ENDBRANCH   4   6
TORSDOF 4
ENDMDL
MODEL 3
REMARK VINA RESULT:      -3.9     11.441     13.817
REMARK  4 active torsions:
REMARK  status: ('A' for Active; 'I' for Inactive)
REMARK    1  A    between atoms: C6_6  and  C7_7 
REMARK    2  A    between atoms: C7_7  and  C9_9 
REMARK    3  A    between atoms: C8_8  and  C9_9 
REMARK    4  A    between atoms: C8_8  and  C10_10 
ROOT
HETATM    1  C1  UNL     1     -42.090  13.894   9.072  1.00 20.00     0.068 C 
HETATM    2  C4  UNL     1     -42.092  16.190   8.165  1.00 20.00     0.031 C 
HETATM    3  C5  UNL     1     -40.120  15.291   9.405  1.00 20.00     0.031 C 
HETATM    4  C10 UNL     1     -41.254  14.929   8.421  1.00 20.00     0.042 C 
HETATM    5  N11 UNL     1     -42.740  13.085   9.591  1.00 20.00    -0.196 NA
ENDROOT
BRANCH   4   6
HETATM    6  C8  UNL     1     -40.605  14.385   7.114  1.00 20.00     0.028 C 
BRANCH   6   7
HETATM    7  C9  UNL     1     -41.414  13.396   6.236  1.00 20.00    -0.017 C 
HETATM    8  C3  UNL     1     -41.782  13.971   4.864  1.00 20.00     0.010 C 
BRANCH   7   9
HETATM    9  C7  UNL     1     -40.632  12.078   6.014  1.00 20.00     0.004 C 
BRANCH   9  10
HETATM   10  C6  UNL     1     -39.186  12.279   5.551  1.00 20.00    -0.004 C 
HETATM   11  C2  UNL     1     -38.955  11.671   4.175  1.00 20.00     0.005 C 
ENDBRANCH   9  10
ENDBRANCH   7   9
ENDBRANCH   6   7
ENDBRANCH   4   6
TORSDOF 4
ENDMDL
MODEL 4
REMARK VINA RESULT:      -3.8      2.794      5.288
REMARK  4 active torsions:
REMARK  status: ('A' for Active; 'I' for Inactive)
REMARK    1  A    between atoms: C6_6  and  C7_7 
REMARK    2  A    between atoms: C7_7  and  C9_9 
REMARK    3  A    between atoms: C8_8  and  C9_9 
REMARK    4  A    between atoms: C8_8  and  C10_10 
ROOT
HETATM    1  C1  UNL     1     -31.796  18.428  -0.962  1.00 20.00     0.068 C 
HETATM    2  C4  UNL     1     -34.204  18.971  -0.954  1.00 20.00     0.031 C 
HETATM    3  C5  UNL     1     -32.825  19.236  -3.018  1.00 20.00     0.031 C 
HETATM    4  C10 UNL     1     -33.043  18.370  -1.759  1.00 20.00     0.042 C 
HETATM    5  N11 UNL     1     -30.816  18.482  -0.343  1.00 20.00    -0.196 NA
ENDROOT
BRANCH   4   6
HETATM    6  C8  UNL     1     -33.345  16.914  -2.219  1.00 20.00     0.028 C 
BRANCH   6   7
HETATM    7  C9  UNL     1     -33.378  16.603  -3.738  1.00 20.00    -0.017 C 
HETATM    8  C3  UNL     1     -32.992  15.158  -4.066  1.00 20.00     0.010 C 
BRANCH   7   9
HETATM    9  C7  UNL     1     -34.782  16.876  -4.333  1.00 20.00     0.004 C 
BRANCH   9  10
HETATM   10  C6  UNL     1     -34.981  16.318  -5.746  1.00 20.00    -0.004 C 
HETATM   11  C2  UNL     1     -36.241  15.470  -5.834  1.00 20.00     0.005 C 
ENDBRANCH   9  10
ENDBRANCH   7   9
ENDBRANCH   6   7
ENDBRANCH   4   6
TORSDOF 4
ENDMDL
MODEL 5
REMARK VINA RESULT:      -3.8     11.099     13.483
REMARK  4 active torsions:
REMARK  status: ('A' for Active; 'I' for Inactive)
REMARK    1  A    between atoms: C6_6  and  C7_7 
REMARK    2  A    between atoms: C7_7  and  C9_9 
REMARK    3  A    between atoms: C8_8  and  C9_9 
REMARK    4  A    between atoms: C8_8  and  C10_10 
ROOT
HETATM    1  C1  UNL     1     -40.779  16.795   7.871  1.00 20.00     0.068 C 
HETATM    2  C4  UNL     1     -40.127  15.068   9.509  1.00 20.00     0.031 C 
HETATM    3  C5  UNL     1     -42.372  15.033   8.418  1.00 20.00     0.031 C 
HETATM    4  C10 UNL     1     -40.877  15.355   8.201  1.00 20.00     0.042 C 
HETATM    5  N11 UNL     1     -40.712  17.925   7.616  1.00 20.00    -0.196 NA
ENDROOT
BRANCH   4   6
HETATM    6  C8  UNL     1     -40.359  14.475   7.026  1.00 20.00     0.028 C 
BRANCH   6   7
HETATM    7  C9  UNL     1     -41.354  13.526   6.309  1.00 20.00    -0.017 C 
HETATM    8  C3  UNL     1     -41.847  14.073   4.966  1.00 20.00     0.010 C 
BRANCH   7   9
HETATM    9  C7  UNL     1     -40.719  12.135   6.061  1.00 20.00     0.004 C 
BRANCH   9  10
HETATM   10  C6  UNL     1     -39.243  12.185   5.653  1.00 20.00    -0.004 C 
HETATM   11  C2  UNL     1     -39.044  11.678   4.233  1.00 20.00     0.005 C 
ENDBRANCH   9  10
ENDBRANCH   7   9
ENDBRANCH   6   7
ENDBRANCH   4   6
TORSDOF 4
ENDMDL
MODEL 6
REMARK VINA RESULT:      -3.7     11.306     13.585
REMARK  4 active torsions:
REMARK  status: ('A' for Active; 'I' for Inactive)
REMARK    1  A    between atoms: C6_6  and  C7_7 
REMARK    2  A    between atoms: C7_7  and  C9_9 
REMARK    3  A    between atoms: C8_8  and  C9_9 
REMARK    4  A    between atoms: C8_8  and  C10_10 
ROOT
HETATM    1  C1  UNL     1     -40.395  15.323   9.338  1.00 20.00     0.068 C 
HETATM    2  C4  UNL     1     -42.544  15.388   8.126  1.00 20.00     0.031 C 
HETATM    3  C5  UNL     1     -40.683  16.948   7.544  1.00 20.00     0.031 C 
HETATM    4  C10 UNL     1     -41.018  15.513   8.008  1.00 20.00     0.042 C 
HETATM    5  N11 UNL     1     -39.905  15.184  10.381  1.00 20.00    -0.196 NA
ENDROOT
BRANCH   4   6
HETATM    6  C8  UNL     1     -40.430  14.518   6.966  1.00 20.00     0.028 C 
BRANCH   6   7
HETATM    7  C9  UNL     1     -41.392  13.541   6.242  1.00 20.00    -0.017 C 
HETATM    8  C3  UNL     1     -41.839  14.045   4.867  1.00 20.00     0.010 C 
BRANCH   7   9
HETATM    9  C7  UNL     1     -40.739  12.148   6.058  1.00 20.00     0.004 C 
BRANCH   9  10
HETATM   10  C6  UNL     1     -39.259  12.198   5.666  1.00 20.00    -0.004 C 
HETATM   11  C2  UNL     1     -39.044  11.692   4.248  1.00 20.00     0.005 C 
ENDBRANCH   9  10
ENDBRANCH   7   9
ENDBRANCH   6   7
ENDBRANCH   4   6
TORSDOF 4
ENDMDL
MODEL 7
REMARK VINA RESULT:      -3.7     11.170     12.402
REMARK  4 active torsions:
REMARK  status: ('A' for Active; 'I' for Inactive)
REMARK    1  A    between atoms: C6_6  and  C7_7 
REMARK    2  A    between atoms: C7_7  and  C9_9 
REMARK    3  A    between atoms: C8_8  and  C9_9 
REMARK    4  A    between atoms: C8_8  and  C10_10 
ROOT
HETATM    1  C1  UNL     1     -32.819   9.252   2.556  1.00 20.00     0.068 C 
HETATM    2  C4  UNL     1     -31.530   7.442   3.630  1.00 20.00     0.031 C 
HETATM    3  C5  UNL     1     -32.073   9.547   4.858  1.00 20.00     0.031 C 
HETATM    4  C10 UNL     1     -32.600   8.525   3.828  1.00 20.00     0.042 C 
HETATM    5  N11 UNL     1     -32.984   9.830   1.563  1.00 20.00    -0.196 NA
ENDROOT
BRANCH   4   6
HETATM    6  C8  UNL     1     -33.934   7.935   4.371  1.00 20.00     0.028 C 
BRANCH   6   7
HETATM    7  C9  UNL     1     -33.884   6.642   5.226  1.00 20.00    -0.017 C 
HETATM    8  C3  UNL     1     -34.354   6.855   6.669  1.00 20.00     0.010 C 
BRANCH   7   9
HETATM    9  C7  UNL     1     -34.748   5.522   4.596  1.00 20.00     0.004 C 
BRANCH   9  10
HETATM   10  C6  UNL     1     -33.936   4.389   3.959  1.00 20.00    -0.004 C 
HETATM   11  C2  UNL     1     -33.248   4.852   2.683  1.00 20.00     0.005 C 
ENDBRANCH   9  10
ENDBRANCH   7   9
ENDBRANCH   6   7
ENDBRANCH   4   6
TORSDOF 4
ENDMDL
MODEL 8
REMARK VINA RESULT:      -3.6     11.122     12.155
REMARK  4 active torsions:
REMARK  status: ('A' for Active; 'I' for Inactive)
REMARK    1  A    between atoms: C6_6  and  C7_7 
REMARK    2  A    between atoms: C7_7  and  C9_9 
REMARK    3  A    between atoms: C8_8  and  C9_9 
REMARK    4  A    between atoms: C8_8  and  C10_10 
ROOT
HETATM    1  C1  UNL     1     -34.332   6.499   5.991  1.00 20.00     0.068 C 
HETATM    2  C4  UNL     1     -34.213   4.379   4.733  1.00 20.00     0.031 C 
HETATM    3  C5  UNL     1     -35.568   6.303   3.899  1.00 20.00     0.031 C 
HETATM    4  C10 UNL     1     -34.268   5.910   4.633  1.00 20.00     0.042 C 
HETATM    5  N11 UNL     1     -34.392   6.962   7.053  1.00 20.00    -0.196 NA
ENDROOT
BRANCH   4   6
HETATM    6  C8  UNL     1     -33.065   6.486   3.830  1.00 20.00     0.028 C 
BRANCH   6   7
HETATM    7  C9  UNL     1     -32.975   8.019   3.617  1.00 20.00    -0.017 C 
HETATM    8  C3  UNL     1     -32.263   8.745   4.763  1.00 20.00     0.010 C 
BRANCH   7   9
HETATM    9  C7  UNL     1     -32.239   8.358   2.298  1.00 20.00     0.004 C 
BRANCH   9  10
HETATM   10  C6  UNL     1     -32.887   9.489   1.492  1.00 20.00    -0.004 C 
HETATM   11  C2  UNL     1     -32.854   9.195  -0.000  1.00 20.00     0.005 C 
ENDBRANCH   9  10
ENDBRANCH   7   9
ENDBRANCH   6   7
ENDBRANCH   4   6
TORSDOF 4
ENDMDL
MODEL 9
REMARK VINA RESULT:      -3.6      1.895      3.013
REMARK  4 active torsions:
REMARK  status: ('A' for Active; 'I' for Inactive)
REMARK    1  A    between atoms: C6_6  and  C7_7 
REMARK    2  A    between atoms: C7_7  and  C9_9 
REMARK    3  A    between atoms: C8_8  and  C9_9 
REMARK    4  A    between atoms: C8_8  and  C10_10 
ROOT
HETATM    1  C1  UNL     1     -36.812  16.293  -5.411  1.00 20.00     0.068 C 
HETATM    2  C4  UNL     1     -35.995  18.311  -6.574  1.00 20.00     0.031 C 
HETATM    3  C5  UNL     1     -36.274  18.272  -4.093  1.00 20.00     0.031 C 
HETATM    4  C10 UNL     1     -35.868  17.430  -5.322  1.00 20.00     0.042 C 
HETATM    5  N11 UNL     1     -37.559  15.407  -5.473  1.00 20.00    -0.196 NA
ENDROOT
BRANCH   4   6
HETATM    6  C8  UNL     1     -34.409  16.931  -5.106  1.00 20.00     0.028 C 
BRANCH   6   7
HETATM    7  C9  UNL     1     -34.124  15.940  -3.949  1.00 20.00    -0.017 C 
HETATM    8  C3  UNL     1     -33.676  14.558  -4.436  1.00 20.00     0.010 C 
BRANCH   7   9
HETATM    9  C7  UNL     1     -33.036  16.493  -2.995  1.00 20.00     0.004 C 
BRANCH   9  10
HETATM   10  C6  UNL     1     -33.591  17.126  -1.715  1.00 20.00    -0.004 C 
HETATM   11  C2  UNL     1     -32.564  18.039  -1.059  1.00 20.00     0.005 C 
ENDBRANCH   9  10
ENDBRANCH   7   9
ENDBRANCH   6   7
ENDBRANCH   4   6
TORSDOF 4
ENDMDL
