MODEL 1
REMARK VINA RESULT:      -3.9      0.000      0.000
REMARK  3 active torsions:
REMARK  status: ('A' for Active; 'I' for Inactive)
REMARK    1  A    between atoms: C3_3  and  C8_8 
REMARK    2  A    between atoms: C8_8  and  C9_9 
REMARK    3  A    between atoms: C9_9  and  O11_11 
ROOT
HETATM    1  C1  UNL     1     -33.369  16.924  -2.159  1.00 20.00     0.088 C 
HETATM    2  C2  UNL     1     -33.629  16.031  -3.235  1.00 20.00     0.096 C 
HETATM    3  C3  UNL     1     -34.034  16.418  -4.459  1.00 20.00    -0.071 C 
HETATM    4  C4  UNL     1     -34.231  17.855  -4.867  1.00 20.00     0.044 C 
HETATM    5  N10 UNL     1     -33.156  17.645  -1.276  1.00 20.00    -0.192 NA
ENDROOT
BRANCH   3   6
HETATM    6  C8  UNL     1     -34.274  15.377  -5.541  1.00 20.00     0.071 C 
BRANCH   6   7
HETATM    7  C9  UNL     1     -35.711  14.812  -5.638  1.00 20.00     0.056 C 
HETATM    8  C5  UNL     1     -35.860  13.638  -4.661  1.00 20.00     0.046 C 
HETATM    9  C6  UNL     1     -36.783  15.866  -5.352  1.00 20.00     0.046 C 
BRANCH   7  10
HETATM   10  O11 UNL     1     -35.914  14.294  -6.954  1.00 20.00    -0.385 OA
HETATM   11  C7  UNL     1     -35.947  15.335  -7.917  1.00 20.00     0.202 C 
ENDBRANCH   7  10
ENDBRANCH   6   7
ENDBRANCH   3   6
TORSDOF 3
ENDMDL
MODEL 2
REMARK VINA RESULT:      -3.7      1.549      2.117
REMARK  3 active torsions:
REMARK  status: ('A' for Active; 'I' for Inactive)
REMARK    1  A    between atoms: C3_3  and  C8_8 
REMARK    2  A    between atoms: C8_8  and  C9_9 
REMARK    3  A    between atoms: C9_9  and  O11_11 
ROOT
HETATM    1  C1  UNL     1     -33.770  17.803  -0.930  1.00 20.00     0.088 C 
HETATM    2  C2  UNL     1     -33.605  16.744  -1.865  1.00 20.00     0.096 C 
HETATM    3  C3  UNL     1     -33.351  16.923  -3.175  1.00 20.00    -0.071 C 
HETATM    4  C4  UNL     1     -33.169  18.271  -3.823  1.00 20.00     0.044 C 
HETATM    5  N10 UNL     1     -33.907  18.661  -0.162  1.00 20.00    -0.192 NA
ENDROOT
BRANCH   3   6
HETATM    6  C8  UNL     1     -33.183  15.716  -4.085  1.00 20.00     0.071 C 
BRANCH   6   7
HETATM    7  C9  UNL     1     -34.416  15.323  -4.932  1.00 20.00     0.056 C 
HETATM    8  C5  UNL     1     -33.993  15.159  -6.398  1.00 20.00     0.046 C 
HETATM    9  C6  UNL     1     -35.090  14.040  -4.439  1.00 20.00     0.046 C 
BRANCH   7  10
HETATM   10  O11 UNL     1     -35.366  16.389  -4.883  1.00 20.00    -0.385 OA
HETATM   11  C7  UNL     1     -36.539  16.067  -5.612  1.00 20.00     0.202 C 
ENDBRANCH   7  10
ENDBRANCH   6   7
ENDBRANCH   3   6
TORSDOF 3
ENDMDL
MODEL 3
REMARK VINA RESULT:      -3.7      2.961      4.649
REMARK  3 active torsions:
REMARK  status: ('A' for Active; 'I' for Inactive)
REMARK    1  A    between atoms: C3_3  and  C8_8 
REMARK    2  A    between atoms: C8_8  and  C9_9 
REMARK    3  A    between atoms: C9_9  and  O11_11 
ROOT
HETATM    1  C1  UNL     1     -35.273  15.186  -6.807  1.00 20.00     0.088 C 
HETATM    2  C2  UNL     1     -34.384  15.840  -5.911  1.00 20.00     0.096 C 
HETATM    3  C3  UNL     1     -34.094  15.397  -4.673  1.00 20.00    -0.071 C 
HETATM    4  C4  UNL     1     -34.645  14.125  -4.082  1.00 20.00     0.044 C 
HETATM    5  N10 UNL     1     -35.997  14.659  -7.544  1.00 20.00    -0.192 NA
ENDROOT
BRANCH   3   6
HETATM    6  C8  UNL     1     -33.119  16.172  -3.800  1.00 20.00     0.071 C 
BRANCH   6   7
HETATM    7  C9  UNL     1     -33.683  17.431  -3.099  1.00 20.00     0.056 C 
HETATM    8  C5  UNL     1     -33.597  17.246  -1.579  1.00 20.00     0.046 C 
HETATM    9  C6  UNL     1     -32.955  18.714  -3.509  1.00 20.00     0.046 C 
BRANCH   7  10
HETATM   10  O11 UNL     1     -35.067  17.561  -3.431  1.00 20.00    -0.385 OA
HETATM   11  C7  UNL     1     -35.379  18.887  -3.826  1.00 20.00     0.202 C 
ENDBRANCH   7  10
ENDBRANCH   6   7
ENDBRANCH   3   6
TORSDOF 3
ENDMDL
MODEL 4
REMARK VINA RESULT:      -3.6     12.907     14.195
REMARK  3 active torsions:
REMARK  status: ('A' for Active; 'I' for Inactive)
REMARK    1  A    between atoms: C3_3  and  C8_8 
REMARK    2  A    between atoms: C8_8  and  C9_9 
REMARK    3  A    between atoms: C9_9  and  O11_11 
ROOT
HETATM    1  C1  UNL     1     -39.558  11.917   4.858  1.00 20.00     0.088 C 
HETATM    2  C2  UNL     1     -40.294  12.248   6.029  1.00 20.00     0.096 C 
HETATM    3  C3  UNL     1     -41.282  13.162   6.069  1.00 20.00    -0.071 C 
HETATM    4  C4  UNL     1     -41.769  13.932   4.869  1.00 20.00     0.044 C 
HETATM    5  N10 UNL     1     -38.953  11.642   3.907  1.00 20.00    -0.192 NA
ENDROOT
BRANCH   3   6
HETATM    6  C8  UNL     1     -42.011  13.431   7.377  1.00 20.00     0.071 C 
BRANCH   6   7
HETATM    7  C9  UNL     1     -41.343  14.446   8.334  1.00 20.00     0.056 C 
HETATM    8  C5  UNL     1     -40.405  15.357   7.531  1.00 20.00     0.046 C 
HETATM    9  C6  UNL     1     -42.360  15.295   9.102  1.00 20.00     0.046 C 
BRANCH   7  10
HETATM   10  O11 UNL     1     -40.537  13.732   9.272  1.00 20.00    -0.385 OA
HETATM   11  C7  UNL     1     -40.728  14.220  10.590  1.00 20.00     0.202 C 
ENDBRANCH   7  10
ENDBRANCH   6   7
ENDBRANCH   3   6
TORSDOF 3
ENDMDL
MODEL 5
REMARK VINA RESULT:      -3.5     12.531     13.821
REMARK  3 active torsions:
REMARK  status: ('A' for Active; 'I' for Inactive)
REMARK    1  A    between atoms: C3_3  and  C8_8 
REMARK    2  A    between atoms: C8_8  and  C9_9 
REMARK    3  A    between atoms: C9_9  and  O11_11 
ROOT
HETATM    1  C1  UNL     1     -39.523  12.015   5.013  1.00 20.00     0.088 C 
HETATM    2  C2  UNL     1     -40.196  12.457   6.184  1.00 20.00     0.096 C 
HETATM    3  C3  UNL     1     -41.203  13.351   6.188  1.00 20.00    -0.071 C 
HETATM    4  C4  UNL     1     -41.780  13.977   4.944  1.00 20.00     0.044 C 
HETATM    5  N10 UNL     1     -38.968  11.649   4.061  1.00 20.00    -0.192 NA
ENDROOT
BRANCH   3   6
HETATM    6  C8  UNL     1     -41.860  13.747   7.501  1.00 20.00     0.071 C 
BRANCH   6   7
HETATM    7  C9  UNL     1     -41.183  14.897   8.283  1.00 20.00     0.056 C 
HETATM    8  C5  UNL     1     -42.260  15.850   8.817  1.00 20.00     0.046 C 
HETATM    9  C6  UNL     1     -40.313  14.397   9.439  1.00 20.00     0.046 C 
BRANCH   7  10
HETATM   10  O11 UNL     1     -40.365  15.646   7.382  1.00 20.00    -0.385 OA
HETATM   11  C7  UNL     1     -40.696  17.025   7.414  1.00 20.00     0.202 C 
ENDBRANCH   7  10
ENDBRANCH   6   7
ENDBRANCH   3   6
TORSDOF 3
ENDMDL
MODEL 6
REMARK VINA RESULT:      -3.5      2.807      4.559
REMARK  3 active torsions:
REMARK  status: ('A' for Active; 'I' for Inactive)
REMARK    1  A    between atoms: C3_3  and  C8_8 
REMARK    2  A    between atoms: C8_8  and  C9_9 
REMARK    3  A    between atoms: C9_9  and  O11_11 
ROOT
HETATM    1  C1  UNL     1     -31.105  18.975   0.280  1.00 20.00     0.088 C 
HETATM    2  C2  UNL     1     -32.047  19.123  -0.774  1.00 20.00     0.096 C 
HETATM    3  C3  UNL     1     -33.316  18.674  -0.723  1.00 20.00    -0.071 C 
HETATM    4  C4  UNL     1     -33.921  17.986   0.474  1.00 20.00     0.044 C 
HETATM    5  N10 UNL     1     -30.329  18.859   1.136  1.00 20.00    -0.192 NA
ENDROOT
BRANCH   3   6
HETATM    6  C8  UNL     1     -34.244  18.893  -1.908  1.00 20.00     0.071 C 
BRANCH   6   7
HETATM    7  C9  UNL     1     -34.010  17.984  -3.137  1.00 20.00     0.056 C 
HETATM    8  C5  UNL     1     -33.118  18.717  -4.147  1.00 20.00     0.046 C 
HETATM    9  C6  UNL     1     -33.380  16.639  -2.768  1.00 20.00     0.046 C 
BRANCH   7  10
HETATM   10  O11 UNL     1     -35.264  17.745  -3.777  1.00 20.00    -0.385 OA
HETATM   11  C7  UNL     1     -35.100  16.977  -4.959  1.00 20.00     0.202 C 
ENDBRANCH   7  10
ENDBRANCH   6   7
ENDBRANCH   3   6
TORSDOF 3
ENDMDL
MODEL 7
REMARK VINA RESULT:      -3.5      3.326      5.347
REMARK  3 active torsions:
REMARK  status: ('A' for Active; 'I' for Inactive)
REMARK    1  A    between atoms: C3_3  and  C8_8 
REMARK    2  A    between atoms: C8_8  and  C9_9 
REMARK    3  A    between atoms: C9_9  and  O11_11 
ROOT
HETATM    1  C1  UNL     1     -35.758  15.373  -5.346  1.00 20.00     0.088 C 
HETATM    2  C2  UNL     1     -35.067  16.546  -4.935  1.00 20.00     0.096 C 
HETATM    3  C3  UNL     1     -33.862  16.545  -4.335  1.00 20.00    -0.071 C 
HETATM    4  C4  UNL     1     -33.063  15.299  -4.049  1.00 20.00     0.044 C 
HETATM    5  N10 UNL     1     -36.328  14.421  -5.683  1.00 20.00    -0.192 NA
ENDROOT
BRANCH   3   6
HETATM    6  C8  UNL     1     -33.208  17.861  -3.945  1.00 20.00     0.071 C 
BRANCH   6   7
HETATM    7  C9  UNL     1     -33.356  18.285  -2.465  1.00 20.00     0.056 C 
HETATM    8  C5  UNL     1     -34.532  19.262  -2.332  1.00 20.00     0.046 C 
HETATM    9  C6  UNL     1     -33.561  17.094  -1.525  1.00 20.00     0.046 C 
BRANCH   7  10
HETATM   10  O11 UNL     1     -32.177  18.987  -2.068  1.00 20.00    -0.385 OA
HETATM   11  C7  UNL     1     -31.805  18.658  -0.739  1.00 20.00     0.202 C 
ENDBRANCH   7  10
ENDBRANCH   6   7
ENDBRANCH   3   6
TORSDOF 3
ENDMDL
MODEL 8
REMARK VINA RESULT:      -3.4     15.839     18.469
REMARK  3 active torsions:
REMARK  status: ('A' for Active; 'I' for Inactive)
REMARK    1  A    between atoms: C3_3  and  C8_8 
REMARK    2  A    between atoms: C8_8  and  C9_9 
REMARK    3  A    between atoms: C9_9  and  O11_11 
ROOT
HETATM    1  C1  UNL     1     -26.081  19.249   7.000  1.00 20.00     0.088 C 
HETATM    2  C2  UNL     1     -26.015  19.263   8.420  1.00 20.00     0.096 C 
HETATM    3  C3  UNL     1     -24.868  19.235   9.126  1.00 20.00    -0.071 C 
HETATM    4  C4  UNL     1     -23.495  19.224   8.505  1.00 20.00     0.044 C 
HETATM    5  N10 UNL     1     -26.143  19.238   5.842  1.00 20.00    -0.192 NA
ENDROOT
BRANCH   3   6
HETATM    6  C8  UNL     1     -24.914  19.262  10.646  1.00 20.00     0.071 C 
BRANCH   6   7
HETATM    7  C9  UNL     1     -24.482  17.962  11.365  1.00 20.00     0.056 C 
HETATM    8  C5  UNL     1     -25.680  17.384  12.129  1.00 20.00     0.046 C 
HETATM    9  C6  UNL     1     -23.922  16.911  10.404  1.00 20.00     0.046 C 
BRANCH   7  10
HETATM   10  O11 UNL     1     -23.480  18.283  12.331  1.00 20.00    -0.385 OA
HETATM   11  C7  UNL     1     -22.204  18.413  11.726  1.00 20.00     0.202 C 
ENDBRANCH   7  10
ENDBRANCH   6   7
ENDBRANCH   3   6
TORSDOF 3
ENDMDL
MODEL 9
REMARK VINA RESULT:      -3.4      2.368      3.691
REMARK  3 active torsions:
REMARK  status: ('A' for Active; 'I' for Inactive)
REMARK    1  A    between atoms: C3_3  and  C8_8 
REMARK    2  A    between atoms: C8_8  and  C9_9 
REMARK    3  A    between atoms: C9_9  and  O11_11 
ROOT
HETATM    1  C1  UNL     1     -31.763  18.731  -0.843  1.00 20.00     0.088 C 
HETATM    2  C2  UNL     1     -33.027  18.988  -1.441  1.00 20.00     0.096 C 
HETATM    3  C3  UNL     1     -33.747  18.070  -2.113  1.00 20.00    -0.071 C 
HETATM    4  C4  UNL     1     -33.328  16.633  -2.290  1.00 20.00     0.044 C 
HETATM    5  N10 UNL     1     -30.730  18.530  -0.353  1.00 20.00    -0.192 NA
ENDROOT
BRANCH   3   6
HETATM    6  C8  UNL     1     -35.095  18.451  -2.706  1.00 20.00     0.071 C 
BRANCH   6   7
HETATM    7  C9  UNL     1     -35.184  18.456  -4.250  1.00 20.00     0.056 C 
HETATM    8  C5  UNL     1     -36.415  19.262  -4.684  1.00 20.00     0.046 C 
HETATM    9  C6  UNL     1     -33.929  19.027  -4.915  1.00 20.00     0.046 C 
BRANCH   7  10
HETATM   10  O11 UNL     1     -35.376  17.115  -4.704  1.00 20.00    -0.385 OA
HETATM   11  C7  UNL     1     -34.690  16.881  -5.923  1.00 20.00     0.202 C 
ENDBRANCH   7  10
ENDBRANCH   6   7
ENDBRANCH   3   6
TORSDOF 3
ENDMDL
