MODEL 1
REMARK VINA RESULT:      -4.2      0.000      0.000
REMARK  3 active torsions:
REMARK  status: ('A' for Active; 'I' for Inactive)
REMARK    1  A    between atoms: C7_7  and  C9_9 
REMARK    2  A    between atoms: C8_8  and  C9_9 
REMARK    3  A    between atoms: C9_9  and  O11_11 
ROOT
HETATM    1  C1  UNL     1     -33.542  14.692  -4.638  1.00 20.00     0.027 C 
HETATM    2  C2  UNL     1     -33.638  15.624  -3.435  1.00 20.00     0.011 C 
HETATM    3  C5  UNL     1     -34.691  14.939  -5.605  1.00 20.00     0.167 C 
HETATM    4  C6  UNL     1     -34.941  17.190  -4.904  1.00 20.00     0.174 C 
HETATM    5  C8  UNL     1     -33.798  17.079  -3.892  1.00 20.00     0.039 C 
HETATM    6  O10 UNL     1     -34.727  16.308  -6.007  1.00 20.00    -0.391 OA
ENDROOT
BRANCH   5   7
HETATM    7  C9  UNL     1     -34.022  18.009  -2.704  1.00 20.00     0.128 C 
BRANCH   7   8
HETATM    8  C7  UNL     1     -33.409  17.450  -1.430  1.00 20.00     0.015 A 
HETATM    9  C3  UNL     1     -32.389  18.248  -0.666  1.00 20.00     0.007 A 
HETATM   10  C4  UNL     1     -33.765  18.044  -0.096  1.00 20.00     0.007 A 
ENDBRANCH   7   8
BRANCH   7  11
HETATM   11  O11 UNL     1     -35.420  18.192  -2.514  1.00 20.00    -0.395 OA
HETATM   12  H27 UNL     1     -35.643  17.770  -1.669  1.00 20.00     0.210 HD
ENDBRANCH   7  11
ENDBRANCH   5   7
TORSDOF 3
ENDMDL
MODEL 2
REMARK VINA RESULT:      -4.1     11.657     12.616
REMARK  3 active torsions:
REMARK  status: ('A' for Active; 'I' for Inactive)
REMARK    1  A    between atoms: C7_7  and  C9_9 
REMARK    2  A    between atoms: C8_8  and  C9_9 
REMARK    3  A    between atoms: C9_9  and  O11_11 
ROOT
HETATM    1  C1  UNL     1     -34.833   5.344   4.823  1.00 20.00     0.027 C 
HETATM    2  C2  UNL     1     -33.875   6.130   3.934  1.00 20.00     0.011 C 
HETATM    3  C5  UNL     1     -34.444   5.481   6.288  1.00 20.00     0.167 C 
HETATM    4  C6  UNL     1     -33.403   7.580   5.929  1.00 20.00     0.174 C 
HETATM    5  C8  UNL     1     -33.735   7.573   4.435  1.00 20.00     0.039 C 
HETATM    6  O10 UNL     1     -34.386   6.855   6.669  1.00 20.00    -0.391 OA
ENDROOT
BRANCH   5   7
HETATM    7  C9  UNL     1     -32.685   8.335   3.633  1.00 20.00     0.128 C 
BRANCH   7   8
HETATM    8  C7  UNL     1     -32.998   8.326   2.146  1.00 20.00     0.015 A 
HETATM    9  C3  UNL     1     -32.814   9.572   1.325  1.00 20.00     0.007 A 
HETATM   10  C4  UNL     1     -31.885   8.406   1.138  1.00 20.00     0.007 A 
ENDBRANCH   7   8
BRANCH   7  11
HETATM   11  O11 UNL     1     -31.411   7.740   3.851  1.00 20.00    -0.395 OA
HETATM   12  H27 UNL     1     -30.913   8.350   4.419  1.00 20.00     0.210 HD
ENDBRANCH   7  11
ENDBRANCH   5   7
TORSDOF 3
ENDMDL
MODEL 3
REMARK VINA RESULT:      -4.0      2.030      5.177
REMARK  3 active torsions:
REMARK  status: ('A' for Active; 'I' for Inactive)
REMARK    1  A    between atoms: C7_7  and  C9_9 
REMARK    2  A    between atoms: C8_8  and  C9_9 
REMARK    3  A    between atoms: C9_9  and  O11_11 
ROOT
HETATM    1  C1  UNL     1     -32.319  19.177   1.608  1.00 20.00     0.027 C 
HETATM    2  C2  UNL     1     -33.354  18.457   0.749  1.00 20.00     0.011 C 
HETATM    3  C5  UNL     1     -30.908  18.758   1.217  1.00 20.00     0.167 C 
HETATM    4  C6  UNL     1     -31.564  18.220  -0.996  1.00 20.00     0.174 C 
HETATM    5  C8  UNL     1     -33.021  18.612  -0.740  1.00 20.00     0.039 C 
HETATM    6  O10 UNL     1     -30.681  18.985  -0.173  1.00 20.00    -0.391 OA
ENDROOT
BRANCH   5   7
HETATM    7  C9  UNL     1     -33.973  17.793  -1.605  1.00 20.00     0.128 C 
BRANCH   7   8
HETATM    8  C7  UNL     1     -33.298  17.303  -2.876  1.00 20.00     0.015 A 
HETATM    9  C3  UNL     1     -33.447  15.872  -3.309  1.00 20.00     0.007 A 
HETATM   10  C4  UNL     1     -34.120  16.967  -4.088  1.00 20.00     0.007 A 
ENDBRANCH   7   8
BRANCH   7  11
HETATM   11  O11 UNL     1     -35.097  18.597  -1.948  1.00 20.00    -0.395 OA
HETATM   12  H27 UNL     1     -35.146  19.303  -1.284  1.00 20.00     0.210 HD
ENDBRANCH   7  11
ENDBRANCH   5   7
TORSDOF 3
ENDMDL
MODEL 4
REMARK VINA RESULT:      -3.8      1.941      2.920
REMARK  3 active torsions:
REMARK  status: ('A' for Active; 'I' for Inactive)
REMARK    1  A    between atoms: C7_7  and  C9_9 
REMARK    2  A    between atoms: C8_8  and  C9_9 
REMARK    3  A    between atoms: C9_9  and  O11_11 
ROOT
HETATM    1  C1  UNL     1     -36.607  16.207  -6.254  1.00 20.00     0.027 C 
HETATM    2  C2  UNL     1     -35.667  16.331  -5.058  1.00 20.00     0.011 C 
HETATM    3  C5  UNL     1     -35.818  16.024  -7.543  1.00 20.00     0.167 C 
HETATM    4  C6  UNL     1     -33.977  15.054  -6.407  1.00 20.00     0.174 C 
HETATM    5  C8  UNL     1     -34.660  15.175  -5.042  1.00 20.00     0.039 C 
HETATM    6  O10 UNL     1     -34.946  14.898  -7.445  1.00 20.00    -0.391 OA
ENDROOT
BRANCH   5   7
HETATM    7  C9  UNL     1     -33.635  15.352  -3.927  1.00 20.00     0.128 C 
BRANCH   7   8
HETATM    8  C7  UNL     1     -33.728  16.729  -3.291  1.00 20.00     0.015 A 
HETATM    9  C3  UNL     1     -33.757  16.874  -1.795  1.00 20.00     0.007 A 
HETATM   10  C4  UNL     1     -32.545  17.311  -2.569  1.00 20.00     0.007 A 
ENDBRANCH   7   8
BRANCH   7  11
HETATM   11  O11 UNL     1     -32.329  15.166  -4.462  1.00 20.00    -0.395 OA
HETATM   12  H27 UNL     1     -32.210  15.846  -5.145  1.00 20.00     0.210 HD
ENDBRANCH   7  11
ENDBRANCH   5   7
TORSDOF 3
ENDMDL
MODEL 5
REMARK VINA RESULT:      -3.8     11.026     12.466
REMARK  3 active torsions:
REMARK  status: ('A' for Active; 'I' for Inactive)
REMARK    1  A    between atoms: C7_7  and  C9_9 
REMARK    2  A    between atoms: C8_8  and  C9_9 
REMARK    3  A    between atoms: C9_9  and  O11_11 
ROOT
HETATM    1  C1  UNL     1     -38.503  11.972   5.401  1.00 20.00     0.027 C 
HETATM    2  C2  UNL     1     -39.282  12.397   6.642  1.00 20.00     0.011 C 
HETATM    3  C5  UNL     1     -39.445  11.733   4.229  1.00 20.00     0.167 C 
HETATM    4  C6  UNL     1     -41.068  13.232   5.087  1.00 20.00     0.174 C 
HETATM    5  C8  UNL     1     -40.219  13.566   6.316  1.00 20.00     0.039 C 
HETATM    6  O10 UNL     1     -40.238  12.891   3.975  1.00 20.00    -0.391 OA
ENDROOT
BRANCH   5   7
HETATM    7  C9  UNL     1     -41.095  13.920   7.512  1.00 20.00     0.128 C 
BRANCH   7   8
HETATM    8  C7  UNL     1     -40.263  14.314   8.722  1.00 20.00     0.015 A 
HETATM    9  C3  UNL     1     -40.478  15.644   9.389  1.00 20.00     0.007 A 
HETATM   10  C4  UNL     1     -40.893  14.378  10.085  1.00 20.00     0.007 A 
ENDBRANCH   7   8
BRANCH   7  11
HETATM   11  O11 UNL     1     -41.907  12.799   7.842  1.00 20.00    -0.395 OA
HETATM   12  H27 UNL     1     -42.581  12.730   7.147  1.00 20.00     0.210 HD
ENDBRANCH   7  11
ENDBRANCH   5   7
TORSDOF 3
ENDMDL
MODEL 6
REMARK VINA RESULT:      -3.8      3.016      4.720
REMARK  3 active torsions:
REMARK  status: ('A' for Active; 'I' for Inactive)
REMARK    1  A    between atoms: C7_7  and  C9_9 
REMARK    2  A    between atoms: C8_8  and  C9_9 
REMARK    3  A    between atoms: C9_9  and  O11_11 
ROOT
HETATM    1  C1  UNL     1     -33.775  17.201  -1.462  1.00 20.00     0.027 C 
HETATM    2  C2  UNL     1     -33.583  17.783  -0.065  1.00 20.00     0.011 C 
HETATM    3  C5  UNL     1     -33.336  18.197  -2.526  1.00 20.00     0.167 C 
HETATM    4  C6  UNL     1     -31.812  19.263  -1.056  1.00 20.00     0.174 C 
HETATM    5  C8  UNL     1     -32.158  18.324   0.103  1.00 20.00     0.039 C 
HETATM    6  O10 UNL     1     -31.985  18.603  -2.311  1.00 20.00    -0.391 OA
ENDROOT
BRANCH   5   7
HETATM    7  C9  UNL     1     -31.987  19.022   1.448  1.00 20.00     0.128 C 
BRANCH   7   8
HETATM    8  C7  UNL     1     -30.832  18.436   2.243  1.00 20.00     0.015 A 
HETATM    9  C3  UNL     1     -29.606  19.262   2.519  1.00 20.00     0.007 A 
HETATM   10  C4  UNL     1     -30.551  18.922   3.638  1.00 20.00     0.007 A 
ENDBRANCH   7   8
BRANCH   7  11
HETATM   11  O11 UNL     1     -33.191  18.889   2.196  1.00 20.00    -0.395 OA
HETATM   12  H27 UNL     1     -33.868  19.403   1.726  1.00 20.00     0.210 HD
ENDBRANCH   7  11
ENDBRANCH   5   7
TORSDOF 3
ENDMDL
MODEL 7
REMARK VINA RESULT:      -3.7      1.630      4.759
REMARK  3 active torsions:
REMARK  status: ('A' for Active; 'I' for Inactive)
REMARK    1  A    between atoms: C7_7  and  C9_9 
REMARK    2  A    between atoms: C8_8  and  C9_9 
REMARK    3  A    between atoms: C9_9  and  O11_11 
ROOT
HETATM    1  C1  UNL     1     -31.770  18.461  -0.149  1.00 20.00     0.027 C 
HETATM    2  C2  UNL     1     -32.008  18.085  -1.608  1.00 20.00     0.011 C 
HETATM    3  C5  UNL     1     -32.977  19.189   0.425  1.00 20.00     0.167 C 
HETATM    4  C6  UNL     1     -34.466  18.145  -1.096  1.00 20.00     0.174 C 
HETATM    5  C8  UNL     1     -33.343  17.346  -1.763  1.00 20.00     0.039 C 
HETATM    6  O10 UNL     1     -34.159  18.403   0.275  1.00 20.00    -0.391 OA
ENDROOT
BRANCH   5   7
HETATM    7  C9  UNL     1     -33.656  17.075  -3.231  1.00 20.00     0.128 C 
BRANCH   7   8
HETATM    8  C7  UNL     1     -33.226  15.678  -3.648  1.00 20.00     0.015 A 
HETATM    9  C3  UNL     1     -34.255  14.611  -3.897  1.00 20.00     0.007 A 
HETATM   10  C4  UNL     1     -33.483  15.194  -5.048  1.00 20.00     0.007 A 
ENDBRANCH   7   8
BRANCH   7  11
HETATM   11  O11 UNL     1     -32.981  18.036  -4.035  1.00 20.00    -0.395 OA
HETATM   12  H27 UNL     1     -33.318  17.928  -4.939  1.00 20.00     0.210 HD
ENDBRANCH   7  11
ENDBRANCH   5   7
TORSDOF 3
ENDMDL
MODEL 8
REMARK VINA RESULT:      -3.7      1.167      1.764
REMARK  3 active torsions:
REMARK  status: ('A' for Active; 'I' for Inactive)
REMARK    1  A    between atoms: C7_7  and  C9_9 
REMARK    2  A    between atoms: C8_8  and  C9_9 
REMARK    3  A    between atoms: C9_9  and  O11_11 
ROOT
HETATM    1  C1  UNL     1     -34.727  16.504  -6.971  1.00 20.00     0.027 C 
HETATM    2  C2  UNL     1     -34.549  17.515  -5.842  1.00 20.00     0.011 C 
HETATM    3  C5  UNL     1     -33.880  15.264  -6.723  1.00 20.00     0.167 C 
HETATM    4  C6  UNL     1     -33.907  15.580  -4.374  1.00 20.00     0.174 C 
HETATM    5  C8  UNL     1     -34.764  16.844  -4.479  1.00 20.00     0.039 C 
HETATM    6  O10 UNL     1     -34.187  14.688  -5.455  1.00 20.00    -0.391 OA
ENDROOT
BRANCH   5   7
HETATM    7  C9  UNL     1     -34.466  17.809  -3.337  1.00 20.00     0.128 C 
BRANCH   7   8
HETATM    8  C7  UNL     1     -33.552  17.183  -2.296  1.00 20.00     0.015 A 
HETATM    9  C3  UNL     1     -32.499  18.012  -1.615  1.00 20.00     0.007 A 
HETATM   10  C4  UNL     1     -33.701  17.543  -0.844  1.00 20.00     0.007 A 
ENDBRANCH   7   8
BRANCH   7  11
HETATM   11  O11 UNL     1     -35.690  18.193  -2.721  1.00 20.00    -0.395 OA
HETATM   12  H27 UNL     1     -35.745  19.159  -2.790  1.00 20.00     0.210 HD
ENDBRANCH   7  11
ENDBRANCH   5   7
TORSDOF 3
ENDMDL
MODEL 9
REMARK VINA RESULT:      -3.7      1.547      4.591
REMARK  3 active torsions:
REMARK  status: ('A' for Active; 'I' for Inactive)
REMARK    1  A    between atoms: C7_7  and  C9_9 
REMARK    2  A    between atoms: C8_8  and  C9_9 
REMARK    3  A    between atoms: C9_9  and  O11_11 
ROOT
HETATM    1  C1  UNL     1     -33.261  17.846  -1.351  1.00 20.00     0.027 C 
HETATM    2  C2  UNL     1     -33.347  16.602  -2.230  1.00 20.00     0.011 C 
HETATM    3  C5  UNL     1     -32.616  18.998  -2.108  1.00 20.00     0.167 C 
HETATM    4  C6  UNL     1     -33.304  18.145  -4.210  1.00 20.00     0.174 C 
HETATM    5  C8  UNL     1     -33.999  16.937  -3.577  1.00 20.00     0.039 C 
HETATM    6  O10 UNL     1     -33.321  19.263  -3.320  1.00 20.00    -0.391 OA
ENDROOT
BRANCH   5   7
HETATM    7  C9  UNL     1     -33.977  15.734  -4.514  1.00 20.00     0.128 C 
BRANCH   7   8
HETATM    8  C7  UNL     1     -34.872  15.948  -5.724  1.00 20.00     0.015 A 
HETATM    9  C3  UNL     1     -34.426  15.495  -7.086  1.00 20.00     0.007 A 
HETATM   10  C4  UNL     1     -35.545  14.777  -6.384  1.00 20.00     0.007 A 
ENDBRANCH   7   8
BRANCH   7  11
HETATM   11  O11 UNL     1     -34.414  14.583  -3.802  1.00 20.00    -0.395 OA
HETATM   12  H27 UNL     1     -35.220  14.840  -3.326  1.00 20.00     0.210 HD
ENDBRANCH   7  11
ENDBRANCH   5   7
TORSDOF 3
ENDMDL
