MODEL 1
REMARK VINA RESULT:      -4.8      0.000      0.000
REMARK  0 active torsions:
REMARK  status: ('A' for Active; 'I' for Inactive)
ROOT
HETATM    1  C1  UNL     1     -32.599   8.610   2.537  1.00 20.00     0.065 C 
HETATM    2  C2  UNL     1     -34.137   5.553   6.317  1.00 20.00     0.032 C 
HETATM    3  C3  UNL     1     -34.605   5.212   4.914  1.00 20.00     0.037 C 
HETATM    4  C4  UNL     1     -32.920   6.265   3.289  1.00 20.00     0.056 C 
HETATM    5  C5  UNL     1     -34.325   7.059   6.378  1.00 20.00     0.273 C 
HETATM    6  C6  UNL     1     -32.561   7.932   4.926  1.00 20.00     0.292 C 
HETATM    7  C7  UNL     1     -32.175   7.577   3.496  1.00 20.00     0.123 C 
HETATM    8  C8  UNL     1     -34.214   6.433   4.087  1.00 20.00     0.224 C 
HETATM    9  N9  UNL     1     -32.934   9.423   1.780  1.00 20.00    -0.197 NA
HETATM   10  N10 UNL     1     -33.978   7.546   5.039  1.00 20.00     0.094 N 
ENDROOT
TORSDOF 0
ENDMDL
MODEL 2
REMARK VINA RESULT:      -4.1     11.943     13.282
REMARK  0 active torsions:
REMARK  status: ('A' for Active; 'I' for Inactive)
ROOT
HETATM    1  C1  UNL     1     -31.770  18.510  -0.773  1.00 20.00     0.065 C 
HETATM    2  C2  UNL     1     -34.808  17.562  -4.757  1.00 20.00     0.032 C 
HETATM    3  C3  UNL     1     -34.064  16.385  -4.155  1.00 20.00     0.037 C 
HETATM    4  C4  UNL     1     -33.506  17.014  -1.730  1.00 20.00     0.056 C 
HETATM    5  C5  UNL     1     -33.745  18.646  -4.801  1.00 20.00     0.273 C 
HETATM    6  C6  UNL     1     -33.437  19.263  -2.454  1.00 20.00     0.292 C 
HETATM    7  C7  UNL     1     -33.169  18.409  -1.222  1.00 20.00     0.123 C 
HETATM    8  C8  UNL     1     -33.068  17.028  -3.196  1.00 20.00     0.224 C 
HETATM    9  N9  UNL     1     -30.668  18.588  -0.420  1.00 20.00    -0.197 NA
HETATM   10  N10 UNL     1     -32.948  18.454  -3.584  1.00 20.00     0.094 N 
ENDROOT
TORSDOF 0
ENDMDL
MODEL 3
REMARK VINA RESULT:      -3.7     11.519     12.989
REMARK  0 active torsions:
REMARK  status: ('A' for Active; 'I' for Inactive)
ROOT
HETATM    1  C1  UNL     1     -35.016  14.013  -4.721  1.00 20.00     0.065 C 
HETATM    2  C2  UNL     1     -33.217  18.734  -4.034  1.00 20.00     0.032 C 
HETATM    3  C3  UNL     1     -33.043  17.751  -2.891  1.00 20.00     0.037 C 
HETATM    4  C4  UNL     1     -33.120  15.397  -3.912  1.00 20.00     0.056 C 
HETATM    5  C5  UNL     1     -34.646  18.478  -4.483  1.00 20.00     0.273 C 
HETATM    6  C6  UNL     1     -34.537  16.294  -5.578  1.00 20.00     0.292 C 
HETATM    7  C7  UNL     1     -33.962  14.966  -5.105  1.00 20.00     0.123 C 
HETATM    8  C8  UNL     1     -33.903  16.558  -3.295  1.00 20.00     0.224 C 
HETATM    9  N9  UNL     1     -35.847  13.262  -4.416  1.00 20.00    -0.197 NA
HETATM   10  N10 UNL     1     -34.842  17.032  -4.340  1.00 20.00     0.094 N 
ENDROOT
TORSDOF 0
ENDMDL
MODEL 4
REMARK VINA RESULT:      -3.6     11.901     13.053
REMARK  0 active torsions:
REMARK  status: ('A' for Active; 'I' for Inactive)
ROOT
HETATM    1  C1  UNL     1     -34.185  15.210  -6.443  1.00 20.00     0.065 C 
HETATM    2  C2  UNL     1     -34.200  17.729  -2.011  1.00 20.00     0.032 C 
HETATM    3  C3  UNL     1     -34.595  18.506  -3.252  1.00 20.00     0.037 C 
HETATM    4  C4  UNL     1     -35.416  16.791  -4.977  1.00 20.00     0.056 C 
HETATM    5  C5  UNL     1     -32.990  16.939  -2.479  1.00 20.00     0.273 C 
HETATM    6  C6  UNL     1     -33.933  15.248  -3.972  1.00 20.00     0.292 C 
HETATM    7  C7  UNL     1     -34.882  15.376  -5.157  1.00 20.00     0.123 C 
HETATM    8  C8  UNL     1     -34.232  17.573  -4.403  1.00 20.00     0.224 C 
HETATM    9  N9  UNL     1     -33.636  15.079  -7.457  1.00 20.00    -0.197 NA
HETATM   10  N10 UNL     1     -33.286  16.566  -3.866  1.00 20.00     0.094 N 
ENDROOT
TORSDOF 0
ENDMDL
MODEL 5
REMARK VINA RESULT:      -3.5     11.890     13.602
REMARK  0 active torsions:
REMARK  status: ('A' for Active; 'I' for Inactive)
ROOT
HETATM    1  C1  UNL     1     -36.174  16.100  -7.570  1.00 20.00     0.065 C 
HETATM    2  C2  UNL     1     -33.097  16.405  -3.515  1.00 20.00     0.032 C 
HETATM    3  C3  UNL     1     -33.637  15.034  -3.875  1.00 20.00     0.037 C 
HETATM    4  C4  UNL     1     -34.243  15.101  -6.369  1.00 20.00     0.056 C 
HETATM    5  C5  UNL     1     -34.317  17.298  -3.664  1.00 20.00     0.273 C 
HETATM    6  C6  UNL     1     -34.676  17.407  -6.080  1.00 20.00     0.292 C 
HETATM    7  C7  UNL     1     -34.785  16.306  -7.127  1.00 20.00     0.123 C 
HETATM    8  C8  UNL     1     -34.704  15.321  -4.927  1.00 20.00     0.224 C 
HETATM    9  N9  UNL     1     -37.268  15.936  -7.918  1.00 20.00    -0.197 NA
HETATM   10  N10 UNL     1     -35.052  16.758  -4.813  1.00 20.00     0.094 N 
ENDROOT
TORSDOF 0
ENDMDL
MODEL 6
REMARK VINA RESULT:      -3.4     11.801     12.905
REMARK  0 active torsions:
REMARK  status: ('A' for Active; 'I' for Inactive)
ROOT
HETATM    1  C1  UNL     1     -34.523  17.761  -3.980  1.00 20.00     0.065 C 
HETATM    2  C2  UNL     1     -32.633  19.023   0.584  1.00 20.00     0.032 C 
HETATM    3  C3  UNL     1     -31.653  18.515  -0.457  1.00 20.00     0.037 C 
HETATM    4  C4  UNL     1     -32.716  18.943  -2.754  1.00 20.00     0.056 C 
HETATM    5  C5  UNL     1     -33.804  18.067   0.439  1.00 20.00     0.273 C 
HETATM    6  C6  UNL     1     -34.816  18.696  -1.697  1.00 20.00     0.292 C 
HETATM    7  C7  UNL     1     -34.202  18.880  -3.079  1.00 20.00     0.123 C 
HETATM    8  C8  UNL     1     -32.544  17.983  -1.575  1.00 20.00     0.224 C 
HETATM    9  N9  UNL     1     -34.774  16.879  -4.690  1.00 20.00    -0.197 NA
HETATM   10  N10 UNL     1     -33.895  17.784  -0.997  1.00 20.00     0.094 N 
ENDROOT
TORSDOF 0
ENDMDL
MODEL 7
REMARK VINA RESULT:      -3.3      1.426      3.852
REMARK  0 active torsions:
REMARK  status: ('A' for Active; 'I' for Inactive)
ROOT
HETATM    1  C1  UNL     1     -34.454   5.479   5.899  1.00 20.00     0.065 C 
HETATM    2  C2  UNL     1     -32.535   8.821   2.561  1.00 20.00     0.032 C 
HETATM    3  C3  UNL     1     -32.152   7.364   2.382  1.00 20.00     0.037 C 
HETATM    4  C4  UNL     1     -33.988   5.967   3.509  1.00 20.00     0.056 C 
HETATM    5  C5  UNL     1     -32.403   9.022   4.061  1.00 20.00     0.273 C 
HETATM    6  C6  UNL     1     -34.298   7.785   4.988  1.00 20.00     0.292 C 
HETATM    7  C7  UNL     1     -34.768   6.354   4.758  1.00 20.00     0.123 C 
HETATM    8  C8  UNL     1     -32.648   6.692   3.659  1.00 20.00     0.224 C 
HETATM    9  N9  UNL     1     -34.205   4.788   6.797  1.00 20.00    -0.197 NA
HETATM   10  N10 UNL     1     -32.862   7.764   4.660  1.00 20.00     0.094 N 
ENDROOT
TORSDOF 0
ENDMDL
MODEL 8
REMARK VINA RESULT:      -3.2     11.850     13.083
REMARK  0 active torsions:
REMARK  status: ('A' for Active; 'I' for Inactive)
ROOT
HETATM    1  C1  UNL     1     -33.488  17.272  -1.917  1.00 20.00     0.065 C 
HETATM    2  C2  UNL     1     -34.417  15.683  -6.671  1.00 20.00     0.032 C 
HETATM    3  C3  UNL     1     -35.096  16.963  -6.222  1.00 20.00     0.037 C 
HETATM    4  C4  UNL     1     -33.685  17.923  -4.305  1.00 20.00     0.056 C 
HETATM    5  C5  UNL     1     -34.596  14.768  -5.472  1.00 20.00     0.273 C 
HETATM    6  C6  UNL     1     -33.079  15.696  -3.793  1.00 20.00     0.292 C 
HETATM    7  C7  UNL     1     -32.919  17.116  -3.265  1.00 20.00     0.123 C 
HETATM    8  C8  UNL     1     -34.840  17.009  -4.719  1.00 20.00     0.224 C 
HETATM    9  N9  UNL     1     -33.937  17.395  -0.854  1.00 20.00    -0.197 NA
HETATM   10  N10 UNL     1     -34.461  15.639  -4.299  1.00 20.00     0.094 N 
ENDROOT
TORSDOF 0
ENDMDL
MODEL 9
REMARK VINA RESULT:      -3.2     11.468     13.773
REMARK  0 active torsions:
REMARK  status: ('A' for Active; 'I' for Inactive)
ROOT
HETATM    1  C1  UNL     1     -35.012  13.961  -4.688  1.00 20.00     0.065 C 
HETATM    2  C2  UNL     1     -34.064  18.803  -5.974  1.00 20.00     0.032 C 
HETATM    3  C3  UNL     1     -34.367  18.518  -4.515  1.00 20.00     0.037 C 
HETATM    4  C4  UNL     1     -33.802  16.049  -4.103  1.00 20.00     0.056 C 
HETATM    5  C5  UNL     1     -35.105  17.969  -6.703  1.00 20.00     0.273 C 
HETATM    6  C6  UNL     1     -34.353  15.666  -6.369  1.00 20.00     0.292 C 
HETATM    7  C7  UNL     1     -33.969  14.913  -5.103  1.00 20.00     0.123 C 
HETATM    8  C8  UNL     1     -34.860  17.075  -4.514  1.00 20.00     0.224 C 
HETATM    9  N9  UNL     1     -35.835  13.211  -4.360  1.00 20.00    -0.197 NA
HETATM   10  N10 UNL     1     -35.244  16.745  -5.908  1.00 20.00     0.094 N 
ENDROOT
TORSDOF 0
ENDMDL
