MODEL 1
REMARK VINA RESULT:      -4.3      0.000      0.000
REMARK  0 active torsions:
REMARK  status: ('A' for Active; 'I' for Inactive)
ROOT
HETATM    1  C1  UNL     1     -21.699  17.822   7.691  1.00 20.00     0.065 C 
HETATM    2  C2  UNL     1     -24.055  17.077  11.989  1.00 20.00     0.032 C 
HETATM    3  C3  UNL     1     -24.936  18.016  11.185  1.00 20.00     0.037 C 
HETATM    4  C4  UNL     1     -23.718  18.490   8.977  1.00 20.00     0.056 C 
HETATM    5  C5  UNL     1     -22.847  17.940  12.307  1.00 20.00     0.273 C 
HETATM    6  C6  UNL     1     -21.708  18.142  10.156  1.00 20.00     0.292 C 
HETATM    7  C7  UNL     1     -22.213  18.623   8.805  1.00 20.00     0.123 C 
HETATM    8  C8  UNL     1     -23.948  18.899  10.432  1.00 20.00     0.224 C 
HETATM    9  N9  UNL     1     -21.293  17.188   6.810  1.00 20.00    -0.197 NA
HETATM   10  N10 UNL     1     -22.636  18.765  11.112  1.00 20.00     0.094 N 
ENDROOT
TORSDOF 0
ENDMDL
MODEL 2
REMARK VINA RESULT:      -3.9     17.463     18.873
REMARK  0 active torsions:
REMARK  status: ('A' for Active; 'I' for Inactive)
ROOT
HETATM    1  C1  UNL     1     -33.293  17.015  -2.267  1.00 20.00     0.065 C 
HETATM    2  C2  UNL     1     -36.600  15.542  -5.654  1.00 20.00     0.032 C 
HETATM    3  C3  UNL     1     -35.630  14.388  -5.487  1.00 20.00     0.037 C 
HETATM    4  C4  UNL     1     -33.852  15.135  -3.794  1.00 20.00     0.056 C 
HETATM    5  C5  UNL     1     -35.747  16.606  -6.323  1.00 20.00     0.273 C 
HETATM    6  C6  UNL     1     -34.245  17.335  -4.541  1.00 20.00     0.292 C 
HETATM    7  C7  UNL     1     -33.296  16.544  -3.654  1.00 20.00     0.123 C 
HETATM    8  C8  UNL     1     -34.283  15.066  -5.259  1.00 20.00     0.224 C 
HETATM    9  N9  UNL     1     -33.293  17.388  -1.169  1.00 20.00    -0.197 NA
HETATM   10  N10 UNL     1     -34.417  16.470  -5.718  1.00 20.00     0.094 N 
ENDROOT
TORSDOF 0
ENDMDL
MODEL 3
REMARK VINA RESULT:      -3.8      1.438      2.044
REMARK  0 active torsions:
REMARK  status: ('A' for Active; 'I' for Inactive)
ROOT
HETATM    1  C1  UNL     1     -22.251  17.507   8.750  1.00 20.00     0.065 C 
HETATM    2  C2  UNL     1     -25.999  18.365  11.880  1.00 20.00     0.032 C 
HETATM    3  C3  UNL     1     -24.862  19.263  12.332  1.00 20.00     0.037 C 
HETATM    4  C4  UNL     1     -22.870  18.797  10.783  1.00 20.00     0.056 C 
HETATM    5  C5  UNL     1     -25.480  16.975  12.204  1.00 20.00     0.273 C 
HETATM    6  C6  UNL     1     -23.731  16.617  10.538  1.00 20.00     0.292 C 
HETATM    7  C7  UNL     1     -22.502  17.445  10.192  1.00 20.00     0.123 C 
HETATM    8  C8  UNL     1     -23.609  18.434  12.070  1.00 20.00     0.224 C 
HETATM    9  N9  UNL     1     -22.053  17.557   7.608  1.00 20.00    -0.197 NA
HETATM   10  N10 UNL     1     -24.042  17.023  11.917  1.00 20.00     0.094 N 
ENDROOT
TORSDOF 0
ENDMDL
MODEL 4
REMARK VINA RESULT:      -3.8     15.883     16.610
REMARK  0 active torsions:
REMARK  status: ('A' for Active; 'I' for Inactive)
ROOT
HETATM    1  C1  UNL     1     -32.401   8.471   1.630  1.00 20.00     0.065 C 
HETATM    2  C2  UNL     1     -35.284   5.908   4.745  1.00 20.00     0.032 C 
HETATM    3  C3  UNL     1     -34.504   6.886   5.605  1.00 20.00     0.037 C 
HETATM    4  C4  UNL     1     -32.940   8.186   4.040  1.00 20.00     0.056 C 
HETATM    5  C5  UNL     1     -34.209   4.947   4.268  1.00 20.00     0.273 C 
HETATM    6  C6  UNL     1     -32.930   6.273   2.664  1.00 20.00     0.292 C 
HETATM    7  C7  UNL     1     -32.242   7.621   2.813  1.00 20.00     0.123 C 
HETATM    8  C8  UNL     1     -33.137   6.962   4.933  1.00 20.00     0.224 C 
HETATM    9  N9  UNL     1     -32.529   9.144   0.694  1.00 20.00    -0.197 NA
HETATM   10  N10 UNL     1     -33.020   5.778   4.046  1.00 20.00     0.094 N 
ENDROOT
TORSDOF 0
ENDMDL
MODEL 5
REMARK VINA RESULT:      -3.5     15.759     17.226
REMARK  0 active torsions:
REMARK  status: ('A' for Active; 'I' for Inactive)
ROOT
HETATM    1  C1  UNL     1     -33.624  18.118  -0.268  1.00 20.00     0.065 C 
HETATM    2  C2  UNL     1     -35.182  17.585  -4.945  1.00 20.00     0.032 C 
HETATM    3  C3  UNL     1     -34.412  16.321  -4.613  1.00 20.00     0.037 C 
HETATM    4  C4  UNL     1     -33.520  16.584  -2.221  1.00 20.00     0.056 C 
HETATM    5  C5  UNL     1     -34.094  18.644  -4.974  1.00 20.00     0.273 C 
HETATM    6  C6  UNL     1     -33.490  18.906  -2.622  1.00 20.00     0.292 C 
HETATM    7  C7  UNL     1     -33.040  17.882  -1.591  1.00 20.00     0.123 C 
HETATM    8  C8  UNL     1     -33.278  16.801  -3.714  1.00 20.00     0.224 C 
HETATM    9  N9  UNL     1     -34.088  18.305   0.778  1.00 20.00    -0.197 NA
HETATM   10  N10 UNL     1     -33.161  18.268  -3.906  1.00 20.00     0.094 N 
ENDROOT
TORSDOF 0
ENDMDL
MODEL 6
REMARK VINA RESULT:      -3.5     17.024     18.255
REMARK  0 active torsions:
REMARK  status: ('A' for Active; 'I' for Inactive)
ROOT
HETATM    1  C1  UNL     1     -35.133  15.013  -5.873  1.00 20.00     0.065 C 
HETATM    2  C2  UNL     1     -34.517  18.039  -1.994  1.00 20.00     0.032 C 
HETATM    3  C3  UNL     1     -34.260  18.883  -3.228  1.00 20.00     0.037 C 
HETATM    4  C4  UNL     1     -34.495  17.337  -5.263  1.00 20.00     0.056 C 
HETATM    5  C5  UNL     1     -33.335  17.086  -1.985  1.00 20.00     0.273 C 
HETATM    6  C6  UNL     1     -33.802  15.582  -3.851  1.00 20.00     0.292 C 
HETATM    7  C7  UNL     1     -34.085  15.874  -5.317  1.00 20.00     0.123 C 
HETATM    8  C8  UNL     1     -33.572  17.926  -4.196  1.00 20.00     0.224 C 
HETATM    9  N9  UNL     1     -35.963  14.333  -6.311  1.00 20.00    -0.197 NA
HETATM   10  N10 UNL     1     -33.077  16.778  -3.396  1.00 20.00     0.094 N 
ENDROOT
TORSDOF 0
ENDMDL
MODEL 7
REMARK VINA RESULT:      -3.4     18.392     19.716
REMARK  0 active torsions:
REMARK  status: ('A' for Active; 'I' for Inactive)
ROOT
HETATM    1  C1  UNL     1     -37.925  15.936  -5.304  1.00 20.00     0.065 C 
HETATM    2  C2  UNL     1     -33.441  15.992  -3.188  1.00 20.00     0.032 C 
HETATM    3  C3  UNL     1     -33.632  17.367  -3.802  1.00 20.00     0.037 C 
HETATM    4  C4  UNL     1     -35.914  17.360  -4.975  1.00 20.00     0.056 C 
HETATM    5  C5  UNL     1     -33.329  15.092  -4.407  1.00 20.00     0.273 C 
HETATM    6  C6  UNL     1     -35.604  15.046  -5.294  1.00 20.00     0.292 C 
HETATM    7  C7  UNL     1     -36.535  16.177  -5.701  1.00 20.00     0.123 C 
HETATM    8  C8  UNL     1     -34.413  17.096  -5.083  1.00 20.00     0.224 C 
HETATM    9  N9  UNL     1     -39.024  15.745  -4.988  1.00 20.00    -0.197 NA
HETATM   10  N10 UNL     1     -34.267  15.651  -5.387  1.00 20.00     0.094 N 
ENDROOT
TORSDOF 0
ENDMDL
MODEL 8
REMARK VINA RESULT:      -3.4     17.952     18.771
REMARK  0 active torsions:
REMARK  status: ('A' for Active; 'I' for Inactive)
ROOT
HETATM    1  C1  UNL     1     -39.736  12.072   4.796  1.00 20.00     0.065 C 
HETATM    2  C2  UNL     1     -40.717  16.258   7.265  1.00 20.00     0.032 C 
HETATM    3  C3  UNL     1     -40.372  15.221   8.318  1.00 20.00     0.037 C 
HETATM    4  C4  UNL     1     -39.929  13.013   7.088  1.00 20.00     0.056 C 
HETATM    5  C5  UNL     1     -42.045  15.759   6.723  1.00 20.00     0.273 C 
HETATM    6  C6  UNL     1     -41.428  13.776   5.438  1.00 20.00     0.292 C 
HETATM    7  C7  UNL     1     -40.654  12.531   5.842  1.00 20.00     0.123 C 
HETATM    8  C8  UNL     1     -40.952  13.924   7.766  1.00 20.00     0.224 C 
HETATM    9  N9  UNL     1     -39.009  11.710   3.968  1.00 20.00    -0.197 NA
HETATM   10  N10 UNL     1     -41.934  14.296   6.717  1.00 20.00     0.094 N 
ENDROOT
TORSDOF 0
ENDMDL
MODEL 9
REMARK VINA RESULT:      -3.4     20.224     21.322
REMARK  0 active torsions:
REMARK  status: ('A' for Active; 'I' for Inactive)
ROOT
HETATM    1  C1  UNL     1     -29.723  -3.997  10.817  1.00 20.00     0.065 C 
HETATM    2  C2  UNL     1     -25.981  -1.092  12.279  1.00 20.00     0.032 C 
HETATM    3  C3  UNL     1     -26.857  -0.230  11.389  1.00 20.00     0.037 C 
HETATM    4  C4  UNL     1     -28.772  -1.717  10.546  1.00 20.00     0.056 C 
HETATM    5  C5  UNL     1     -25.389  -2.093  11.302  1.00 20.00     0.273 C 
HETATM    6  C6  UNL     1     -27.282  -3.532  10.744  1.00 20.00     0.292 C 
HETATM    7  C7  UNL     1     -28.663  -3.194  10.202  1.00 20.00     0.123 C 
HETATM    8  C8  UNL     1     -27.355  -1.192  10.315  1.00 20.00     0.224 C 
HETATM    9  N9  UNL     1     -30.562  -4.632  11.304  1.00 20.00    -0.197 NA
HETATM   10  N10 UNL     1     -26.463  -2.377  10.344  1.00 20.00     0.094 N 
ENDROOT
TORSDOF 0
ENDMDL
