MODEL 1
REMARK VINA RESULT:      -6.5      0.000      0.000
REMARK  0 active torsions:
REMARK  status: ('A' for Active; 'I' for Inactive)
ROOT
HETATM    1  C1  UNL     1     -32.913   8.368   5.099  1.00 20.00     0.015 A 
HETATM    2  C2  UNL     1     -32.333   8.531   3.904  1.00 20.00     0.083 A 
HETATM    3  C3  UNL     1     -33.645   7.175   5.349  1.00 20.00    -0.028 A 
HETATM    4  C4  UNL     1     -33.741   6.249   4.397  1.00 20.00     0.063 A 
HETATM    5  C5  UNL     1     -32.445   7.489   2.848  1.00 20.00     0.287 A 
HETATM    6  C6  UNL     1     -34.371   6.781   6.583  1.00 20.00     0.041 C 
HETATM    7  C7  UNL     1     -34.539   5.068   4.803  1.00 20.00     0.066 C 
HETATM    8  C8  UNL     1     -34.672   5.295   6.319  1.00 20.00     0.011 C 
HETATM    9  O9  UNL     1     -31.904   7.653   1.759  1.00 20.00    -0.260 OA
HETATM   10  O10 UNL     1     -33.165   6.351   3.133  1.00 20.00    -0.279 OA
ENDROOT
TORSDOF 0
ENDMDL
MODEL 2
REMARK VINA RESULT:      -5.7      1.295      3.498
REMARK  0 active torsions:
REMARK  status: ('A' for Active; 'I' for Inactive)
ROOT
HETATM    1  C1  UNL     1     -33.866   7.329   6.298  1.00 20.00     0.015 A 
HETATM    2  C2  UNL     1     -34.485   6.145   6.226  1.00 20.00     0.083 A 
HETATM    3  C3  UNL     1     -33.164   7.807   5.159  1.00 20.00    -0.028 A 
HETATM    4  C4  UNL     1     -33.132   7.074   4.048  1.00 20.00     0.063 A 
HETATM    5  C5  UNL     1     -34.445   5.333   4.979  1.00 20.00     0.287 A 
HETATM    6  C6  UNL     1     -32.405   9.075   5.009  1.00 20.00     0.041 C 
HETATM    7  C7  UNL     1     -32.357   7.699   2.951  1.00 20.00     0.066 C 
HETATM    8  C8  UNL     1     -32.161   9.126   3.490  1.00 20.00     0.011 C 
HETATM    9  O9  UNL     1     -35.020   4.251   4.928  1.00 20.00    -0.260 OA
HETATM   10  O10 UNL     1     -33.751   5.834   3.901  1.00 20.00    -0.279 OA
ENDROOT
TORSDOF 0
ENDMDL
MODEL 3
REMARK VINA RESULT:      -5.5      1.388      2.139
REMARK  0 active torsions:
REMARK  status: ('A' for Active; 'I' for Inactive)
ROOT
HETATM    1  C1  UNL     1     -32.889   6.331   3.097  1.00 20.00     0.015 A 
HETATM    2  C2  UNL     1     -32.376   7.560   2.976  1.00 20.00     0.083 A 
HETATM    3  C3  UNL     1     -33.591   5.994   4.287  1.00 20.00    -0.028 A 
HETATM    4  C4  UNL     1     -33.723   6.901   5.253  1.00 20.00     0.063 A 
HETATM    5  C5  UNL     1     -32.530   8.566   4.061  1.00 20.00     0.287 A 
HETATM    6  C6  UNL     1     -34.234   4.704   4.644  1.00 20.00     0.041 C 
HETATM    7  C7  UNL     1     -34.471   6.402   6.431  1.00 20.00     0.066 C 
HETATM    8  C8  UNL     1     -35.058   5.088   5.886  1.00 20.00     0.011 C 
HETATM    9  O9  UNL     1     -32.056   9.691   3.933  1.00 20.00    -0.260 OA
HETATM   10  O10 UNL     1     -33.215   8.197   5.196  1.00 20.00    -0.279 OA
ENDROOT
TORSDOF 0
ENDMDL
MODEL 4
REMARK VINA RESULT:      -5.2      1.541      3.600
REMARK  0 active torsions:
REMARK  status: ('A' for Active; 'I' for Inactive)
ROOT
HETATM    1  C1  UNL     1     -33.610   7.859   5.852  1.00 20.00     0.015 A 
HETATM    2  C2  UNL     1     -34.322   6.870   6.403  1.00 20.00     0.083 A 
HETATM    3  C3  UNL     1     -33.054   7.666   4.558  1.00 20.00    -0.028 A 
HETATM    4  C4  UNL     1     -33.249   6.513   3.922  1.00 20.00     0.063 A 
HETATM    5  C5  UNL     1     -34.536   5.586   5.683  1.00 20.00     0.287 A 
HETATM    6  C6  UNL     1     -32.231   8.608   3.758  1.00 20.00     0.041 C 
HETATM    7  C7  UNL     1     -32.604   6.458   2.589  1.00 20.00     0.066 C 
HETATM    8  C8  UNL     1     -32.218   7.932   2.376  1.00 20.00     0.011 C 
HETATM    9  O9  UNL     1     -35.195   4.689   6.202  1.00 20.00    -0.260 OA
HETATM   10  O10 UNL     1     -33.978   5.441   4.433  1.00 20.00    -0.279 OA
ENDROOT
TORSDOF 0
ENDMDL
MODEL 5
REMARK VINA RESULT:      -5.2      1.432      2.091
REMARK  0 active torsions:
REMARK  status: ('A' for Active; 'I' for Inactive)
ROOT
HETATM    1  C1  UNL     1     -34.136   7.334   6.042  1.00 20.00     0.015 A 
HETATM    2  C2  UNL     1     -33.472   8.468   5.794  1.00 20.00     0.083 A 
HETATM    3  C3  UNL     1     -34.045   6.267   5.107  1.00 20.00    -0.028 A 
HETATM    4  C4  UNL     1     -33.306   6.414   4.010  1.00 20.00     0.063 A 
HETATM    5  C5  UNL     1     -32.647   8.621   4.565  1.00 20.00     0.287 A 
HETATM    6  C6  UNL     1     -34.692   4.931   5.166  1.00 20.00     0.041 C 
HETATM    7  C7  UNL     1     -33.314   5.220   3.130  1.00 20.00     0.066 C 
HETATM    8  C8  UNL     1     -33.961   4.169   4.048  1.00 20.00     0.011 C 
HETATM    9  O9  UNL     1     -32.041   9.667   4.354  1.00 20.00    -0.260 OA
HETATM   10  O10 UNL     1     -32.589   7.563   3.687  1.00 20.00    -0.279 OA
ENDROOT
TORSDOF 0
ENDMDL
MODEL 6
REMARK VINA RESULT:      -5.1      1.158      2.789
REMARK  0 active torsions:
REMARK  status: ('A' for Active; 'I' for Inactive)
ROOT
HETATM    1  C1  UNL     1     -34.429   5.183   5.063  1.00 20.00     0.015 A 
HETATM    2  C2  UNL     1     -34.062   4.534   3.953  1.00 20.00     0.083 A 
HETATM    3  C3  UNL     1     -33.949   6.505   5.275  1.00 20.00    -0.028 A 
HETATM    4  C4  UNL     1     -33.148   7.067   4.373  1.00 20.00     0.063 A 
HETATM    5  C5  UNL     1     -33.168   5.172   2.950  1.00 20.00     0.287 A 
HETATM    6  C6  UNL     1     -34.214   7.409   6.423  1.00 20.00     0.041 C 
HETATM    7  C7  UNL     1     -32.726   8.441   4.736  1.00 20.00     0.066 C 
HETATM    8  C8  UNL     1     -33.674   8.753   5.906  1.00 20.00     0.011 C 
HETATM    9  O9  UNL     1     -32.843   4.563   1.935  1.00 20.00    -0.260 OA
HETATM   10  O10 UNL     1     -32.725   6.452   3.197  1.00 20.00    -0.279 OA
ENDROOT
TORSDOF 0
ENDMDL
MODEL 7
REMARK VINA RESULT:      -5.0      1.923      4.096
REMARK  0 active torsions:
REMARK  status: ('A' for Active; 'I' for Inactive)
ROOT
HETATM    1  C1  UNL     1     -33.784   5.367   3.718  1.00 20.00     0.015 A 
HETATM    2  C2  UNL     1     -34.453   4.870   4.764  1.00 20.00     0.083 A 
HETATM    3  C3  UNL     1     -33.202   6.660   3.828  1.00 20.00    -0.028 A 
HETATM    4  C4  UNL     1     -33.333   7.348   4.960  1.00 20.00     0.063 A 
HETATM    5  C5  UNL     1     -34.592   5.647   6.026  1.00 20.00     0.287 A 
HETATM    6  C6  UNL     1     -32.428   7.412   2.808  1.00 20.00     0.041 C 
HETATM    7  C7  UNL     1     -32.679   8.677   4.920  1.00 20.00     0.066 C 
HETATM    8  C8  UNL     1     -31.839   8.567   3.636  1.00 20.00     0.011 C 
HETATM    9  O9  UNL     1     -35.207   5.174   6.977  1.00 20.00    -0.260 OA
HETATM   10  O10 UNL     1     -34.014   6.894   6.087  1.00 20.00    -0.279 OA
ENDROOT
TORSDOF 0
ENDMDL
MODEL 8
REMARK VINA RESULT:      -4.3     12.561     12.786
REMARK  0 active torsions:
REMARK  status: ('A' for Active; 'I' for Inactive)
ROOT
HETATM    1  C1  UNL     1     -32.700  19.239   2.110  1.00 20.00     0.015 A 
HETATM    2  C2  UNL     1     -32.719  19.140   0.776  1.00 20.00     0.083 A 
HETATM    3  C3  UNL     1     -31.458  19.107   2.789  1.00 20.00    -0.028 A 
HETATM    4  C4  UNL     1     -30.345  18.888   2.092  1.00 20.00     0.063 A 
HETATM    5  C5  UNL     1     -31.469  18.898   0.006  1.00 20.00     0.287 A 
HETATM    6  C6  UNL     1     -31.195  19.172   4.249  1.00 20.00     0.041 C 
HETATM    7  C7  UNL     1     -29.135  18.767   2.939  1.00 20.00     0.066 C 
HETATM    8  C8  UNL     1     -29.660  19.263   4.296  1.00 20.00     0.011 C 
HETATM    9  O9  UNL     1     -31.504  18.813  -1.218  1.00 20.00    -0.260 OA
HETATM   10  O10 UNL     1     -30.290  18.774   0.705  1.00 20.00    -0.279 OA
ENDROOT
TORSDOF 0
ENDMDL
MODEL 9
REMARK VINA RESULT:      -4.1     12.451     12.744
REMARK  0 active torsions:
REMARK  status: ('A' for Active; 'I' for Inactive)
ROOT
HETATM    1  C1  UNL     1     -32.720  19.020   2.190  1.00 20.00     0.015 A 
HETATM    2  C2  UNL     1     -31.483  19.219   2.660  1.00 20.00     0.083 A 
HETATM    3  C3  UNL     1     -32.886  18.672   0.821  1.00 20.00    -0.028 A 
HETATM    4  C4  UNL     1     -31.817  18.551   0.038  1.00 20.00     0.063 A 
HETATM    5  C5  UNL     1     -30.295  19.080   1.775  1.00 20.00     0.287 A 
HETATM    6  C6  UNL     1     -34.148  18.412   0.083  1.00 20.00     0.041 C 
HETATM    7  C7  UNL     1     -32.150  18.191  -1.361  1.00 20.00     0.066 C 
HETATM    8  C8  UNL     1     -33.632  17.802  -1.232  1.00 20.00     0.011 C 
HETATM    9  O9  UNL     1     -29.166  19.263   2.223  1.00 20.00    -0.260 OA
HETATM   10  O10 UNL     1     -30.503  18.743   0.457  1.00 20.00    -0.279 OA
ENDROOT
TORSDOF 0
ENDMDL
