MODEL 1
REMARK VINA RESULT:      -6.4      0.000      0.000
REMARK  0 active torsions:
REMARK  status: ('A' for Active; 'I' for Inactive)
ROOT
HETATM    1  C1  UNL     1     -33.143   6.253   3.065  1.00 20.00     0.053 A 
HETATM    2  C2  UNL     1     -32.251   8.340   3.839  1.00 20.00     0.159 A 
HETATM    3  C3  UNL     1     -33.740   6.125   4.302  1.00 20.00    -0.030 A 
HETATM    4  C4  UNL     1     -32.373   7.388   2.826  1.00 20.00     0.134 A 
HETATM    5  C5  UNL     1     -33.561   7.131   5.246  1.00 20.00     0.040 A 
HETATM    6  C6  UNL     1     -34.634   5.048   4.817  1.00 20.00     0.041 C 
HETATM    7  C7  UNL     1     -34.334   6.828   6.498  1.00 20.00     0.060 C 
HETATM    8  C8  UNL     1     -34.582   5.322   6.330  1.00 20.00     0.011 C 
HETATM    9  N9  UNL     1     -32.837   8.246   5.057  1.00 20.00    -0.262 NA
HETATM   10  F10 UNL     1     -31.764   7.566   1.647  1.00 20.00    -0.205 F 
ENDROOT
TORSDOF 0
ENDMDL
MODEL 2
REMARK VINA RESULT:      -6.0      1.474      2.193
REMARK  0 active torsions:
REMARK  status: ('A' for Active; 'I' for Inactive)
ROOT
HETATM    1  C1  UNL     1     -33.237   8.257   5.261  1.00 20.00     0.053 A 
HETATM    2  C2  UNL     1     -32.337   7.707   3.107  1.00 20.00     0.159 A 
HETATM    3  C3  UNL     1     -33.758   6.980   5.295  1.00 20.00    -0.030 A 
HETATM    4  C4  UNL     1     -32.510   8.635   4.135  1.00 20.00     0.134 A 
HETATM    5  C5  UNL     1     -33.528   6.127   4.221  1.00 20.00     0.040 A 
HETATM    6  C6  UNL     1     -34.537   6.302   6.372  1.00 20.00     0.041 C 
HETATM    7  C7  UNL     1     -34.130   4.775   4.479  1.00 20.00     0.060 C 
HETATM    8  C8  UNL     1     -35.124   5.107   5.601  1.00 20.00     0.011 C 
HETATM    9  N9  UNL     1     -32.827   6.444   3.121  1.00 20.00    -0.262 NA
HETATM   10  F10 UNL     1     -31.984   9.862   4.041  1.00 20.00    -0.205 F 
ENDROOT
TORSDOF 0
ENDMDL
MODEL 3
REMARK VINA RESULT:      -5.8      2.492      4.111
REMARK  0 active torsions:
REMARK  status: ('A' for Active; 'I' for Inactive)
ROOT
HETATM    1  C1  UNL     1     -34.078   6.888   6.187  1.00 20.00     0.053 A 
HETATM    2  C2  UNL     1     -34.537   4.947   4.856  1.00 20.00     0.159 A 
HETATM    3  C3  UNL     1     -33.355   7.370   5.115  1.00 20.00    -0.030 A 
HETATM    4  C4  UNL     1     -34.683   5.640   6.058  1.00 20.00     0.134 A 
HETATM    5  C5  UNL     1     -33.271   6.605   3.957  1.00 20.00     0.040 A 
HETATM    6  C6  UNL     1     -32.641   8.670   4.961  1.00 20.00     0.041 C 
HETATM    7  C7  UNL     1     -32.491   7.328   2.898  1.00 20.00     0.060 C 
HETATM    8  C8  UNL     1     -31.748   8.373   3.744  1.00 20.00     0.011 C 
HETATM    9  N9  UNL     1     -33.844   5.403   3.785  1.00 20.00    -0.262 NA
HETATM   10  F10 UNL     1     -35.392   5.117   7.065  1.00 20.00    -0.205 F 
ENDROOT
TORSDOF 0
ENDMDL
MODEL 4
REMARK VINA RESULT:      -5.4      2.243      3.643
REMARK  0 active torsions:
REMARK  status: ('A' for Active; 'I' for Inactive)
ROOT
HETATM    1  C1  UNL     1     -34.296   5.240   4.711  1.00 20.00     0.053 A 
HETATM    2  C2  UNL     1     -34.183   6.942   6.395  1.00 20.00     0.159 A 
HETATM    3  C3  UNL     1     -33.468   6.034   3.946  1.00 20.00    -0.030 A 
HETATM    4  C4  UNL     1     -34.670   5.706   5.969  1.00 20.00     0.134 A 
HETATM    5  C5  UNL     1     -33.033   7.251   4.462  1.00 20.00     0.040 A 
HETATM    6  C6  UNL     1     -32.888   5.777   2.596  1.00 20.00     0.041 C 
HETATM    7  C7  UNL     1     -32.102   7.933   3.501  1.00 20.00     0.060 C 
HETATM    8  C8  UNL     1     -32.434   7.192   2.197  1.00 20.00     0.011 C 
HETATM    9  N9  UNL     1     -33.359   7.736   5.671  1.00 20.00    -0.262 NA
HETATM   10  F10 UNL     1     -35.476   4.983   6.755  1.00 20.00    -0.205 F 
ENDROOT
TORSDOF 0
ENDMDL
MODEL 5
REMARK VINA RESULT:      -5.3      1.554      2.200
REMARK  0 active torsions:
REMARK  status: ('A' for Active; 'I' for Inactive)
ROOT
HETATM    1  C1  UNL     1     -32.439   7.637   3.591  1.00 20.00     0.053 A 
HETATM    2  C2  UNL     1     -33.457   8.455   5.603  1.00 20.00     0.159 A 
HETATM    3  C3  UNL     1     -33.153   6.473   3.782  1.00 20.00    -0.030 A 
HETATM    4  C4  UNL     1     -32.590   8.657   4.529  1.00 20.00     0.134 A 
HETATM    5  C5  UNL     1     -33.995   6.368   4.884  1.00 20.00     0.040 A 
HETATM    6  C6  UNL     1     -33.212   5.247   2.934  1.00 20.00     0.041 C 
HETATM    7  C7  UNL     1     -34.717   5.052   4.878  1.00 20.00     0.060 C 
HETATM    8  C8  UNL     1     -33.837   4.241   3.915  1.00 20.00     0.011 C 
HETATM    9  N9  UNL     1     -34.179   7.326   5.806  1.00 20.00    -0.262 NA
HETATM   10  F10 UNL     1     -31.920   9.808   4.401  1.00 20.00    -0.205 F 
ENDROOT
TORSDOF 0
ENDMDL
MODEL 6
REMARK VINA RESULT:      -5.3      1.763      2.760
REMARK  0 active torsions:
REMARK  status: ('A' for Active; 'I' for Inactive)
ROOT
HETATM    1  C1  UNL     1     -32.595   6.450   3.037  1.00 20.00     0.053 A 
HETATM    2  C2  UNL     1     -33.990   4.654   3.796  1.00 20.00     0.159 A 
HETATM    3  C3  UNL     1     -32.981   7.139   4.168  1.00 20.00    -0.030 A 
HETATM    4  C4  UNL     1     -33.116   5.173   2.841  1.00 20.00     0.134 A 
HETATM    5  C5  UNL     1     -33.855   6.534   5.063  1.00 20.00     0.040 A 
HETATM    6  C6  UNL     1     -32.561   8.489   4.644  1.00 20.00     0.041 C 
HETATM    7  C7  UNL     1     -34.104   7.424   6.247  1.00 20.00     0.060 C 
HETATM    8  C8  UNL     1     -33.650   8.782   5.691  1.00 20.00     0.011 C 
HETATM    9  N9  UNL     1     -34.375   5.304   4.921  1.00 20.00    -0.262 NA
HETATM   10  F10 UNL     1     -32.784   4.457   1.760  1.00 20.00    -0.205 F 
ENDROOT
TORSDOF 0
ENDMDL
MODEL 7
REMARK VINA RESULT:      -4.8      2.248      3.643
REMARK  0 active torsions:
REMARK  status: ('A' for Active; 'I' for Inactive)
ROOT
HETATM    1  C1  UNL     1     -34.376   6.341   5.290  1.00 20.00     0.053 A 
HETATM    2  C2  UNL     1     -33.546   5.177   3.365  1.00 20.00     0.159 A 
HETATM    3  C3  UNL     1     -33.583   7.403   4.907  1.00 20.00    -0.030 A 
HETATM    4  C4  UNL     1     -34.355   5.194   4.501  1.00 20.00     0.134 A 
HETATM    5  C5  UNL     1     -32.812   7.291   3.755  1.00 20.00     0.040 A 
HETATM    6  C6  UNL     1     -33.434   8.749   5.533  1.00 20.00     0.041 C 
HETATM    7  C7  UNL     1     -32.069   8.568   3.487  1.00 20.00     0.060 C 
HETATM    8  C8  UNL     1     -32.138   9.241   4.866  1.00 20.00     0.011 C 
HETATM    9  N9  UNL     1     -32.768   6.210   2.960  1.00 20.00    -0.262 NA
HETATM   10  F10 UNL     1     -35.099   4.129   4.823  1.00 20.00    -0.205 F 
ENDROOT
TORSDOF 0
ENDMDL
MODEL 8
REMARK VINA RESULT:      -4.3     12.455     12.735
REMARK  0 active torsions:
REMARK  status: ('A' for Active; 'I' for Inactive)
ROOT
HETATM    1  C1  UNL     1     -33.339  18.491   0.687  1.00 20.00     0.053 A 
HETATM    2  C2  UNL     1     -31.832  18.174  -1.151  1.00 20.00     0.159 A 
HETATM    3  C3  UNL     1     -32.236  18.825   1.446  1.00 20.00    -0.030 A 
HETATM    4  C4  UNL     1     -33.133  18.151  -0.648  1.00 20.00     0.134 A 
HETATM    5  C5  UNL     1     -30.979  18.821   0.852  1.00 20.00     0.040 A 
HETATM    6  C6  UNL     1     -32.163  19.256   2.872  1.00 20.00     0.041 C 
HETATM    7  C7  UNL     1     -29.928  19.263   1.829  1.00 20.00     0.060 C 
HETATM    8  C8  UNL     1     -30.664  19.061   3.161  1.00 20.00     0.011 C 
HETATM    9  N9  UNL     1     -30.735  18.510  -0.431  1.00 20.00    -0.262 NA
HETATM   10  F10 UNL     1     -34.162  17.813  -1.434  1.00 20.00    -0.205 F 
ENDROOT
TORSDOF 0
ENDMDL
MODEL 9
REMARK VINA RESULT:      -4.2     16.203     16.691
REMARK  0 active torsions:
REMARK  status: ('A' for Active; 'I' for Inactive)
ROOT
HETATM    1  C1  UNL     1     -23.628  18.799   8.690  1.00 20.00     0.053 A 
HETATM    2  C2  UNL     1     -21.293  18.462   9.120  1.00 20.00     0.159 A 
HETATM    3  C3  UNL     1     -23.818  18.751  10.056  1.00 20.00    -0.030 A 
HETATM    4  C4  UNL     1     -22.331  18.645   8.206  1.00 20.00     0.134 A 
HETATM    5  C5  UNL     1     -22.717  18.566  10.885  1.00 20.00     0.040 A 
HETATM    6  C6  UNL     1     -25.072  18.916  10.844  1.00 20.00     0.041 C 
HETATM    7  C7  UNL     1     -23.129  18.599  12.329  1.00 20.00     0.060 C 
HETATM    8  C8  UNL     1     -24.640  18.349  12.207  1.00 20.00     0.011 C 
HETATM    9  N9  UNL     1     -21.450  18.424  10.465  1.00 20.00    -0.262 NA
HETATM   10  F10 UNL     1     -22.084  18.677   6.891  1.00 20.00    -0.205 F 
ENDROOT
TORSDOF 0
ENDMDL
