MODEL 1
REMARK VINA RESULT:      -4.6      0.000      0.000
REMARK  2 active torsions:
REMARK  status: ('A' for Active; 'I' for Inactive)
REMARK    1  A    between atoms: C1_1  and  N9_9 
REMARK    2  A    between atoms: C8_8  and  N9_9 
ROOT
HETATM    1  C2  UNL     1     -34.042   5.089   6.239  1.00 20.00     0.005 C 
HETATM    2  C3  UNL     1     -34.146   6.621   6.260  1.00 20.00     0.007 C 
HETATM    3  C4  UNL     1     -35.621   5.786   4.600  1.00 20.00     0.011 C 
HETATM    4  C5  UNL     1     -33.463   5.138   3.807  1.00 20.00     0.030 C 
HETATM    5  C6  UNL     1     -34.539   4.729   4.830  1.00 20.00    -0.012 C 
HETATM    6  C7  UNL     1     -34.661   6.953   4.845  1.00 20.00     0.009 C 
HETATM    7  C8  UNL     1     -33.585   6.672   3.774  1.00 20.00     0.088 C 
ENDROOT
BRANCH   7   8
HETATM    8  N9  UNL     1     -32.339   7.345   4.003  1.00 20.00    -0.363 N 
HETATM    9  H23 UNL     1     -31.493   6.779   4.084  1.00 20.00     0.162 HD
BRANCH   8  10
HETATM   10  C1  UNL     1     -32.219   8.717   4.120  1.00 20.00     0.348 C 
HETATM   11  O10 UNL     1     -32.161   9.377   5.149  1.00 20.00    -0.284 OA
ENDBRANCH   8  10
ENDBRANCH   7   8
TORSDOF 2
ENDMDL
MODEL 2
REMARK VINA RESULT:      -3.8      9.293     10.400
REMARK  2 active torsions:
REMARK  status: ('A' for Active; 'I' for Inactive)
REMARK    1  A    between atoms: C1_1  and  N9_9 
REMARK    2  A    between atoms: C8_8  and  N9_9 
ROOT
HETATM    1  C2  UNL     1     -42.057   8.104  -0.771  1.00 20.00     0.005 C 
HETATM    2  C3  UNL     1     -43.088   7.695   0.291  1.00 20.00     0.007 C 
HETATM    3  C4  UNL     1     -40.931   7.646   1.276  1.00 20.00     0.011 C 
HETATM    4  C5  UNL     1     -40.811   5.964  -0.417  1.00 20.00     0.030 C 
HETATM    5  C6  UNL     1     -40.752   7.493  -0.236  1.00 20.00    -0.012 C 
HETATM    6  C7  UNL     1     -42.250   6.870   1.289  1.00 20.00     0.009 C 
HETATM    7  C8  UNL     1     -41.804   5.527   0.674  1.00 20.00     0.088 C 
ENDROOT
BRANCH   7   8
HETATM    8  N9  UNL     1     -42.881   4.724   0.172  1.00 20.00    -0.363 N 
HETATM    9  H23 UNL     1     -43.432   4.183   0.840  1.00 20.00     0.162 HD
BRANCH   8  10
HETATM   10  C1  UNL     1     -43.216   4.642  -1.167  1.00 20.00     0.348 C 
HETATM   11  O10 UNL     1     -43.417   3.630  -1.826  1.00 20.00    -0.284 OA
ENDBRANCH   8  10
ENDBRANCH   7   8
TORSDOF 2
ENDMDL
MODEL 3
REMARK VINA RESULT:      -3.7     15.925     16.683
REMARK  2 active torsions:
REMARK  status: ('A' for Active; 'I' for Inactive)
REMARK    1  A    between atoms: C1_1  and  N9_9 
REMARK    2  A    between atoms: C8_8  and  N9_9 
ROOT
HETATM    1  C2  UNL     1     -21.732  18.818  10.462  1.00 20.00     0.005 C 
HETATM    2  C3  UNL     1     -22.488  18.046  11.553  1.00 20.00     0.007 C 
HETATM    3  C4  UNL     1     -22.949  17.036   9.457  1.00 20.00     0.011 C 
HETATM    4  C5  UNL     1     -23.873  19.228   9.237  1.00 20.00     0.030 C 
HETATM    5  C6  UNL     1     -22.526  18.482   9.190  1.00 20.00    -0.012 C 
HETATM    6  C7  UNL     1     -23.644  17.387  10.775  1.00 20.00     0.009 C 
HETATM    7  C8  UNL     1     -24.667  18.437  10.291  1.00 20.00     0.088 C 
ENDROOT
BRANCH   7   8
HETATM    8  N9  UNL     1     -25.200  19.263  11.337  1.00 20.00    -0.363 N 
HETATM    9  H23 UNL     1     -24.835  20.211  11.436  1.00 20.00     0.162 HD
BRANCH   8  10
HETATM   10  C1  UNL     1     -26.181  18.847  12.217  1.00 20.00     0.348 C 
HETATM   11  O10 UNL     1     -27.348  19.214  12.264  1.00 20.00    -0.284 OA
ENDBRANCH   8  10
ENDBRANCH   7   8
TORSDOF 2
ENDMDL
MODEL 4
REMARK VINA RESULT:      -3.7     12.205     13.485
REMARK  2 active torsions:
REMARK  status: ('A' for Active; 'I' for Inactive)
REMARK    1  A    between atoms: C1_1  and  N9_9 
REMARK    2  A    between atoms: C8_8  and  N9_9 
ROOT
HETATM    1  C2  UNL     1     -34.745  18.861  -1.496  1.00 20.00     0.005 C 
HETATM    2  C3  UNL     1     -33.872  17.740  -0.914  1.00 20.00     0.007 C 
HETATM    3  C4  UNL     1     -32.529  19.078  -2.338  1.00 20.00     0.011 C 
HETATM    4  C5  UNL     1     -34.155  18.144  -3.818  1.00 20.00     0.030 C 
HETATM    5  C6  UNL     1     -33.985  19.261  -2.770  1.00 20.00    -0.012 C 
HETATM    6  C7  UNL     1     -32.734  17.613  -1.947  1.00 20.00     0.009 C 
HETATM    7  C8  UNL     1     -33.246  17.026  -3.279  1.00 20.00     0.088 C 
ENDROOT
BRANCH   7   8
HETATM    8  N9  UNL     1     -33.918  15.765  -3.146  1.00 20.00    -0.363 N 
HETATM    9  H23 UNL     1     -34.404  15.567  -2.270  1.00 20.00     0.162 HD
BRANCH   8  10
HETATM   10  C1  UNL     1     -33.944  14.802  -4.138  1.00 20.00     0.348 C 
HETATM   11  O10 UNL     1     -34.432  13.681  -4.078  1.00 20.00    -0.284 OA
ENDBRANCH   8  10
ENDBRANCH   7   8
TORSDOF 2
ENDMDL
MODEL 5
REMARK VINA RESULT:      -3.5     12.284     13.358
REMARK  2 active torsions:
REMARK  status: ('A' for Active; 'I' for Inactive)
REMARK    1  A    between atoms: C1_1  and  N9_9 
REMARK    2  A    between atoms: C8_8  and  N9_9 
ROOT
HETATM    1  C2  UNL     1     -36.548  15.616  -5.507  1.00 20.00     0.005 C 
HETATM    2  C3  UNL     1     -35.879  16.942  -5.120  1.00 20.00     0.007 C 
HETATM    3  C4  UNL     1     -34.446  15.782  -6.611  1.00 20.00     0.011 C 
HETATM    4  C5  UNL     1     -34.548  14.346  -4.704  1.00 20.00     0.030 C 
HETATM    5  C6  UNL     1     -35.359  14.748  -5.951  1.00 20.00    -0.012 C 
HETATM    6  C7  UNL     1     -34.382  16.659  -5.359  1.00 20.00     0.009 C 
HETATM    7  C8  UNL     1     -33.828  15.653  -4.328  1.00 20.00     0.088 C 
ENDROOT
BRANCH   7   8
HETATM    8  N9  UNL     1     -34.032  16.040  -2.961  1.00 20.00    -0.363 N 
HETATM    9  H23 UNL     1     -34.813  15.623  -2.453  1.00 20.00     0.162 HD
BRANCH   8  10
HETATM   10  C1  UNL     1     -33.229  16.945  -2.293  1.00 20.00     0.348 C 
HETATM   11  O10 UNL     1     -33.401  17.412  -1.174  1.00 20.00    -0.284 OA
ENDBRANCH   8  10
ENDBRANCH   7   8
TORSDOF 2
ENDMDL
MODEL 6
REMARK VINA RESULT:      -3.5     12.701     14.240
REMARK  2 active torsions:
REMARK  status: ('A' for Active; 'I' for Inactive)
REMARK    1  A    between atoms: C1_1  and  N9_9 
REMARK    2  A    between atoms: C8_8  and  N9_9 
ROOT
HETATM    1  C2  UNL     1     -36.122  17.171  -5.279  1.00 20.00     0.005 C 
HETATM    2  C3  UNL     1     -34.848  17.538  -6.054  1.00 20.00     0.007 C 
HETATM    3  C4  UNL     1     -36.219  16.194  -7.447  1.00 20.00     0.011 C 
HETATM    4  C5  UNL     1     -35.665  14.738  -5.636  1.00 20.00     0.030 C 
HETATM    5  C6  UNL     1     -36.608  15.902  -5.997  1.00 20.00    -0.012 C 
HETATM    6  C7  UNL     1     -34.743  16.412  -7.103  1.00 20.00     0.009 C 
HETATM    7  C8  UNL     1     -34.396  15.060  -6.444  1.00 20.00     0.088 C 
ENDROOT
BRANCH   7   8
HETATM    8  N9  UNL     1     -33.205  15.085  -5.645  1.00 20.00    -0.363 N 
HETATM    9  H23 UNL     1     -32.310  15.224  -6.116  1.00 20.00     0.162 HD
BRANCH   8  10
HETATM   10  C1  UNL     1     -33.201  14.932  -4.270  1.00 20.00     0.348 C 
HETATM   11  O10 UNL     1     -33.144  15.812  -3.421  1.00 20.00    -0.284 OA
ENDBRANCH   8  10
ENDBRANCH   7   8
TORSDOF 2
ENDMDL
MODEL 7
REMARK VINA RESULT:      -3.5      9.511     10.755
REMARK  2 active torsions:
REMARK  status: ('A' for Active; 'I' for Inactive)
REMARK    1  A    between atoms: C1_1  and  N9_9 
REMARK    2  A    between atoms: C8_8  and  N9_9 
ROOT
HETATM    1  C2  UNL     1     -40.858   7.132   1.059  1.00 20.00     0.005 C 
HETATM    2  C3  UNL     1     -40.906   6.672  -0.405  1.00 20.00     0.007 C 
HETATM    3  C4  UNL     1     -42.682   8.200  -0.035  1.00 20.00     0.011 C 
HETATM    4  C5  UNL     1     -43.215   6.366   1.400  1.00 20.00     0.030 C 
HETATM    5  C6  UNL     1     -42.298   7.602   1.319  1.00 20.00    -0.012 C 
HETATM    6  C7  UNL     1     -42.380   6.906  -0.794  1.00 20.00     0.009 C 
HETATM    7  C8  UNL     1     -43.317   5.918  -0.068  1.00 20.00     0.088 C 
ENDROOT
BRANCH   7   8
HETATM    8  N9  UNL     1     -42.981   4.537  -0.264  1.00 20.00    -0.363 N 
HETATM    9  H23 UNL     1     -42.386   4.082   0.430  1.00 20.00     0.162 HD
BRANCH   8  10
HETATM   10  C1  UNL     1     -43.417   3.787  -1.340  1.00 20.00     0.348 C 
HETATM   11  O10 UNL     1     -43.109   3.920  -2.517  1.00 20.00    -0.284 OA
ENDBRANCH   8  10
ENDBRANCH   7   8
TORSDOF 2
ENDMDL
MODEL 8
REMARK VINA RESULT:      -3.5     12.896     14.117
REMARK  2 active torsions:
REMARK  status: ('A' for Active; 'I' for Inactive)
REMARK    1  A    between atoms: C1_1  and  N9_9 
REMARK    2  A    between atoms: C8_8  and  N9_9 
ROOT
HETATM    1  C2  UNL     1     -33.644  17.082  -1.678  1.00 20.00     0.005 C 
HETATM    2  C3  UNL     1     -33.383  16.384  -3.020  1.00 20.00     0.007 C 
HETATM    3  C4  UNL     1     -33.035  18.713  -3.300  1.00 20.00     0.011 C 
HETATM    4  C5  UNL     1     -35.355  18.557  -2.750  1.00 20.00     0.030 C 
HETATM    5  C6  UNL     1     -33.960  18.526  -2.096  1.00 20.00    -0.012 C 
HETATM    6  C7  UNL     1     -33.615  17.511  -4.048  1.00 20.00     0.009 C 
HETATM    7  C8  UNL     1     -35.105  17.906  -4.122  1.00 20.00     0.088 C 
ENDROOT
BRANCH   7   8
HETATM    8  N9  UNL     1     -35.991  16.812  -4.400  1.00 20.00    -0.363 N 
HETATM    9  H23 UNL     1     -36.596  16.478  -3.648  1.00 20.00     0.162 HD
BRANCH   8  10
HETATM   10  C1  UNL     1     -36.071  16.183  -5.629  1.00 20.00     0.348 C 
HETATM   11  O10 UNL     1     -36.859  15.312  -5.972  1.00 20.00    -0.284 OA
ENDBRANCH   8  10
ENDBRANCH   7   8
TORSDOF 2
ENDMDL
MODEL 9
REMARK VINA RESULT:      -3.4      9.517     10.464
REMARK  2 active torsions:
REMARK  status: ('A' for Active; 'I' for Inactive)
REMARK    1  A    between atoms: C1_1  and  N9_9 
REMARK    2  A    between atoms: C8_8  and  N9_9 
ROOT
HETATM    1  C2  UNL     1     -42.132  15.282   6.106  1.00 20.00     0.005 C 
HETATM    2  C3  UNL     1     -41.992  14.005   5.266  1.00 20.00     0.007 C 
HETATM    3  C4  UNL     1     -42.643  13.395   7.463  1.00 20.00     0.011 C 
HETATM    4  C5  UNL     1     -40.494  14.391   7.773  1.00 20.00     0.030 C 
HETATM    5  C6  UNL     1     -41.971  14.766   7.545  1.00 20.00    -0.012 C 
HETATM    6  C7  UNL     1     -41.735  12.917   6.328  1.00 20.00     0.009 C 
HETATM    7  C8  UNL     1     -40.346  13.082   6.978  1.00 20.00     0.088 C 
ENDROOT
BRANCH   7   8
HETATM    8  N9  UNL     1     -39.258  13.108   6.042  1.00 20.00    -0.363 N 
HETATM    9  H23 UNL     1     -38.781  13.995   5.881  1.00 20.00     0.162 HD
BRANCH   8  10
HETATM   10  C1  UNL     1     -38.820  11.996   5.346  1.00 20.00     0.348 C 
HETATM   11  O10 UNL     1     -38.967  11.756   4.154  1.00 20.00    -0.284 OA
ENDBRANCH   8  10
ENDBRANCH   7   8
TORSDOF 2
ENDMDL
