MODEL 1
REMARK VINA RESULT:      -6.2      0.000      0.000
REMARK  0 active torsions:
REMARK  status: ('A' for Active; 'I' for Inactive)
ROOT
HETATM    1  C1  UNL     1     -32.106   7.475   3.408  1.00 20.00    -0.023 C 
HETATM    2  C2  UNL     1     -32.615   8.255   4.369  1.00 20.00    -0.083 C 
HETATM    3  C3  UNL     1     -34.505   5.349   5.003  1.00 20.00     0.132 C 
HETATM    4  C4  UNL     1     -32.880   6.208   3.233  1.00 20.00     0.040 C 
HETATM    5  C5  UNL     1     -34.480   5.798   6.438  1.00 20.00     0.079 C 
HETATM    6  C6  UNL     1     -33.558   7.006   6.368  1.00 20.00     0.017 C 
HETATM    7  C7  UNL     1     -33.824   7.635   4.998  1.00 20.00     0.025 C 
HETATM    8  C8  UNL     1     -34.142   6.464   4.051  1.00 20.00     0.067 C 
HETATM    9  C9  UNL     1     -32.091   9.569   4.824  1.00 20.00     0.043 C 
HETATM   10  O10 UNL     1     -34.822   4.222   4.646  1.00 20.00    -0.298 OA
ENDROOT
TORSDOF 0
ENDMDL
MODEL 2
REMARK VINA RESULT:      -5.6      1.243      1.897
REMARK  0 active torsions:
REMARK  status: ('A' for Active; 'I' for Inactive)
ROOT
HETATM    1  C1  UNL     1     -32.872   5.401   2.846  1.00 20.00    -0.023 C 
HETATM    2  C2  UNL     1     -32.875   6.736   2.943  1.00 20.00    -0.083 C 
HETATM    3  C3  UNL     1     -34.552   5.991   5.952  1.00 20.00     0.132 C 
HETATM    4  C4  UNL     1     -33.744   4.753   3.872  1.00 20.00     0.040 C 
HETATM    5  C5  UNL     1     -33.900   7.241   6.478  1.00 20.00     0.079 C 
HETATM    6  C6  UNL     1     -33.000   7.631   5.315  1.00 20.00     0.017 C 
HETATM    7  C7  UNL     1     -33.759   7.204   4.058  1.00 20.00     0.025 C 
HETATM    8  C8  UNL     1     -34.531   5.929   4.443  1.00 20.00     0.067 C 
HETATM    9  C9  UNL     1     -32.109   7.694   2.106  1.00 20.00     0.043 C 
HETATM   10  O10 UNL     1     -35.075   5.143   6.664  1.00 20.00    -0.298 OA
ENDROOT
TORSDOF 0
ENDMDL
MODEL 3
REMARK VINA RESULT:      -5.3      1.857      3.548
REMARK  0 active torsions:
REMARK  status: ('A' for Active; 'I' for Inactive)
ROOT
HETATM    1  C1  UNL     1     -33.517   7.224   6.284  1.00 20.00    -0.023 C 
HETATM    2  C2  UNL     1     -34.295   6.210   5.889  1.00 20.00    -0.083 C 
HETATM    3  C3  UNL     1     -32.726   6.891   2.808  1.00 20.00     0.132 C 
HETATM    4  C4  UNL     1     -32.874   7.930   5.134  1.00 20.00     0.040 C 
HETATM    5  C5  UNL     1     -32.879   5.418   2.547  1.00 20.00     0.079 C 
HETATM    6  C6  UNL     1     -33.433   4.925   3.876  1.00 20.00     0.017 C 
HETATM    7  C7  UNL     1     -34.303   6.071   4.397  1.00 20.00     0.025 C 
HETATM    8  C8  UNL     1     -33.620   7.368   3.928  1.00 20.00     0.067 C 
HETATM    9  C9  UNL     1     -35.066   5.284   6.758  1.00 20.00     0.043 C 
HETATM   10  O10 UNL     1     -31.991   7.626   2.160  1.00 20.00    -0.298 OA
ENDROOT
TORSDOF 0
ENDMDL
MODEL 4
REMARK VINA RESULT:      -5.1      2.054      4.014
REMARK  0 active torsions:
REMARK  status: ('A' for Active; 'I' for Inactive)
ROOT
HETATM    1  C1  UNL     1     -34.230   6.259   6.467  1.00 20.00    -0.023 C 
HETATM    2  C2  UNL     1     -34.496   5.919   5.200  1.00 20.00    -0.083 C 
HETATM    3  C3  UNL     1     -32.432   8.705   4.569  1.00 20.00     0.132 C 
HETATM    4  C4  UNL     1     -33.553   7.588   6.571  1.00 20.00     0.040 C 
HETATM    5  C5  UNL     1     -32.023   7.961   3.326  1.00 20.00     0.079 C 
HETATM    6  C6  UNL     1     -32.738   6.632   3.513  1.00 20.00     0.017 C 
HETATM    7  C7  UNL     1     -34.040   6.974   4.240  1.00 20.00     0.025 C 
HETATM    8  C8  UNL     1     -33.708   8.160   5.165  1.00 20.00     0.067 C 
HETATM    9  C9  UNL     1     -35.138   4.666   4.728  1.00 20.00     0.043 C 
HETATM   10  O10 UNL     1     -31.822   9.666   5.021  1.00 20.00    -0.298 OA
ENDROOT
TORSDOF 0
ENDMDL
MODEL 5
REMARK VINA RESULT:      -4.9      2.003      3.460
REMARK  0 active torsions:
REMARK  status: ('A' for Active; 'I' for Inactive)
ROOT
HETATM    1  C1  UNL     1     -34.413   5.193   4.191  1.00 20.00    -0.023 C 
HETATM    2  C2  UNL     1     -34.153   5.990   5.234  1.00 20.00    -0.083 C 
HETATM    3  C3  UNL     1     -32.385   7.776   2.763  1.00 20.00     0.132 C 
HETATM    4  C4  UNL     1     -33.589   5.537   2.992  1.00 20.00     0.040 C 
HETATM    5  C5  UNL     1     -32.744   8.996   3.566  1.00 20.00     0.079 C 
HETATM    6  C6  UNL     1     -33.655   8.406   4.633  1.00 20.00     0.017 C 
HETATM    7  C7  UNL     1     -33.102   7.005   4.903  1.00 20.00     0.025 C 
HETATM    8  C8  UNL     1     -32.551   6.502   3.557  1.00 20.00     0.067 C 
HETATM    9  C9  UNL     1     -34.798   5.950   6.572  1.00 20.00     0.043 C 
HETATM   10  O10 UNL     1     -31.969   7.815   1.612  1.00 20.00    -0.298 OA
ENDROOT
TORSDOF 0
ENDMDL
MODEL 6
REMARK VINA RESULT:      -4.7      1.703      3.301
REMARK  0 active torsions:
REMARK  status: ('A' for Active; 'I' for Inactive)
ROOT
HETATM    1  C1  UNL     1     -33.833   4.288   4.289  1.00 20.00    -0.023 C 
HETATM    2  C2  UNL     1     -33.536   5.160   3.319  1.00 20.00    -0.083 C 
HETATM    3  C3  UNL     1     -34.035   7.456   5.945  1.00 20.00     0.132 C 
HETATM    4  C4  UNL     1     -34.352   4.960   5.520  1.00 20.00     0.040 C 
HETATM    5  C5  UNL     1     -32.999   8.292   5.244  1.00 20.00     0.079 C 
HETATM    6  C6  UNL     1     -32.559   7.361   4.124  1.00 20.00     0.017 C 
HETATM    7  C7  UNL     1     -33.812   6.570   3.742  1.00 20.00     0.025 C 
HETATM    8  C8  UNL     1     -34.609   6.387   5.046  1.00 20.00     0.067 C 
HETATM    9  C9  UNL     1     -32.981   4.848   1.977  1.00 20.00     0.043 C 
HETATM   10  O10 UNL     1     -34.399   7.647   7.099  1.00 20.00    -0.298 OA
ENDROOT
TORSDOF 0
ENDMDL
MODEL 7
REMARK VINA RESULT:      -4.6      1.302      2.375
REMARK  0 active torsions:
REMARK  status: ('A' for Active; 'I' for Inactive)
ROOT
HETATM    1  C1  UNL     1     -32.940   8.886   3.987  1.00 20.00    -0.023 C 
HETATM    2  C2  UNL     1     -32.615   7.802   3.271  1.00 20.00    -0.083 C 
HETATM    3  C3  UNL     1     -34.405   6.204   5.853  1.00 20.00     0.132 C 
HETATM    4  C4  UNL     1     -33.515   8.536   5.321  1.00 20.00     0.040 C 
HETATM    5  C5  UNL     1     -34.785   5.201   4.797  1.00 20.00     0.079 C 
HETATM    6  C6  UNL     1     -34.191   5.831   3.546  1.00 20.00     0.017 C 
HETATM    7  C7  UNL     1     -32.919   6.539   4.017  1.00 20.00     0.025 C 
HETATM    8  C8  UNL     1     -33.220   7.044   5.440  1.00 20.00     0.067 C 
HETATM    9  C9  UNL     1     -32.042   7.775   1.901  1.00 20.00     0.043 C 
HETATM   10  O10 UNL     1     -34.966   6.300   6.937  1.00 20.00    -0.298 OA
ENDROOT
TORSDOF 0
ENDMDL
MODEL 8
REMARK VINA RESULT:      -4.4      1.310      1.856
REMARK  0 active torsions:
REMARK  status: ('A' for Active; 'I' for Inactive)
ROOT
HETATM    1  C1  UNL     1     -32.265   8.393   4.505  1.00 20.00    -0.023 C 
HETATM    2  C2  UNL     1     -33.425   8.213   5.148  1.00 20.00    -0.083 C 
HETATM    3  C3  UNL     1     -33.397   5.226   3.279  1.00 20.00     0.132 C 
HETATM    4  C4  UNL     1     -32.056   7.393   3.414  1.00 20.00     0.040 C 
HETATM    5  C5  UNL     1     -34.140   4.636   4.447  1.00 20.00     0.079 C 
HETATM    6  C6  UNL     1     -34.118   5.789   5.439  1.00 20.00     0.017 C 
HETATM    7  C7  UNL     1     -34.192   7.056   4.585  1.00 20.00     0.025 C 
HETATM    8  C8  UNL     1     -33.428   6.735   3.288  1.00 20.00     0.067 C 
HETATM    9  C9  UNL     1     -33.945   9.005   6.293  1.00 20.00     0.043 C 
HETATM   10  O10 UNL     1     -32.865   4.558   2.401  1.00 20.00    -0.298 OA
ENDROOT
TORSDOF 0
ENDMDL
MODEL 9
REMARK VINA RESULT:      -4.0     12.495     13.693
REMARK  0 active torsions:
REMARK  status: ('A' for Active; 'I' for Inactive)
ROOT
HETATM    1  C1  UNL     1     -33.384  15.818  -3.446  1.00 20.00    -0.023 C 
HETATM    2  C2  UNL     1     -33.692  17.057  -3.846  1.00 20.00    -0.083 C 
HETATM    3  C3  UNL     1     -35.640  15.261  -6.169  1.00 20.00     0.132 C 
HETATM    4  C4  UNL     1     -33.866  14.774  -4.400  1.00 20.00     0.040 C 
HETATM    5  C5  UNL     1     -36.578  16.436  -6.101  1.00 20.00     0.079 C 
HETATM    6  C6  UNL     1     -35.940  17.276  -5.005  1.00 20.00     0.017 C 
HETATM    7  C7  UNL     1     -34.434  17.047  -5.147  1.00 20.00     0.025 C 
HETATM    8  C8  UNL     1     -34.272  15.592  -5.623  1.00 20.00     0.067 C 
HETATM    9  C9  UNL     1     -33.390  18.327  -3.136  1.00 20.00     0.043 C 
HETATM   10  O10 UNL     1     -35.941  14.175  -6.648  1.00 20.00    -0.298 OA
ENDROOT
TORSDOF 0
ENDMDL
