MODEL 1
REMARK VINA RESULT:      -4.2      0.000      0.000
REMARK  1 active torsions:
REMARK  status: ('A' for Active; 'I' for Inactive)
REMARK    1  A    between atoms: C7_7  and  C8_8 
ROOT
HETATM    1  C1  UNL     1     -34.222   6.643   6.340  1.00 20.00     0.131 C 
HETATM    2  C2  UNL     1     -34.462   5.231   5.861  1.00 20.00     0.104 C 
HETATM    3  C3  UNL     1     -33.173   7.422   5.580  1.00 20.00     0.110 C 
HETATM    4  C6  UNL     1     -34.588   5.225   4.347  1.00 20.00     0.175 C 
HETATM    5  C8  UNL     1     -33.404   7.257   4.079  1.00 20.00     0.132 C 
HETATM    6  O9  UNL     1     -34.760   7.089   7.351  1.00 20.00    -0.298 OA
HETATM    7  O10 UNL     1     -33.461   5.863   3.743  1.00 20.00    -0.385 OA
ENDROOT
BRANCH   5   8
HETATM    8  C7  UNL     1     -32.299   7.891   3.287  1.00 20.00     0.015 A 
HETATM    9  C4  UNL     1     -32.188   7.645   1.808  1.00 20.00     0.007 A 
HETATM   10  C5  UNL     1     -32.604   8.998   2.314  1.00 20.00     0.007 A 
ENDBRANCH   5   8
TORSDOF 1
ENDMDL
MODEL 2
REMARK VINA RESULT:      -4.1      1.526      4.255
REMARK  1 active torsions:
REMARK  status: ('A' for Active; 'I' for Inactive)
REMARK    1  A    between atoms: C7_7  and  C8_8 
ROOT
HETATM    1  C1  UNL     1     -32.304   7.564   2.941  1.00 20.00     0.131 C 
HETATM    2  C2  UNL     1     -31.641   8.397   4.013  1.00 20.00     0.104 C 
HETATM    3  C3  UNL     1     -33.219   6.469   3.435  1.00 20.00     0.110 C 
HETATM    4  C6  UNL     1     -32.675   8.803   5.049  1.00 20.00     0.175 C 
HETATM    5  C8  UNL     1     -34.145   7.027   4.515  1.00 20.00     0.132 C 
HETATM    6  O9  UNL     1     -32.029   7.695   1.750  1.00 20.00    -0.298 OA
HETATM    7  O10 UNL     1     -33.372   7.658   5.545  1.00 20.00    -0.385 OA
ENDROOT
BRANCH   5   8
HETATM    8  C7  UNL     1     -34.969   5.939   5.138  1.00 20.00     0.015 A 
HETATM    9  C4  UNL     1     -34.486   4.515   5.119  1.00 20.00     0.007 A 
HETATM   10  C5  UNL     1     -34.515   5.281   6.413  1.00 20.00     0.007 A 
ENDBRANCH   5   8
TORSDOF 1
ENDMDL
MODEL 3
REMARK VINA RESULT:      -4.1      1.771      3.872
REMARK  1 active torsions:
REMARK  status: ('A' for Active; 'I' for Inactive)
REMARK    1  A    between atoms: C7_7  and  C8_8 
ROOT
HETATM    1  C1  UNL     1     -32.351   9.085   4.691  1.00 20.00     0.131 C 
HETATM    2  C2  UNL     1     -32.113   8.771   3.233  1.00 20.00     0.104 C 
HETATM    3  C3  UNL     1     -33.515   8.369   5.335  1.00 20.00     0.110 C 
HETATM    4  C6  UNL     1     -32.175   7.268   3.024  1.00 20.00     0.175 C 
HETATM    5  C8  UNL     1     -33.465   6.886   4.972  1.00 20.00     0.132 C 
HETATM    6  O9  UNL     1     -31.711   9.952   5.283  1.00 20.00    -0.298 OA
HETATM    7  O10 UNL     1     -33.393   6.733   3.547  1.00 20.00    -0.385 OA
ENDROOT
BRANCH   5   8
HETATM    8  C7  UNL     1     -34.683   6.164   5.466  1.00 20.00     0.015 A 
HETATM    9  C4  UNL     1     -34.956   4.751   5.032  1.00 20.00     0.007 A 
HETATM   10  C5  UNL     1     -34.546   5.034   6.450  1.00 20.00     0.007 A 
ENDBRANCH   5   8
TORSDOF 1
ENDMDL
MODEL 4
REMARK VINA RESULT:      -4.0     11.555     12.812
REMARK  1 active torsions:
REMARK  status: ('A' for Active; 'I' for Inactive)
REMARK    1  A    between atoms: C7_7  and  C8_8 
ROOT
HETATM    1  C1  UNL     1     -35.313  13.983  -4.755  1.00 20.00     0.131 C 
HETATM    2  C2  UNL     1     -35.729  14.686  -6.026  1.00 20.00     0.104 C 
HETATM    3  C3  UNL     1     -34.129  14.583  -4.033  1.00 20.00     0.110 C 
HETATM    4  C6  UNL     1     -35.782  16.185  -5.780  1.00 20.00     0.175 C 
HETATM    5  C8  UNL     1     -34.309  16.096  -3.929  1.00 20.00     0.132 C 
HETATM    6  O9  UNL     1     -35.830  12.928  -4.395  1.00 20.00    -0.298 OA
HETATM    7  O10 UNL     1     -34.548  16.651  -5.230  1.00 20.00    -0.385 OA
ENDROOT
BRANCH   5   8
HETATM    8  C7  UNL     1     -33.088  16.750  -3.351  1.00 20.00     0.015 A 
HETATM    9  C4  UNL     1     -33.055  18.237  -3.134  1.00 20.00     0.007 A 
HETATM   10  C5  UNL     1     -33.118  17.308  -1.954  1.00 20.00     0.007 A 
ENDBRANCH   5   8
TORSDOF 1
ENDMDL
MODEL 5
REMARK VINA RESULT:      -4.0      9.677     10.272
REMARK  1 active torsions:
REMARK  status: ('A' for Active; 'I' for Inactive)
REMARK    1  A    between atoms: C7_7  and  C8_8 
ROOT
HETATM    1  C1  UNL     1     -42.883  13.632   6.730  1.00 20.00     0.131 C 
HETATM    2  C2  UNL     1     -43.305  14.274   5.430  1.00 20.00     0.104 C 
HETATM    3  C3  UNL     1     -41.883  12.506   6.610  1.00 20.00     0.110 C 
HETATM    4  C6  UNL     1     -42.076  14.556   4.583  1.00 20.00     0.175 C 
HETATM    5  C8  UNL     1     -40.750  12.928   5.676  1.00 20.00     0.132 C 
HETATM    6  O9  UNL     1     -43.404  13.929   7.803  1.00 20.00    -0.298 OA
HETATM    7  O10 UNL     1     -41.289  13.373   4.423  1.00 20.00    -0.385 OA
ENDROOT
BRANCH   5   8
HETATM    8  C7  UNL     1     -39.812  11.787   5.411  1.00 20.00     0.015 A 
HETATM    9  C4  UNL     1     -39.048  11.719   4.118  1.00 20.00     0.007 A 
HETATM   10  C5  UNL     1     -38.325  12.016   5.402  1.00 20.00     0.007 A 
ENDBRANCH   5   8
TORSDOF 1
ENDMDL
MODEL 6
REMARK VINA RESULT:      -3.7      1.220      2.112
REMARK  1 active torsions:
REMARK  status: ('A' for Active; 'I' for Inactive)
REMARK    1  A    between atoms: C7_7  and  C8_8 
ROOT
HETATM    1  C1  UNL     1     -34.174   5.183   4.564  1.00 20.00     0.131 C 
HETATM    2  C2  UNL     1     -34.963   5.909   5.628  1.00 20.00     0.104 C 
HETATM    3  C3  UNL     1     -33.441   6.062   3.578  1.00 20.00     0.110 C 
HETATM    4  C6  UNL     1     -34.109   7.016   6.222  1.00 20.00     0.175 C 
HETATM    5  C8  UNL     1     -32.691   7.159   4.332  1.00 20.00     0.132 C 
HETATM    6  O9  UNL     1     -34.219   3.961   4.440  1.00 20.00    -0.298 OA
HETATM    7  O10 UNL     1     -33.594   7.865   5.194  1.00 20.00    -0.385 OA
ENDROOT
BRANCH   5   8
HETATM    8  C7  UNL     1     -32.071   8.143   3.385  1.00 20.00     0.015 A 
HETATM    9  C4  UNL     1     -32.203   7.953   1.899  1.00 20.00     0.007 A 
HETATM   10  C5  UNL     1     -32.939   9.072   2.582  1.00 20.00     0.007 A 
ENDBRANCH   5   8
TORSDOF 1
ENDMDL
MODEL 7
REMARK VINA RESULT:      -3.6     11.844     13.313
REMARK  1 active torsions:
REMARK  status: ('A' for Active; 'I' for Inactive)
REMARK    1  A    between atoms: C7_7  and  C8_8 
ROOT
HETATM    1  C1  UNL     1     -34.457  16.246  -5.849  1.00 20.00     0.131 C 
HETATM    2  C2  UNL     1     -34.320  14.814  -5.387  1.00 20.00     0.104 C 
HETATM    3  C3  UNL     1     -34.600  17.277  -4.754  1.00 20.00     0.110 C 
HETATM    4  C6  UNL     1     -33.303  14.742  -4.260  1.00 20.00     0.175 C 
HETATM    5  C8  UNL     1     -33.550  17.022  -3.674  1.00 20.00     0.132 C 
HETATM    6  O9  UNL     1     -34.561  16.539  -7.038  1.00 20.00    -0.298 OA
HETATM    7  O10 UNL     1     -33.634  15.664  -3.219  1.00 20.00    -0.385 OA
ENDROOT
BRANCH   5   8
HETATM    8  C7  UNL     1     -33.750  17.930  -2.497  1.00 20.00     0.015 A 
HETATM    9  C4  UNL     1     -33.636  17.394  -1.097  1.00 20.00     0.007 A 
HETATM   10  C5  UNL     1     -32.581  18.320  -1.634  1.00 20.00     0.007 A 
ENDBRANCH   5   8
TORSDOF 1
ENDMDL
MODEL 8
REMARK VINA RESULT:      -3.6      9.661     10.735
REMARK  1 active torsions:
REMARK  status: ('A' for Active; 'I' for Inactive)
REMARK    1  A    between atoms: C7_7  and  C8_8 
ROOT
HETATM    1  C1  UNL     1     -40.988  13.317   4.942  1.00 20.00     0.131 C 
HETATM    2  C2  UNL     1     -40.169  12.073   5.195  1.00 20.00     0.104 C 
HETATM    3  C3  UNL     1     -41.570  13.978   6.170  1.00 20.00     0.110 C 
HETATM    4  C6  UNL     1     -39.205  12.327   6.341  1.00 20.00     0.175 C 
HETATM    5  C8  UNL     1     -40.491  14.097   7.244  1.00 20.00     0.132 C 
HETATM    6  O9  UNL     1     -41.259  13.699   3.806  1.00 20.00    -0.298 OA
HETATM    7  O10 UNL     1     -39.901  12.813   7.491  1.00 20.00    -0.385 OA
ENDROOT
BRANCH   5   8
HETATM    8  C7  UNL     1     -41.061  14.613   8.533  1.00 20.00     0.015 A 
HETATM    9  C4  UNL     1     -40.293  14.463   9.816  1.00 20.00     0.007 A 
HETATM   10  C5  UNL     1     -40.461  15.822   9.196  1.00 20.00     0.007 A 
ENDBRANCH   5   8
TORSDOF 1
ENDMDL
MODEL 9
REMARK VINA RESULT:      -3.6      9.821     10.502
REMARK  1 active torsions:
REMARK  status: ('A' for Active; 'I' for Inactive)
REMARK    1  A    between atoms: C7_7  and  C8_8 
ROOT
HETATM    1  C1  UNL     1     -41.308  15.213   7.696  1.00 20.00     0.131 C 
HETATM    2  C2  UNL     1     -42.574  15.321   6.879  1.00 20.00     0.104 C 
HETATM    3  C3  UNL     1     -40.553  13.911   7.564  1.00 20.00     0.110 C 
HETATM    4  C6  UNL     1     -42.304  14.842   5.463  1.00 20.00     0.175 C 
HETATM    5  C8  UNL     1     -40.427  13.543   6.087  1.00 20.00     0.132 C 
HETATM    6  O9  UNL     1     -40.977  16.080   8.501  1.00 20.00    -0.298 OA
HETATM    7  O10 UNL     1     -41.723  13.537   5.471  1.00 20.00    -0.385 OA
ENDROOT
BRANCH   5   8
HETATM    8  C7  UNL     1     -39.814  12.184   5.917  1.00 20.00     0.015 A 
HETATM    9  C4  UNL     1     -39.461  11.677   4.546  1.00 20.00     0.007 A 
HETATM   10  C5  UNL     1     -38.372  12.049   5.513  1.00 20.00     0.007 A 
ENDBRANCH   5   8
TORSDOF 1
ENDMDL
