MODEL 1
REMARK VINA RESULT:      -5.4      0.000      0.000
REMARK  1 active torsions:
REMARK  status: ('A' for Active; 'I' for Inactive)
REMARK    1  A    between atoms: C2_2  and  C9_9 
ROOT
HETATM    1  C1  UNL     1     -33.217   6.054   3.757  1.00 20.00     0.053 C 
HETATM    2  C2  UNL     1     -32.991   7.342   4.060  1.00 20.00    -0.072 C 
HETATM    3  C3  UNL     1     -34.105   5.221   4.606  1.00 20.00     0.149 C 
HETATM    4  C4  UNL     1     -33.556   8.004   5.291  1.00 20.00     0.035 C 
HETATM    5  C5  UNL     1     -34.823   5.882   5.761  1.00 20.00     0.083 C 
HETATM    6  C6  UNL     1     -33.981   6.997   6.356  1.00 20.00     0.012 C 
HETATM    7  O10 UNL     1     -34.292   4.041   4.320  1.00 20.00    -0.293 OA
ENDROOT
BRANCH   2   8
HETATM    8  C9  UNL     1     -32.151   8.216   3.175  1.00 20.00     0.014 A 
HETATM    9  C7  UNL     1     -32.168   7.947   1.710  1.00 20.00     0.010 A 
HETATM   10  C8  UNL     1     -32.850   9.162   2.262  1.00 20.00     0.010 A 
ENDBRANCH   2   8
TORSDOF 1
ENDMDL
MODEL 2
REMARK VINA RESULT:      -5.0      2.111      4.362
REMARK  1 active torsions:
REMARK  status: ('A' for Active; 'I' for Inactive)
REMARK    1  A    between atoms: C2_2  and  C9_9 
ROOT
HETATM    1  C1  UNL     1     -33.491   7.787   4.746  1.00 20.00     0.053 C 
HETATM    2  C2  UNL     1     -33.943   6.571   4.402  1.00 20.00    -0.072 C 
HETATM    3  C3  UNL     1     -32.563   8.528   3.855  1.00 20.00     0.149 C 
HETATM    4  C4  UNL     1     -33.504   5.858   3.149  1.00 20.00     0.035 C 
HETATM    5  C5  UNL     1     -32.218   7.925   2.512  1.00 20.00     0.083 C 
HETATM    6  C6  UNL     1     -32.194   6.408   2.590  1.00 20.00     0.012 C 
HETATM    7  O10 UNL     1     -32.149   9.636   4.191  1.00 20.00    -0.293 OA
ENDROOT
BRANCH   2   8
HETATM    8  C9  UNL     1     -34.935   5.837   5.258  1.00 20.00     0.014 A 
HETATM    9  C7  UNL     1     -34.420   4.778   6.171  1.00 20.00     0.010 A 
HETATM   10  C8  UNL     1     -34.907   6.083   6.726  1.00 20.00     0.010 A 
ENDBRANCH   2   8
TORSDOF 1
ENDMDL
MODEL 3
REMARK VINA RESULT:      -4.9      1.422      2.117
REMARK  1 active torsions:
REMARK  status: ('A' for Active; 'I' for Inactive)
REMARK    1  A    between atoms: C2_2  and  C9_9 
ROOT
HETATM    1  C1  UNL     1     -33.372   7.557   5.265  1.00 20.00     0.053 C 
HETATM    2  C2  UNL     1     -32.985   7.091   4.068  1.00 20.00    -0.072 C 
HETATM    3  C3  UNL     1     -34.210   6.727   6.166  1.00 20.00     0.149 C 
HETATM    4  C4  UNL     1     -33.415   5.747   3.534  1.00 20.00     0.035 C 
HETATM    5  C5  UNL     1     -34.535   5.311   5.745  1.00 20.00     0.083 C 
HETATM    6  C6  UNL     1     -34.660   5.210   4.234  1.00 20.00     0.012 C 
HETATM    7  O10 UNL     1     -34.566   7.174   7.254  1.00 20.00    -0.293 OA
ENDROOT
BRANCH   2   8
HETATM    8  C9  UNL     1     -32.082   7.890   3.174  1.00 20.00     0.014 A 
HETATM    9  C7  UNL     1     -32.251   7.745   1.701  1.00 20.00     0.010 A 
HETATM   10  C8  UNL     1     -32.683   9.004   2.390  1.00 20.00     0.010 A 
ENDBRANCH   2   8
TORSDOF 1
ENDMDL
MODEL 4
REMARK VINA RESULT:      -4.8      0.997      1.398
REMARK  1 active torsions:
REMARK  status: ('A' for Active; 'I' for Inactive)
REMARK    1  A    between atoms: C2_2  and  C9_9 
ROOT
HETATM    1  C1  UNL     1     -33.626   6.057   4.026  1.00 20.00     0.053 C 
HETATM    2  C2  UNL     1     -33.667   7.245   4.647  1.00 20.00    -0.072 C 
HETATM    3  C3  UNL     1     -34.213   4.850   4.662  1.00 20.00     0.149 C 
HETATM    4  C4  UNL     1     -34.240   7.428   6.030  1.00 20.00     0.035 C 
HETATM    5  C5  UNL     1     -34.941   5.011   5.977  1.00 20.00     0.083 C 
HETATM    6  C6  UNL     1     -34.316   6.118   6.810  1.00 20.00     0.012 C 
HETATM    7  O10 UNL     1     -34.156   3.767   4.084  1.00 20.00    -0.293 OA
ENDROOT
BRANCH   2   8
HETATM    8  C9  UNL     1     -33.140   8.488   3.989  1.00 20.00     0.014 A 
HETATM    9  C7  UNL     1     -32.017   9.207   4.654  1.00 20.00     0.010 A 
HETATM   10  C8  UNL     1     -31.778   8.437   3.391  1.00 20.00     0.010 A 
ENDBRANCH   2   8
TORSDOF 1
ENDMDL
MODEL 5
REMARK VINA RESULT:      -4.6      1.854      3.884
REMARK  1 active torsions:
REMARK  status: ('A' for Active; 'I' for Inactive)
REMARK    1  A    between atoms: C2_2  and  C9_9 
ROOT
HETATM    1  C1  UNL     1     -33.404   6.756   3.425  1.00 20.00     0.053 C 
HETATM    2  C2  UNL     1     -33.840   6.845   4.691  1.00 20.00    -0.072 C 
HETATM    3  C3  UNL     1     -32.319   7.643   2.935  1.00 20.00     0.149 C 
HETATM    4  C4  UNL     1     -33.319   7.870   5.667  1.00 20.00     0.035 C 
HETATM    5  C5  UNL     1     -31.653   8.578   3.919  1.00 20.00     0.083 C 
HETATM    6  C6  UNL     1     -32.642   9.048   4.973  1.00 20.00     0.012 C 
HETATM    7  O10 UNL     1     -31.940   7.556   1.769  1.00 20.00    -0.293 OA
ENDROOT
BRANCH   2   8
HETATM    8  C9  UNL     1     -34.888   5.910   5.222  1.00 20.00     0.014 A 
HETATM    9  C7  UNL     1     -34.630   4.446   5.128  1.00 20.00     0.010 A 
HETATM   10  C8  UNL     1     -34.574   5.138   6.456  1.00 20.00     0.010 A 
ENDBRANCH   2   8
TORSDOF 1
ENDMDL
MODEL 6
REMARK VINA RESULT:      -4.3     12.133     12.642
REMARK  1 active torsions:
REMARK  status: ('A' for Active; 'I' for Inactive)
REMARK    1  A    between atoms: C2_2  and  C9_9 
ROOT
HETATM    1  C1  UNL     1     -31.543  18.511  -0.956  1.00 20.00     0.053 C 
HETATM    2  C2  UNL     1     -32.735  18.054  -1.370  1.00 20.00    -0.072 C 
HETATM    3  C3  UNL     1     -31.311  18.832   0.475  1.00 20.00     0.149 C 
HETATM    4  C4  UNL     1     -33.917  17.896  -0.447  1.00 20.00     0.035 C 
HETATM    5  C5  UNL     1     -32.415  18.540   1.466  1.00 20.00     0.083 C 
HETATM    6  C6  UNL     1     -33.780  18.726   0.826  1.00 20.00     0.012 C 
HETATM    7  O10 UNL     1     -30.217  19.262   0.834  1.00 20.00    -0.293 OA
ENDROOT
BRANCH   2   8
HETATM    8  C9  UNL     1     -32.965  17.659  -2.800  1.00 20.00     0.014 A 
HETATM    9  C7  UNL     1     -33.409  16.264  -3.077  1.00 20.00     0.010 A 
HETATM   10  C8  UNL     1     -34.366  17.407  -3.238  1.00 20.00     0.010 A 
ENDBRANCH   2   8
TORSDOF 1
ENDMDL
MODEL 7
REMARK VINA RESULT:      -4.2      1.315      2.323
REMARK  1 active torsions:
REMARK  status: ('A' for Active; 'I' for Inactive)
REMARK    1  A    between atoms: C2_2  and  C9_9 
ROOT
HETATM    1  C1  UNL     1     -34.351   6.595   5.414  1.00 20.00     0.053 C 
HETATM    2  C2  UNL     1     -33.601   7.153   4.451  1.00 20.00    -0.072 C 
HETATM    3  C3  UNL     1     -34.542   5.124   5.468  1.00 20.00     0.149 C 
HETATM    4  C4  UNL     1     -32.964   6.353   3.343  1.00 20.00     0.035 C 
HETATM    5  C5  UNL     1     -33.794   4.264   4.474  1.00 20.00     0.083 C 
HETATM    6  C6  UNL     1     -33.623   4.990   3.151  1.00 20.00     0.012 C 
HETATM    7  O10 UNL     1     -35.242   4.631   6.350  1.00 20.00    -0.293 OA
ENDROOT
BRANCH   2   8
HETATM    8  C9  UNL     1     -33.342   8.631   4.422  1.00 20.00     0.014 A 
HETATM    9  C7  UNL     1     -32.007   9.115   4.874  1.00 20.00     0.010 A 
HETATM   10  C8  UNL     1     -32.371   9.151   3.420  1.00 20.00     0.010 A 
ENDBRANCH   2   8
TORSDOF 1
ENDMDL
MODEL 8
REMARK VINA RESULT:      -4.2     11.981     12.489
REMARK  1 active torsions:
REMARK  status: ('A' for Active; 'I' for Inactive)
REMARK    1  A    between atoms: C2_2  and  C9_9 
ROOT
HETATM    1  C1  UNL     1     -34.000  18.173  -0.415  1.00 20.00     0.053 C 
HETATM    2  C2  UNL     1     -32.853  18.090  -1.107  1.00 20.00    -0.072 C 
HETATM    3  C3  UNL     1     -34.012  18.716   0.967  1.00 20.00     0.149 C 
HETATM    4  C4  UNL     1     -31.516  18.474  -0.525  1.00 20.00     0.035 C 
HETATM    5  C5  UNL     1     -32.723  19.263   1.537  1.00 20.00     0.083 C 
HETATM    6  C6  UNL     1     -31.526  18.496   1.001  1.00 20.00     0.012 C 
HETATM    7  O10 UNL     1     -35.070  18.773   1.590  1.00 20.00    -0.293 OA
ENDROOT
BRANCH   2   8
HETATM    8  C9  UNL     1     -32.832  17.608  -2.528  1.00 20.00     0.014 A 
HETATM    9  C7  UNL     1     -33.479  16.299  -2.830  1.00 20.00     0.010 A 
HETATM   10  C8  UNL     1     -34.121  17.579  -3.274  1.00 20.00     0.010 A 
ENDBRANCH   2   8
TORSDOF 1
ENDMDL
MODEL 9
REMARK VINA RESULT:      -4.1     11.278     12.454
REMARK  1 active torsions:
REMARK  status: ('A' for Active; 'I' for Inactive)
REMARK    1  A    between atoms: C2_2  and  C9_9 
ROOT
HETATM    1  C1  UNL     1     -34.400  14.661  -3.819  1.00 20.00     0.053 C 
HETATM    2  C2  UNL     1     -33.989  15.908  -4.095  1.00 20.00    -0.072 C 
HETATM    3  C3  UNL     1     -35.371  13.972  -4.705  1.00 20.00     0.149 C 
HETATM    4  C4  UNL     1     -34.517  16.707  -5.259  1.00 20.00     0.035 C 
HETATM    5  C5  UNL     1     -35.810  14.669  -5.973  1.00 20.00     0.083 C 
HETATM    6  C6  UNL     1     -35.851  16.175  -5.776  1.00 20.00     0.012 C 
HETATM    7  O10 UNL     1     -35.747  12.834  -4.432  1.00 20.00    -0.293 OA
ENDROOT
BRANCH   2   8
HETATM    8  C9  UNL     1     -32.956  16.594  -3.248  1.00 20.00     0.014 A 
HETATM    9  C7  UNL     1     -33.108  18.056  -3.008  1.00 20.00     0.010 A 
HETATM   10  C8  UNL     1     -33.367  17.079  -1.901  1.00 20.00     0.010 A 
ENDBRANCH   2   8
TORSDOF 1
ENDMDL
