MODEL 1
REMARK VINA RESULT:      -4.4      0.000      0.000
REMARK  2 active torsions:
REMARK  status: ('A' for Active; 'I' for Inactive)
REMARK    1  A    between atoms: C7_7  and  C8_8 
REMARK    2  A    between atoms: C9_9  and  O10_10 
ROOT
HETATM    1  C1  UNL     1     -32.060   7.236   2.630  1.00 20.00     0.003 C 
HETATM    2  C2  UNL     1     -33.201   6.386   3.183  1.00 20.00     0.005 C 
HETATM    3  C5  UNL     1     -32.322   8.729   2.826  1.00 20.00     0.032 C 
HETATM    4  C6  UNL     1     -33.756   8.208   4.845  1.00 20.00     0.036 C 
HETATM    5  C8  UNL     1     -33.486   6.707   4.655  1.00 20.00    -0.008 C 
HETATM    6  C9  UNL     1     -32.626   9.073   4.283  1.00 20.00     0.118 C 
ENDROOT
BRANCH   5   7
HETATM    7  C7  UNL     1     -34.665   5.880   5.168  1.00 20.00    -0.010 A 
HETATM    8  C3  UNL     1     -34.427   4.690   6.054  1.00 20.00     0.005 A 
HETATM    9  C4  UNL     1     -35.054   5.934   6.619  1.00 20.00     0.005 A 
ENDBRANCH   5   7
BRANCH   6  10
HETATM   10  O10 UNL     1     -31.442   8.883   5.054  1.00 20.00    -0.396 OA
HETATM   11  H26 UNL     1     -30.699   9.136   4.486  1.00 20.00     0.210 HD
ENDBRANCH   6  10
TORSDOF 2
ENDMDL
MODEL 2
REMARK VINA RESULT:      -4.2      2.026      3.930
REMARK  2 active torsions:
REMARK  status: ('A' for Active; 'I' for Inactive)
REMARK    1  A    between atoms: C7_7  and  C8_8 
REMARK    2  A    between atoms: C9_9  and  O10_10 
ROOT
HETATM    1  C1  UNL     1     -33.638   4.603   3.095  1.00 20.00     0.003 C 
HETATM    2  C2  UNL     1     -32.643   5.761   3.118  1.00 20.00     0.005 C 
HETATM    3  C5  UNL     1     -34.155   4.275   4.494  1.00 20.00     0.032 C 
HETATM    4  C6  UNL     1     -33.748   6.670   5.203  1.00 20.00     0.036 C 
HETATM    5  C8  UNL     1     -33.236   7.005   3.793  1.00 20.00    -0.008 C 
HETATM    6  C9  UNL     1     -34.737   5.502   5.195  1.00 20.00     0.118 C 
ENDROOT
BRANCH   5   7
HETATM    7  C7  UNL     1     -32.203   8.130   3.849  1.00 20.00    -0.010 A 
HETATM    8  C3  UNL     1     -32.601   9.540   3.512  1.00 20.00     0.005 A 
HETATM    9  C4  UNL     1     -32.275   9.171   4.932  1.00 20.00     0.005 A 
ENDBRANCH   5   7
BRANCH   6  10
HETATM   10  O10 UNL     1     -35.935   5.887   4.526  1.00 20.00    -0.396 OA
HETATM   11  H26 UNL     1     -36.011   5.316   3.746  1.00 20.00     0.210 HD
ENDBRANCH   6  10
TORSDOF 2
ENDMDL
MODEL 3
REMARK VINA RESULT:      -4.2      1.295      2.056
REMARK  2 active torsions:
REMARK  status: ('A' for Active; 'I' for Inactive)
REMARK    1  A    between atoms: C7_7  and  C8_8 
REMARK    2  A    between atoms: C9_9  and  O10_10 
ROOT
HETATM    1  C1  UNL     1     -32.576   8.915   5.064  1.00 20.00     0.003 C 
HETATM    2  C2  UNL     1     -33.515   7.803   5.526  1.00 20.00     0.005 C 
HETATM    3  C5  UNL     1     -31.493   8.386   4.126  1.00 20.00     0.032 C 
HETATM    4  C6  UNL     1     -33.037   6.517   3.402  1.00 20.00     0.036 C 
HETATM    5  C8  UNL     1     -34.132   7.052   4.339  1.00 20.00    -0.008 C 
HETATM    6  C9  UNL     1     -32.081   7.620   2.942  1.00 20.00     0.118 C 
ENDROOT
BRANCH   5   7
HETATM    7  C7  UNL     1     -35.025   5.912   4.828  1.00 20.00    -0.010 A 
HETATM    8  C3  UNL     1     -34.485   4.513   4.920  1.00 20.00     0.005 A 
HETATM    9  C4  UNL     1     -34.786   5.286   6.173  1.00 20.00     0.005 A 
ENDBRANCH   5   7
BRANCH   6  10
HETATM   10  O10 UNL     1     -32.772   8.539   2.099  1.00 20.00    -0.396 OA
HETATM   11  H26 UNL     1     -33.249   8.008   1.443  1.00 20.00     0.210 HD
ENDBRANCH   6  10
TORSDOF 2
ENDMDL
MODEL 4
REMARK VINA RESULT:      -4.1     12.155     13.119
REMARK  2 active torsions:
REMARK  status: ('A' for Active; 'I' for Inactive)
REMARK    1  A    between atoms: C7_7  and  C8_8 
REMARK    2  A    between atoms: C9_9  and  O10_10 
ROOT
HETATM    1  C1  UNL     1     -33.782  14.959  -5.356  1.00 20.00     0.003 C 
HETATM    2  C2  UNL     1     -33.632  15.181  -3.853  1.00 20.00     0.005 C 
HETATM    3  C5  UNL     1     -34.967  15.738  -5.926  1.00 20.00     0.032 C 
HETATM    4  C6  UNL     1     -34.729  17.447  -4.076  1.00 20.00     0.036 C 
HETATM    5  C8  UNL     1     -33.531  16.671  -3.506  1.00 20.00    -0.008 C 
HETATM    6  C9  UNL     1     -34.899  17.225  -5.580  1.00 20.00     0.118 C 
ENDROOT
BRANCH   5   7
HETATM    7  C7  UNL     1     -33.434  16.867  -1.993  1.00 20.00    -0.010 A 
HETATM    8  C3  UNL     1     -32.556  17.946  -1.424  1.00 20.00     0.005 A 
HETATM    9  C4  UNL     1     -34.052  18.074  -1.344  1.00 20.00     0.005 A 
ENDBRANCH   5   7
BRANCH   6  10
HETATM   10  O10 UNL     1     -33.804  17.808  -6.283  1.00 20.00    -0.396 OA
HETATM   11  H26 UNL     1     -33.671  18.690  -5.903  1.00 20.00     0.210 HD
ENDBRANCH   6  10
TORSDOF 2
ENDMDL
MODEL 5
REMARK VINA RESULT:      -4.1     11.870     12.873
REMARK  2 active torsions:
REMARK  status: ('A' for Active; 'I' for Inactive)
REMARK    1  A    between atoms: C7_7  and  C8_8 
REMARK    2  A    between atoms: C9_9  and  O10_10 
ROOT
HETATM    1  C1  UNL     1     -35.014  16.222  -5.936  1.00 20.00     0.003 C 
HETATM    2  C2  UNL     1     -34.504  17.303  -4.987  1.00 20.00     0.005 C 
HETATM    3  C5  UNL     1     -34.017  15.073  -6.072  1.00 20.00     0.032 C 
HETATM    4  C6  UNL     1     -33.129  15.576  -3.756  1.00 20.00     0.036 C 
HETATM    5  C8  UNL     1     -34.138  16.726  -3.614  1.00 20.00    -0.008 C 
HETATM    6  C9  UNL     1     -33.622  14.490  -4.715  1.00 20.00     0.118 C 
ENDROOT
BRANCH   5   7
HETATM    7  C7  UNL     1     -33.581  17.819  -2.702  1.00 20.00    -0.010 A 
HETATM    8  C3  UNL     1     -34.467  18.477  -1.680  1.00 20.00     0.005 A 
HETATM    9  C4  UNL     1     -33.370  17.549  -1.238  1.00 20.00     0.005 A 
ENDBRANCH   5   7
BRANCH   6  10
HETATM   10  O10 UNL     1     -34.754  13.828  -4.155  1.00 20.00    -0.396 OA
HETATM   11  H26 UNL     1     -34.408  13.113  -3.599  1.00 20.00     0.210 HD
ENDBRANCH   6  10
TORSDOF 2
ENDMDL
MODEL 6
REMARK VINA RESULT:      -4.0      1.971      4.327
REMARK  2 active torsions:
REMARK  status: ('A' for Active; 'I' for Inactive)
REMARK    1  A    between atoms: C7_7  and  C8_8 
REMARK    2  A    between atoms: C9_9  and  O10_10 
ROOT
HETATM    1  C1  UNL     1     -34.056   5.596   6.841  1.00 20.00     0.003 C 
HETATM    2  C2  UNL     1     -33.796   7.039   6.417  1.00 20.00     0.005 C 
HETATM    3  C5  UNL     1     -35.171   4.957   6.016  1.00 20.00     0.032 C 
HETATM    4  C6  UNL     1     -34.628   6.507   4.090  1.00 20.00     0.036 C 
HETATM    5  C8  UNL     1     -33.500   7.145   4.916  1.00 20.00    -0.008 C 
HETATM    6  C9  UNL     1     -34.909   5.064   4.514  1.00 20.00     0.118 C 
ENDROOT
BRANCH   5   7
HETATM    7  C7  UNL     1     -33.295   8.604   4.508  1.00 20.00    -0.010 A 
HETATM    8  C3  UNL     1     -31.938   9.239   4.626  1.00 20.00     0.005 A 
HETATM    9  C4  UNL     1     -32.513   8.942   3.270  1.00 20.00     0.005 A 
ENDBRANCH   5   7
BRANCH   6  10
HETATM   10  O10 UNL     1     -33.794   4.237   4.185  1.00 20.00    -0.396 OA
HETATM   11  H26 UNL     1     -33.030   4.827   4.094  1.00 20.00     0.210 HD
ENDBRANCH   6  10
TORSDOF 2
ENDMDL
MODEL 7
REMARK VINA RESULT:      -4.0      9.534     10.647
REMARK  2 active torsions:
REMARK  status: ('A' for Active; 'I' for Inactive)
REMARK    1  A    between atoms: C7_7  and  C8_8 
REMARK    2  A    between atoms: C9_9  and  O10_10 
ROOT
HETATM    1  C1  UNL     1     -43.324  13.336   7.107  1.00 20.00     0.003 C 
HETATM    2  C2  UNL     1     -42.292  12.268   6.752  1.00 20.00     0.005 C 
HETATM    3  C5  UNL     1     -42.728  14.419   8.004  1.00 20.00     0.032 C 
HETATM    4  C6  UNL     1     -40.438  13.963   7.030  1.00 20.00     0.036 C 
HETATM    5  C8  UNL     1     -41.036  12.879   6.119  1.00 20.00    -0.008 C 
HETATM    6  C9  UNL     1     -41.465  15.034   7.403  1.00 20.00     0.118 C 
ENDROOT
BRANCH   5   7
HETATM    7  C7  UNL     1     -40.000  11.795   5.822  1.00 20.00    -0.010 A 
HETATM    8  C3  UNL     1     -39.375  11.698   4.459  1.00 20.00     0.005 A 
HETATM    9  C4  UNL     1     -38.555  12.160   5.631  1.00 20.00     0.005 A 
ENDBRANCH   5   7
BRANCH   6  10
HETATM   10  O10 UNL     1     -41.827  15.783   6.245  1.00 20.00    -0.396 OA
HETATM   11  H26 UNL     1     -42.794  15.762   6.194  1.00 20.00     0.210 HD
ENDBRANCH   6  10
TORSDOF 2
ENDMDL
MODEL 8
REMARK VINA RESULT:      -3.7      9.540     10.781
REMARK  2 active torsions:
REMARK  status: ('A' for Active; 'I' for Inactive)
REMARK    1  A    between atoms: C7_7  and  C8_8 
REMARK    2  A    between atoms: C9_9  and  O10_10 
ROOT
HETATM    1  C1  UNL     1     -41.545  14.303   8.707  1.00 20.00     0.003 C 
HETATM    2  C2  UNL     1     -40.535  14.233   7.564  1.00 20.00     0.005 C 
HETATM    3  C5  UNL     1     -42.978  14.140   8.203  1.00 20.00     0.032 C 
HETATM    4  C6  UNL     1     -42.131  12.789   6.238  1.00 20.00     0.036 C 
HETATM    5  C8  UNL     1     -40.689  12.944   6.748  1.00 20.00    -0.008 C 
HETATM    6  C9  UNL     1     -43.155  12.870   7.372  1.00 20.00     0.118 C 
ENDROOT
BRANCH   5   7
HETATM    7  C7  UNL     1     -39.702  12.924   5.581  1.00 20.00    -0.010 A 
HETATM    8  C3  UNL     1     -38.484  12.044   5.634  1.00 20.00     0.005 A 
HETATM    9  C4  UNL     1     -39.607  11.717   4.690  1.00 20.00     0.005 A 
ENDBRANCH   5   7
BRANCH   6  10
HETATM   10  O10 UNL     1     -43.019  11.739   8.230  1.00 20.00    -0.396 OA
HETATM   11  H26 UNL     1     -42.097  11.448   8.157  1.00 20.00     0.210 HD
ENDBRANCH   6  10
TORSDOF 2
ENDMDL
MODEL 9
REMARK VINA RESULT:      -3.7     12.079     13.146
REMARK  2 active torsions:
REMARK  status: ('A' for Active; 'I' for Inactive)
REMARK    1  A    between atoms: C7_7  and  C8_8 
REMARK    2  A    between atoms: C9_9  and  O10_10 
ROOT
HETATM    1  C1  UNL     1     -33.499  15.873  -4.212  1.00 20.00     0.003 C 
HETATM    2  C2  UNL     1     -33.505  16.115  -2.704  1.00 20.00     0.005 C 
HETATM    3  C5  UNL     1     -34.512  16.764  -4.930  1.00 20.00     0.032 C 
HETATM    4  C6  UNL     1     -34.301  18.483  -3.085  1.00 20.00     0.036 C 
HETATM    5  C8  UNL     1     -33.276  17.593  -2.366  1.00 20.00    -0.008 C 
HETATM    6  C9  UNL     1     -34.316  18.242  -4.596  1.00 20.00     0.118 C 
ENDROOT
BRANCH   5   7
HETATM    7  C7  UNL     1     -33.338  17.815  -0.855  1.00 20.00    -0.010 A 
HETATM    8  C3  UNL     1     -32.193  18.477  -0.139  1.00 20.00     0.005 A 
HETATM    9  C4  UNL     1     -33.500  19.202  -0.299  1.00 20.00     0.005 A 
ENDBRANCH   5   7
BRANCH   6  10
HETATM   10  O10 UNL     1     -33.086  18.681  -5.168  1.00 20.00    -0.396 OA
HETATM   11  H26 UNL     1     -32.497  18.892  -4.428  1.00 20.00     0.210 HD
ENDBRANCH   6  10
TORSDOF 2
ENDMDL
