MODEL 1
REMARK VINA RESULT:      -5.3      0.000      0.000
REMARK  2 active torsions:
REMARK  status: ('A' for Active; 'I' for Inactive)
REMARK    1  A    between atoms: C7_7  and  C8_8 
REMARK    2  A    between atoms: C9_9  and  O10_10 
ROOT
HETATM    1  C1  UNL     1     -34.382   6.890   6.573  1.00 20.00     0.003 C 
HETATM    2  C2  UNL     1     -33.360   7.720   5.797  1.00 20.00     0.005 C 
HETATM    3  C5  UNL     1     -34.317   5.417   6.188  1.00 20.00     0.032 C 
HETATM    4  C6  UNL     1     -33.446   6.049   3.904  1.00 20.00     0.036 C 
HETATM    5  C8  UNL     1     -33.513   7.533   4.280  1.00 20.00    -0.008 C 
HETATM    6  C9  UNL     1     -34.471   5.222   4.682  1.00 20.00     0.118 C 
ENDROOT
BRANCH   5   7
HETATM    7  C7  UNL     1     -32.446   8.329   3.531  1.00 20.00    -0.010 A 
HETATM    8  C3  UNL     1     -32.044   7.931   2.138  1.00 20.00     0.005 A 
HETATM    9  C4  UNL     1     -32.828   9.193   2.361  1.00 20.00     0.005 A 
ENDBRANCH   5   7
BRANCH   6  10
HETATM   10  O10 UNL     1     -34.298   3.841   4.383  1.00 20.00    -0.396 OA
HETATM   11  H26 UNL     1     -34.696   3.347   5.117  1.00 20.00     0.210 HD
ENDBRANCH   6  10
TORSDOF 2
ENDMDL
MODEL 2
REMARK VINA RESULT:      -4.7      1.835      3.965
REMARK  2 active torsions:
REMARK  status: ('A' for Active; 'I' for Inactive)
REMARK    1  A    between atoms: C7_7  and  C8_8 
REMARK    2  A    between atoms: C9_9  and  O10_10 
ROOT
HETATM    1  C1  UNL     1     -32.326   9.281   4.934  1.00 20.00     0.003 C 
HETATM    2  C2  UNL     1     -33.504   8.507   5.521  1.00 20.00     0.005 C 
HETATM    3  C5  UNL     1     -32.203   9.061   3.431  1.00 20.00     0.032 C 
HETATM    4  C6  UNL     1     -33.303   6.801   3.670  1.00 20.00     0.036 C 
HETATM    5  C8  UNL     1     -33.426   7.011   5.183  1.00 20.00    -0.008 C 
HETATM    6  C9  UNL     1     -32.121   7.576   3.085  1.00 20.00     0.118 C 
ENDROOT
BRANCH   5   7
HETATM    7  C7  UNL     1     -34.643   6.271   5.734  1.00 20.00    -0.010 A 
HETATM    8  C3  UNL     1     -35.099   4.986   5.098  1.00 20.00     0.005 A 
HETATM    9  C4  UNL     1     -34.469   4.966   6.462  1.00 20.00     0.005 A 
ENDBRANCH   5   7
BRANCH   6  10
HETATM   10  O10 UNL     1     -32.112   7.440   1.668  1.00 20.00    -0.396 OA
HETATM   11  H26 UNL     1     -31.762   6.556   1.477  1.00 20.00     0.210 HD
ENDBRANCH   6  10
TORSDOF 2
ENDMDL
MODEL 3
REMARK VINA RESULT:      -4.6      0.913      1.231
REMARK  2 active torsions:
REMARK  status: ('A' for Active; 'I' for Inactive)
REMARK    1  A    between atoms: C7_7  and  C8_8 
REMARK    2  A    between atoms: C9_9  and  O10_10 
ROOT
HETATM    1  C1  UNL     1     -34.780   6.271   6.743  1.00 20.00     0.003 C 
HETATM    2  C2  UNL     1     -33.954   7.399   6.126  1.00 20.00     0.005 C 
HETATM    3  C5  UNL     1     -34.391   4.913   6.171  1.00 20.00     0.032 C 
HETATM    4  C6  UNL     1     -33.651   6.025   4.028  1.00 20.00     0.036 C 
HETATM    5  C8  UNL     1     -34.044   7.394   4.593  1.00 20.00    -0.008 C 
HETATM    6  C9  UNL     1     -34.481   4.899   4.647  1.00 20.00     0.118 C 
ENDROOT
BRANCH   5   7
HETATM    7  C7  UNL     1     -33.167   8.495   4.000  1.00 20.00    -0.010 A 
HETATM    8  C3  UNL     1     -32.047   9.089   4.809  1.00 20.00     0.005 A 
HETATM    9  C4  UNL     1     -31.738   8.208   3.631  1.00 20.00     0.005 A 
ENDBRANCH   5   7
BRANCH   6  10
HETATM   10  O10 UNL     1     -34.008   3.642   4.177  1.00 20.00    -0.396 OA
HETATM   11  H26 UNL     1     -34.446   3.481   3.326  1.00 20.00     0.210 HD
ENDBRANCH   6  10
TORSDOF 2
ENDMDL
MODEL 4
REMARK VINA RESULT:      -4.5      2.251      4.352
REMARK  2 active torsions:
REMARK  status: ('A' for Active; 'I' for Inactive)
REMARK    1  A    between atoms: C7_7  and  C8_8 
REMARK    2  A    between atoms: C9_9  and  O10_10 
ROOT
HETATM    1  C1  UNL     1     -32.281   7.204   2.653  1.00 20.00     0.003 C 
HETATM    2  C2  UNL     1     -33.180   6.194   3.364  1.00 20.00     0.005 C 
HETATM    3  C5  UNL     1     -31.530   8.084   3.645  1.00 20.00     0.032 C 
HETATM    4  C6  UNL     1     -33.380   7.763   5.333  1.00 20.00     0.036 C 
HETATM    5  C8  UNL     1     -34.145   6.881   4.340  1.00 20.00    -0.008 C 
HETATM    6  C9  UNL     1     -32.483   8.774   4.618  1.00 20.00     0.118 C 
ENDROOT
BRANCH   5   7
HETATM    7  C7  UNL     1     -34.992   5.846   5.077  1.00 20.00    -0.010 A 
HETATM    8  C3  UNL     1     -34.418   4.496   5.410  1.00 20.00     0.005 A 
HETATM    9  C4  UNL     1     -34.680   5.491   6.505  1.00 20.00     0.005 A 
ENDBRANCH   5   7
BRANCH   6  10
HETATM   10  O10 UNL     1     -31.712   9.492   5.575  1.00 20.00    -0.396 OA
HETATM   11  H26 UNL     1     -31.854   9.055   6.429  1.00 20.00     0.210 HD
ENDBRANCH   6  10
TORSDOF 2
ENDMDL
MODEL 5
REMARK VINA RESULT:      -4.2     11.931     13.104
REMARK  2 active torsions:
REMARK  status: ('A' for Active; 'I' for Inactive)
REMARK    1  A    between atoms: C7_7  and  C8_8 
REMARK    2  A    between atoms: C9_9  and  O10_10 
ROOT
HETATM    1  C1  UNL     1     -34.790  16.747  -6.004  1.00 20.00     0.003 C 
HETATM    2  C2  UNL     1     -34.936  17.525  -4.698  1.00 20.00     0.005 C 
HETATM    3  C5  UNL     1     -34.554  15.263  -5.749  1.00 20.00     0.032 C 
HETATM    4  C6  UNL     1     -33.507  15.809  -3.518  1.00 20.00     0.036 C 
HETATM    5  C8  UNL     1     -33.735  17.304  -3.768  1.00 20.00    -0.008 C 
HETATM    6  C9  UNL     1     -33.359  15.033  -4.828  1.00 20.00     0.118 C 
ENDROOT
BRANCH   5   7
HETATM    7  C7  UNL     1     -33.932  18.048  -2.448  1.00 20.00    -0.010 A 
HETATM    8  C3  UNL     1     -33.582  17.384  -1.145  1.00 20.00     0.005 A 
HETATM    9  C4  UNL     1     -32.741  18.519  -1.660  1.00 20.00     0.005 A 
ENDBRANCH   5   7
BRANCH   6  10
HETATM   10  O10 UNL     1     -33.261  13.640  -4.551  1.00 20.00    -0.396 OA
HETATM   11  H26 UNL     1     -33.617  13.509  -3.658  1.00 20.00     0.210 HD
ENDBRANCH   6  10
TORSDOF 2
ENDMDL
MODEL 6
REMARK VINA RESULT:      -3.9      9.922     10.557
REMARK  2 active torsions:
REMARK  status: ('A' for Active; 'I' for Inactive)
REMARK    1  A    between atoms: C7_7  and  C8_8 
REMARK    2  A    between atoms: C9_9  and  O10_10 
ROOT
HETATM    1  C1  UNL     1     -42.973  13.570   6.973  1.00 20.00     0.003 C 
HETATM    2  C2  UNL     1     -41.962  12.448   6.741  1.00 20.00     0.005 C 
HETATM    3  C5  UNL     1     -43.417  14.205   5.661  1.00 20.00     0.032 C 
HETATM    4  C6  UNL     1     -41.215  13.567   4.603  1.00 20.00     0.036 C 
HETATM    5  C8  UNL     1     -40.758  12.931   5.920  1.00 20.00    -0.008 C 
HETATM    6  C9  UNL     1     -42.226  14.690   4.839  1.00 20.00     0.118 C 
ENDROOT
BRANCH   5   7
HETATM    7  C7  UNL     1     -39.791  11.778   5.656  1.00 20.00    -0.010 A 
HETATM    8  C3  UNL     1     -39.087  11.669   4.331  1.00 20.00     0.005 A 
HETATM    9  C4  UNL     1     -38.312  12.036   5.565  1.00 20.00     0.005 A 
ENDBRANCH   5   7
BRANCH   6  10
HETATM   10  O10 UNL     1     -42.704  15.175   3.589  1.00 20.00    -0.396 OA
HETATM   11  H26 UNL     1     -42.092  14.847   2.912  1.00 20.00     0.210 HD
ENDBRANCH   6  10
TORSDOF 2
ENDMDL
MODEL 7
REMARK VINA RESULT:      -3.7     12.446     13.452
REMARK  2 active torsions:
REMARK  status: ('A' for Active; 'I' for Inactive)
REMARK    1  A    between atoms: C7_7  and  C8_8 
REMARK    2  A    between atoms: C9_9  and  O10_10 
ROOT
HETATM    1  C1  UNL     1     -33.865  14.634  -4.974  1.00 20.00     0.003 C 
HETATM    2  C2  UNL     1     -33.064  15.352  -3.889  1.00 20.00     0.005 C 
HETATM    3  C5  UNL     1     -34.361  15.604  -6.040  1.00 20.00     0.032 C 
HETATM    4  C6  UNL     1     -34.355  17.475  -4.345  1.00 20.00     0.036 C 
HETATM    5  C8  UNL     1     -33.862  16.506  -3.265  1.00 20.00    -0.008 C 
HETATM    6  C9  UNL     1     -35.158  16.753  -5.428  1.00 20.00     0.118 C 
ENDROOT
BRANCH   5   7
HETATM    7  C7  UNL     1     -33.019  17.241  -2.224  1.00 20.00    -0.010 A 
HETATM    8  C3  UNL     1     -33.321  18.674  -1.880  1.00 20.00     0.005 A 
HETATM    9  C4  UNL     1     -33.604  17.586  -0.882  1.00 20.00     0.005 A 
ENDBRANCH   5   7
BRANCH   6  10
HETATM   10  O10 UNL     1     -35.499  17.669  -6.463  1.00 20.00    -0.396 OA
HETATM   11  H26 UNL     1     -35.656  17.140  -7.261  1.00 20.00     0.210 HD
ENDBRANCH   6  10
TORSDOF 2
ENDMDL
MODEL 8
REMARK VINA RESULT:      -3.7     11.907     13.648
REMARK  2 active torsions:
REMARK  status: ('A' for Active; 'I' for Inactive)
REMARK    1  A    between atoms: C7_7  and  C8_8 
REMARK    2  A    between atoms: C9_9  and  O10_10 
ROOT
HETATM    1  C1  UNL     1     -33.967  17.089  -3.398  1.00 20.00     0.003 C 
HETATM    2  C2  UNL     1     -34.576  17.572  -4.714  1.00 20.00     0.005 C 
HETATM    3  C5  UNL     1     -33.104  15.849  -3.601  1.00 20.00     0.032 C 
HETATM    4  C6  UNL     1     -34.483  15.215  -5.618  1.00 20.00     0.036 C 
HETATM    5  C8  UNL     1     -35.360  16.456  -5.419  1.00 20.00    -0.008 C 
HETATM    6  C9  UNL     1     -33.877  14.734  -4.300  1.00 20.00     0.118 C 
ENDROOT
BRANCH   5   7
HETATM    7  C7  UNL     1     -35.911  16.949  -6.756  1.00 20.00    -0.010 A 
HETATM    8  C3  UNL     1     -36.389  15.964  -7.787  1.00 20.00     0.005 A 
HETATM    9  C4  UNL     1     -37.379  16.830  -7.060  1.00 20.00     0.005 A 
ENDBRANCH   5   7
BRANCH   6  10
HETATM   10  O10 UNL     1     -32.986  13.652  -4.548  1.00 20.00    -0.396 OA
HETATM   11  H26 UNL     1     -33.529  12.849  -4.587  1.00 20.00     0.210 HD
ENDBRANCH   6  10
TORSDOF 2
ENDMDL
MODEL 9
REMARK VINA RESULT:      -3.5     15.417     16.192
REMARK  2 active torsions:
REMARK  status: ('A' for Active; 'I' for Inactive)
REMARK    1  A    between atoms: C7_7  and  C8_8 
REMARK    2  A    between atoms: C9_9  and  O10_10 
ROOT
HETATM    1  C1  UNL     1     -24.135  16.478  11.962  1.00 20.00     0.003 C 
HETATM    2  C2  UNL     1     -23.590  16.984  10.628  1.00 20.00     0.005 C 
HETATM    3  C5  UNL     1     -25.536  17.013  12.234  1.00 20.00     0.032 C 
HETATM    4  C6  UNL     1     -25.039  19.044  10.820  1.00 20.00     0.036 C 
HETATM    5  C8  UNL     1     -23.626  18.517  10.545  1.00 20.00    -0.008 C 
HETATM    6  C9  UNL     1     -25.581  18.537  12.157  1.00 20.00     0.118 C 
ENDROOT
BRANCH   5   7
HETATM    7  C7  UNL     1     -23.127  18.994   9.182  1.00 20.00    -0.010 A 
HETATM    8  C3  UNL     1     -21.664  19.263   8.963  1.00 20.00     0.005 A 
HETATM    9  C4  UNL     1     -22.315  18.076   8.310  1.00 20.00     0.005 A 
ENDBRANCH   5   7
BRANCH   6  10
HETATM   10  O10 UNL     1     -26.931  18.959  12.318  1.00 20.00    -0.396 OA
HETATM   11  H26 UNL     1     -27.078  19.669  11.672  1.00 20.00     0.210 HD
ENDBRANCH   6  10
TORSDOF 2
ENDMDL
