MODEL 1
REMARK VINA RESULT:      -4.6      0.000      0.000
REMARK  2 active torsions:
REMARK  status: ('A' for Active; 'I' for Inactive)
REMARK    1  A    between atoms: C4_4  and  O10_10 
REMARK    2  A    between atoms: C5_5  and  C8_8 
ROOT
HETATM    1  C1  UNL     1     -34.091   6.857   6.084  1.00 20.00     0.040 A 
HETATM    2  C2  UNL     1     -33.297   7.688   5.302  1.00 20.00     0.030 A 
HETATM    3  C3  UNL     1     -34.146   5.303   4.284  1.00 20.00     0.153 A 
HETATM    4  C4  UNL     1     -34.528   5.640   5.573  1.00 20.00     0.083 A 
HETATM    5  C5  UNL     1     -32.970   7.260   4.026  1.00 20.00     0.038 A 
HETATM    6  N9  UNL     1     -33.376   6.084   3.494  1.00 20.00    -0.262 NA
ENDROOT
BRANCH   5   7
HETATM    7  C8  UNL     1     -32.119   8.135   3.168  1.00 20.00     0.038 A 
HETATM    8  C6  UNL     1     -32.778   9.192   2.322  1.00 20.00     0.011 A 
HETATM    9  C7  UNL     1     -32.186   7.982   1.671  1.00 20.00     0.011 A 
ENDBRANCH   5   7
BRANCH   4  10
HETATM   10  O10 UNL     1     -35.302   4.809   6.314  1.00 20.00    -0.359 OA
HETATM   11  H19 UNL     1     -35.772   5.306   7.006  1.00 20.00     0.217 HD
ENDBRANCH   4  10
TORSDOF 2
ENDMDL
MODEL 2
REMARK VINA RESULT:      -4.4     12.220     12.994
REMARK  2 active torsions:
REMARK  status: ('A' for Active; 'I' for Inactive)
REMARK    1  A    between atoms: C4_4  and  O10_10 
REMARK    2  A    between atoms: C5_5  and  C8_8 
ROOT
HETATM    1  C1  UNL     1     -34.336  14.442  -4.686  1.00 20.00     0.040 A 
HETATM    2  C2  UNL     1     -33.727  15.327  -3.804  1.00 20.00     0.030 A 
HETATM    3  C3  UNL     1     -35.412  16.294  -5.721  1.00 20.00     0.153 A 
HETATM    4  C4  UNL     1     -35.196  14.926  -5.666  1.00 20.00     0.083 A 
HETATM    5  C5  UNL     1     -34.008  16.676  -3.943  1.00 20.00     0.038 A 
HETATM    6  N9  UNL     1     -34.838  17.185  -4.882  1.00 20.00    -0.262 NA
ENDROOT
BRANCH   5   7
HETATM    7  C8  UNL     1     -33.366  17.646  -3.007  1.00 20.00     0.038 A 
HETATM    8  C6  UNL     1     -33.306  17.315  -1.540  1.00 20.00     0.011 A 
HETATM    9  C7  UNL     1     -34.226  18.392  -2.022  1.00 20.00     0.011 A 
ENDBRANCH   5   7
BRANCH   4  10
HETATM   10  O10 UNL     1     -35.803  14.086  -6.540  1.00 20.00    -0.359 OA
HETATM   11  H19 UNL     1     -35.286  13.268  -6.643  1.00 20.00     0.217 HD
ENDBRANCH   4  10
TORSDOF 2
ENDMDL
MODEL 3
REMARK VINA RESULT:      -4.3      2.408      4.161
REMARK  2 active torsions:
REMARK  status: ('A' for Active; 'I' for Inactive)
REMARK    1  A    between atoms: C4_4  and  O10_10 
REMARK    2  A    between atoms: C5_5  and  C8_8 
ROOT
HETATM    1  C1  UNL     1     -32.523   8.738   3.375  1.00 20.00     0.040 A 
HETATM    2  C2  UNL     1     -33.071   8.386   4.603  1.00 20.00     0.030 A 
HETATM    3  C3  UNL     1     -32.744   6.472   2.686  1.00 20.00     0.153 A 
HETATM    4  C4  UNL     1     -32.353   7.769   2.393  1.00 20.00     0.083 A 
HETATM    5  C5  UNL     1     -33.431   7.062   4.797  1.00 20.00     0.038 A 
HETATM    6  N9  UNL     1     -33.280   6.092   3.867  1.00 20.00    -0.262 NA
ENDROOT
BRANCH   5   7
HETATM    7  C8  UNL     1     -34.021   6.661   6.108  1.00 20.00     0.038 A 
HETATM    8  C6  UNL     1     -33.807   5.256   6.606  1.00 20.00     0.011 A 
HETATM    9  C7  UNL     1     -35.161   5.677   6.127  1.00 20.00     0.011 A 
ENDBRANCH   5   7
BRANCH   4  10
HETATM   10  O10 UNL     1     -31.822   8.084   1.185  1.00 20.00    -0.359 OA
HETATM   11  H19 UNL     1     -32.216   8.904   0.842  1.00 20.00     0.217 HD
ENDBRANCH   4  10
TORSDOF 2
ENDMDL
MODEL 4
REMARK VINA RESULT:      -4.2     12.163     12.519
REMARK  2 active torsions:
REMARK  status: ('A' for Active; 'I' for Inactive)
REMARK    1  A    between atoms: C4_4  and  O10_10 
REMARK    2  A    between atoms: C5_5  and  C8_8 
ROOT
HETATM    1  C1  UNL     1     -33.456  18.373   1.031  1.00 20.00     0.040 A 
HETATM    2  C2  UNL     1     -33.716  18.160  -0.319  1.00 20.00     0.030 A 
HETATM    3  C3  UNL     1     -31.154  18.633   0.493  1.00 20.00     0.153 A 
HETATM    4  C4  UNL     1     -32.153  18.614   1.453  1.00 20.00     0.083 A 
HETATM    5  C5  UNL     1     -32.647  18.200  -1.198  1.00 20.00     0.038 A 
HETATM    6  N9  UNL     1     -31.367  18.431  -0.826  1.00 20.00    -0.262 NA
ENDROOT
BRANCH   5   7
HETATM    7  C8  UNL     1     -32.901  17.974  -2.651  1.00 20.00     0.038 A 
HETATM    8  C6  UNL     1     -34.293  17.620  -3.104  1.00 20.00     0.011 A 
HETATM    9  C7  UNL     1     -33.215  16.582  -3.133  1.00 20.00     0.011 A 
ENDBRANCH   5   7
BRANCH   4  10
HETATM   10  O10 UNL     1     -31.871  18.826   2.762  1.00 20.00    -0.359 OA
HETATM   11  H19 UNL     1     -32.106  18.046   3.293  1.00 20.00     0.217 HD
ENDBRANCH   4  10
TORSDOF 2
ENDMDL
MODEL 5
REMARK VINA RESULT:      -4.2      9.880     10.409
REMARK  2 active torsions:
REMARK  status: ('A' for Active; 'I' for Inactive)
REMARK    1  A    between atoms: C4_4  and  O10_10 
REMARK    2  A    between atoms: C5_5  and  C8_8 
ROOT
HETATM    1  C1  UNL     1     -41.184  14.773   7.259  1.00 20.00     0.040 A 
HETATM    2  C2  UNL     1     -40.288  13.878   6.684  1.00 20.00     0.030 A 
HETATM    3  C3  UNL     1     -42.813  13.040   7.291  1.00 20.00     0.153 A 
HETATM    4  C4  UNL     1     -42.473  14.354   7.571  1.00 20.00     0.083 A 
HETATM    5  C5  UNL     1     -40.727  12.586   6.444  1.00 20.00     0.038 A 
HETATM    6  N9  UNL     1     -41.971  12.142   6.733  1.00 20.00    -0.262 NA
ENDROOT
BRANCH   5   7
HETATM    7  C8  UNL     1     -39.783  11.608   5.827  1.00 20.00     0.038 A 
HETATM    8  C6  UNL     1     -38.393  12.060   5.468  1.00 20.00     0.011 A 
HETATM    9  C7  UNL     1     -39.387  11.782   4.385  1.00 20.00     0.011 A 
ENDBRANCH   5   7
BRANCH   4  10
HETATM   10  O10 UNL     1     -43.366  15.204   8.134  1.00 20.00    -0.359 OA
HETATM   11  H19 UNL     1     -42.908  15.896   8.641  1.00 20.00     0.217 HD
ENDBRANCH   4  10
TORSDOF 2
ENDMDL
MODEL 6
REMARK VINA RESULT:      -4.1     11.634     13.016
REMARK  2 active torsions:
REMARK  status: ('A' for Active; 'I' for Inactive)
REMARK    1  A    between atoms: C4_4  and  O10_10 
REMARK    2  A    between atoms: C5_5  and  C8_8 
ROOT
HETATM    1  C1  UNL     1     -34.091  14.555  -3.971  1.00 20.00     0.040 A 
HETATM    2  C2  UNL     1     -33.708  15.884  -4.112  1.00 20.00     0.030 A 
HETATM    3  C3  UNL     1     -35.961  14.999  -5.372  1.00 20.00     0.153 A 
HETATM    4  C4  UNL     1     -35.237  14.096  -4.610  1.00 20.00     0.083 A 
HETATM    5  C5  UNL     1     -34.499  16.707  -4.897  1.00 20.00     0.038 A 
HETATM    6  N9  UNL     1     -35.621  16.297  -5.533  1.00 20.00    -0.262 NA
ENDROOT
BRANCH   5   7
HETATM    7  C8  UNL     1     -34.109  18.138  -5.063  1.00 20.00     0.038 A 
HETATM    8  C6  UNL     1     -33.224  18.779  -4.027  1.00 20.00     0.011 A 
HETATM    9  C7  UNL     1     -34.667  19.164  -4.114  1.00 20.00     0.011 A 
ENDBRANCH   5   7
BRANCH   4  10
HETATM   10  O10 UNL     1     -35.633  12.805  -4.491  1.00 20.00    -0.359 OA
HETATM   11  H19 UNL     1     -35.385  12.450  -3.620  1.00 20.00     0.217 HD
ENDBRANCH   4  10
TORSDOF 2
ENDMDL
MODEL 7
REMARK VINA RESULT:      -4.1     10.003     10.584
REMARK  2 active torsions:
REMARK  status: ('A' for Active; 'I' for Inactive)
REMARK    1  A    between atoms: C4_4  and  O10_10 
REMARK    2  A    between atoms: C5_5  and  C8_8 
ROOT
HETATM    1  C1  UNL     1     -42.912  13.442   7.099  1.00 20.00     0.040 A 
HETATM    2  C2  UNL     1     -42.078  12.444   6.606  1.00 20.00     0.030 A 
HETATM    3  C3  UNL     1     -41.036  14.903   7.166  1.00 20.00     0.153 A 
HETATM    4  C4  UNL     1     -42.389  14.698   7.387  1.00 20.00     0.083 A 
HETATM    5  C5  UNL     1     -40.740  12.751   6.420  1.00 20.00     0.038 A 
HETATM    6  N9  UNL     1     -40.195  13.959   6.689  1.00 20.00    -0.262 NA
ENDROOT
BRANCH   5   7
HETATM    7  C8  UNL     1     -39.826  11.696   5.893  1.00 20.00     0.038 A 
HETATM    8  C6  UNL     1     -38.412  12.068   5.533  1.00 20.00     0.011 A 
HETATM    9  C7  UNL     1     -39.396  11.752   4.451  1.00 20.00     0.011 A 
ENDBRANCH   5   7
BRANCH   4  10
HETATM   10  O10 UNL     1     -43.179  15.690   7.867  1.00 20.00    -0.359 OA
HETATM   11  H19 UNL     1     -43.946  15.319   8.336  1.00 20.00     0.217 HD
ENDBRANCH   4  10
TORSDOF 2
ENDMDL
MODEL 8
REMARK VINA RESULT:      -4.0     12.117     13.250
REMARK  2 active torsions:
REMARK  status: ('A' for Active; 'I' for Inactive)
REMARK    1  A    between atoms: C4_4  and  O10_10 
REMARK    2  A    between atoms: C5_5  and  C8_8 
ROOT
HETATM    1  C1  UNL     1     -33.171  15.820  -3.554  1.00 20.00     0.040 A 
HETATM    2  C2  UNL     1     -33.839  17.035  -3.454  1.00 20.00     0.030 A 
HETATM    3  C3  UNL     1     -34.651  15.211  -5.314  1.00 20.00     0.153 A 
HETATM    4  C4  UNL     1     -33.578  14.885  -4.499  1.00 20.00     0.083 A 
HETATM    5  C5  UNL     1     -34.898  17.265  -4.316  1.00 20.00     0.038 A 
HETATM    6  N9  UNL     1     -35.324  16.381  -5.247  1.00 20.00    -0.262 NA
ENDROOT
BRANCH   5   7
HETATM    7  C8  UNL     1     -35.631  18.563  -4.228  1.00 20.00     0.038 A 
HETATM    8  C6  UNL     1     -35.731  19.256  -2.895  1.00 20.00     0.011 A 
HETATM    9  C7  UNL     1     -36.944  18.615  -3.493  1.00 20.00     0.011 A 
ENDBRANCH   5   7
BRANCH   4  10
HETATM   10  O10 UNL     1     -32.945  13.692  -4.619  1.00 20.00    -0.359 OA
HETATM   11  H19 UNL     1     -33.460  13.086  -5.179  1.00 20.00     0.217 HD
ENDBRANCH   4  10
TORSDOF 2
ENDMDL
MODEL 9
REMARK VINA RESULT:      -3.9     12.422     13.312
REMARK  2 active torsions:
REMARK  status: ('A' for Active; 'I' for Inactive)
REMARK    1  A    between atoms: C4_4  and  O10_10 
REMARK    2  A    between atoms: C5_5  and  C8_8 
ROOT
HETATM    1  C1  UNL     1     -33.373  16.560  -3.547  1.00 20.00     0.040 A 
HETATM    2  C2  UNL     1     -33.322  16.665  -2.162  1.00 20.00     0.030 A 
HETATM    3  C3  UNL     1     -34.608  18.591  -3.603  1.00 20.00     0.153 A 
HETATM    4  C4  UNL     1     -34.026  17.537  -4.289  1.00 20.00     0.083 A 
HETATM    5  C5  UNL     1     -33.935  17.758  -1.571  1.00 20.00     0.038 A 
HETATM    6  N9  UNL     1     -34.580  18.728  -2.259  1.00 20.00    -0.262 NA
ENDROOT
BRANCH   5   7
HETATM    7  C8  UNL     1     -33.894  17.892  -0.086  1.00 20.00     0.038 A 
HETATM    8  C6  UNL     1     -34.062  19.255   0.530  1.00 20.00     0.011 A 
HETATM    9  C7  UNL     1     -32.723  18.588   0.555  1.00 20.00     0.011 A 
ENDBRANCH   5   7
BRANCH   4  10
HETATM   10  O10 UNL     1     -34.090  17.461  -5.642  1.00 20.00    -0.359 OA
HETATM   11  H19 UNL     1     -35.011  17.542  -5.945  1.00 20.00     0.217 HD
ENDBRANCH   4  10
TORSDOF 2
ENDMDL
