MODEL 1
REMARK VINA RESULT:      -6.0      0.000      0.000
REMARK  0 active torsions:
REMARK  status: ('A' for Active; 'I' for Inactive)
ROOT
HETATM    1  C1  UNL     1     -32.650   7.013   3.094  1.00 20.00     0.136 C 
HETATM    2  C2  UNL     1     -33.334   4.613   3.752  1.00 20.00     0.018 A 
HETATM    3  C3  UNL     1     -32.387   8.989   4.911  1.00 20.00     0.018 A 
HETATM    4  C4  UNL     1     -33.707   6.050   6.680  1.00 20.00     0.011 A 
HETATM    5  C5  UNL     1     -33.652   5.904   3.045  1.00 20.00     0.060 A 
HETATM    6  C6  UNL     1     -32.356   7.586   4.410  1.00 20.00     0.060 A 
HETATM    7  C7  UNL     1     -34.543   5.405   4.181  1.00 20.00     0.002 A 
HETATM    8  C8  UNL     1     -33.629   8.179   5.020  1.00 20.00     0.002 A 
HETATM    9  C9  UNL     1     -34.759   5.946   5.610  1.00 20.00    -0.005 A 
HETATM   10  C10 UNL     1     -34.265   7.315   6.083  1.00 20.00    -0.005 A 
HETATM   11  O11 UNL     1     -32.076   7.397   2.084  1.00 20.00    -0.297 OA
ENDROOT
TORSDOF 0
ENDMDL
MODEL 2
REMARK VINA RESULT:      -5.8      0.879      2.839
REMARK  0 active torsions:
REMARK  status: ('A' for Active; 'I' for Inactive)
ROOT
HETATM    1  C1  UNL     1     -32.389   7.426   3.763  1.00 20.00     0.136 C 
HETATM    2  C2  UNL     1     -34.101   8.416   5.422  1.00 20.00     0.018 A 
HETATM    3  C3  UNL     1     -32.875   5.172   2.362  1.00 20.00     0.018 A 
HETATM    4  C4  UNL     1     -35.681   5.633   4.691  1.00 20.00     0.011 A 
HETATM    5  C5  UNL     1     -32.769   7.761   5.171  1.00 20.00     0.060 A 
HETATM    6  C6  UNL     1     -33.219   6.438   3.068  1.00 20.00     0.060 A 
HETATM    7  C7  UNL     1     -33.818   7.071   6.041  1.00 20.00     0.002 A 
HETATM    8  C8  UNL     1     -33.182   5.102   3.815  1.00 20.00     0.002 A 
HETATM    9  C9  UNL     1     -34.669   5.808   5.790  1.00 20.00    -0.005 A 
HETATM   10  C10 UNL     1     -34.412   4.824   4.647  1.00 20.00    -0.005 A 
HETATM   11  O11 UNL     1     -31.451   7.979   3.208  1.00 20.00    -0.297 OA
ENDROOT
TORSDOF 0
ENDMDL
MODEL 3
REMARK VINA RESULT:      -5.5      1.181      2.909
REMARK  0 active torsions:
REMARK  status: ('A' for Active; 'I' for Inactive)
ROOT
HETATM    1  C1  UNL     1     -33.160   5.741   3.110  1.00 20.00     0.136 C 
HETATM    2  C2  UNL     1     -32.616   8.216   2.622  1.00 20.00     0.018 A 
HETATM    3  C3  UNL     1     -34.768   4.990   5.141  1.00 20.00     0.018 A 
HETATM    4  C4  UNL     1     -34.291   8.624   5.415  1.00 20.00     0.011 A 
HETATM    5  C5  UNL     1     -32.158   6.850   3.061  1.00 20.00     0.060 A 
HETATM    6  C6  UNL     1     -34.265   5.884   4.061  1.00 20.00     0.060 A 
HETATM    7  C7  UNL     1     -32.046   8.045   4.007  1.00 20.00     0.002 A 
HETATM    8  C8  UNL     1     -33.719   5.986   5.488  1.00 20.00     0.002 A 
HETATM    9  C9  UNL     1     -32.811   8.384   5.304  1.00 20.00    -0.005 A 
HETATM   10  C10 UNL     1     -33.705   7.389   6.047  1.00 20.00    -0.005 A 
HETATM   11  O11 UNL     1     -33.078   4.776   2.363  1.00 20.00    -0.297 OA
ENDROOT
TORSDOF 0
ENDMDL
MODEL 4
REMARK VINA RESULT:      -5.4      1.710      3.583
REMARK  0 active torsions:
REMARK  status: ('A' for Active; 'I' for Inactive)
ROOT
HETATM    1  C1  UNL     1     -34.288   5.388   4.605  1.00 20.00     0.136 C 
HETATM    2  C2  UNL     1     -33.630   7.216   6.303  1.00 20.00     0.018 A 
HETATM    3  C3  UNL     1     -32.874   4.934   2.353  1.00 20.00     0.018 A 
HETATM    4  C4  UNL     1     -31.430   7.903   3.967  1.00 20.00     0.011 A 
HETATM    5  C5  UNL     1     -34.598   6.687   5.278  1.00 20.00     0.060 A 
HETATM    6  C6  UNL     1     -33.085   5.342   3.770  1.00 20.00     0.060 A 
HETATM    7  C7  UNL     1     -33.907   8.033   5.066  1.00 20.00     0.002 A 
HETATM    8  C8  UNL     1     -33.197   6.358   2.631  1.00 20.00     0.002 A 
HETATM    9  C9  UNL     1     -32.822   8.465   4.057  1.00 20.00    -0.005 A 
HETATM   10  C10 UNL     1     -32.401   7.623   2.851  1.00 20.00    -0.005 A 
HETATM   11  O11 UNL     1     -34.988   4.399   4.775  1.00 20.00    -0.297 OA
ENDROOT
TORSDOF 0
ENDMDL
MODEL 5
REMARK VINA RESULT:      -5.4      1.744      3.046
REMARK  0 active torsions:
REMARK  status: ('A' for Active; 'I' for Inactive)
ROOT
HETATM    1  C1  UNL     1     -34.191   5.350   4.452  1.00 20.00     0.136 C 
HETATM    2  C2  UNL     1     -33.497   5.972   2.046  1.00 20.00     0.018 A 
HETATM    3  C3  UNL     1     -34.354   7.182   6.426  1.00 20.00     0.018 A 
HETATM    4  C4  UNL     1     -32.980   8.883   3.473  1.00 20.00     0.011 A 
HETATM    5  C5  UNL     1     -33.201   5.254   3.336  1.00 20.00     0.060 A 
HETATM    6  C6  UNL     1     -34.419   6.680   5.025  1.00 20.00     0.060 A 
HETATM    7  C7  UNL     1     -32.263   6.347   2.827  1.00 20.00     0.002 A 
HETATM    8  C8  UNL     1     -33.115   7.233   5.606  1.00 20.00     0.002 A 
HETATM    9  C9  UNL     1     -31.978   7.766   3.363  1.00 20.00    -0.005 A 
HETATM   10  C10 UNL     1     -32.438   8.264   4.734  1.00 20.00    -0.005 A 
HETATM   11  O11 UNL     1     -34.807   4.369   4.844  1.00 20.00    -0.297 OA
ENDROOT
TORSDOF 0
ENDMDL
MODEL 6
REMARK VINA RESULT:      -5.3      1.096      1.299
REMARK  0 active torsions:
REMARK  status: ('A' for Active; 'I' for Inactive)
ROOT
HETATM    1  C1  UNL     1     -33.177   5.757   3.070  1.00 20.00     0.136 C 
HETATM    2  C2  UNL     1     -33.793   4.262   5.081  1.00 20.00     0.018 A 
HETATM    3  C3  UNL     1     -32.359   8.311   3.367  1.00 20.00     0.018 A 
HETATM    4  C4  UNL     1     -33.334   7.085   6.692  1.00 20.00     0.011 A 
HETATM    5  C5  UNL     1     -34.214   5.004   3.841  1.00 20.00     0.060 A 
HETATM    6  C6  UNL     1     -32.529   6.881   3.751  1.00 20.00     0.060 A 
HETATM    7  C7  UNL     1     -34.812   5.368   5.199  1.00 20.00     0.002 A 
HETATM    8  C8  UNL     1     -33.573   7.932   4.139  1.00 20.00     0.002 A 
HETATM    9  C9  UNL     1     -34.628   6.620   6.082  1.00 20.00    -0.005 A 
HETATM   10  C10 UNL     1     -33.961   7.909   5.599  1.00 20.00    -0.005 A 
HETATM   11  O11 UNL     1     -32.860   5.425   1.937  1.00 20.00    -0.297 OA
ENDROOT
TORSDOF 0
ENDMDL
MODEL 7
REMARK VINA RESULT:      -4.7      1.736      3.022
REMARK  0 active torsions:
REMARK  status: ('A' for Active; 'I' for Inactive)
ROOT
HETATM    1  C1  UNL     1     -34.049   7.162   5.822  1.00 20.00     0.136 C 
HETATM    2  C2  UNL     1     -35.343   5.266   4.641  1.00 20.00     0.018 A 
HETATM    3  C3  UNL     1     -32.428   8.854   4.485  1.00 20.00     0.018 A 
HETATM    4  C4  UNL     1     -33.559   6.307   2.089  1.00 20.00     0.011 A 
HETATM    5  C5  UNL     1     -34.269   5.699   5.605  1.00 20.00     0.060 A 
HETATM    6  C6  UNL     1     -33.593   7.944   4.670  1.00 20.00     0.060 A 
HETATM    7  C7  UNL     1     -33.912   4.877   4.368  1.00 20.00     0.002 A 
HETATM    8  C8  UNL     1     -32.246   7.411   4.174  1.00 20.00     0.002 A 
HETATM    9  C9  UNL     1     -33.142   5.261   3.086  1.00 20.00    -0.005 A 
HETATM   10  C10 UNL     1     -32.338   6.554   2.934  1.00 20.00    -0.005 A 
HETATM   11  O11 UNL     1     -34.275   7.686   6.904  1.00 20.00    -0.297 OA
ENDROOT
TORSDOF 0
ENDMDL
MODEL 8
REMARK VINA RESULT:      -4.6      1.340      2.544
REMARK  0 active torsions:
REMARK  status: ('A' for Active; 'I' for Inactive)
ROOT
HETATM    1  C1  UNL     1     -32.829   8.071   4.810  1.00 20.00     0.136 C 
HETATM    2  C2  UNL     1     -31.797   6.607   2.953  1.00 20.00     0.018 A 
HETATM    3  C3  UNL     1     -34.331   7.037   6.798  1.00 20.00     0.018 A 
HETATM    4  C4  UNL     1     -33.588   4.303   4.456  1.00 20.00     0.011 A 
HETATM    5  C5  UNL     1     -32.771   7.677   3.369  1.00 20.00     0.060 A 
HETATM    6  C6  UNL     1     -33.258   7.045   5.764  1.00 20.00     0.060 A 
HETATM    7  C7  UNL     1     -33.272   6.379   2.738  1.00 20.00     0.002 A 
HETATM    8  C8  UNL     1     -34.676   6.576   5.426  1.00 20.00     0.002 A 
HETATM    9  C9  UNL     1     -34.061   5.198   3.344  1.00 20.00    -0.005 A 
HETATM   10  C10 UNL     1     -34.734   5.243   4.717  1.00 20.00    -0.005 A 
HETATM   11  O11 UNL     1     -32.497   9.190   5.179  1.00 20.00    -0.297 OA
ENDROOT
TORSDOF 0
ENDMDL
MODEL 9
REMARK VINA RESULT:      -4.6      1.741      3.589
REMARK  0 active torsions:
REMARK  status: ('A' for Active; 'I' for Inactive)
ROOT
HETATM    1  C1  UNL     1     -33.778   7.539   5.765  1.00 20.00     0.136 C 
HETATM    2  C2  UNL     1     -31.806   8.033   4.174  1.00 20.00     0.018 A 
HETATM    3  C3  UNL     1     -34.927   5.104   5.925  1.00 20.00     0.018 A 
HETATM    4  C4  UNL     1     -32.471   4.971   3.195  1.00 20.00     0.011 A 
HETATM    5  C5  UNL     1     -33.244   8.252   4.563  1.00 20.00     0.060 A 
HETATM    6  C6  UNL     1     -33.820   6.075   5.705  1.00 20.00     0.060 A 
HETATM    7  C7  UNL     1     -32.895   7.651   3.203  1.00 20.00     0.002 A 
HETATM    8  C8  UNL     1     -34.715   5.623   4.548  1.00 20.00     0.002 A 
HETATM    9  C9  UNL     1     -33.093   6.225   2.646  1.00 20.00    -0.005 A 
HETATM   10  C10 UNL     1     -33.959   5.162   3.325  1.00 20.00    -0.005 A 
HETATM   11  O11 UNL     1     -34.128   8.150   6.765  1.00 20.00    -0.297 OA
ENDROOT
TORSDOF 0
ENDMDL
