MODEL 1
REMARK VINA RESULT:      -3.9      0.000      0.000
REMARK  0 active torsions:
REMARK  status: ('A' for Active; 'I' for Inactive)
ROOT
HETATM    1  C1  UNL     1     -23.516  16.770  12.332  1.00 20.00     0.005 C 
HETATM    2  C2  UNL     1     -24.302  19.139  12.255  1.00 20.00     0.005 C 
HETATM    3  C3  UNL     1     -24.320  16.459  11.057  1.00 20.00     0.008 C 
HETATM    4  C4  UNL     1     -25.110  18.835  10.980  1.00 20.00     0.008 C 
HETATM    5  C5  UNL     1     -22.184  18.485  11.074  1.00 20.00     0.045 C 
HETATM    6  C6  UNL     1     -22.679  18.782   8.515  1.00 20.00     0.207 A 
HETATM    7  C7  UNL     1     -23.052  18.239  12.328  1.00 20.00    -0.012 C 
HETATM    8  C8  UNL     1     -24.423  17.716  10.174  1.00 20.00     0.022 C 
HETATM    9  C9  UNL     1     -23.022  18.186   9.858  1.00 20.00     0.086 A 
HETATM   10  O10 UNL     1     -22.352  17.426   8.843  1.00 20.00    -0.375 OA
ENDROOT
TORSDOF 0
ENDMDL
MODEL 2
REMARK VINA RESULT:      -3.5     15.297     16.675
REMARK  0 active torsions:
REMARK  status: ('A' for Active; 'I' for Inactive)
ROOT
HETATM    1  C1  UNL     1     -35.610   5.857   4.221  1.00 20.00     0.005 C 
HETATM    2  C2  UNL     1     -34.028   5.245   6.053  1.00 20.00     0.005 C 
HETATM    3  C3  UNL     1     -35.418   7.348   4.548  1.00 20.00     0.008 C 
HETATM    4  C4  UNL     1     -33.831   6.736   6.388  1.00 20.00     0.008 C 
HETATM    5  C5  UNL     1     -33.157   5.648   3.731  1.00 20.00     0.045 C 
HETATM    6  C6  UNL     1     -31.689   7.816   3.890  1.00 20.00     0.207 A 
HETATM    7  C7  UNL     1     -34.330   5.066   4.552  1.00 20.00    -0.012 C 
HETATM    8  C8  UNL     1     -34.007   7.590   5.117  1.00 20.00     0.022 C 
HETATM    9  C9  UNL     1     -33.000   7.099   4.104  1.00 20.00     0.086 A 
HETATM   10  O10 UNL     1     -32.793   7.982   2.992  1.00 20.00    -0.375 OA
ENDROOT
TORSDOF 0
ENDMDL
MODEL 3
REMARK VINA RESULT:      -3.5     23.749     24.897
REMARK  0 active torsions:
REMARK  status: ('A' for Active; 'I' for Inactive)
ROOT
HETATM    1  C1  UNL     1     -41.375   7.653   0.662  1.00 20.00     0.005 C 
HETATM    2  C2  UNL     1     -43.396   6.872   1.904  1.00 20.00     0.005 C 
HETATM    3  C3  UNL     1     -40.795   6.228   0.705  1.00 20.00     0.008 C 
HETATM    4  C4  UNL     1     -42.822   5.444   1.951  1.00 20.00     0.008 C 
HETATM    5  C5  UNL     1     -43.368   6.805  -0.607  1.00 20.00     0.045 C 
HETATM    6  C6  UNL     1     -43.417   4.261  -1.248  1.00 20.00     0.207 A 
HETATM    7  C7  UNL     1     -42.915   7.604   0.635  1.00 20.00    -0.012 C 
HETATM    8  C8  UNL     1     -41.934   5.191   0.718  1.00 20.00     0.022 C 
HETATM    9  C9  UNL     1     -42.791   5.416  -0.506  1.00 20.00     0.086 A 
HETATM   10  O10 UNL     1     -42.233   4.911  -1.727  1.00 20.00    -0.375 OA
ENDROOT
TORSDOF 0
ENDMDL
MODEL 4
REMARK VINA RESULT:      -3.4     23.189     24.369
REMARK  0 active torsions:
REMARK  status: ('A' for Active; 'I' for Inactive)
ROOT
HETATM    1  C1  UNL     1     -41.078   8.017  -0.457  1.00 20.00     0.005 C 
HETATM    2  C2  UNL     1     -40.768   5.570  -0.844  1.00 20.00     0.005 C 
HETATM    3  C3  UNL     1     -42.600   7.852  -0.609  1.00 20.00     0.008 C 
HETATM    4  C4  UNL     1     -42.291   5.396  -0.998  1.00 20.00     0.008 C 
HETATM    5  C5  UNL     1     -41.099   6.435   1.491  1.00 20.00     0.045 C 
HETATM    6  C6  UNL     1     -43.417   5.492   2.275  1.00 20.00     0.207 A 
HETATM    7  C7  UNL     1     -40.453   6.732   0.120  1.00 20.00    -0.012 C 
HETATM    8  C8  UNL     1     -43.031   6.447  -0.147  1.00 20.00     0.022 C 
HETATM    9  C9  UNL     1     -42.581   6.263   1.284  1.00 20.00     0.086 A 
HETATM   10  O10 UNL     1     -43.402   6.925   2.257  1.00 20.00    -0.375 OA
ENDROOT
TORSDOF 0
ENDMDL
MODEL 5
REMARK VINA RESULT:      -3.4     17.722     18.754
REMARK  0 active torsions:
REMARK  status: ('A' for Active; 'I' for Inactive)
ROOT
HETATM    1  C1  UNL     1     -42.450  13.504   8.046  1.00 20.00     0.005 C 
HETATM    2  C2  UNL     1     -41.955  15.190   6.273  1.00 20.00     0.005 C 
HETATM    3  C3  UNL     1     -42.555  12.404   6.976  1.00 20.00     0.008 C 
HETATM    4  C4  UNL     1     -42.060  14.095   5.195  1.00 20.00     0.008 C 
HETATM    5  C5  UNL     1     -40.073  13.938   7.368  1.00 20.00     0.045 C 
HETATM    6  C6  UNL     1     -39.041  12.425   5.490  1.00 20.00     0.207 A 
HETATM    7  C7  UNL     1     -41.453  14.592   7.602  1.00 20.00    -0.012 C 
HETATM    8  C8  UNL     1     -41.639  12.734   5.782  1.00 20.00     0.022 C 
HETATM    9  C9  UNL     1     -40.228  12.886   6.300  1.00 20.00     0.086 A 
HETATM   10  O10 UNL     1     -39.558  11.649   6.579  1.00 20.00    -0.375 OA
ENDROOT
TORSDOF 0
ENDMDL
MODEL 6
REMARK VINA RESULT:      -3.3     18.624     19.840
REMARK  0 active torsions:
REMARK  status: ('A' for Active; 'I' for Inactive)
ROOT
HETATM    1  C1  UNL     1     -33.906  15.245  -6.753  1.00 20.00     0.005 C 
HETATM    2  C2  UNL     1     -35.828  14.538  -5.325  1.00 20.00     0.005 C 
HETATM    3  C3  UNL     1     -34.591  16.598  -7.012  1.00 20.00     0.008 C 
HETATM    4  C4  UNL     1     -36.521  15.889  -5.580  1.00 20.00     0.008 C 
HETATM    5  C5  UNL     1     -33.874  15.730  -4.291  1.00 20.00     0.045 C 
HETATM    6  C6  UNL     1     -34.802  18.049  -3.490  1.00 20.00     0.207 A 
HETATM    7  C7  UNL     1     -34.296  14.702  -5.365  1.00 20.00    -0.012 C 
HETATM    8  C8  UNL     1     -35.467  16.989  -5.806  1.00 20.00     0.022 C 
HETATM    9  C9  UNL     1     -34.587  17.026  -4.578  1.00 20.00     0.086 A 
HETATM   10  O10 UNL     1     -33.765  18.197  -4.468  1.00 20.00    -0.375 OA
ENDROOT
TORSDOF 0
ENDMDL
MODEL 7
REMARK VINA RESULT:      -3.3     16.526     17.557
REMARK  0 active torsions:
REMARK  status: ('A' for Active; 'I' for Inactive)
ROOT
HETATM    1  C1  UNL     1     -35.303  18.570  -2.342  1.00 20.00     0.005 C 
HETATM    2  C2  UNL     1     -32.898  19.194  -2.595  1.00 20.00     0.005 C 
HETATM    3  C3  UNL     1     -35.373  18.220  -3.839  1.00 20.00     0.008 C 
HETATM    4  C4  UNL     1     -32.960  18.846  -4.094  1.00 20.00     0.008 C 
HETATM    5  C5  UNL     1     -33.523  16.830  -2.016  1.00 20.00     0.045 C 
HETATM    6  C6  UNL     1     -32.831  15.386  -4.094  1.00 20.00     0.207 A 
HETATM    7  C7  UNL     1     -33.884  18.317  -1.797  1.00 20.00    -0.012 C 
HETATM    8  C8  UNL     1     -33.998  17.733  -4.335  1.00 20.00     0.022 C 
HETATM    9  C9  UNL     1     -33.587  16.546  -3.495  1.00 20.00     0.086 A 
HETATM   10  O10 UNL     1     -34.240  15.317  -3.839  1.00 20.00    -0.375 OA
ENDROOT
TORSDOF 0
ENDMDL
MODEL 8
REMARK VINA RESULT:      -3.2     18.801     20.010
REMARK  0 active torsions:
REMARK  status: ('A' for Active; 'I' for Inactive)
ROOT
HETATM    1  C1  UNL     1     -35.979  14.163  -4.878  1.00 20.00     0.005 C 
HETATM    2  C2  UNL     1     -35.495  15.141  -7.123  1.00 20.00     0.005 C 
HETATM    3  C3  UNL     1     -34.500  14.324  -4.485  1.00 20.00     0.008 C 
HETATM    4  C4  UNL     1     -34.012  15.304  -6.738  1.00 20.00     0.008 C 
HETATM    5  C5  UNL     1     -36.158  16.643  -5.222  1.00 20.00     0.045 C 
HETATM    6  C6  UNL     1     -34.043  18.105  -4.703  1.00 20.00     0.207 A 
HETATM    7  C7  UNL     1     -36.392  15.263  -5.876  1.00 20.00    -0.012 C 
HETATM    8  C8  UNL     1     -33.883  15.529  -5.219  1.00 20.00     0.022 C 
HETATM    9  C9  UNL     1     -34.696  16.756  -4.877  1.00 20.00     0.086 A 
HETATM   10  O10 UNL     1     -34.430  17.305  -3.579  1.00 20.00    -0.375 OA
ENDROOT
TORSDOF 0
ENDMDL
MODEL 9
REMARK VINA RESULT:      -3.2     17.806     19.003
REMARK  0 active torsions:
REMARK  status: ('A' for Active; 'I' for Inactive)
ROOT
HETATM    1  C1  UNL     1     -41.920  14.044   5.113  1.00 20.00     0.005 C 
HETATM    2  C2  UNL     1     -42.495  12.381   6.884  1.00 20.00     0.005 C 
HETATM    3  C3  UNL     1     -42.505  15.173   5.978  1.00 20.00     0.008 C 
HETATM    4  C4  UNL     1     -43.084  13.505   7.756  1.00 20.00     0.008 C 
HETATM    5  C5  UNL     1     -40.257  13.520   6.919  1.00 20.00     0.045 C 
HETATM    6  C6  UNL     1     -40.264  15.031   9.063  1.00 20.00     0.207 A 
HETATM    7  C7  UNL     1     -41.351  12.924   6.005  1.00 20.00    -0.012 C 
HETATM    8  C8  UNL     1     -42.353  14.831   7.472  1.00 20.00     0.022 C 
HETATM    9  C9  UNL     1     -40.886  14.604   7.756  1.00 20.00     0.086 A 
HETATM   10  O10 UNL     1     -40.106  15.803   7.865  1.00 20.00    -0.375 OA
ENDROOT
TORSDOF 0
ENDMDL
