MODEL 1
REMARK VINA RESULT:      -4.2      0.000      0.000
REMARK  0 active torsions:
REMARK  status: ('A' for Active; 'I' for Inactive)
ROOT
HETATM    1  C1  UNL     1     -42.605   7.686  -0.279  1.00 20.00     0.132 C 
HETATM    2  C2  UNL     1     -41.359   7.724   0.600  1.00 20.00     0.084 C 
HETATM    3  C3  UNL     1     -42.104   5.564  -1.328  1.00 20.00     0.013 C 
HETATM    4  C4  UNL     1     -40.786   5.524  -0.500  1.00 20.00     0.006 C 
HETATM    5  C5  UNL     1     -43.032   4.447   1.588  1.00 20.00     0.011 A 
HETATM    6  C6  UNL     1     -43.402   5.768   2.226  1.00 20.00     0.011 A 
HETATM    7  C7  UNL     1     -43.097   6.242  -0.366  1.00 20.00     0.064 C 
HETATM    8  C8  UNL     1     -41.177   6.200   0.843  1.00 20.00     0.002 C 
HETATM    9  C9  UNL     1     -42.603   5.739   0.956  1.00 20.00    -0.026 A 
HETATM   10  O10 UNL     1     -43.105   8.644  -0.845  1.00 20.00    -0.298 OA
ENDROOT
TORSDOF 0
ENDMDL
MODEL 2
REMARK VINA RESULT:      -4.0      1.725      2.719
REMARK  0 active torsions:
REMARK  status: ('A' for Active; 'I' for Inactive)
ROOT
HETATM    1  C1  UNL     1     -42.303   5.063  -1.285  1.00 20.00     0.132 C 
HETATM    2  C2  UNL     1     -40.959   5.448  -0.677  1.00 20.00     0.084 C 
HETATM    3  C3  UNL     1     -43.375   4.509   0.812  1.00 20.00     0.013 C 
HETATM    4  C4  UNL     1     -42.033   4.845   1.528  1.00 20.00     0.006 C 
HETATM    5  C5  UNL     1     -43.417   7.754   1.097  1.00 20.00     0.011 A 
HETATM    6  C6  UNL     1     -42.802   8.104  -0.240  1.00 20.00     0.011 A 
HETATM    7  C7  UNL     1     -43.415   5.526  -0.344  1.00 20.00     0.064 C 
HETATM    8  C8  UNL     1     -41.451   6.013   0.684  1.00 20.00     0.002 C 
HETATM    9  C9  UNL     1     -42.727   6.700   0.283  1.00 20.00    -0.026 A 
HETATM   10  O10 UNL     1     -42.462   4.457  -2.333  1.00 20.00    -0.298 OA
ENDROOT
TORSDOF 0
ENDMDL
MODEL 3
REMARK VINA RESULT:      -3.9     23.492     24.451
REMARK  0 active torsions:
REMARK  status: ('A' for Active; 'I' for Inactive)
ROOT
HETATM    1  C1  UNL     1     -22.655  17.356   9.580  1.00 20.00     0.132 C 
HETATM    2  C2  UNL     1     -22.107  18.692  10.068  1.00 20.00     0.084 C 
HETATM    3  C3  UNL     1     -23.516  16.642  11.725  1.00 20.00     0.013 C 
HETATM    4  C4  UNL     1     -22.962  17.965  12.331  1.00 20.00     0.006 C 
HETATM    5  C5  UNL     1     -25.795  18.858  11.010  1.00 20.00     0.011 A 
HETATM    6  C6  UNL     1     -25.292  19.263   9.642  1.00 20.00     0.011 A 
HETATM    7  C7  UNL     1     -23.964  17.067  10.314  1.00 20.00     0.064 C 
HETATM    8  C8  UNL     1     -23.146  18.997  11.183  1.00 20.00     0.002 C 
HETATM    9  C9  UNL     1     -24.413  18.474  10.568  1.00 20.00    -0.026 A 
HETATM   10  O10 UNL     1     -22.120  16.623   8.763  1.00 20.00    -0.298 OA
ENDROOT
TORSDOF 0
ENDMDL
MODEL 4
REMARK VINA RESULT:      -3.8     12.422     13.594
REMARK  0 active torsions:
REMARK  status: ('A' for Active; 'I' for Inactive)
ROOT
HETATM    1  C1  UNL     1     -35.779  14.952  -6.808  1.00 20.00     0.132 C 
HETATM    2  C2  UNL     1     -36.613  15.676  -5.758  1.00 20.00     0.084 C 
HETATM    3  C3  UNL     1     -34.131  16.704  -7.069  1.00 20.00     0.013 C 
HETATM    4  C4  UNL     1     -34.932  17.541  -6.029  1.00 20.00     0.006 C 
HETATM    5  C5  UNL     1     -33.144  15.547  -4.188  1.00 20.00     0.011 A 
HETATM    6  C6  UNL     1     -34.136  14.412  -4.051  1.00 20.00     0.011 A 
HETATM    7  C7  UNL     1     -34.303  15.261  -6.559  1.00 20.00     0.064 C 
HETATM    8  C8  UNL     1     -35.484  16.472  -5.046  1.00 20.00     0.002 C 
HETATM    9  C9  UNL     1     -34.351  15.485  -5.078  1.00 20.00    -0.026 A 
HETATM   10  O10 UNL     1     -36.219  14.266  -7.717  1.00 20.00    -0.298 OA
ENDROOT
TORSDOF 0
ENDMDL
MODEL 5
REMARK VINA RESULT:      -3.7      1.541      2.684
REMARK  0 active torsions:
REMARK  status: ('A' for Active; 'I' for Inactive)
ROOT
HETATM    1  C1  UNL     1     -41.081   5.658  -0.421  1.00 20.00     0.132 C 
HETATM    2  C2  UNL     1     -42.414   5.597  -1.158  1.00 20.00     0.084 C 
HETATM    3  C3  UNL     1     -41.321   7.943   0.337  1.00 20.00     0.013 C 
HETATM    4  C4  UNL     1     -42.684   7.995  -0.415  1.00 20.00     0.006 C 
HETATM    5  C5  UNL     1     -43.417   6.535   2.395  1.00 20.00     0.011 A 
HETATM    6  C6  UNL     1     -43.224   5.097   1.963  1.00 20.00     0.011 A 
HETATM    7  C7  UNL     1     -41.262   6.491   0.847  1.00 20.00     0.064 C 
HETATM    8  C8  UNL     1     -43.243   6.554  -0.258  1.00 20.00     0.002 C 
HETATM    9  C9  UNL     1     -42.712   6.220   1.108  1.00 20.00    -0.026 A 
HETATM   10  O10 UNL     1     -40.035   5.154  -0.799  1.00 20.00    -0.298 OA
ENDROOT
TORSDOF 0
ENDMDL
MODEL 6
REMARK VINA RESULT:      -3.7      8.687     10.015
REMARK  0 active torsions:
REMARK  status: ('A' for Active; 'I' for Inactive)
ROOT
HETATM    1  C1  UNL     1     -42.060  13.236   8.129  1.00 20.00     0.132 C 
HETATM    2  C2  UNL     1     -41.080  14.405   8.117  1.00 20.00     0.084 C 
HETATM    3  C3  UNL     1     -43.002  13.680   5.945  1.00 20.00     0.013 C 
HETATM    4  C4  UNL     1     -42.065  14.920   5.849  1.00 20.00     0.006 C 
HETATM    5  C5  UNL     1     -40.145  12.443   4.988  1.00 20.00     0.011 A 
HETATM    6  C6  UNL     1     -39.578  12.110   6.350  1.00 20.00     0.011 A 
HETATM    7  C7  UNL     1     -42.147  12.658   6.717  1.00 20.00     0.064 C 
HETATM    8  C8  UNL     1     -40.780  14.465   6.593  1.00 20.00     0.002 C 
HETATM    9  C9  UNL     1     -40.774  13.007   6.228  1.00 20.00    -0.026 A 
HETATM   10  O10 UNL     1     -42.693  12.849   9.097  1.00 20.00    -0.298 OA
ENDROOT
TORSDOF 0
ENDMDL
MODEL 7
REMARK VINA RESULT:      -3.6      1.324      2.422
REMARK  0 active torsions:
REMARK  status: ('A' for Active; 'I' for Inactive)
ROOT
HETATM    1  C1  UNL     1     -42.816   8.392  -0.285  1.00 20.00     0.132 C 
HETATM    2  C2  UNL     1     -43.225   7.617   0.962  1.00 20.00     0.084 C 
HETATM    3  C3  UNL     1     -40.438   8.342   0.162  1.00 20.00     0.013 C 
HETATM    4  C4  UNL     1     -40.754   7.576   1.480  1.00 20.00     0.006 C 
HETATM    5  C5  UNL     1     -40.809   5.248  -0.788  1.00 20.00     0.011 A 
HETATM    6  C6  UNL     1     -42.284   5.293  -1.125  1.00 20.00     0.011 A 
HETATM    7  C7  UNL     1     -41.505   7.809  -0.813  1.00 20.00     0.064 C 
HETATM    8  C8  UNL     1     -41.981   6.698   1.108  1.00 20.00     0.002 C 
HETATM    9  C9  UNL     1     -41.656   6.399  -0.329  1.00 20.00    -0.026 A 
HETATM   10  O10 UNL     1     -43.417   9.340  -0.762  1.00 20.00    -0.298 OA
ENDROOT
TORSDOF 0
ENDMDL
MODEL 8
REMARK VINA RESULT:      -3.6     11.881     13.439
REMARK  0 active torsions:
REMARK  status: ('A' for Active; 'I' for Inactive)
ROOT
HETATM    1  C1  UNL     1     -35.354  14.183  -4.886  1.00 20.00     0.132 C 
HETATM    2  C2  UNL     1     -34.237  15.024  -4.278  1.00 20.00     0.084 C 
HETATM    3  C3  UNL     1     -36.764  16.050  -5.502  1.00 20.00     0.013 C 
HETATM    4  C4  UNL     1     -35.699  16.996  -4.873  1.00 20.00     0.006 C 
HETATM    5  C5  UNL     1     -34.510  16.367  -7.832  1.00 20.00     0.011 A 
HETATM    6  C6  UNL     1     -33.660  15.165  -7.486  1.00 20.00     0.011 A 
HETATM    7  C7  UNL     1     -35.911  14.919  -6.105  1.00 20.00     0.064 C 
HETATM    8  C8  UNL     1     -34.352  16.285  -5.180  1.00 20.00     0.002 C 
HETATM    9  C9  UNL     1     -34.682  15.674  -6.513  1.00 20.00    -0.026 A 
HETATM   10  O10 UNL     1     -35.757  13.116  -4.453  1.00 20.00    -0.298 OA
ENDROOT
TORSDOF 0
ENDMDL
MODEL 9
REMARK VINA RESULT:      -3.5      1.953      3.246
REMARK  0 active torsions:
REMARK  status: ('A' for Active; 'I' for Inactive)
ROOT
HETATM    1  C1  UNL     1     -41.918   5.066   1.389  1.00 20.00     0.132 C 
HETATM    2  C2  UNL     1     -43.034   5.970   1.899  1.00 20.00     0.084 C 
HETATM    3  C3  UNL     1     -42.235   5.577  -0.954  1.00 20.00     0.013 C 
HETATM    4  C4  UNL     1     -43.417   6.502  -0.540  1.00 20.00     0.006 C 
HETATM    5  C5  UNL     1     -40.793   8.355  -0.051  1.00 20.00     0.011 A 
HETATM    6  C6  UNL     1     -40.540   8.014   1.401  1.00 20.00     0.011 A 
HETATM    7  C7  UNL     1     -41.236   5.751   0.205  1.00 20.00     0.064 C 
HETATM    8  C8  UNL     1     -42.961   7.090   0.823  1.00 20.00     0.002 C 
HETATM    9  C9  UNL     1     -41.481   7.181   0.581  1.00 20.00    -0.026 A 
HETATM   10  O10 UNL     1     -41.638   3.963   1.832  1.00 20.00    -0.298 OA
ENDROOT
TORSDOF 0
ENDMDL
