MODEL 1
REMARK VINA RESULT:      -4.3      0.000      0.000
REMARK  0 active torsions:
REMARK  status: ('A' for Active; 'I' for Inactive)
ROOT
HETATM    1  C1  UNL     1     -33.868  15.039  -3.933  1.00 20.00     0.064 C 
HETATM    2  C2  UNL     1     -34.086  17.446  -4.435  1.00 20.00     0.045 C 
HETATM    3  C3  UNL     1     -33.327  16.689  -2.170  1.00 20.00     0.056 C 
HETATM    4  C4  UNL     1     -33.514  18.836  -4.173  1.00 20.00     0.170 C 
HETATM    5  C5  UNL     1     -33.313  16.377  -3.673  1.00 20.00     0.097 C 
HETATM    6  C6  UNL     1     -33.186  18.199  -1.862  1.00 20.00     0.055 C 
HETATM    7  C7  UNL     1     -34.511  18.806  -1.376  1.00 20.00     0.045 C 
HETATM    8  C8  UNL     1     -32.136  18.405  -0.760  1.00 20.00     0.045 C 
HETATM    9  N9  UNL     1     -34.305  13.984  -4.138  1.00 20.00    -0.197 NA
HETATM   10  O10 UNL     1     -32.695  18.905  -3.007  1.00 20.00    -0.381 OA
ENDROOT
TORSDOF 0
ENDMDL
MODEL 2
REMARK VINA RESULT:      -4.0     11.736     12.865
REMARK  0 active torsions:
REMARK  status: ('A' for Active; 'I' for Inactive)
ROOT
HETATM    1  C1  UNL     1     -32.158   7.868   1.943  1.00 20.00     0.064 C 
HETATM    2  C2  UNL     1     -33.164   8.381   4.138  1.00 20.00     0.045 C 
HETATM    3  C3  UNL     1     -33.359   6.081   3.161  1.00 20.00     0.056 C 
HETATM    4  C4  UNL     1     -33.492   7.830   5.523  1.00 20.00     0.170 C 
HETATM    5  C5  UNL     1     -32.475   7.330   3.275  1.00 20.00     0.097 C 
HETATM    6  C6  UNL     1     -34.086   5.729   4.481  1.00 20.00     0.055 C 
HETATM    7  C7  UNL     1     -35.588   6.047   4.406  1.00 20.00     0.045 C 
HETATM    8  C8  UNL     1     -33.932   4.228   4.770  1.00 20.00     0.045 C 
HETATM    9  N9  UNL     1     -31.909   8.293   0.892  1.00 20.00    -0.197 NA
HETATM   10  O10 UNL     1     -33.480   6.406   5.588  1.00 20.00    -0.381 OA
ENDROOT
TORSDOF 0
ENDMDL
MODEL 3
REMARK VINA RESULT:      -3.8      2.873      4.547
REMARK  0 active torsions:
REMARK  status: ('A' for Active; 'I' for Inactive)
ROOT
HETATM    1  C1  UNL     1     -34.843  19.138   1.274  1.00 20.00     0.064 C 
HETATM    2  C2  UNL     1     -32.574  18.432   0.605  1.00 20.00     0.045 C 
HETATM    3  C3  UNL     1     -34.357  18.768  -1.123  1.00 20.00     0.056 C 
HETATM    4  C4  UNL     1     -31.498  18.537  -0.472  1.00 20.00     0.170 C 
HETATM    5  C5  UNL     1     -33.811  19.241   0.230  1.00 20.00     0.097 C 
HETATM    6  C6  UNL     1     -33.244  18.427  -2.143  1.00 20.00     0.055 C 
HETATM    7  C7  UNL     1     -33.115  16.911  -2.359  1.00 20.00     0.045 C 
HETATM    8  C8  UNL     1     -33.569  19.075  -3.497  1.00 20.00     0.045 C 
HETATM    9  N9  UNL     1     -35.657  19.058   2.097  1.00 20.00    -0.197 NA
HETATM   10  O10 UNL     1     -31.993  18.988  -1.731  1.00 20.00    -0.381 OA
ENDROOT
TORSDOF 0
ENDMDL
MODEL 4
REMARK VINA RESULT:      -3.6      2.560      4.216
REMARK  0 active torsions:
REMARK  status: ('A' for Active; 'I' for Inactive)
ROOT
HETATM    1  C1  UNL     1     -33.550  17.074  -2.250  1.00 20.00     0.064 C 
HETATM    2  C2  UNL     1     -33.736  15.206  -3.853  1.00 20.00     0.045 C 
HETATM    3  C3  UNL     1     -34.822  17.410  -4.346  1.00 20.00     0.056 C 
HETATM    4  C4  UNL     1     -33.814  14.827  -5.329  1.00 20.00     0.170 C 
HETATM    5  C5  UNL     1     -33.629  16.716  -3.675  1.00 20.00     0.097 C 
HETATM    6  C6  UNL     1     -35.230  16.755  -5.687  1.00 20.00     0.055 C 
HETATM    7  C7  UNL     1     -36.545  15.970  -5.560  1.00 20.00     0.045 C 
HETATM    8  C8  UNL     1     -35.427  17.844  -6.753  1.00 20.00     0.045 C 
HETATM    9  N9  UNL     1     -33.488  17.357  -1.127  1.00 20.00    -0.197 NA
HETATM   10  O10 UNL     1     -34.182  15.912  -6.178  1.00 20.00    -0.381 OA
ENDROOT
TORSDOF 0
ENDMDL
MODEL 5
REMARK VINA RESULT:      -3.5      2.291      3.159
REMARK  0 active torsions:
REMARK  status: ('A' for Active; 'I' for Inactive)
ROOT
HETATM    1  C1  UNL     1     -35.689  14.855  -6.355  1.00 20.00     0.064 C 
HETATM    2  C2  UNL     1     -33.696  15.245  -4.952  1.00 20.00     0.045 C 
HETATM    3  C3  UNL     1     -35.532  16.949  -5.045  1.00 20.00     0.056 C 
HETATM    4  C4  UNL     1     -33.181  15.859  -3.653  1.00 20.00     0.170 C 
HETATM    5  C5  UNL     1     -35.199  15.452  -5.102  1.00 20.00     0.097 C 
HETATM    6  C6  UNL     1     -34.685  17.721  -4.005  1.00 20.00     0.055 C 
HETATM    7  C7  UNL     1     -33.628  18.609  -4.680  1.00 20.00     0.045 C 
HETATM    8  C8  UNL     1     -35.599  18.624  -3.164  1.00 20.00     0.045 C 
HETATM    9  N9  UNL     1     -36.076  14.385  -7.342  1.00 20.00    -0.197 NA
HETATM   10  O10 UNL     1     -34.071  16.815  -3.081  1.00 20.00    -0.381 OA
ENDROOT
TORSDOF 0
ENDMDL
MODEL 6
REMARK VINA RESULT:      -3.5     12.120     13.260
REMARK  0 active torsions:
REMARK  status: ('A' for Active; 'I' for Inactive)
ROOT
HETATM    1  C1  UNL     1     -32.644   8.617   3.028  1.00 20.00     0.064 C 
HETATM    2  C2  UNL     1     -33.728   8.264   5.217  1.00 20.00     0.045 C 
HETATM    3  C3  UNL     1     -33.529   6.374   3.583  1.00 20.00     0.056 C 
HETATM    4  C4  UNL     1     -33.963   7.270   6.351  1.00 20.00     0.170 C 
HETATM    5  C5  UNL     1     -32.869   7.653   4.117  1.00 20.00     0.097 C 
HETATM    6  C6  UNL     1     -34.190   5.523   4.693  1.00 20.00     0.055 C 
HETATM    7  C7  UNL     1     -35.724   5.604   4.635  1.00 20.00     0.045 C 
HETATM    8  C8  UNL     1     -33.786   4.051   4.525  1.00 20.00     0.045 C 
HETATM    9  N9  UNL     1     -32.466   9.377   2.170  1.00 20.00    -0.197 NA
HETATM   10  O10 UNL     1     -33.711   5.915   5.985  1.00 20.00    -0.381 OA
ENDROOT
TORSDOF 0
ENDMDL
MODEL 7
REMARK VINA RESULT:      -3.4     12.766     13.868
REMARK  0 active torsions:
REMARK  status: ('A' for Active; 'I' for Inactive)
ROOT
HETATM    1  C1  UNL     1     -41.100  15.485   9.010  1.00 20.00     0.064 C 
HETATM    2  C2  UNL     1     -42.697  13.954   7.914  1.00 20.00     0.045 C 
HETATM    3  C3  UNL     1     -40.330  14.108   7.104  1.00 20.00     0.056 C 
HETATM    4  C4  UNL     1     -42.860  12.609   7.212  1.00 20.00     0.170 C 
HETATM    5  C5  UNL     1     -41.249  14.189   8.330  1.00 20.00     0.097 C 
HETATM    6  C6  UNL     1     -40.742  12.997   6.108  1.00 20.00     0.055 C 
HETATM    7  C7  UNL     1     -41.371  13.581   4.833  1.00 20.00     0.045 C 
HETATM    8  C8  UNL     1     -39.504  12.186   5.699  1.00 20.00     0.045 C 
HETATM    9  N9  UNL     1     -40.982  16.507   9.546  1.00 20.00    -0.197 NA
HETATM   10  O10 UNL     1     -41.633  12.064   6.731  1.00 20.00    -0.381 OA
ENDROOT
TORSDOF 0
ENDMDL
MODEL 8
REMARK VINA RESULT:      -3.4     24.408     25.371
REMARK  0 active torsions:
REMARK  status: ('A' for Active; 'I' for Inactive)
ROOT
HETATM    1  C1  UNL     1     -28.005  -1.377  10.856  1.00 20.00     0.064 C 
HETATM    2  C2  UNL     1     -26.004  -1.366  12.303  1.00 20.00     0.045 C 
HETATM    3  C3  UNL     1     -25.996  -2.633  10.141  1.00 20.00     0.056 C 
HETATM    4  C4  UNL     1     -24.479  -1.382  12.329  1.00 20.00     0.170 C 
HETATM    5  C5  UNL     1     -26.533  -1.396  10.874  1.00 20.00     0.097 C 
HETATM    6  C6  UNL     1     -24.524  -2.956  10.492  1.00 20.00     0.055 C 
HETATM    7  C7  UNL     1     -24.413  -4.198  11.389  1.00 20.00     0.045 C 
HETATM    8  C8  UNL     1     -23.734  -3.228   9.202  1.00 20.00     0.045 C 
HETATM    9  N9  UNL     1     -29.165  -1.362  10.842  1.00 20.00    -0.197 NA
HETATM   10  O10 UNL     1     -23.892  -1.828  11.108  1.00 20.00    -0.381 OA
ENDROOT
TORSDOF 0
ENDMDL
MODEL 9
REMARK VINA RESULT:      -3.3     12.181     13.105
REMARK  0 active torsions:
REMARK  status: ('A' for Active; 'I' for Inactive)
ROOT
HETATM    1  C1  UNL     1     -40.136  12.337   5.199  1.00 20.00     0.064 C 
HETATM    2  C2  UNL     1     -42.052  12.535   6.742  1.00 20.00     0.045 C 
HETATM    3  C3  UNL     1     -40.192  14.214   6.810  1.00 20.00     0.056 C 
HETATM    4  C4  UNL     1     -42.968  13.507   7.482  1.00 20.00     0.170 C 
HETATM    5  C5  UNL     1     -41.013  13.279   5.911  1.00 20.00     0.097 C 
HETATM    6  C6  UNL     1     -41.042  14.910   7.900  1.00 20.00     0.055 C 
HETATM    7  C7  UNL     1     -40.764  14.329   9.295  1.00 20.00     0.045 C 
HETATM    8  C8  UNL     1     -40.708  16.409   7.934  1.00 20.00     0.045 C 
HETATM    9  N9  UNL     1     -39.444  11.594   4.637  1.00 20.00    -0.197 NA
HETATM   10  O10 UNL     1     -42.436  14.826   7.584  1.00 20.00    -0.381 OA
ENDROOT
TORSDOF 0
ENDMDL
