MODEL 1
REMARK VINA RESULT:      -4.0      0.000      0.000
REMARK  1 active torsions:
REMARK  status: ('A' for Active; 'I' for Inactive)
REMARK    1  A    between atoms: C11_11  and  C12_12 
ROOT
HETATM    1  C1  UNL     1     -42.315  13.956   8.441  1.00 20.00     0.009 C 
HETATM    2  C2  UNL     1     -43.416  14.196   6.201  1.00 20.00     0.009 C 
HETATM    3  C3  UNL     1     -41.414  15.593   6.769  1.00 20.00     0.009 C 
HETATM    4  C4  UNL     1     -42.124  12.116   6.747  1.00 20.00     0.017 C 
HETATM    5  C5  UNL     1     -40.117  13.517   7.317  1.00 20.00     0.017 C 
HETATM    6  C6  UNL     1     -41.219  13.757   5.072  1.00 20.00     0.017 C 
HETATM    7  C8  UNL     1     -43.050  13.205   7.318  1.00 20.00    -0.013 C 
HETATM    8  C9  UNL     1     -41.037  14.609   7.890  1.00 20.00    -0.013 C 
HETATM    9  C10 UNL     1     -42.143  14.851   5.638  1.00 20.00    -0.013 C 
HETATM   10  C12 UNL     1     -40.831  12.750   6.180  1.00 20.00    -0.011 C 
ENDROOT
BRANCH  10  11
HETATM   11  C11 UNL     1     -39.924  11.678   5.620  1.00 20.00     0.153 A 
HETATM   12  C7  UNL     1     -38.496  11.979   5.258  1.00 20.00     0.201 A 
HETATM   13  O13 UNL     1     -39.526  11.886   4.261  1.00 20.00    -0.380 OA
ENDBRANCH  10  11
TORSDOF 1
ENDMDL
MODEL 2
REMARK VINA RESULT:      -3.9      0.175      2.099
REMARK  1 active torsions:
REMARK  status: ('A' for Active; 'I' for Inactive)
REMARK    1  A    between atoms: C11_11  and  C12_12 
ROOT
HETATM    1  C1  UNL     1     -43.417  14.303   6.425  1.00 20.00     0.009 C 
HETATM    2  C2  UNL     1     -41.380  15.659   6.972  1.00 20.00     0.009 C 
HETATM    3  C3  UNL     1     -42.252  13.984   8.621  1.00 20.00     0.009 C 
HETATM    4  C4  UNL     1     -41.263  13.872   5.215  1.00 20.00     0.017 C 
HETATM    5  C5  UNL     1     -42.137  12.194   6.869  1.00 20.00     0.017 C 
HETATM    6  C6  UNL     1     -40.095  13.551   7.418  1.00 20.00     0.017 C 
HETATM    7  C8  UNL     1     -42.154  14.959   5.843  1.00 20.00    -0.013 C 
HETATM    8  C9  UNL     1     -43.031  13.275   7.500  1.00 20.00    -0.013 C 
HETATM    9  C10 UNL     1     -40.982  14.637   8.051  1.00 20.00    -0.013 C 
HETATM   10  C12 UNL     1     -40.854  12.827   6.281  1.00 20.00    -0.011 C 
ENDROOT
BRANCH  10  11
HETATM   11  C11 UNL     1     -39.979  11.761   5.662  1.00 20.00     0.153 A 
HETATM   12  C7  UNL     1     -38.545  12.041   5.309  1.00 20.00     0.201 A 
HETATM   13  O13 UNL     1     -39.581  12.028   4.314  1.00 20.00    -0.380 OA
ENDBRANCH  10  11
TORSDOF 1
ENDMDL
MODEL 3
REMARK VINA RESULT:      -3.8      0.254      2.097
REMARK  1 active torsions:
REMARK  status: ('A' for Active; 'I' for Inactive)
REMARK    1  A    between atoms: C11_11  and  C12_12 
ROOT
HETATM    1  C1  UNL     1     -41.341  15.746   7.008  1.00 20.00     0.009 C 
HETATM    2  C2  UNL     1     -42.237  14.063   8.636  1.00 20.00     0.009 C 
HETATM    3  C3  UNL     1     -43.417  14.454   6.459  1.00 20.00     0.009 C 
HETATM    4  C4  UNL     1     -40.104  13.599   7.399  1.00 20.00     0.017 C 
HETATM    5  C5  UNL     1     -41.288  13.992   5.218  1.00 20.00     0.017 C 
HETATM    6  C6  UNL     1     -42.187  12.304   6.847  1.00 20.00     0.017 C 
HETATM    7  C8  UNL     1     -40.958  14.694   8.063  1.00 20.00    -0.013 C 
HETATM    8  C9  UNL     1     -42.144  15.089   5.875  1.00 20.00    -0.013 C 
HETATM    9  C10 UNL     1     -43.046  13.396   7.510  1.00 20.00    -0.013 C 
HETATM   10  C12 UNL     1     -40.895  12.917   6.257  1.00 20.00    -0.011 C 
ENDROOT
BRANCH  10  11
HETATM   11  C11 UNL     1     -40.054  11.841   5.607  1.00 20.00     0.153 A 
HETATM   12  C7  UNL     1     -38.621  12.096   5.230  1.00 20.00     0.201 A 
HETATM   13  O13 UNL     1     -39.676  12.118   4.255  1.00 20.00    -0.380 OA
ENDBRANCH  10  11
TORSDOF 1
ENDMDL
MODEL 4
REMARK VINA RESULT:      -3.6     20.209     21.803
REMARK  1 active torsions:
REMARK  status: ('A' for Active; 'I' for Inactive)
REMARK    1  A    between atoms: C11_11  and  C12_12 
ROOT
HETATM    1  C1  UNL     1     -28.533  -0.866  12.332  1.00 20.00     0.009 C 
HETATM    2  C2  UNL     1     -28.803  -2.454  10.410  1.00 20.00     0.009 C 
HETATM    3  C3  UNL     1     -27.548  -0.308  10.095  1.00 20.00     0.009 C 
HETATM    4  C4  UNL     1     -27.303  -3.052  12.330  1.00 20.00     0.017 C 
HETATM    5  C5  UNL     1     -26.046  -0.900  12.013  1.00 20.00     0.017 C 
HETATM    6  C6  UNL     1     -26.316  -2.491  10.088  1.00 20.00     0.017 C 
HETATM    7  C8  UNL     1     -28.613  -2.349  11.933  1.00 20.00    -0.013 C 
HETATM    8  C9  UNL     1     -27.352  -0.190  11.616  1.00 20.00    -0.013 C 
HETATM    9  C10 UNL     1     -27.623  -1.787   9.684  1.00 20.00    -0.013 C 
HETATM   10  C12 UNL     1     -26.098  -2.394  11.617  1.00 20.00    -0.011 C 
ENDROOT
BRANCH  10  11
HETATM   11  C11 UNL     1     -24.813  -3.087  12.009  1.00 20.00     0.153 A 
HETATM   12  C7  UNL     1     -23.552  -2.894  11.214  1.00 20.00     0.201 A 
HETATM   13  O13 UNL     1     -24.361  -4.073  11.076  1.00 20.00    -0.380 OA
ENDBRANCH  10  11
TORSDOF 1
ENDMDL
MODEL 5
REMARK VINA RESULT:      -3.6     20.036     21.321
REMARK  1 active torsions:
REMARK  status: ('A' for Active; 'I' for Inactive)
REMARK    1  A    between atoms: C11_11  and  C12_12 
ROOT
HETATM    1  C1  UNL     1     -26.093  -0.962  12.281  1.00 20.00     0.009 C 
HETATM    2  C2  UNL     1     -27.370  -0.314  10.223  1.00 20.00     0.009 C 
HETATM    3  C3  UNL     1     -26.055  -2.448  10.263  1.00 20.00     0.009 C 
HETATM    4  C4  UNL     1     -28.601  -1.031  12.288  1.00 20.00     0.017 C 
HETATM    5  C5  UNL     1     -27.282  -3.169  12.327  1.00 20.00     0.017 C 
HETATM    6  C6  UNL     1     -28.562  -2.521  10.265  1.00 20.00     0.017 C 
HETATM    7  C8  UNL     1     -27.368  -0.277  11.760  1.00 20.00    -0.013 C 
HETATM    8  C9  UNL     1     -26.045  -2.421  11.800  1.00 20.00    -0.013 C 
HETATM    9  C10 UNL     1     -27.329  -1.771   9.731  1.00 20.00    -0.013 C 
HETATM   10  C12 UNL     1     -28.578  -2.503  11.812  1.00 20.00    -0.011 C 
ENDROOT
BRANCH  10  11
HETATM   11  C11 UNL     1     -29.791  -3.241  12.332  1.00 20.00     0.153 A 
HETATM   12  C7  UNL     1     -29.972  -4.712  12.081  1.00 20.00     0.201 A 
HETATM   13  O13 UNL     1     -30.676  -3.721  11.315  1.00 20.00    -0.380 OA
ENDBRANCH  10  11
TORSDOF 1
ENDMDL
MODEL 6
REMARK VINA RESULT:      -3.5     12.821     14.390
REMARK  1 active torsions:
REMARK  status: ('A' for Active; 'I' for Inactive)
REMARK    1  A    between atoms: C11_11  and  C12_12 
ROOT
HETATM    1  C1  UNL     1     -36.610  17.560  -6.694  1.00 20.00     0.009 C 
HETATM    2  C2  UNL     1     -36.058  15.442  -7.917  1.00 20.00     0.009 C 
HETATM    3  C3  UNL     1     -34.404  17.325  -7.861  1.00 20.00     0.009 C 
HETATM    4  C4  UNL     1     -36.158  15.452  -5.410  1.00 20.00     0.017 C 
HETATM    5  C5  UNL     1     -34.501  17.341  -5.356  1.00 20.00     0.017 C 
HETATM    6  C6  UNL     1     -33.946  15.219  -6.581  1.00 20.00     0.017 C 
HETATM    7  C8  UNL     1     -36.780  16.031  -6.694  1.00 20.00    -0.013 C 
HETATM    8  C9  UNL     1     -35.118  17.925  -6.638  1.00 20.00    -0.013 C 
HETATM    9  C10 UNL     1     -34.562  15.796  -7.868  1.00 20.00    -0.013 C 
HETATM   10  C12 UNL     1     -34.653  15.802  -5.334  1.00 20.00    -0.011 C 
ENDROOT
BRANCH  10  11
HETATM   11  C11 UNL     1     -34.045  15.232  -4.072  1.00 20.00     0.153 A 
HETATM   12  C7  UNL     1     -33.334  16.114  -3.085  1.00 20.00     0.201 A 
HETATM   13  O13 UNL     1     -32.617  15.294  -4.020  1.00 20.00    -0.380 OA
ENDBRANCH  10  11
TORSDOF 1
ENDMDL
MODEL 7
REMARK VINA RESULT:      -3.5     12.885     14.071
REMARK  1 active torsions:
REMARK  status: ('A' for Active; 'I' for Inactive)
REMARK    1  A    between atoms: C11_11  and  C12_12 
ROOT
HETATM    1  C1  UNL     1     -36.213  16.071  -7.278  1.00 20.00     0.009 C 
HETATM    2  C2  UNL     1     -35.888  14.486  -5.361  1.00 20.00     0.009 C 
HETATM    3  C3  UNL     1     -33.937  15.138  -6.793  1.00 20.00     0.009 C 
HETATM    4  C4  UNL     1     -36.375  16.907  -4.918  1.00 20.00     0.017 C 
HETATM    5  C5  UNL     1     -34.419  17.559  -6.354  1.00 20.00     0.017 C 
HETATM    6  C6  UNL     1     -34.093  15.972  -4.433  1.00 20.00     0.017 C 
HETATM    7  C8  UNL     1     -36.667  15.718  -5.851  1.00 20.00    -0.013 C 
HETATM    8  C9  UNL     1     -34.706  16.373  -7.291  1.00 20.00    -0.013 C 
HETATM    9  C10 UNL     1     -34.379  14.780  -5.365  1.00 20.00    -0.013 C 
HETATM   10  C12 UNL     1     -34.862  17.228  -4.910  1.00 20.00    -0.011 C 
ENDROOT
BRANCH  10  11
HETATM   11  C11 UNL     1     -34.578  18.395  -3.992  1.00 20.00     0.153 A 
HETATM   12  C7  UNL     1     -33.207  18.619  -3.419  1.00 20.00     0.201 A 
HETATM   13  O13 UNL     1     -34.265  18.030  -2.645  1.00 20.00    -0.380 OA
ENDBRANCH  10  11
TORSDOF 1
ENDMDL
MODEL 8
REMARK VINA RESULT:      -3.5     12.884     14.069
REMARK  1 active torsions:
REMARK  status: ('A' for Active; 'I' for Inactive)
REMARK    1  A    between atoms: C11_11  and  C12_12 
ROOT
HETATM    1  C1  UNL     1     -33.939  15.138  -6.793  1.00 20.00     0.009 C 
HETATM    2  C2  UNL     1     -36.217  16.070  -7.274  1.00 20.00     0.009 C 
HETATM    3  C3  UNL     1     -35.887  14.496  -5.352  1.00 20.00     0.009 C 
HETATM    4  C4  UNL     1     -34.418  17.563  -6.364  1.00 20.00     0.017 C 
HETATM    5  C5  UNL     1     -34.088  15.983  -4.437  1.00 20.00     0.017 C 
HETATM    6  C6  UNL     1     -36.370  16.918  -4.918  1.00 20.00     0.017 C 
HETATM    7  C8  UNL     1     -34.709  16.372  -7.294  1.00 20.00    -0.013 C 
HETATM    8  C9  UNL     1     -34.377  14.788  -5.362  1.00 20.00    -0.013 C 
HETATM    9  C10 UNL     1     -36.667  15.725  -5.845  1.00 20.00    -0.013 C 
HETATM   10  C12 UNL     1     -34.856  17.237  -4.916  1.00 20.00    -0.011 C 
ENDROOT
BRANCH  10  11
HETATM   11  C11 UNL     1     -34.569  18.409  -4.005  1.00 20.00     0.153 A 
HETATM   12  C7  UNL     1     -33.224  18.576  -3.354  1.00 20.00     0.201 A 
HETATM   13  O13 UNL     1     -34.354  18.058  -2.635  1.00 20.00    -0.380 OA
ENDBRANCH  10  11
TORSDOF 1
ENDMDL
MODEL 9
REMARK VINA RESULT:      -3.5     12.923     14.083
REMARK  1 active torsions:
REMARK  status: ('A' for Active; 'I' for Inactive)
REMARK    1  A    between atoms: C11_11  and  C12_12 
ROOT
HETATM    1  C1  UNL     1     -35.879  14.542  -5.359  1.00 20.00     0.009 C 
HETATM    2  C2  UNL     1     -33.944  15.188  -6.818  1.00 20.00     0.009 C 
HETATM    3  C3  UNL     1     -36.236  16.076  -7.310  1.00 20.00     0.009 C 
HETATM    4  C4  UNL     1     -34.100  16.075  -4.477  1.00 20.00     0.017 C 
HETATM    5  C5  UNL     1     -36.398  16.964  -4.970  1.00 20.00     0.017 C 
HETATM    6  C6  UNL     1     -34.459  17.612  -6.432  1.00 20.00     0.017 C 
HETATM    7  C8  UNL     1     -34.374  14.858  -5.379  1.00 20.00    -0.013 C 
HETATM    8  C9  UNL     1     -36.679  15.750  -5.873  1.00 20.00    -0.013 C 
HETATM    9  C10 UNL     1     -34.734  16.400  -7.340  1.00 20.00    -0.013 C 
HETATM   10  C12 UNL     1     -34.890  17.307  -4.977  1.00 20.00    -0.011 C 
ENDROOT
BRANCH  10  11
HETATM   11  C11 UNL     1     -34.618  18.500  -4.089  1.00 20.00     0.153 A 
HETATM   12  C7  UNL     1     -33.293  18.672  -3.401  1.00 20.00     0.201 A 
HETATM   13  O13 UNL     1     -34.450  18.184  -2.704  1.00 20.00    -0.380 OA
ENDBRANCH  10  11
TORSDOF 1
ENDMDL
