MODEL 1
REMARK VINA RESULT:      -3.8      0.000      0.000
REMARK  1 active torsions:
REMARK  status: ('A' for Active; 'I' for Inactive)
REMARK    1  A    between atoms: C5_5  and  C9_9 
ROOT
HETATM    1  C1  UNL     1     -34.248  15.473  -6.547  1.00 20.00     0.133 C 
HETATM    2  C2  UNL     1     -35.452  16.350  -6.829  1.00 20.00     0.093 C 
HETATM    3  C3  UNL     1     -33.906  15.184  -5.091  1.00 20.00     0.065 C 
HETATM    4  C4  UNL     1     -35.324  17.727  -6.182  1.00 20.00     0.050 C 
HETATM    5  C5  UNL     1     -33.707  16.495  -4.309  1.00 20.00     0.058 C 
HETATM    6  C6  UNL     1     -34.930  14.211  -4.505  1.00 20.00     0.019 C 
HETATM    7  C7  UNL     1     -36.528  18.601  -6.516  1.00 20.00     0.022 C 
HETATM    8  O10 UNL     1     -33.605  14.963  -7.466  1.00 20.00    -0.298 OA
HETATM    9  S11 UNL     1     -35.184  17.575  -4.367  1.00 20.00    -0.159 SA
ENDROOT
BRANCH   5  10
HETATM   10  C9  UNL     1     -33.324  16.265  -2.849  1.00 20.00     0.011 C 
HETATM   11  C8  UNL     1     -33.718  17.419  -1.986  1.00 20.00     0.006 C 
ENDBRANCH   5  10
TORSDOF 1
ENDMDL
MODEL 2
REMARK VINA RESULT:      -3.7      1.653      3.691
REMARK  1 active torsions:
REMARK  status: ('A' for Active; 'I' for Inactive)
REMARK    1  A    between atoms: C5_5  and  C9_9 
ROOT
HETATM    1  C1  UNL     1     -34.193  14.805  -4.385  1.00 20.00     0.133 C 
HETATM    2  C2  UNL     1     -33.242  15.799  -3.749  1.00 20.00     0.093 C 
HETATM    3  C3  UNL     1     -34.925  15.232  -5.651  1.00 20.00     0.065 C 
HETATM    4  C4  UNL     1     -33.942  17.101  -3.369  1.00 20.00     0.050 C 
HETATM    5  C5  UNL     1     -35.718  16.529  -5.408  1.00 20.00     0.058 C 
HETATM    6  C6  UNL     1     -33.947  15.263  -6.825  1.00 20.00     0.019 C 
HETATM    7  C7  UNL     1     -32.973  18.066  -2.695  1.00 20.00     0.022 C 
HETATM    8  O10 UNL     1     -34.322  13.668  -3.927  1.00 20.00    -0.298 OA
HETATM    9  S11 UNL     1     -34.651  17.907  -4.847  1.00 20.00    -0.159 SA
ENDROOT
BRANCH   5  10
HETATM   10  C9  UNL     1     -36.504  16.985  -6.635  1.00 20.00     0.011 C 
HETATM   11  C8  UNL     1     -37.979  16.906  -6.407  1.00 20.00     0.006 C 
ENDBRANCH   5  10
TORSDOF 1
ENDMDL
MODEL 3
REMARK VINA RESULT:      -3.4     12.645     14.082
REMARK  1 active torsions:
REMARK  status: ('A' for Active; 'I' for Inactive)
REMARK    1  A    between atoms: C5_5  and  C9_9 
ROOT
HETATM    1  C1  UNL     1     -42.604  14.879   5.851  1.00 20.00     0.133 C 
HETATM    2  C2  UNL     1     -42.550  15.726   7.107  1.00 20.00     0.093 C 
HETATM    3  C3  UNL     1     -41.950  13.504   5.892  1.00 20.00     0.065 C 
HETATM    4  C4  UNL     1     -41.116  15.993   7.558  1.00 20.00     0.050 C 
HETATM    5  C5  UNL     1     -40.469  13.618   6.300  1.00 20.00     0.058 C 
HETATM    6  C6  UNL     1     -42.800  12.555   6.738  1.00 20.00     0.019 C 
HETATM    7  C7  UNL     1     -41.090  16.880   8.798  1.00 20.00     0.022 C 
HETATM    8  O10 UNL     1     -43.209  15.266   4.850  1.00 20.00    -0.298 OA
HETATM    9  S11 UNL     1     -40.254  14.427   7.928  1.00 20.00    -0.159 SA
ENDROOT
BRANCH   5  10
HETATM   10  C9  UNL     1     -39.752  12.271   6.321  1.00 20.00     0.011 C 
HETATM   11  C8  UNL     1     -39.338  11.844   4.951  1.00 20.00     0.006 C 
ENDBRANCH   5  10
TORSDOF 1
ENDMDL
MODEL 4
REMARK VINA RESULT:      -3.3      2.319      3.470
REMARK  1 active torsions:
REMARK  status: ('A' for Active; 'I' for Inactive)
REMARK    1  A    between atoms: C5_5  and  C9_9 
ROOT
HETATM    1  C1  UNL     1     -35.147  18.406  -4.529  1.00 20.00     0.133 C 
HETATM    2  C2  UNL     1     -34.791  17.379  -5.585  1.00 20.00     0.093 C 
HETATM    3  C3  UNL     1     -34.202  18.562  -3.343  1.00 20.00     0.065 C 
HETATM    4  C4  UNL     1     -34.669  15.974  -5.002  1.00 20.00     0.050 C 
HETATM    5  C5  UNL     1     -34.009  17.215  -2.622  1.00 20.00     0.058 C 
HETATM    6  C6  UNL     1     -32.920  19.262  -3.796  1.00 20.00     0.019 C 
HETATM    7  C7  UNL     1     -34.352  14.956  -6.092  1.00 20.00     0.022 C 
HETATM    8  O10 UNL     1     -36.133  19.133  -4.656  1.00 20.00    -0.298 OA
HETATM    9  S11 UNL     1     -33.357  15.914  -3.733  1.00 20.00    -0.159 SA
ENDROOT
BRANCH   5  10
HETATM   10  C9  UNL     1     -33.099  17.319  -1.400  1.00 20.00     0.011 C 
HETATM   11  C8  UNL     1     -33.781  18.005  -0.262  1.00 20.00     0.006 C 
ENDBRANCH   5  10
TORSDOF 1
ENDMDL
MODEL 5
REMARK VINA RESULT:      -3.3      1.668      3.482
REMARK  1 active torsions:
REMARK  status: ('A' for Active; 'I' for Inactive)
REMARK    1  A    between atoms: C5_5  and  C9_9 
ROOT
HETATM    1  C1  UNL     1     -35.601  15.262  -6.930  1.00 20.00     0.133 C 
HETATM    2  C2  UNL     1     -34.237  15.065  -6.300  1.00 20.00     0.093 C 
HETATM    3  C3  UNL     1     -36.242  16.640  -6.819  1.00 20.00     0.065 C 
HETATM    4  C4  UNL     1     -34.247  15.365  -4.804  1.00 20.00     0.050 C 
HETATM    5  C5  UNL     1     -36.356  17.068  -5.344  1.00 20.00     0.058 C 
HETATM    6  C6  UNL     1     -35.517  17.621  -7.741  1.00 20.00     0.019 C 
HETATM    7  C7  UNL     1     -32.874  15.119  -4.188  1.00 20.00     0.022 C 
HETATM    8  O10 UNL     1     -36.145  14.356  -7.564  1.00 20.00    -0.298 OA
HETATM    9  S11 UNL     1     -34.733  17.099  -4.498  1.00 20.00    -0.159 SA
ENDROOT
BRANCH   5  10
HETATM   10  C9  UNL     1     -37.028  18.428  -5.170  1.00 20.00     0.011 C 
HETATM   11  C8  UNL     1     -36.972  18.893  -3.751  1.00 20.00     0.006 C 
ENDBRANCH   5  10
TORSDOF 1
ENDMDL
MODEL 6
REMARK VINA RESULT:      -3.2      2.460      4.536
REMARK  1 active torsions:
REMARK  status: ('A' for Active; 'I' for Inactive)
REMARK    1  A    between atoms: C5_5  and  C9_9 
ROOT
HETATM    1  C1  UNL     1     -33.193  18.154  -2.785  1.00 20.00     0.133 C 
HETATM    2  C2  UNL     1     -33.294  16.641  -2.768  1.00 20.00     0.093 C 
HETATM    3  C3  UNL     1     -34.360  18.937  -3.374  1.00 20.00     0.065 C 
HETATM    4  C4  UNL     1     -33.479  16.062  -4.168  1.00 20.00     0.050 C 
HETATM    5  C5  UNL     1     -34.644  18.483  -4.818  1.00 20.00     0.058 C 
HETATM    6  C6  UNL     1     -35.550  18.885  -2.416  1.00 20.00     0.019 C 
HETATM    7  C7  UNL     1     -33.536  14.539  -4.126  1.00 20.00     0.022 C 
HETATM    8  O10 UNL     1     -32.227  18.731  -2.283  1.00 20.00    -0.298 OA
HETATM    9  S11 UNL     1     -35.015  16.694  -4.929  1.00 20.00    -0.159 SA
ENDROOT
BRANCH   5  10
HETATM   10  C9  UNL     1     -35.782  19.263  -5.473  1.00 20.00     0.011 C 
HETATM   11  C8  UNL     1     -36.892  18.361  -5.906  1.00 20.00     0.006 C 
ENDBRANCH   5  10
TORSDOF 1
ENDMDL
MODEL 7
REMARK VINA RESULT:      -3.2      2.598      4.678
REMARK  1 active torsions:
REMARK  status: ('A' for Active; 'I' for Inactive)
REMARK    1  A    between atoms: C5_5  and  C9_9 
ROOT
HETATM    1  C1  UNL     1     -33.343  16.963  -3.257  1.00 20.00     0.133 C 
HETATM    2  C2  UNL     1     -32.870  17.449  -1.902  1.00 20.00     0.093 C 
HETATM    3  C3  UNL     1     -34.201  17.907  -4.091  1.00 20.00     0.065 C 
HETATM    4  C4  UNL     1     -34.033  17.822  -0.987  1.00 20.00     0.050 C 
HETATM    5  C5  UNL     1     -35.450  18.344  -3.303  1.00 20.00     0.058 C 
HETATM    6  C6  UNL     1     -33.334  19.039  -4.642  1.00 20.00     0.019 C 
HETATM    7  C7  UNL     1     -33.531  18.268   0.382  1.00 20.00     0.022 C 
HETATM    8  O10 UNL     1     -32.995  15.865  -3.695  1.00 20.00    -0.298 OA
HETATM    9  S11 UNL     1     -35.027  19.166  -1.723  1.00 20.00    -0.159 SA
ENDROOT
BRANCH   5  10
HETATM   10  C9  UNL     1     -36.368  19.263  -4.105  1.00 20.00     0.011 C 
HETATM   11  C8  UNL     1     -37.011  18.542  -5.245  1.00 20.00     0.006 C 
ENDBRANCH   5  10
TORSDOF 1
ENDMDL
MODEL 8
REMARK VINA RESULT:      -3.1      1.936      2.971
REMARK  1 active torsions:
REMARK  status: ('A' for Active; 'I' for Inactive)
REMARK    1  A    between atoms: C5_5  and  C9_9 
ROOT
HETATM    1  C1  UNL     1     -32.898  15.314  -4.049  1.00 20.00     0.133 C 
HETATM    2  C2  UNL     1     -34.131  14.532  -4.456  1.00 20.00     0.093 C 
HETATM    3  C3  UNL     1     -33.101  16.710  -3.471  1.00 20.00     0.065 C 
HETATM    4  C4  UNL     1     -34.958  15.268  -5.506  1.00 20.00     0.050 C 
HETATM    5  C5  UNL     1     -33.899  17.592  -4.449  1.00 20.00     0.058 C 
HETATM    6  C6  UNL     1     -33.673  16.602  -2.057  1.00 20.00     0.019 C 
HETATM    7  C7  UNL     1     -36.169  14.441  -5.926  1.00 20.00     0.022 C 
HETATM    8  O10 UNL     1     -31.775  14.815  -4.127  1.00 20.00    -0.298 OA
HETATM    9  S11 UNL     1     -35.533  16.877  -4.861  1.00 20.00    -0.159 SA
ENDROOT
BRANCH   5  10
HETATM   10  C9  UNL     1     -34.101  19.016  -3.936  1.00 20.00     0.011 C 
HETATM   11  C8  UNL     1     -35.518  19.263  -3.534  1.00 20.00     0.006 C 
ENDBRANCH   5  10
TORSDOF 1
ENDMDL
MODEL 9
REMARK VINA RESULT:      -3.0     12.882     13.727
REMARK  1 active torsions:
REMARK  status: ('A' for Active; 'I' for Inactive)
REMARK    1  A    between atoms: C5_5  and  C9_9 
ROOT
HETATM    1  C1  UNL     1     -41.974  14.387   4.838  1.00 20.00     0.133 C 
HETATM    2  C2  UNL     1     -42.964  15.531   4.937  1.00 20.00     0.093 C 
HETATM    3  C3  UNL     1     -41.497  13.746   6.135  1.00 20.00     0.065 C 
HETATM    4  C4  UNL     1     -42.418  16.693   5.762  1.00 20.00     0.050 C 
HETATM    5  C5  UNL     1     -40.877  14.805   7.067  1.00 20.00     0.058 C 
HETATM    6  C6  UNL     1     -42.623  12.907   6.740  1.00 20.00     0.019 C 
HETATM    7  C7  UNL     1     -43.415  17.845   5.811  1.00 20.00     0.022 C 
HETATM    8  O10 UNL     1     -41.616  13.950   3.743  1.00 20.00    -0.298 OA
HETATM    9  S11 UNL     1     -42.047  16.154   7.467  1.00 20.00    -0.159 SA
ENDROOT
BRANCH   5  10
HETATM   10  C9  UNL     1     -40.345  14.212   8.370  1.00 20.00     0.011 C 
HETATM   11  C8  UNL     1     -40.169  15.259   9.421  1.00 20.00     0.006 C 
ENDBRANCH   5  10
TORSDOF 1
ENDMDL
