MODEL 1
REMARK VINA RESULT:      -4.2      0.000      0.000
REMARK  2 active torsions:
REMARK  status: ('A' for Active; 'I' for Inactive)
REMARK    1  A    between atoms: C8_8  and  C9_9 
REMARK    2  A    between atoms: C9_9  and  N11_11 
ROOT
HETATM    1  C1  UNL     1     -41.541  13.789   4.840  1.00 20.00     0.096 C 
HETATM    2  C9  UNL     1     -41.119  13.246   6.138  1.00 20.00     0.332 C 
HETATM    3  N10 UNL     1     -41.876  14.218   3.815  1.00 20.00    -0.195 NA
ENDROOT
BRANCH   2   4
HETATM    4  C8  UNL     1     -40.192  12.051   5.955  1.00 20.00     0.033 A 
HETATM    5  C4  UNL     1     -39.567  11.774   4.616  1.00 20.00     0.008 A 
HETATM    6  C5  UNL     1     -38.717  12.259   5.757  1.00 20.00     0.008 A 
ENDBRANCH   2   4
BRANCH   2   7
HETATM    7  N11 UNL     1     -40.461  14.292   6.929  1.00 20.00     0.106 N 
HETATM    8  C6  UNL     1     -41.214  15.545   6.862  1.00 20.00     0.274 C 
HETATM    9  C2  UNL     1     -40.680  16.327   8.053  1.00 20.00     0.032 C 
HETATM   10  C3  UNL     1     -40.170  15.270   9.028  1.00 20.00     0.032 C 
HETATM   11  C7  UNL     1     -40.443  13.937   8.348  1.00 20.00     0.274 C 
ENDBRANCH   2   7
TORSDOF 2
ENDMDL
MODEL 2
REMARK VINA RESULT:      -3.9     10.742     11.549
REMARK  2 active torsions:
REMARK  status: ('A' for Active; 'I' for Inactive)
REMARK    1  A    between atoms: C8_8  and  C9_9 
REMARK    2  A    between atoms: C9_9  and  N11_11 
ROOT
HETATM    1  C1  UNL     1     -35.195  18.642  -2.095  1.00 20.00     0.096 C 
HETATM    2  C9  UNL     1     -34.045  17.854  -1.629  1.00 20.00     0.332 C 
HETATM    3  N10 UNL     1     -36.104  19.263  -2.460  1.00 20.00    -0.195 NA
ENDROOT
BRANCH   2   4
HETATM    4  C8  UNL     1     -33.224  17.341  -2.805  1.00 20.00     0.033 A 
HETATM    5  C4  UNL     1     -33.411  15.935  -3.304  1.00 20.00     0.008 A 
HETATM    6  C5  UNL     1     -33.876  17.098  -4.137  1.00 20.00     0.008 A 
ENDBRANCH   2   4
BRANCH   2   7
HETATM    7  N11 UNL     1     -33.212  18.664  -0.733  1.00 20.00     0.106 N 
HETATM    8  C6  UNL     1     -33.472  18.324   0.666  1.00 20.00     0.274 C 
HETATM    9  C2  UNL     1     -32.252  18.883   1.384  1.00 20.00     0.032 C 
HETATM   10  C3  UNL     1     -31.150  18.917   0.329  1.00 20.00     0.032 C 
HETATM   11  C7  UNL     1     -31.793  18.372  -0.936  1.00 20.00     0.274 C 
ENDBRANCH   2   7
TORSDOF 2
ENDMDL
MODEL 3
REMARK VINA RESULT:      -3.9      1.031      1.370
REMARK  2 active torsions:
REMARK  status: ('A' for Active; 'I' for Inactive)
REMARK    1  A    between atoms: C8_8  and  C9_9 
REMARK    2  A    between atoms: C9_9  and  N11_11 
ROOT
HETATM    1  C1  UNL     1     -41.864  14.073   4.520  1.00 20.00     0.096 C 
HETATM    2  C9  UNL     1     -41.460  13.458   5.793  1.00 20.00     0.332 C 
HETATM    3  N10 UNL     1     -42.185  14.557   3.516  1.00 20.00    -0.195 NA
ENDROOT
BRANCH   2   4
HETATM    4  C8  UNL     1     -40.016  12.977   5.732  1.00 20.00     0.033 A 
HETATM    5  C4  UNL     1     -39.688  11.531   5.980  1.00 20.00     0.008 A 
HETATM    6  C5  UNL     1     -39.555  12.106   4.597  1.00 20.00     0.008 A 
ENDBRANCH   2   4
BRANCH   2   7
HETATM    7  N11 UNL     1     -41.639  14.415   6.890  1.00 20.00     0.106 N 
HETATM    8  C6  UNL     1     -42.156  13.745   8.084  1.00 20.00     0.274 C 
HETATM    9  C2  UNL     1     -41.842  14.738   9.194  1.00 20.00     0.032 C 
HETATM   10  C3  UNL     1     -40.660  15.552   8.678  1.00 20.00     0.032 C 
HETATM   11  C7  UNL     1     -40.355  14.981   7.302  1.00 20.00     0.274 C 
ENDBRANCH   2   7
TORSDOF 2
ENDMDL
MODEL 4
REMARK VINA RESULT:      -3.9     17.283     18.454
REMARK  2 active torsions:
REMARK  status: ('A' for Active; 'I' for Inactive)
REMARK    1  A    between atoms: C8_8  and  C9_9 
REMARK    2  A    between atoms: C9_9  and  N11_11 
ROOT
HETATM    1  C1  UNL     1     -22.148  18.663  11.476  1.00 20.00     0.096 C 
HETATM    2  C9  UNL     1     -23.231  18.834  10.498  1.00 20.00     0.332 C 
HETATM    3  N10 UNL     1     -21.293  18.530  12.249  1.00 20.00    -0.195 NA
ENDROOT
BRANCH   2   4
HETATM    4  C8  UNL     1     -22.746  18.526   9.087  1.00 20.00     0.033 A 
HETATM    5  C4  UNL     1     -21.300  18.719   8.722  1.00 20.00     0.008 A 
HETATM    6  C5  UNL     1     -21.871  17.332   8.830  1.00 20.00     0.008 A 
ENDBRANCH   2   4
BRANCH   2   7
HETATM    7  N11 UNL     1     -24.366  17.975  10.852  1.00 20.00     0.106 N 
HETATM    8  C6  UNL     1     -23.923  16.832  11.651  1.00 20.00     0.274 C 
HETATM    9  C2  UNL     1     -25.214  16.344  12.293  1.00 20.00     0.032 C 
HETATM   10  C3  UNL     1     -26.128  17.565  12.326  1.00 20.00     0.032 C 
HETATM   11  C7  UNL     1     -25.312  18.690  11.708  1.00 20.00     0.274 C 
ENDBRANCH   2   7
TORSDOF 2
ENDMDL
MODEL 5
REMARK VINA RESULT:      -3.9     11.174     12.724
REMARK  2 active torsions:
REMARK  status: ('A' for Active; 'I' for Inactive)
REMARK    1  A    between atoms: C8_8  and  C9_9 
REMARK    2  A    between atoms: C9_9  and  N11_11 
ROOT
HETATM    1  C1  UNL     1     -35.216  18.534  -2.757  1.00 20.00     0.096 C 
HETATM    2  C9  UNL     1     -34.028  17.756  -3.136  1.00 20.00     0.332 C 
HETATM    3  N10 UNL     1     -36.153  19.150  -2.460  1.00 20.00    -0.195 NA
ENDROOT
BRANCH   2   4
HETATM    4  C8  UNL     1     -33.293  17.248  -1.903  1.00 20.00     0.033 A 
HETATM    5  C4  UNL     1     -32.342  18.146  -1.162  1.00 20.00     0.008 A 
HETATM    6  C5  UNL     1     -33.655  17.763  -0.538  1.00 20.00     0.008 A 
ENDBRANCH   2   4
BRANCH   2   7
HETATM    7  N11 UNL     1     -34.417  16.638  -4.002  1.00 20.00     0.106 N 
HETATM    8  C6  UNL     1     -34.466  17.059  -5.403  1.00 20.00     0.274 C 
HETATM    9  C2  UNL     1     -34.417  15.738  -6.158  1.00 20.00     0.032 C 
HETATM   10  C3  UNL     1     -33.727  14.763  -5.209  1.00 20.00     0.032 C 
HETATM   11  C7  UNL     1     -33.412  15.576  -3.963  1.00 20.00     0.274 C 
ENDBRANCH   2   7
TORSDOF 2
ENDMDL
MODEL 6
REMARK VINA RESULT:      -3.7     12.103     13.214
REMARK  2 active torsions:
REMARK  status: ('A' for Active; 'I' for Inactive)
REMARK    1  A    between atoms: C8_8  and  C9_9 
REMARK    2  A    between atoms: C9_9  and  N11_11 
ROOT
HETATM    1  C1  UNL     1     -35.165  14.203  -4.785  1.00 20.00     0.096 C 
HETATM    2  C9  UNL     1     -34.390  15.391  -5.171  1.00 20.00     0.332 C 
HETATM    3  N10 UNL     1     -35.774  13.265  -4.479  1.00 20.00    -0.195 NA
ENDROOT
BRANCH   2   4
HETATM    4  C8  UNL     1     -34.952  16.020  -6.440  1.00 20.00     0.033 A 
HETATM    5  C4  UNL     1     -34.329  15.720  -7.775  1.00 20.00     0.008 A 
HETATM    6  C5  UNL     1     -35.691  15.177  -7.440  1.00 20.00     0.008 A 
ENDBRANCH   2   4
BRANCH   2   7
HETATM    7  N11 UNL     1     -34.382  16.363  -4.073  1.00 20.00     0.106 N 
HETATM    8  C6  UNL     1     -33.302  16.074  -3.130  1.00 20.00     0.274 C 
HETATM    9  C2  UNL     1     -33.155  17.383  -2.367  1.00 20.00     0.032 C 
HETATM   10  C3  UNL     1     -33.682  18.456  -3.314  1.00 20.00     0.032 C 
HETATM   11  C7  UNL     1     -34.098  17.709  -4.572  1.00 20.00     0.274 C 
ENDBRANCH   2   7
TORSDOF 2
ENDMDL
MODEL 7
REMARK VINA RESULT:      -3.7      1.514      3.147
REMARK  2 active torsions:
REMARK  status: ('A' for Active; 'I' for Inactive)
REMARK    1  A    between atoms: C8_8  and  C9_9 
REMARK    2  A    between atoms: C9_9  and  N11_11 
ROOT
HETATM    1  C1  UNL     1     -40.479  13.954   7.668  1.00 20.00     0.096 C 
HETATM    2  C9  UNL     1     -40.704  13.876   6.218  1.00 20.00     0.332 C 
HETATM    3  N10 UNL     1     -40.300  14.018   8.813  1.00 20.00    -0.195 NA
ENDROOT
BRANCH   2   4
HETATM    4  C8  UNL     1     -40.560  12.444   5.720  1.00 20.00     0.033 A 
HETATM    5  C4  UNL     1     -39.537  12.104   4.673  1.00 20.00     0.008 A 
HETATM    6  C5  UNL     1     -39.351  11.631   6.088  1.00 20.00     0.008 A 
ENDBRANCH   2   4
BRANCH   2   7
HETATM    7  N11 UNL     1     -42.031  14.406   5.888  1.00 20.00     0.106 N 
HETATM    8  C6  UNL     1     -42.146  15.808   6.293  1.00 20.00     0.274 C 
HETATM    9  C2  UNL     1     -43.340  16.298   5.488  1.00 20.00     0.032 C 
HETATM   10  C3  UNL     1     -43.405  15.379   4.272  1.00 20.00     0.032 C 
HETATM   11  C7  UNL     1     -42.242  14.414   4.440  1.00 20.00     0.274 C 
ENDBRANCH   2   7
TORSDOF 2
ENDMDL
MODEL 8
REMARK VINA RESULT:      -3.7     11.684     12.687
REMARK  2 active torsions:
REMARK  status: ('A' for Active; 'I' for Inactive)
REMARK    1  A    between atoms: C8_8  and  C9_9 
REMARK    2  A    between atoms: C9_9  and  N11_11 
ROOT
HETATM    1  C1  UNL     1     -33.983  15.221  -4.265  1.00 20.00     0.096 C 
HETATM    2  C9  UNL     1     -33.827  16.668  -4.467  1.00 20.00     0.332 C 
HETATM    3  N10 UNL     1     -34.103  14.078  -4.108  1.00 20.00    -0.195 NA
ENDROOT
BRANCH   2   4
HETATM    4  C8  UNL     1     -35.183  17.357  -4.548  1.00 20.00     0.033 A 
HETATM    5  C4  UNL     1     -35.660  17.942  -5.848  1.00 20.00     0.008 A 
HETATM    6  C5  UNL     1     -36.318  16.710  -5.290  1.00 20.00     0.008 A 
ENDBRANCH   2   4
BRANCH   2   7
HETATM    7  N11 UNL     1     -33.022  17.242  -3.383  1.00 20.00     0.106 N 
HETATM    8  C6  UNL     1     -33.070  18.703  -3.416  1.00 20.00     0.274 C 
HETATM    9  C2  UNL     1     -32.602  19.092  -2.021  1.00 20.00     0.032 C 
HETATM   10  C3  UNL     1     -32.928  17.888  -1.142  1.00 20.00     0.032 C 
HETATM   11  C7  UNL     1     -33.571  16.876  -2.077  1.00 20.00     0.274 C 
ENDBRANCH   2   7
TORSDOF 2
ENDMDL
MODEL 9
REMARK VINA RESULT:      -3.7      1.406      4.185
REMARK  2 active torsions:
REMARK  status: ('A' for Active; 'I' for Inactive)
REMARK    1  A    between atoms: C8_8  and  C9_9 
REMARK    2  A    between atoms: C9_9  and  N11_11 
ROOT
HETATM    1  C1  UNL     1     -42.080  12.916   7.349  1.00 20.00     0.096 C 
HETATM    2  C9  UNL     1     -41.059  13.958   7.175  1.00 20.00     0.332 C 
HETATM    3  N10 UNL     1     -42.887  12.094   7.484  1.00 20.00    -0.195 NA
ENDROOT
BRANCH   2   4
HETATM    4  C8  UNL     1     -40.367  14.270   8.495  1.00 20.00     0.033 A 
HETATM    5  C4  UNL     1     -40.372  15.670   9.043  1.00 20.00     0.008 A 
HETATM    6  C5  UNL     1     -41.178  14.595   9.718  1.00 20.00     0.008 A 
ENDBRANCH   2   4
BRANCH   2   7
HETATM    7  N11 UNL     1     -40.081  13.539   6.165  1.00 20.00     0.106 N 
HETATM    8  C6  UNL     1     -39.295  12.402   6.645  1.00 20.00     0.274 C 
HETATM    9  C2  UNL     1     -38.701  11.833   5.365  1.00 20.00     0.032 C 
HETATM   10  C3  UNL     1     -39.659  12.263   4.257  1.00 20.00     0.032 C 
HETATM   11  C7  UNL     1     -40.753  13.051   4.961  1.00 20.00     0.274 C 
ENDBRANCH   2   7
TORSDOF 2
ENDMDL
