MODEL 1
REMARK VINA RESULT:      -2.9      0.000      0.000
REMARK  1 active torsions:
REMARK  status: ('A' for Active; 'I' for Inactive)
REMARK    1  A    between atoms: N5_5  and  N6_6 
ROOT
HETATM    1  C1  UNL     1     -34.072   6.936   6.314  1.00 20.00     0.130 C 
HETATM    2  C2  UNL     1     -34.363   5.610   4.312  1.00 20.00     0.130 C 
HETATM    3  N5  UNL     1     -33.987   6.913   4.857  1.00 20.00    -0.259 NA
ENDROOT
BRANCH   3   4
HETATM    4  N6  UNL     1     -32.681   7.395   4.442  1.00 20.00    -0.259 NA
HETATM    5  C3  UNL     1     -32.525   8.787   4.852  1.00 20.00     0.130 C 
HETATM    6  C4  UNL     1     -32.380   7.209   3.025  1.00 20.00     0.130 C 
ENDBRANCH   3   4
TORSDOF 1
ENDMDL
MODEL 2
REMARK VINA RESULT:      -2.9      0.007      2.464
REMARK  1 active torsions:
REMARK  status: ('A' for Active; 'I' for Inactive)
REMARK    1  A    between atoms: N5_5  and  N6_6 
ROOT
HETATM    1  C1  UNL     1     -32.521   8.783   4.851  1.00 20.00     0.130 C 
HETATM    2  C2  UNL     1     -32.384   7.202   3.026  1.00 20.00     0.130 C 
HETATM    3  N5  UNL     1     -32.681   7.390   4.444  1.00 20.00    -0.259 NA
ENDROOT
BRANCH   3   4
HETATM    4  N6  UNL     1     -33.988   6.912   4.862  1.00 20.00    -0.259 NA
HETATM    5  C3  UNL     1     -34.070   6.938   6.320  1.00 20.00     0.130 C 
HETATM    6  C4  UNL     1     -34.367   5.609   4.321  1.00 20.00     0.130 C 
ENDBRANCH   3   4
TORSDOF 1
ENDMDL
MODEL 3
REMARK VINA RESULT:      -2.9      1.121      2.608
REMARK  1 active torsions:
REMARK  status: ('A' for Active; 'I' for Inactive)
REMARK    1  A    between atoms: N5_5  and  N6_6 
ROOT
HETATM    1  C1  UNL     1     -32.721   7.759   4.152  1.00 20.00     0.130 C 
HETATM    2  C2  UNL     1     -33.834   7.029   6.172  1.00 20.00     0.130 C 
HETATM    3  N5  UNL     1     -33.918   7.142   4.718  1.00 20.00    -0.259 NA
ENDROOT
BRANCH   3   4
HETATM    4  N6  UNL     1     -34.193   5.896   4.023  1.00 20.00    -0.259 NA
HETATM    5  C3  UNL     1     -34.526   4.861   4.998  1.00 20.00     0.130 C 
HETATM    6  C4  UNL     1     -33.143   5.459   3.106  1.00 20.00     0.130 C 
ENDBRANCH   3   4
TORSDOF 1
ENDMDL
MODEL 4
REMARK VINA RESULT:      -2.9      1.104      2.119
REMARK  1 active torsions:
REMARK  status: ('A' for Active; 'I' for Inactive)
REMARK    1  A    between atoms: N5_5  and  N6_6 
ROOT
HETATM    1  C1  UNL     1     -34.513   4.831   4.987  1.00 20.00     0.130 C 
HETATM    2  C2  UNL     1     -33.148   5.510   3.108  1.00 20.00     0.130 C 
HETATM    3  N5  UNL     1     -34.203   5.901   4.042  1.00 20.00    -0.259 NA
ENDROOT
BRANCH   3   4
HETATM    4  N6  UNL     1     -33.947   7.130   4.772  1.00 20.00    -0.259 NA
HETATM    5  C3  UNL     1     -32.731   7.755   4.258  1.00 20.00     0.130 C 
HETATM    6  C4  UNL     1     -33.910   6.985   6.226  1.00 20.00     0.130 C 
ENDBRANCH   3   4
TORSDOF 1
ENDMDL
MODEL 5
REMARK VINA RESULT:      -2.9      0.386      1.447
REMARK  1 active torsions:
REMARK  status: ('A' for Active; 'I' for Inactive)
REMARK    1  A    between atoms: N5_5  and  N6_6 
ROOT
HETATM    1  C1  UNL     1     -33.916   6.900   6.253  1.00 20.00     0.130 C 
HETATM    2  C2  UNL     1     -34.301   5.490   4.325  1.00 20.00     0.130 C 
HETATM    3  N5  UNL     1     -34.224   6.861   4.826  1.00 20.00    -0.259 NA
ENDROOT
BRANCH   3   4
HETATM    4  N6  UNL     1     -33.298   7.722   4.109  1.00 20.00    -0.259 NA
HETATM    5  C3  UNL     1     -32.485   6.912   3.206  1.00 20.00     0.130 C 
HETATM    6  C4  UNL     1     -32.476   8.581   4.957  1.00 20.00     0.130 C 
ENDBRANCH   3   4
TORSDOF 1
ENDMDL
MODEL 6
REMARK VINA RESULT:      -2.9      0.572      2.032
REMARK  1 active torsions:
REMARK  status: ('A' for Active; 'I' for Inactive)
REMARK    1  A    between atoms: N5_5  and  N6_6 
ROOT
HETATM    1  C1  UNL     1     -35.124   5.826   4.530  1.00 20.00     0.130 C 
HETATM    2  C2  UNL     1     -34.152   6.867   6.486  1.00 20.00     0.130 C 
HETATM    3  N5  UNL     1     -33.919   6.404   5.120  1.00 20.00    -0.259 NA
ENDROOT
BRANCH   3   4
HETATM    4  N6  UNL     1     -33.375   7.407   4.220  1.00 20.00    -0.259 NA
HETATM    5  C3  UNL     1     -32.590   6.749   3.179  1.00 20.00     0.130 C 
HETATM    6  C4  UNL     1     -32.623   8.475   4.874  1.00 20.00     0.130 C 
ENDBRANCH   3   4
TORSDOF 1
ENDMDL
MODEL 7
REMARK VINA RESULT:      -2.9      0.493      2.759
REMARK  1 active torsions:
REMARK  status: ('A' for Active; 'I' for Inactive)
REMARK    1  A    between atoms: N5_5  and  N6_6 
ROOT
HETATM    1  C1  UNL     1     -32.633   6.646   3.240  1.00 20.00     0.130 C 
HETATM    2  C2  UNL     1     -32.511   8.418   4.882  1.00 20.00     0.130 C 
HETATM    3  N5  UNL     1     -33.389   7.534   4.119  1.00 20.00    -0.259 NA
ENDROOT
BRANCH   3   4
HETATM    4  N6  UNL     1     -34.310   6.748   4.922  1.00 20.00    -0.259 NA
HETATM    5  C3  UNL     1     -33.942   6.860   6.331  1.00 20.00     0.130 C 
HETATM    6  C4  UNL     1     -34.452   5.355   4.507  1.00 20.00     0.130 C 
ENDBRANCH   3   4
TORSDOF 1
ENDMDL
MODEL 8
REMARK VINA RESULT:      -2.8      1.022      2.428
REMARK  1 active torsions:
REMARK  status: ('A' for Active; 'I' for Inactive)
REMARK    1  A    between atoms: N5_5  and  N6_6 
ROOT
HETATM    1  C1  UNL     1     -34.045   6.935   6.336  1.00 20.00     0.130 C 
HETATM    2  C2  UNL     1     -33.082   8.297   4.583  1.00 20.00     0.130 C 
HETATM    3  N5  UNL     1     -33.317   6.939   5.070  1.00 20.00    -0.259 NA
ENDROOT
BRANCH   3   4
HETATM    4  N6  UNL     1     -33.987   6.060   4.126  1.00 20.00    -0.259 NA
HETATM    5  C3  UNL     1     -34.665   4.992   4.856  1.00 20.00     0.130 C 
HETATM    6  C4  UNL     1     -33.132   5.534   3.064  1.00 20.00     0.130 C 
ENDBRANCH   3   4
TORSDOF 1
ENDMDL
MODEL 9
REMARK VINA RESULT:      -2.7      1.104      2.560
REMARK  1 active torsions:
REMARK  status: ('A' for Active; 'I' for Inactive)
REMARK    1  A    between atoms: N5_5  and  N6_6 
ROOT
HETATM    1  C1  UNL     1     -32.359   7.560   3.148  1.00 20.00     0.130 C 
HETATM    2  C2  UNL     1     -33.108   5.292   2.764  1.00 20.00     0.130 C 
HETATM    3  N5  UNL     1     -32.897   6.345   3.755  1.00 20.00    -0.259 NA
ENDROOT
BRANCH   3   4
HETATM    4  N6  UNL     1     -34.067   6.679   4.549  1.00 20.00    -0.259 NA
HETATM    5  C3  UNL     1     -33.647   7.383   5.757  1.00 20.00     0.130 C 
HETATM    6  C4  UNL     1     -34.944   5.551   4.854  1.00 20.00     0.130 C 
ENDBRANCH   3   4
TORSDOF 1
ENDMDL
