MODEL 1
REMARK VINA RESULT:      -4.7      0.000      0.000
REMARK  0 active torsions:
REMARK  status: ('A' for Active; 'I' for Inactive)
ROOT
HETATM    1  C1  UNL     1     -32.321   7.549   3.219  1.00 20.00     0.032 C 
HETATM    2  C2  UNL     1     -34.805   5.509   6.116  1.00 20.00     0.032 C 
HETATM    3  C3  UNL     1     -32.601   7.945   4.654  1.00 20.00     0.109 C 
HETATM    4  C4  UNL     1     -32.822   6.120   3.181  1.00 20.00     0.109 C 
HETATM    5  C5  UNL     1     -34.010   6.786   6.300  1.00 20.00     0.109 C 
HETATM    6  C6  UNL     1     -34.235   4.963   4.823  1.00 20.00     0.109 C 
HETATM    7  N7  UNL     1     -33.876   7.290   4.935  1.00 20.00    -0.250 NA
HETATM    8  N8  UNL     1     -34.014   6.165   4.025  1.00 20.00    -0.250 NA
ENDROOT
TORSDOF 0
ENDMDL
MODEL 2
REMARK VINA RESULT:      -4.7      0.102      3.316
REMARK  0 active torsions:
REMARK  status: ('A' for Active; 'I' for Inactive)
ROOT
HETATM    1  C1  UNL     1     -34.794   5.627   6.154  1.00 20.00     0.032 C 
HETATM    2  C2  UNL     1     -32.322   7.469   3.117  1.00 20.00     0.032 C 
HETATM    3  C3  UNL     1     -34.283   5.014   4.866  1.00 20.00     0.109 C 
HETATM    4  C4  UNL     1     -33.945   6.877   6.270  1.00 20.00     0.109 C 
HETATM    5  C5  UNL     1     -32.877   6.059   3.143  1.00 20.00     0.109 C 
HETATM    6  C6  UNL     1     -32.545   7.924   4.545  1.00 20.00     0.109 C 
HETATM    7  N7  UNL     1     -34.040   6.179   4.019  1.00 20.00    -0.250 NA
HETATM    8  N8  UNL     1     -33.834   7.329   4.885  1.00 20.00    -0.250 NA
ENDROOT
TORSDOF 0
ENDMDL
MODEL 3
REMARK VINA RESULT:      -4.3      0.838      2.992
REMARK  0 active torsions:
REMARK  status: ('A' for Active; 'I' for Inactive)
ROOT
HETATM    1  C1  UNL     1     -34.325   6.925   6.540  1.00 20.00     0.032 C 
HETATM    2  C2  UNL     1     -33.073   5.427   2.678  1.00 20.00     0.032 C 
HETATM    3  C3  UNL     1     -34.504   5.530   5.975  1.00 20.00     0.109 C 
HETATM    4  C4  UNL     1     -33.313   7.526   5.587  1.00 20.00     0.109 C 
HETATM    5  C5  UNL     1     -33.790   4.680   3.784  1.00 20.00     0.109 C 
HETATM    6  C6  UNL     1     -32.605   6.678   3.393  1.00 20.00     0.109 C 
HETATM    7  N7  UNL     1     -34.447   5.748   4.533  1.00 20.00    -0.250 NA
HETATM    8  N8  UNL     1     -33.714   6.981   4.292  1.00 20.00    -0.250 NA
ENDROOT
TORSDOF 0
ENDMDL
MODEL 4
REMARK VINA RESULT:      -3.9      0.795      2.844
REMARK  0 active torsions:
REMARK  status: ('A' for Active; 'I' for Inactive)
ROOT
HETATM    1  C1  UNL     1     -34.793   5.436   5.959  1.00 20.00     0.032 C 
HETATM    2  C2  UNL     1     -32.344   8.329   3.871  1.00 20.00     0.032 C 
HETATM    3  C3  UNL     1     -34.393   6.825   6.414  1.00 20.00     0.109 C 
HETATM    4  C4  UNL     1     -34.432   5.468   4.488  1.00 20.00     0.109 C 
HETATM    5  C5  UNL     1     -33.005   8.468   5.227  1.00 20.00     0.109 C 
HETATM    6  C6  UNL     1     -33.038   7.108   3.303  1.00 20.00     0.109 C 
HETATM    7  N7  UNL     1     -33.171   7.082   5.657  1.00 20.00    -0.250 NA
HETATM    8  N8  UNL     1     -33.193   6.243   4.469  1.00 20.00    -0.250 NA
ENDROOT
TORSDOF 0
ENDMDL
MODEL 5
REMARK VINA RESULT:      -3.8      0.766      1.950
REMARK  0 active torsions:
REMARK  status: ('A' for Active; 'I' for Inactive)
ROOT
HETATM    1  C1  UNL     1     -32.369   8.255   3.771  1.00 20.00     0.032 C 
HETATM    2  C2  UNL     1     -34.783   5.466   6.033  1.00 20.00     0.032 C 
HETATM    3  C3  UNL     1     -33.062   7.002   3.275  1.00 20.00     0.109 C 
HETATM    4  C4  UNL     1     -33.018   8.463   5.124  1.00 20.00     0.109 C 
HETATM    5  C5  UNL     1     -34.435   5.420   4.559  1.00 20.00     0.109 C 
HETATM    6  C6  UNL     1     -34.385   6.879   6.410  1.00 20.00     0.109 C 
HETATM    7  N7  UNL     1     -33.202   6.200   4.487  1.00 20.00    -0.250 NA
HETATM    8  N8  UNL     1     -33.172   7.100   5.629  1.00 20.00    -0.250 NA
ENDROOT
TORSDOF 0
ENDMDL
MODEL 6
REMARK VINA RESULT:      -3.3     16.247     17.000
REMARK  0 active torsions:
REMARK  status: ('A' for Active; 'I' for Inactive)
ROOT
HETATM    1  C1  UNL     1     -24.605  18.508  12.332  1.00 20.00     0.032 C 
HETATM    2  C2  UNL     1     -22.230  18.522   8.714  1.00 20.00     0.032 C 
HETATM    3  C3  UNL     1     -23.095  18.495  12.204  1.00 20.00     0.109 C 
HETATM    4  C4  UNL     1     -25.039  18.882  10.929  1.00 20.00     0.109 C 
HETATM    5  C5  UNL     1     -21.747  18.506  10.150  1.00 20.00     0.109 C 
HETATM    6  C6  UNL     1     -23.692  18.886   8.875  1.00 20.00     0.109 C 
HETATM    7  N7  UNL     1     -22.881  17.934  10.873  1.00 20.00    -0.250 NA
HETATM    8  N8  UNL     1     -24.080  18.171  10.086  1.00 20.00    -0.250 NA
ENDROOT
TORSDOF 0
ENDMDL
MODEL 7
REMARK VINA RESULT:      -3.3     15.932     16.343
REMARK  0 active torsions:
REMARK  status: ('A' for Active; 'I' for Inactive)
ROOT
HETATM    1  C1  UNL     1     -22.043  18.371   7.985  1.00 20.00     0.032 C 
HETATM    2  C2  UNL     1     -24.844  18.021  11.265  1.00 20.00     0.032 C 
HETATM    3  C3  UNL     1     -22.209  17.218   8.954  1.00 20.00     0.109 C 
HETATM    4  C4  UNL     1     -23.305  19.173   8.227  1.00 20.00     0.109 C 
HETATM    5  C5  UNL     1     -23.801  17.018  10.814  1.00 20.00     0.109 C 
HETATM    6  C6  UNL     1     -24.893  18.978  10.091  1.00 20.00     0.109 C 
HETATM    7  N7  UNL     1     -22.822  17.850  10.119  1.00 20.00    -0.250 NA
HETATM    8  N8  UNL     1     -23.497  19.058   9.671  1.00 20.00    -0.250 NA
ENDROOT
TORSDOF 0
ENDMDL
MODEL 8
REMARK VINA RESULT:      -3.3     15.953     16.528
REMARK  0 active torsions:
REMARK  status: ('A' for Active; 'I' for Inactive)
ROOT
HETATM    1  C1  UNL     1     -24.807  18.026  11.317  1.00 20.00     0.032 C 
HETATM    2  C2  UNL     1     -22.046  18.340   8.000  1.00 20.00     0.032 C 
HETATM    3  C3  UNL     1     -24.864  18.979  10.140  1.00 20.00     0.109 C 
HETATM    4  C4  UNL     1     -23.780  17.012  10.855  1.00 20.00     0.109 C 
HETATM    5  C5  UNL     1     -23.297  19.155   8.256  1.00 20.00     0.109 C 
HETATM    6  C6  UNL     1     -22.209  17.192   8.975  1.00 20.00     0.109 C 
HETATM    7  N7  UNL     1     -23.472  19.046   9.702  1.00 20.00    -0.250 NA
HETATM    8  N8  UNL     1     -22.802  17.834  10.145  1.00 20.00    -0.250 NA
ENDROOT
TORSDOF 0
ENDMDL
MODEL 9
REMARK VINA RESULT:      -3.2      9.021      9.480
REMARK  0 active torsions:
REMARK  status: ('A' for Active; 'I' for Inactive)
ROOT
HETATM    1  C1  UNL     1     -40.778   7.378  -0.752  1.00 20.00     0.032 C 
HETATM    2  C2  UNL     1     -43.348   5.596   2.238  1.00 20.00     0.032 C 
HETATM    3  C3  UNL     1     -40.955   5.908  -0.427  1.00 20.00     0.109 C 
HETATM    4  C4  UNL     1     -41.958   8.005  -0.039  1.00 20.00     0.109 C 
HETATM    5  C5  UNL     1     -42.416   4.897   1.270  1.00 20.00     0.109 C 
HETATM    6  C6  UNL     1     -43.415   6.995   1.661  1.00 20.00     0.109 C 
HETATM    7  N7  UNL     1     -41.434   5.931   0.953  1.00 20.00    -0.250 NA
HETATM    8  N8  UNL     1     -42.052   7.226   1.193  1.00 20.00    -0.250 NA
ENDROOT
TORSDOF 0
ENDMDL
