MODEL 1
REMARK VINA RESULT:      -4.2      0.000      0.000
REMARK  0 active torsions:
REMARK  status: ('A' for Active; 'I' for Inactive)
ROOT
HETATM    1  C1  UNL     1     -34.055  18.023  -2.495  1.00 20.00     0.000 C 
HETATM    2  C2  UNL     1     -33.592  16.587  -2.262  1.00 20.00     0.003 C 
HETATM    3  C3  UNL     1     -35.058  18.104  -3.644  1.00 20.00     0.003 C 
HETATM    4  C4  UNL     1     -33.028  15.970  -3.541  1.00 20.00     0.044 C 
HETATM    5  C5  UNL     1     -34.499  17.481  -4.927  1.00 20.00     0.044 C 
HETATM    6  C6  UNL     1     -35.842  15.061  -7.024  1.00 20.00     0.032 C 
HETATM    7  C7  UNL     1     -34.384  15.430  -7.070  1.00 20.00     0.112 C 
HETATM    8  C8  UNL     1     -36.165  15.076  -5.555  1.00 20.00     0.112 C 
HETATM    9  C9  UNL     1     -34.040  16.059  -4.676  1.00 20.00     0.095 A 
HETATM   10  N10 UNL     1     -33.819  15.102  -5.767  1.00 20.00    -0.223 NA
HETATM   11  N11 UNL     1     -34.910  14.890  -4.837  1.00 20.00    -0.223 NA
ENDROOT
TORSDOF 0
ENDMDL
MODEL 2
REMARK VINA RESULT:      -4.0     11.785     13.046
REMARK  0 active torsions:
REMARK  status: ('A' for Active; 'I' for Inactive)
ROOT
HETATM    1  C1  UNL     1     -34.910   5.448   6.050  1.00 20.00     0.000 C 
HETATM    2  C2  UNL     1     -33.666   6.086   6.664  1.00 20.00     0.003 C 
HETATM    3  C3  UNL     1     -34.856   5.479   4.524  1.00 20.00     0.003 C 
HETATM    4  C4  UNL     1     -33.455   7.506   6.140  1.00 20.00     0.044 C 
HETATM    5  C5  UNL     1     -34.637   6.900   3.996  1.00 20.00     0.044 C 
HETATM    6  C6  UNL     1     -32.275   8.135   1.771  1.00 20.00     0.032 C 
HETATM    7  C7  UNL     1     -33.074   9.044   2.665  1.00 20.00     0.112 C 
HETATM    8  C8  UNL     1     -31.965   6.955   2.652  1.00 20.00     0.112 C 
HETATM    9  C9  UNL     1     -33.403   7.519   4.618  1.00 20.00     0.095 A 
HETATM   10  N10 UNL     1     -32.738   8.693   4.041  1.00 20.00    -0.223 NA
HETATM   11  N11 UNL     1     -32.063   7.411   4.033  1.00 20.00    -0.223 NA
ENDROOT
TORSDOF 0
ENDMDL
MODEL 3
REMARK VINA RESULT:      -3.8      1.814      2.344
REMARK  0 active torsions:
REMARK  status: ('A' for Active; 'I' for Inactive)
ROOT
HETATM    1  C1  UNL     1     -33.386  16.139  -3.755  1.00 20.00     0.000 C 
HETATM    2  C2  UNL     1     -33.906  14.739  -4.073  1.00 20.00     0.003 C 
HETATM    3  C3  UNL     1     -34.450  17.202  -4.022  1.00 20.00     0.003 C 
HETATM    4  C4  UNL     1     -34.434  14.656  -5.504  1.00 20.00     0.044 C 
HETATM    5  C5  UNL     1     -34.986  17.117  -5.454  1.00 20.00     0.044 C 
HETATM    6  C6  UNL     1     -38.248  16.908  -6.627  1.00 20.00     0.032 C 
HETATM    7  C7  UNL     1     -37.068  16.572  -7.498  1.00 20.00     0.112 C 
HETATM    8  C8  UNL     1     -37.871  16.339  -5.286  1.00 20.00     0.112 C 
HETATM    9  C9  UNL     1     -35.494  15.721  -5.754  1.00 20.00     0.095 A 
HETATM   10  N10 UNL     1     -36.391  15.438  -6.881  1.00 20.00    -0.223 NA
HETATM   11  N11 UNL     1     -36.879  15.298  -5.523  1.00 20.00    -0.223 NA
ENDROOT
TORSDOF 0
ENDMDL
MODEL 4
REMARK VINA RESULT:      -3.6      2.457      4.746
REMARK  0 active torsions:
REMARK  status: ('A' for Active; 'I' for Inactive)
ROOT
HETATM    1  C1  UNL     1     -34.513  15.712  -4.961  1.00 20.00     0.000 C 
HETATM    2  C2  UNL     1     -35.322  17.003  -4.872  1.00 20.00     0.003 C 
HETATM    3  C3  UNL     1     -33.770  15.430  -3.656  1.00 20.00     0.003 C 
HETATM    4  C4  UNL     1     -34.442  18.183  -4.463  1.00 20.00     0.044 C 
HETATM    5  C5  UNL     1     -32.891  16.614  -3.240  1.00 20.00     0.044 C 
HETATM    6  C6  UNL     1     -32.721  18.343  -0.233  1.00 20.00     0.032 C 
HETATM    7  C7  UNL     1     -32.137  18.900  -1.503  1.00 20.00     0.112 C 
HETATM    8  C8  UNL     1     -34.006  17.703  -0.685  1.00 20.00     0.112 C 
HETATM    9  C9  UNL     1     -33.709  17.887  -3.161  1.00 20.00     0.095 A 
HETATM   10  N10 UNL     1     -33.241  19.076  -2.439  1.00 20.00    -0.223 NA
HETATM   11  N11 UNL     1     -34.385  18.338  -1.941  1.00 20.00    -0.223 NA
ENDROOT
TORSDOF 0
ENDMDL
MODEL 5
REMARK VINA RESULT:      -3.6     11.886     13.257
REMARK  0 active torsions:
REMARK  status: ('A' for Active; 'I' for Inactive)
ROOT
HETATM    1  C1  UNL     1     -32.058   7.949   1.839  1.00 20.00     0.000 C 
HETATM    2  C2  UNL     1     -32.725   9.040   2.672  1.00 20.00     0.003 C 
HETATM    3  C3  UNL     1     -32.618   6.569   2.180  1.00 20.00     0.003 C 
HETATM    4  C4  UNL     1     -32.613   8.744   4.167  1.00 20.00     0.044 C 
HETATM    5  C5  UNL     1     -32.513   6.271   3.679  1.00 20.00     0.044 C 
HETATM    6  C6  UNL     1     -34.933   5.231   5.941  1.00 20.00     0.032 C 
HETATM    7  C7  UNL     1     -33.621   5.810   6.394  1.00 20.00     0.112 C 
HETATM    8  C8  UNL     1     -35.300   6.074   4.750  1.00 20.00     0.112 C 
HETATM    9  C9  UNL     1     -33.175   7.366   4.490  1.00 20.00     0.095 A 
HETATM   10  N10 UNL     1     -33.562   7.178   5.893  1.00 20.00    -0.223 NA
HETATM   11  N11 UNL     1     -34.588   7.339   4.882  1.00 20.00    -0.223 NA
ENDROOT
TORSDOF 0
ENDMDL
MODEL 6
REMARK VINA RESULT:      -3.5      1.689      1.866
REMARK  0 active torsions:
REMARK  status: ('A' for Active; 'I' for Inactive)
ROOT
HETATM    1  C1  UNL     1     -32.834  18.385  -1.936  1.00 20.00     0.000 C 
HETATM    2  C2  UNL     1     -33.405  16.969  -1.927  1.00 20.00     0.003 C 
HETATM    3  C3  UNL     1     -33.527  19.256  -2.983  1.00 20.00     0.003 C 
HETATM    4  C4  UNL     1     -33.341  16.334  -3.315  1.00 20.00     0.044 C 
HETATM    5  C5  UNL     1     -33.470  18.620  -4.375  1.00 20.00     0.044 C 
HETATM    6  C6  UNL     1     -36.006  17.958  -6.652  1.00 20.00     0.032 C 
HETATM    7  C7  UNL     1     -34.651  17.316  -6.766  1.00 20.00     0.112 C 
HETATM    8  C8  UNL     1     -36.276  17.955  -5.171  1.00 20.00     0.112 C 
HETATM    9  C9  UNL     1     -34.035  17.215  -4.346  1.00 20.00     0.095 A 
HETATM   10  N10 UNL     1     -34.456  16.513  -5.564  1.00 20.00    -0.223 NA
HETATM   11  N11 UNL     1     -35.449  16.908  -4.585  1.00 20.00    -0.223 NA
ENDROOT
TORSDOF 0
ENDMDL
MODEL 7
REMARK VINA RESULT:      -3.5     13.179     14.376
REMARK  0 active torsions:
REMARK  status: ('A' for Active; 'I' for Inactive)
ROOT
HETATM    1  C1  UNL     1     -41.176  17.155   9.500  1.00 20.00     0.000 C 
HETATM    2  C2  UNL     1     -41.233  15.877  10.333  1.00 20.00     0.003 C 
HETATM    3  C3  UNL     1     -41.457  16.870   8.026  1.00 20.00     0.003 C 
HETATM    4  C4  UNL     1     -40.291  14.810   9.779  1.00 20.00     0.044 C 
HETATM    5  C5  UNL     1     -40.518  15.796   7.469  1.00 20.00     0.044 C 
HETATM    6  C6  UNL     1     -41.224  12.860   5.754  1.00 20.00     0.032 C 
HETATM    7  C7  UNL     1     -39.881  13.107   6.385  1.00 20.00     0.112 C 
HETATM    8  C8  UNL     1     -42.195  13.423   6.756  1.00 20.00     0.112 C 
HETATM    9  C9  UNL     1     -40.584  14.538   8.310  1.00 20.00     0.095 A 
HETATM   10  N10 UNL     1     -40.102  13.241   7.821  1.00 20.00    -0.223 NA
HETATM   11  N11 UNL     1     -41.520  13.439   8.047  1.00 20.00    -0.223 NA
ENDROOT
TORSDOF 0
ENDMDL
MODEL 8
REMARK VINA RESULT:      -3.5     24.866     26.220
REMARK  0 active torsions:
REMARK  status: ('A' for Active; 'I' for Inactive)
ROOT
HETATM    1  C1  UNL     1     -27.553  -0.570  11.351  1.00 20.00     0.000 C 
HETATM    2  C2  UNL     1     -27.656  -1.374  10.058  1.00 20.00     0.003 C 
HETATM    3  C3  UNL     1     -26.154  -0.667  11.957  1.00 20.00     0.003 C 
HETATM    4  C4  UNL     1     -27.238  -2.828  10.273  1.00 20.00     0.044 C 
HETATM    5  C5  UNL     1     -25.729  -2.123  12.168  1.00 20.00     0.044 C 
HETATM    6  C6  UNL     1     -22.862  -3.801  11.158  1.00 20.00     0.032 C 
HETATM    7  C7  UNL     1     -24.095  -4.537  11.609  1.00 20.00     0.112 C 
HETATM    8  C8  UNL     1     -23.410  -2.653  10.354  1.00 20.00     0.112 C 
HETATM    9  C9  UNL     1     -25.842  -2.907  10.877  1.00 20.00     0.095 A 
HETATM   10  N10 UNL     1     -25.163  -4.193  10.678  1.00 20.00    -0.223 NA
HETATM   11  N11 UNL     1     -24.745  -3.035   9.912  1.00 20.00    -0.223 NA
ENDROOT
TORSDOF 0
ENDMDL
MODEL 9
REMARK VINA RESULT:      -3.5      1.369      2.351
REMARK  0 active torsions:
REMARK  status: ('A' for Active; 'I' for Inactive)
ROOT
HETATM    1  C1  UNL     1     -33.283  16.605  -2.718  1.00 20.00     0.000 C 
HETATM    2  C2  UNL     1     -33.676  17.971  -3.277  1.00 20.00     0.003 C 
HETATM    3  C3  UNL     1     -33.294  15.535  -3.808  1.00 20.00     0.003 C 
HETATM    4  C4  UNL     1     -35.026  17.911  -3.990  1.00 20.00     0.044 C 
HETATM    5  C5  UNL     1     -34.644  15.477  -4.529  1.00 20.00     0.044 C 
HETATM    6  C6  UNL     1     -35.393  15.606  -7.917  1.00 20.00     0.032 C 
HETATM    7  C7  UNL     1     -36.442  15.833  -6.864  1.00 20.00     0.112 C 
HETATM    8  C8  UNL     1     -34.180  16.307  -7.366  1.00 20.00     0.112 C 
HETATM    9  C9  UNL     1     -35.020  16.840  -5.072  1.00 20.00     0.095 A 
HETATM   10  N10 UNL     1     -36.042  17.017  -6.111  1.00 20.00    -0.223 NA
HETATM   11  N11 UNL     1     -34.655  17.303  -6.415  1.00 20.00    -0.223 NA
ENDROOT
TORSDOF 0
ENDMDL
