MODEL 1
REMARK VINA RESULT:      -5.6      0.000      0.000
REMARK  0 active torsions:
REMARK  status: ('A' for Active; 'I' for Inactive)
ROOT
HETATM    1  C1  UNL     1     -34.278   5.722   6.466  1.00 20.00    -0.029 A 
HETATM    2  C2  UNL     1     -34.075   7.025   6.253  1.00 20.00    -0.018 A 
HETATM    3  C3  UNL     1     -32.799   7.367   4.117  1.00 20.00     0.135 A 
HETATM    4  C4  UNL     1     -34.540   4.939   5.216  1.00 20.00     0.033 A 
HETATM    5  C5  UNL     1     -33.092   6.090   3.313  1.00 20.00     0.084 A 
HETATM    6  C6  UNL     1     -34.169   7.327   4.817  1.00 20.00     0.082 A 
HETATM    7  C7  UNL     1     -34.436   5.976   4.089  1.00 20.00     0.011 A 
HETATM    8  O8  UNL     1     -31.845   8.114   4.177  1.00 20.00    -0.297 OA
ENDROOT
TORSDOF 0
ENDMDL
MODEL 2
REMARK VINA RESULT:      -5.6      1.285      1.909
REMARK  0 active torsions:
REMARK  status: ('A' for Active; 'I' for Inactive)
ROOT
HETATM    1  C1  UNL     1     -33.715   7.188   6.286  1.00 20.00    -0.029 A 
HETATM    2  C2  UNL     1     -33.698   7.543   4.998  1.00 20.00    -0.018 A 
HETATM    3  C3  UNL     1     -33.541   5.506   3.538  1.00 20.00     0.135 A 
HETATM    4  C4  UNL     1     -34.471   5.922   6.554  1.00 20.00     0.033 A 
HETATM    5  C5  UNL     1     -34.099   4.382   4.425  1.00 20.00     0.084 A 
HETATM    6  C6  UNL     1     -34.444   6.568   4.191  1.00 20.00     0.082 A 
HETATM    7  C7  UNL     1     -34.941   5.460   5.167  1.00 20.00     0.011 A 
HETATM    8  O8  UNL     1     -32.703   5.539   2.662  1.00 20.00    -0.297 OA
ENDROOT
TORSDOF 0
ENDMDL
MODEL 3
REMARK VINA RESULT:      -5.1      1.801      3.213
REMARK  0 active torsions:
REMARK  status: ('A' for Active; 'I' for Inactive)
ROOT
HETATM    1  C1  UNL     1     -32.608   6.397   3.182  1.00 20.00    -0.029 A 
HETATM    2  C2  UNL     1     -33.682   5.664   3.489  1.00 20.00    -0.018 A 
HETATM    3  C3  UNL     1     -34.291   5.984   5.904  1.00 20.00     0.135 A 
HETATM    4  C4  UNL     1     -32.565   7.726   3.873  1.00 20.00     0.033 A 
HETATM    5  C5  UNL     1     -33.678   7.350   6.253  1.00 20.00     0.084 A 
HETATM    6  C6  UNL     1     -34.538   6.388   4.440  1.00 20.00     0.082 A 
HETATM    7  C7  UNL     1     -33.823   7.737   4.753  1.00 20.00     0.011 A 
HETATM    8  O8  UNL     1     -34.494   4.974   6.544  1.00 20.00    -0.297 OA
ENDROOT
TORSDOF 0
ENDMDL
MODEL 4
REMARK VINA RESULT:      -4.4      1.027      2.086
REMARK  0 active torsions:
REMARK  status: ('A' for Active; 'I' for Inactive)
ROOT
HETATM    1  C1  UNL     1     -34.975   5.507   4.635  1.00 20.00    -0.029 A 
HETATM    2  C2  UNL     1     -33.932   5.745   3.835  1.00 20.00    -0.018 A 
HETATM    3  C3  UNL     1     -33.085   8.083   4.183  1.00 20.00     0.135 A 
HETATM    4  C4  UNL     1     -34.860   6.149   5.984  1.00 20.00     0.033 A 
HETATM    5  C5  UNL     1     -33.565   8.433   5.600  1.00 20.00     0.084 A 
HETATM    6  C6  UNL     1     -32.944   6.589   4.522  1.00 20.00     0.082 A 
HETATM    7  C7  UNL     1     -33.529   6.913   5.929  1.00 20.00     0.011 A 
HETATM    8  O8  UNL     1     -32.897   8.739   3.180  1.00 20.00    -0.297 OA
ENDROOT
TORSDOF 0
ENDMDL
MODEL 5
REMARK VINA RESULT:      -4.3      1.545      2.418
REMARK  0 active torsions:
REMARK  status: ('A' for Active; 'I' for Inactive)
ROOT
HETATM    1  C1  UNL     1     -33.744   4.433   3.980  1.00 20.00    -0.029 A 
HETATM    2  C2  UNL     1     -34.717   4.946   4.739  1.00 20.00    -0.018 A 
HETATM    3  C3  UNL     1     -33.991   7.142   5.716  1.00 20.00     0.135 A 
HETATM    4  C4  UNL     1     -32.974   5.462   3.209  1.00 20.00     0.033 A 
HETATM    5  C5  UNL     1     -32.897   7.623   4.749  1.00 20.00     0.084 A 
HETATM    6  C6  UNL     1     -34.755   6.408   4.600  1.00 20.00     0.082 A 
HETATM    7  C7  UNL     1     -33.600   6.800   3.631  1.00 20.00     0.011 A 
HETATM    8  O8  UNL     1     -34.173   7.285   6.906  1.00 20.00    -0.297 OA
ENDROOT
TORSDOF 0
ENDMDL
MODEL 6
REMARK VINA RESULT:      -3.9      8.885      9.500
REMARK  0 active torsions:
REMARK  status: ('A' for Active; 'I' for Inactive)
ROOT
HETATM    1  C1  UNL     1     -43.223   6.098   1.914  1.00 20.00    -0.029 A 
HETATM    2  C2  UNL     1     -43.276   7.270   1.274  1.00 20.00    -0.018 A 
HETATM    3  C3  UNL     1     -41.209   7.597  -0.113  1.00 20.00     0.135 A 
HETATM    4  C4  UNL     1     -42.586   5.002   1.115  1.00 20.00     0.033 A 
HETATM    5  C5  UNL     1     -40.705   6.165  -0.353  1.00 20.00     0.084 A 
HETATM    6  C6  UNL     1     -42.680   7.148  -0.063  1.00 20.00     0.082 A 
HETATM    7  C7  UNL     1     -42.176   5.680  -0.200  1.00 20.00     0.011 A 
HETATM    8  O8  UNL     1     -40.653   8.669  -0.001  1.00 20.00    -0.297 OA
ENDROOT
TORSDOF 0
ENDMDL
MODEL 7
REMARK VINA RESULT:      -3.8      9.202     10.031
REMARK  0 active torsions:
REMARK  status: ('A' for Active; 'I' for Inactive)
ROOT
HETATM    1  C1  UNL     1     -40.812   8.361  -0.068  1.00 20.00    -0.029 A 
HETATM    2  C2  UNL     1     -41.911   8.133  -0.793  1.00 20.00    -0.018 A 
HETATM    3  C3  UNL     1     -42.653   5.750  -0.521  1.00 20.00     0.135 A 
HETATM    4  C4  UNL     1     -40.793   7.638   1.244  1.00 20.00     0.033 A 
HETATM    5  C5  UNL     1     -42.045   5.335   0.828  1.00 20.00     0.084 A 
HETATM    6  C6  UNL     1     -42.811   7.216  -0.080  1.00 20.00     0.082 A 
HETATM    7  C7  UNL     1     -42.100   6.831   1.252  1.00 20.00     0.011 A 
HETATM    8  O8  UNL     1     -42.904   5.147  -1.543  1.00 20.00    -0.297 OA
ENDROOT
TORSDOF 0
ENDMDL
MODEL 8
REMARK VINA RESULT:      -3.7      1.990      2.989
REMARK  0 active torsions:
REMARK  status: ('A' for Active; 'I' for Inactive)
ROOT
HETATM    1  C1  UNL     1     -32.914   8.736   3.715  1.00 20.00    -0.029 A 
HETATM    2  C2  UNL     1     -33.495   8.237   4.810  1.00 20.00    -0.018 A 
HETATM    3  C3  UNL     1     -34.454   5.967   4.328  1.00 20.00     0.135 A 
HETATM    4  C4  UNL     1     -32.214   7.706   2.882  1.00 20.00     0.033 A 
HETATM    5  C5  UNL     1     -33.635   5.477   3.124  1.00 20.00     0.084 A 
HETATM    6  C6  UNL     1     -33.277   6.786   4.887  1.00 20.00     0.082 A 
HETATM    7  C7  UNL     1     -32.470   6.383   3.617  1.00 20.00     0.011 A 
HETATM    8  O8  UNL     1     -35.596   5.780   4.691  1.00 20.00    -0.297 OA
ENDROOT
TORSDOF 0
ENDMDL
MODEL 9
REMARK VINA RESULT:      -3.7      9.345     10.157
REMARK  0 active torsions:
REMARK  status: ('A' for Active; 'I' for Inactive)
ROOT
HETATM    1  C1  UNL     1     -42.178   8.556  -0.219  1.00 20.00    -0.029 A 
HETATM    2  C2  UNL     1     -43.131   7.637  -0.043  1.00 20.00    -0.018 A 
HETATM    3  C3  UNL     1     -42.322   5.388  -0.815  1.00 20.00     0.135 A 
HETATM    4  C4  UNL     1     -40.792   8.047   0.038  1.00 20.00     0.033 A 
HETATM    5  C5  UNL     1     -40.792   5.506  -0.728  1.00 20.00     0.084 A 
HETATM    6  C6  UNL     1     -42.535   6.356   0.363  1.00 20.00     0.082 A 
HETATM    7  C7  UNL     1     -40.992   6.566   0.393  1.00 20.00     0.011 A 
HETATM    8  O8  UNL     1     -43.071   4.770  -1.541  1.00 20.00    -0.297 OA
ENDROOT
TORSDOF 0
ENDMDL
