MODEL 1
REMARK VINA RESULT:      -3.6      0.000      0.000
REMARK  2 active torsions:
REMARK  status: ('A' for Active; 'I' for Inactive)
REMARK    1  A    between atoms: C6_6  and  N9_9 
REMARK    2  A    between atoms: C7_7  and  N9_9 
ROOT
HETATM    1  C1  UNL     1     -35.303  14.107  -4.628  1.00 20.00     0.100 C 
HETATM    2  C4  UNL     1     -32.916  14.679  -4.414  1.00 20.00     0.065 C 
HETATM    3  C5  UNL     1     -34.300  15.618  -6.290  1.00 20.00     0.065 C 
HETATM    4  C7  UNL     1     -34.306  15.175  -4.825  1.00 20.00     0.237 C 
HETATM    5  N8  UNL     1     -36.087  13.264  -4.476  1.00 20.00    -0.195 NA
ENDROOT
BRANCH   4   6
HETATM    6  N9  UNL     1     -34.650  16.314  -3.993  1.00 20.00     0.110 N 
HETATM    7  H23 UNL     1     -35.244  16.005  -3.221  1.00 20.00     0.318 HD
BRANCH   6   8
HETATM    8  C6  UNL     1     -33.454  16.946  -3.446  1.00 20.00     0.214 C 
HETATM    9  C2  UNL     1     -33.540  16.946  -1.927  1.00 20.00     0.042 C 
HETATM   10  C3  UNL     1     -33.345  18.358  -4.004  1.00 20.00     0.042 C 
ENDBRANCH   6   8
ENDBRANCH   4   6
TORSDOF 2
ENDMDL
MODEL 2
REMARK VINA RESULT:      -3.6      1.643      2.540
REMARK  2 active torsions:
REMARK  status: ('A' for Active; 'I' for Inactive)
REMARK    1  A    between atoms: C6_6  and  N9_9 
REMARK    2  A    between atoms: C7_7  and  N9_9 
ROOT
HETATM    1  C1  UNL     1     -33.963  15.306  -6.580  1.00 20.00     0.100 C 
HETATM    2  C4  UNL     1     -35.591  16.482  -5.154  1.00 20.00     0.065 C 
HETATM    3  C5  UNL     1     -34.579  14.302  -4.420  1.00 20.00     0.065 C 
HETATM    4  C7  UNL     1     -34.336  15.606  -5.185  1.00 20.00     0.237 C 
HETATM    5  N8  UNL     1     -33.670  15.068  -7.678  1.00 20.00    -0.195 NA
ENDROOT
BRANCH   4   6
HETATM    6  N9  UNL     1     -33.255  16.331  -4.542  1.00 20.00     0.110 N 
HETATM    7  H23 UNL     1     -32.703  16.819  -5.251  1.00 20.00     0.318 HD
BRANCH   6   8
HETATM    8  C6  UNL     1     -33.771  17.308  -3.589  1.00 20.00     0.214 C 
HETATM    9  C2  UNL     1     -33.171  18.671  -3.898  1.00 20.00     0.042 C 
HETATM   10  C3  UNL     1     -33.427  16.847  -2.180  1.00 20.00     0.042 C 
ENDBRANCH   6   8
ENDBRANCH   4   6
TORSDOF 2
ENDMDL
MODEL 3
REMARK VINA RESULT:      -3.4      1.250      2.014
REMARK  2 active torsions:
REMARK  status: ('A' for Active; 'I' for Inactive)
REMARK    1  A    between atoms: C6_6  and  N9_9 
REMARK    2  A    between atoms: C7_7  and  N9_9 
ROOT
HETATM    1  C1  UNL     1     -34.254  15.178  -6.333  1.00 20.00     0.100 C 
HETATM    2  C4  UNL     1     -35.438  13.894  -4.596  1.00 20.00     0.065 C 
HETATM    3  C5  UNL     1     -33.009  14.480  -4.330  1.00 20.00     0.065 C 
HETATM    4  C7  UNL     1     -34.360  14.943  -4.881  1.00 20.00     0.237 C 
HETATM    5  N8  UNL     1     -34.169  15.361  -7.477  1.00 20.00    -0.195 NA
ENDROOT
BRANCH   4   6
HETATM    6  N9  UNL     1     -34.737  16.179  -4.220  1.00 20.00     0.110 N 
HETATM    7  H23 UNL     1     -35.350  15.970  -3.430  1.00 20.00     0.318 HD
BRANCH   6   8
HETATM    8  C6  UNL     1     -33.562  16.893  -3.730  1.00 20.00     0.214 C 
HETATM    9  C2  UNL     1     -33.596  16.923  -2.209  1.00 20.00     0.042 C 
HETATM   10  C3  UNL     1     -33.557  18.295  -4.322  1.00 20.00     0.042 C 
ENDBRANCH   6   8
ENDBRANCH   4   6
TORSDOF 2
ENDMDL
MODEL 4
REMARK VINA RESULT:      -3.4      1.861      2.629
REMARK  2 active torsions:
REMARK  status: ('A' for Active; 'I' for Inactive)
REMARK    1  A    between atoms: C6_6  and  N9_9 
REMARK    2  A    between atoms: C7_7  and  N9_9 
ROOT
HETATM    1  C1  UNL     1     -35.910  15.324  -6.645  1.00 20.00     0.100 C 
HETATM    2  C4  UNL     1     -34.551  17.347  -6.289  1.00 20.00     0.065 C 
HETATM    3  C5  UNL     1     -36.967  17.286  -5.603  1.00 20.00     0.065 C 
HETATM    4  C7  UNL     1     -35.680  16.469  -5.744  1.00 20.00     0.237 C 
HETATM    5  N8  UNL     1     -36.093  14.424  -7.355  1.00 20.00    -0.195 NA
ENDROOT
BRANCH   4   6
HETATM    6  N9  UNL     1     -35.290  15.981  -4.434  1.00 20.00     0.110 N 
HETATM    7  H23 UNL     1     -35.655  15.036  -4.300  1.00 20.00     0.318 HD
BRANCH   6   8
HETATM    8  C6  UNL     1     -33.837  15.951  -4.296  1.00 20.00     0.214 C 
HETATM    9  C2  UNL     1     -33.360  14.508  -4.361  1.00 20.00     0.042 C 
HETATM   10  C3  UNL     1     -33.456  16.613  -2.979  1.00 20.00     0.042 C 
ENDBRANCH   6   8
ENDBRANCH   4   6
TORSDOF 2
ENDMDL
MODEL 5
REMARK VINA RESULT:      -3.3     11.854     13.004
REMARK  2 active torsions:
REMARK  status: ('A' for Active; 'I' for Inactive)
REMARK    1  A    between atoms: C6_6  and  N9_9 
REMARK    2  A    between atoms: C7_7  and  N9_9 
ROOT
HETATM    1  C1  UNL     1     -41.306  13.611   4.818  1.00 20.00     0.100 C 
HETATM    2  C4  UNL     1     -42.094  12.642   6.942  1.00 20.00     0.065 C 
HETATM    3  C5  UNL     1     -40.023  11.767   5.820  1.00 20.00     0.065 C 
HETATM    4  C7  UNL     1     -40.873  13.010   6.094  1.00 20.00     0.237 C 
HETATM    5  N8  UNL     1     -41.647  14.082   3.813  1.00 20.00    -0.195 NA
ENDROOT
BRANCH   4   6
HETATM    6  N9  UNL     1     -40.075  13.971   6.833  1.00 20.00     0.110 N 
HETATM    7  H23 UNL     1     -39.658  14.639   6.182  1.00 20.00     0.318 HD
BRANCH   6   8
HETATM    8  C6  UNL     1     -40.889  14.697   7.801  1.00 20.00     0.214 C 
HETATM    9  C2  UNL     1     -40.996  16.153   7.371  1.00 20.00     0.042 C 
HETATM   10  C3  UNL     1     -40.253  14.562   9.177  1.00 20.00     0.042 C 
ENDBRANCH   6   8
ENDBRANCH   4   6
TORSDOF 2
ENDMDL
MODEL 6
REMARK VINA RESULT:      -3.3     10.874     11.961
REMARK  2 active torsions:
REMARK  status: ('A' for Active; 'I' for Inactive)
REMARK    1  A    between atoms: C6_6  and  N9_9 
REMARK    2  A    between atoms: C7_7  and  N9_9 
ROOT
HETATM    1  C1  UNL     1     -32.908   9.065   2.531  1.00 20.00     0.100 C 
HETATM    2  C4  UNL     1     -32.208   6.792   3.174  1.00 20.00     0.065 C 
HETATM    3  C5  UNL     1     -31.855   8.733   4.730  1.00 20.00     0.065 C 
HETATM    4  C7  UNL     1     -32.772   8.128   3.663  1.00 20.00     0.237 C 
HETATM    5  N8  UNL     1     -33.013   9.802   1.641  1.00 20.00    -0.195 NA
ENDROOT
BRANCH   4   6
HETATM    6  N9  UNL     1     -34.078   7.888   4.249  1.00 20.00     0.110 N 
HETATM    7  H23 UNL     1     -34.784   7.869   3.511  1.00 20.00     0.318 HD
BRANCH   6   8
HETATM    8  C6  UNL     1     -34.107   6.617   4.966  1.00 20.00     0.214 C 
HETATM    9  C2  UNL     1     -35.316   5.815   4.508  1.00 20.00     0.042 C 
HETATM   10  C3  UNL     1     -34.149   6.897   6.461  1.00 20.00     0.042 C 
ENDBRANCH   6   8
ENDBRANCH   4   6
TORSDOF 2
ENDMDL
MODEL 7
REMARK VINA RESULT:      -3.2      1.284      2.119
REMARK  2 active torsions:
REMARK  status: ('A' for Active; 'I' for Inactive)
REMARK    1  A    between atoms: C6_6  and  N9_9 
REMARK    2  A    between atoms: C7_7  and  N9_9 
ROOT
HETATM    1  C1  UNL     1     -35.611  14.226  -5.018  1.00 20.00     0.100 C 
HETATM    2  C4  UNL     1     -35.395  15.283  -7.233  1.00 20.00     0.065 C 
HETATM    3  C5  UNL     1     -36.482  16.506  -5.326  1.00 20.00     0.065 C 
HETATM    4  C7  UNL     1     -35.392  15.506  -5.718  1.00 20.00     0.237 C 
HETATM    5  N8  UNL     1     -35.786  13.220  -4.467  1.00 20.00    -0.195 NA
ENDROOT
BRANCH   4   6
HETATM    6  N9  UNL     1     -34.100  16.048  -5.338  1.00 20.00     0.110 N 
HETATM    7  H23 UNL     1     -33.722  16.601  -6.109  1.00 20.00     0.318 HD
BRANCH   6   8
HETATM    8  C6  UNL     1     -34.213  16.897  -4.157  1.00 20.00     0.214 C 
HETATM    9  C2  UNL     1     -33.714  18.294  -4.498  1.00 20.00     0.042 C 
HETATM   10  C3  UNL     1     -33.411  16.274  -3.024  1.00 20.00     0.042 C 
ENDBRANCH   6   8
ENDBRANCH   4   6
TORSDOF 2
ENDMDL
MODEL 8
REMARK VINA RESULT:      -3.2     11.875     13.096
REMARK  2 active torsions:
REMARK  status: ('A' for Active; 'I' for Inactive)
REMARK    1  A    between atoms: C6_6  and  N9_9 
REMARK    2  A    between atoms: C7_7  and  N9_9 
ROOT
HETATM    1  C1  UNL     1     -40.877  13.528   7.671  1.00 20.00     0.100 C 
HETATM    2  C4  UNL     1     -42.812  12.174   6.967  1.00 20.00     0.065 C 
HETATM    3  C5  UNL     1     -41.702  13.760   5.365  1.00 20.00     0.065 C 
HETATM    4  C7  UNL     1     -41.483  12.802   6.538  1.00 20.00     0.237 C 
HETATM    5  N8  UNL     1     -40.402  14.101   8.562  1.00 20.00    -0.195 NA
ENDROOT
BRANCH   4   6
HETATM    6  N9  UNL     1     -40.590  11.739   6.115  1.00 20.00     0.110 N 
HETATM    7  H23 UNL     1     -41.110  11.057   5.559  1.00 20.00     0.318 HD
BRANCH   6   8
HETATM    8  C6  UNL     1     -39.490  12.264   5.312  1.00 20.00     0.214 C 
HETATM    9  C2  UNL     1     -39.351  11.427   4.049  1.00 20.00     0.042 C 
HETATM   10  C3  UNL     1     -38.218  12.241   6.147  1.00 20.00     0.042 C 
ENDBRANCH   6   8
ENDBRANCH   4   6
TORSDOF 2
ENDMDL
MODEL 9
REMARK VINA RESULT:      -3.2     12.176     13.232
REMARK  2 active torsions:
REMARK  status: ('A' for Active; 'I' for Inactive)
REMARK    1  A    between atoms: C6_6  and  N9_9 
REMARK    2  A    between atoms: C7_7  and  N9_9 
ROOT
HETATM    1  C1  UNL     1     -41.948  12.528   6.811  1.00 20.00     0.100 C 
HETATM    2  C4  UNL     1     -40.011  12.000   5.383  1.00 20.00     0.065 C 
HETATM    3  C5  UNL     1     -41.493  13.961   4.864  1.00 20.00     0.065 C 
HETATM    4  C7  UNL     1     -40.879  13.112   5.979  1.00 20.00     0.237 C 
HETATM    5  N8  UNL     1     -42.790  12.068   7.464  1.00 20.00    -0.195 NA
ENDROOT
BRANCH   4   6
HETATM    6  N9  UNL     1     -40.036  13.960   6.803  1.00 20.00     0.110 N 
HETATM    7  H23 UNL     1     -39.515  14.605   6.207  1.00 20.00     0.318 HD
BRANCH   6   8
HETATM    8  C6  UNL     1     -40.833  14.730   7.752  1.00 20.00     0.214 C 
HETATM    9  C2  UNL     1     -40.727  16.208   7.408  1.00 20.00     0.042 C 
HETATM   10  C3  UNL     1     -40.334  14.441   9.161  1.00 20.00     0.042 C 
ENDBRANCH   6   8
ENDBRANCH   4   6
TORSDOF 2
ENDMDL
