MODEL 1
REMARK VINA RESULT:      -5.5      0.000      0.000
REMARK  0 active torsions:
REMARK  status: ('A' for Active; 'I' for Inactive)
ROOT
HETATM    1  C1  UNL     1     -32.241   8.426   3.420  1.00 20.00     0.086 C 
HETATM    2  C2  UNL     1     -32.587   8.634   4.866  1.00 20.00     0.055 C 
HETATM    3  C3  UNL     1     -34.879   5.764   6.133  1.00 20.00     0.030 C 
HETATM    4  C4  UNL     1     -33.920   6.945   6.332  1.00 20.00     0.010 C 
HETATM    5  C5  UNL     1     -34.398   4.789   5.044  1.00 20.00     0.272 C 
HETATM    6  C6  UNL     1     -33.626   7.544   4.969  1.00 20.00     0.045 C 
HETATM    7  C7  UNL     1     -33.028   6.485   4.047  1.00 20.00     0.345 C 
HETATM    8  N8  UNL     1     -32.517   7.268   2.898  1.00 20.00    -0.270 NA
HETATM    9  N9  UNL     1     -34.039   5.462   3.783  1.00 20.00     0.108 N 
HETATM   10  H21 UNL     1     -33.660   4.774   3.134  1.00 20.00     0.318 HD
ENDROOT
TORSDOF 0
ENDMDL
MODEL 2
REMARK VINA RESULT:      -5.4      0.963      3.161
REMARK  0 active torsions:
REMARK  status: ('A' for Active; 'I' for Inactive)
ROOT
HETATM    1  C1  UNL     1     -34.792   5.069   5.956  1.00 20.00     0.086 C 
HETATM    2  C2  UNL     1     -34.547   6.458   6.473  1.00 20.00     0.055 C 
HETATM    3  C3  UNL     1     -32.173   8.389   4.078  1.00 20.00     0.030 C 
HETATM    4  C4  UNL     1     -33.209   8.298   5.207  1.00 20.00     0.010 C 
HETATM    5  C5  UNL     1     -32.531   7.499   2.875  1.00 20.00     0.272 C 
HETATM    6  C6  UNL     1     -33.455   6.830   5.499  1.00 20.00     0.045 C 
HETATM    7  C7  UNL     1     -33.934   6.115   4.239  1.00 20.00     0.345 C 
HETATM    8  N8  UNL     1     -34.419   4.807   4.739  1.00 20.00    -0.270 NA
HETATM    9  N9  UNL     1     -32.851   6.112   3.256  1.00 20.00     0.108 N 
HETATM   10  H21 UNL     1     -33.150   5.599   2.427  1.00 20.00     0.318 HD
ENDROOT
TORSDOF 0
ENDMDL
MODEL 3
REMARK VINA RESULT:      -5.2      1.488      3.710
REMARK  0 active torsions:
REMARK  status: ('A' for Active; 'I' for Inactive)
ROOT
HETATM    1  C1  UNL     1     -34.941   5.556   6.177  1.00 20.00     0.086 C 
HETATM    2  C2  UNL     1     -34.466   4.944   4.889  1.00 20.00     0.055 C 
HETATM    3  C3  UNL     1     -32.410   7.529   2.844  1.00 20.00     0.030 C 
HETATM    4  C4  UNL     1     -32.872   6.108   3.192  1.00 20.00     0.010 C 
HETATM    5  C5  UNL     1     -32.057   8.357   4.092  1.00 20.00     0.272 C 
HETATM    6  C6  UNL     1     -33.944   6.213   4.260  1.00 20.00     0.045 C 
HETATM    7  C7  UNL     1     -33.397   6.940   5.485  1.00 20.00     0.345 C 
HETATM    8  N8  UNL     1     -34.421   6.694   6.527  1.00 20.00    -0.270 NA
HETATM    9  N9  UNL     1     -33.109   8.328   5.122  1.00 20.00     0.108 N 
HETATM   10  H21 UNL     1     -32.783   8.830   5.948  1.00 20.00     0.318 HD
ENDROOT
TORSDOF 0
ENDMDL
MODEL 4
REMARK VINA RESULT:      -5.2      1.387      2.222
REMARK  0 active torsions:
REMARK  status: ('A' for Active; 'I' for Inactive)
ROOT
HETATM    1  C1  UNL     1     -32.168   6.906   2.584  1.00 20.00     0.086 C 
HETATM    2  C2  UNL     1     -33.147   5.767   2.628  1.00 20.00     0.055 C 
HETATM    3  C3  UNL     1     -34.655   5.421   6.192  1.00 20.00     0.030 C 
HETATM    4  C4  UNL     1     -34.634   5.166   4.678  1.00 20.00     0.010 C 
HETATM    5  C5  UNL     1     -34.359   6.888   6.548  1.00 20.00     0.272 C 
HETATM    6  C6  UNL     1     -33.349   5.752   4.124  1.00 20.00     0.045 C 
HETATM    7  C7  UNL     1     -33.268   7.241   4.443  1.00 20.00     0.345 C 
HETATM    8  N8  UNL     1     -32.154   7.724   3.595  1.00 20.00    -0.270 NA
HETATM    9  N9  UNL     1     -33.148   7.409   5.891  1.00 20.00     0.108 N 
HETATM   10  H21 UNL     1     -33.052   8.401   6.108  1.00 20.00     0.318 HD
ENDROOT
TORSDOF 0
ENDMDL
MODEL 5
REMARK VINA RESULT:      -4.9      1.472      2.078
REMARK  0 active torsions:
REMARK  status: ('A' for Active; 'I' for Inactive)
ROOT
HETATM    1  C1  UNL     1     -32.143   8.682   3.952  1.00 20.00     0.086 C 
HETATM    2  C2  UNL     1     -32.559   7.553   3.052  1.00 20.00     0.055 C 
HETATM    3  C3  UNL     1     -34.445   4.831   5.084  1.00 20.00     0.030 C 
HETATM    4  C4  UNL     1     -34.033   5.536   3.784  1.00 20.00     0.010 C 
HETATM    5  C5  UNL     1     -34.850   5.822   6.190  1.00 20.00     0.272 C 
HETATM    6  C6  UNL     1     -33.020   6.609   4.136  1.00 20.00     0.045 C 
HETATM    7  C7  UNL     1     -33.618   7.590   5.140  1.00 20.00     0.345 C 
HETATM    8  N8  UNL     1     -32.659   8.719   5.145  1.00 20.00    -0.270 NA
HETATM    9  N9  UNL     1     -33.857   6.889   6.402  1.00 20.00     0.108 N 
HETATM   10  H21 UNL     1     -34.218   7.549   7.090  1.00 20.00     0.318 HD
ENDROOT
TORSDOF 0
ENDMDL
MODEL 6
REMARK VINA RESULT:      -4.6      1.257      1.647
REMARK  0 active torsions:
REMARK  status: ('A' for Active; 'I' for Inactive)
ROOT
HETATM    1  C1  UNL     1     -32.693   6.196   2.361  1.00 20.00     0.086 C 
HETATM    2  C2  UNL     1     -32.352   7.284   3.339  1.00 20.00     0.055 C 
HETATM    3  C3  UNL     1     -34.475   6.910   6.571  1.00 20.00     0.030 C 
HETATM    4  C4  UNL     1     -33.287   7.449   5.763  1.00 20.00     0.010 C 
HETATM    5  C5  UNL     1     -34.715   5.408   6.336  1.00 20.00     0.272 C 
HETATM    6  C6  UNL     1     -33.464   7.009   4.322  1.00 20.00     0.045 C 
HETATM    7  C7  UNL     1     -33.550   5.487   4.243  1.00 20.00     0.345 C 
HETATM    8  N8  UNL     1     -33.407   5.200   2.797  1.00 20.00    -0.270 NA
HETATM    9  N9  UNL     1     -34.776   5.048   4.909  1.00 20.00     0.108 N 
HETATM   10  H21 UNL     1     -34.861   4.036   4.824  1.00 20.00     0.318 HD
ENDROOT
TORSDOF 0
ENDMDL
MODEL 7
REMARK VINA RESULT:      -4.2     15.351     16.058
REMARK  0 active torsions:
REMARK  status: ('A' for Active; 'I' for Inactive)
ROOT
HETATM    1  C1  UNL     1     -25.033  17.153  12.274  1.00 20.00     0.086 C 
HETATM    2  C2  UNL     1     -25.460  18.369  11.503  1.00 20.00     0.055 C 
HETATM    3  C3  UNL     1     -22.912  19.139   8.673  1.00 20.00     0.030 C 
HETATM    4  C4  UNL     1     -24.278  19.263   9.363  1.00 20.00     0.010 C 
HETATM    5  C5  UNL     1     -22.405  17.687   8.624  1.00 20.00     0.272 C 
HETATM    6  C6  UNL     1     -24.200  18.527  10.688  1.00 20.00     0.045 C 
HETATM    7  C7  UNL     1     -23.818  17.068  10.458  1.00 20.00     0.345 C 
HETATM    8  N8  UNL     1     -24.083  16.424  11.766  1.00 20.00    -0.270 NA
HETATM    9  N9  UNL     1     -22.454  17.013   9.933  1.00 20.00     0.108 N 
HETATM   10  H21 UNL     1     -22.178  16.038   9.817  1.00 20.00     0.318 HD
ENDROOT
TORSDOF 0
ENDMDL
MODEL 8
REMARK VINA RESULT:      -4.2      1.479      3.634
REMARK  0 active torsions:
REMARK  status: ('A' for Active; 'I' for Inactive)
ROOT
HETATM    1  C1  UNL     1     -34.880   4.995   4.679  1.00 20.00     0.086 C 
HETATM    2  C2  UNL     1     -33.779   5.091   3.662  1.00 20.00     0.055 C 
HETATM    3  C3  UNL     1     -32.178   8.631   3.734  1.00 20.00     0.030 C 
HETATM    4  C4  UNL     1     -32.197   7.139   3.374  1.00 20.00     0.010 C 
HETATM    5  C5  UNL     1     -32.632   8.895   5.181  1.00 20.00     0.272 C 
HETATM    6  C6  UNL     1     -33.550   6.579   3.773  1.00 20.00     0.045 C 
HETATM    7  C7  UNL     1     -33.792   6.799   5.263  1.00 20.00     0.345 C 
HETATM    8  N8  UNL     1     -34.969   5.949   5.558  1.00 20.00    -0.270 NA
HETATM    9  N9  UNL     1     -33.905   8.236   5.517  1.00 20.00     0.108 N 
HETATM   10  H21 UNL     1     -34.110   8.388   6.504  1.00 20.00     0.318 HD
ENDROOT
TORSDOF 0
ENDMDL
MODEL 9
REMARK VINA RESULT:      -4.1     15.857     16.568
REMARK  0 active torsions:
REMARK  status: ('A' for Active; 'I' for Inactive)
ROOT
HETATM    1  C1  UNL     1     -23.909  19.212   7.849  1.00 20.00     0.086 C 
HETATM    2  C2  UNL     1     -22.616  18.710   8.428  1.00 20.00     0.055 C 
HETATM    3  C3  UNL     1     -22.852  18.525  12.301  1.00 20.00     0.030 C 
HETATM    4  C4  UNL     1     -22.224  18.175  10.945  1.00 20.00     0.010 C 
HETATM    5  C5  UNL     1     -24.388  18.426  12.284  1.00 20.00     0.272 C 
HETATM    6  C6  UNL     1     -22.943  18.978   9.877  1.00 20.00     0.045 C 
HETATM    7  C7  UNL     1     -24.436  18.667   9.900  1.00 20.00     0.345 C 
HETATM    8  N8  UNL     1     -24.940  19.263   8.640  1.00 20.00    -0.270 NA
HETATM    9  N9  UNL     1     -25.001  19.152  11.159  1.00 20.00     0.108 N 
HETATM   10  H21 UNL     1     -26.007  18.985  11.163  1.00 20.00     0.318 HD
ENDROOT
TORSDOF 0
ENDMDL
