MODEL 1
REMARK VINA RESULT:      -3.9      0.000      0.000
REMARK  5 active torsions:
REMARK  status: ('A' for Active; 'I' for Inactive)
REMARK    1  A    between atoms: C5_5  and  C7_7 
REMARK    2  A    between atoms: C6_6  and  C8_8 
REMARK    3  A    between atoms: C6_6  and  C9_9 
REMARK    4  A    between atoms: C7_7  and  O11_11 
REMARK    5  A    between atoms: C9_9  and  O11_11 
ROOT
HETATM    1  C1  UNL     1     -33.999  14.908  -5.761  1.00 20.00     0.061 C 
HETATM    2  C5  UNL     1     -33.949  14.694  -4.307  1.00 20.00     0.150 C 
HETATM    3  N10 UNL     1     -34.039  15.074  -6.908  1.00 20.00    -0.197 NA
ENDROOT
BRANCH   2   4
HETATM    4  C7  UNL     1     -33.226  15.833  -3.602  1.00 20.00     0.182 C 
BRANCH   4   5
HETATM    5  O11 UNL     1     -33.656  17.074  -4.137  1.00 20.00    -0.385 OA
BRANCH   5   6
HETATM    6  C9  UNL     1     -33.712  18.082  -3.125  1.00 20.00     0.117 C 
HETATM    7  C4  UNL     1     -35.165  18.496  -2.935  1.00 20.00     0.039 C 
BRANCH   6   8
HETATM    8  C6  UNL     1     -33.075  17.494  -1.860  1.00 20.00     0.035 C 
BRANCH   8   9
HETATM    9  C8  UNL     1     -32.812  18.489  -0.715  1.00 20.00    -0.020 C 
HETATM   10  C2  UNL     1     -33.639  18.176   0.532  1.00 20.00     0.009 C 
HETATM   11  C3  UNL     1     -31.322  18.488  -0.362  1.00 20.00     0.009 C 
ENDBRANCH   8   9
ENDBRANCH   6   8
ENDBRANCH   5   6
ENDBRANCH   4   5
ENDBRANCH   2   4
TORSDOF 5
ENDMDL
MODEL 2
REMARK VINA RESULT:      -3.9      2.684      5.209
REMARK  5 active torsions:
REMARK  status: ('A' for Active; 'I' for Inactive)
REMARK    1  A    between atoms: C5_5  and  C7_7 
REMARK    2  A    between atoms: C6_6  and  C8_8 
REMARK    3  A    between atoms: C6_6  and  C9_9 
REMARK    4  A    between atoms: C7_7  and  O11_11 
REMARK    5  A    between atoms: C9_9  and  O11_11 
ROOT
HETATM    1  C1  UNL     1     -31.869  18.428  -0.267  1.00 20.00     0.061 C 
HETATM    2  C5  UNL     1     -33.291  18.146  -0.021  1.00 20.00     0.150 C 
HETATM    3  N10 UNL     1     -30.747  18.650  -0.460  1.00 20.00    -0.197 NA
ENDROOT
BRANCH   2   4
HETATM    4  C7  UNL     1     -34.042  17.895  -1.320  1.00 20.00     0.182 C 
BRANCH   4   5
HETATM    5  O11 UNL     1     -33.568  16.701  -1.922  1.00 20.00    -0.385 OA
BRANCH   5   6
HETATM    6  C9  UNL     1     -33.752  16.727  -3.339  1.00 20.00     0.117 C 
HETATM    7  C4  UNL     1     -33.286  18.079  -3.863  1.00 20.00     0.039 C 
BRANCH   6   8
HETATM    8  C6  UNL     1     -32.967  15.545  -3.921  1.00 20.00     0.035 C 
BRANCH   8   9
HETATM    9  C8  UNL     1     -33.743  14.637  -4.893  1.00 20.00    -0.020 C 
HETATM   10  C2  UNL     1     -35.024  14.080  -4.274  1.00 20.00     0.009 C 
HETATM   11  C3  UNL     1     -34.079  15.413  -6.169  1.00 20.00     0.009 C 
ENDBRANCH   8   9
ENDBRANCH   6   8
ENDBRANCH   5   6
ENDBRANCH   4   5
ENDBRANCH   2   4
TORSDOF 5
ENDMDL
MODEL 3
REMARK VINA RESULT:      -3.8     11.456     12.336
REMARK  5 active torsions:
REMARK  status: ('A' for Active; 'I' for Inactive)
REMARK    1  A    between atoms: C5_5  and  C7_7 
REMARK    2  A    between atoms: C6_6  and  C8_8 
REMARK    3  A    between atoms: C6_6  and  C9_9 
REMARK    4  A    between atoms: C7_7  and  O11_11 
REMARK    5  A    between atoms: C9_9  and  O11_11 
ROOT
HETATM    1  C1  UNL     1     -32.551   8.749   0.864  1.00 20.00     0.061 C 
HETATM    2  C5  UNL     1     -32.122   7.925   2.004  1.00 20.00     0.150 C 
HETATM    3  N10 UNL     1     -32.889   9.398  -0.035  1.00 20.00    -0.197 NA
ENDROOT
BRANCH   2   4
HETATM    4  C7  UNL     1     -32.540   8.545   3.329  1.00 20.00     0.182 C 
BRANCH   4   5
HETATM    5  O11 UNL     1     -32.218   7.663   4.391  1.00 20.00    -0.385 OA
BRANCH   5   6
HETATM    6  C9  UNL     1     -33.307   7.535   5.307  1.00 20.00     0.117 C 
HETATM    7  C4  UNL     1     -33.676   8.921   5.818  1.00 20.00     0.039 C 
BRANCH   6   8
HETATM    8  C6  UNL     1     -34.451   6.837   4.560  1.00 20.00     0.035 C 
BRANCH   8   9
HETATM    9  C8  UNL     1     -34.793   5.413   5.033  1.00 20.00    -0.020 C 
HETATM   10  C2  UNL     1     -34.003   4.343   4.281  1.00 20.00     0.009 C 
HETATM   11  C3  UNL     1     -34.528   5.290   6.536  1.00 20.00     0.009 C 
ENDBRANCH   8   9
ENDBRANCH   6   8
ENDBRANCH   5   6
ENDBRANCH   4   5
ENDBRANCH   2   4
TORSDOF 5
ENDMDL
MODEL 4
REMARK VINA RESULT:      -3.8      2.914      5.195
REMARK  5 active torsions:
REMARK  status: ('A' for Active; 'I' for Inactive)
REMARK    1  A    between atoms: C5_5  and  C7_7 
REMARK    2  A    between atoms: C6_6  and  C8_8 
REMARK    3  A    between atoms: C6_6  and  C9_9 
REMARK    4  A    between atoms: C7_7  and  O11_11 
REMARK    5  A    between atoms: C9_9  and  O11_11 
ROOT
HETATM    1  C1  UNL     1     -31.956  18.411  -0.486  1.00 20.00     0.061 C 
HETATM    2  C5  UNL     1     -33.376  18.030  -0.461  1.00 20.00     0.150 C 
HETATM    3  N10 UNL     1     -30.836  18.712  -0.503  1.00 20.00    -0.197 NA
ENDROOT
BRANCH   2   4
HETATM    4  C7  UNL     1     -33.884  17.685  -1.854  1.00 20.00     0.182 C 
BRANCH   4   5
HETATM    5  O11 UNL     1     -33.504  16.360  -2.186  1.00 20.00    -0.385 OA
BRANCH   5   6
HETATM    6  C9  UNL     1     -33.303  16.216  -3.593  1.00 20.00     0.117 C 
HETATM    7  C4  UNL     1     -33.733  14.814  -4.003  1.00 20.00     0.039 C 
BRANCH   6   8
HETATM    8  C6  UNL     1     -34.107  17.326  -4.284  1.00 20.00     0.035 C 
BRANCH   8   9
HETATM    9  C8  UNL     1     -35.105  16.863  -5.361  1.00 20.00    -0.020 C 
HETATM   10  C2  UNL     1     -36.531  17.333  -5.075  1.00 20.00     0.009 C 
HETATM   11  C3  UNL     1     -34.657  17.372  -6.733  1.00 20.00     0.009 C 
ENDBRANCH   8   9
ENDBRANCH   6   8
ENDBRANCH   5   6
ENDBRANCH   4   5
ENDBRANCH   2   4
TORSDOF 5
ENDMDL
MODEL 5
REMARK VINA RESULT:      -3.8     12.204     13.095
REMARK  5 active torsions:
REMARK  status: ('A' for Active; 'I' for Inactive)
REMARK    1  A    between atoms: C5_5  and  C7_7 
REMARK    2  A    between atoms: C6_6  and  C8_8 
REMARK    3  A    between atoms: C6_6  and  C9_9 
REMARK    4  A    between atoms: C7_7  and  O11_11 
REMARK    5  A    between atoms: C9_9  and  O11_11 
ROOT
HETATM    1  C1  UNL     1     -34.377   6.472   6.431  1.00 20.00     0.061 C 
HETATM    2  C5  UNL     1     -34.695   5.098   6.017  1.00 20.00     0.150 C 
HETATM    3  N10 UNL     1     -34.127   7.556   6.760  1.00 20.00    -0.197 NA
ENDROOT
BRANCH   2   4
HETATM    4  C7  UNL     1     -34.438   4.891   4.531  1.00 20.00     0.182 C 
BRANCH   4   5
HETATM    5  O11 UNL     1     -33.914   6.082   3.968  1.00 20.00    -0.385 OA
BRANCH   5   6
HETATM    6  C9  UNL     1     -32.696   5.830   3.264  1.00 20.00     0.117 C 
HETATM    7  C4  UNL     1     -32.980   4.834   2.147  1.00 20.00     0.039 C 
BRANCH   6   8
HETATM    8  C6  UNL     1     -32.174   7.180   2.758  1.00 20.00     0.035 C 
BRANCH   8   9
HETATM    9  C8  UNL     1     -32.838   8.429   3.367  1.00 20.00    -0.020 C 
HETATM   10  C2  UNL     1     -32.108   8.928   4.614  1.00 20.00     0.009 C 
HETATM   11  C3  UNL     1     -32.897   9.545   2.320  1.00 20.00     0.009 C 
ENDBRANCH   8   9
ENDBRANCH   6   8
ENDBRANCH   5   6
ENDBRANCH   4   5
ENDBRANCH   2   4
TORSDOF 5
ENDMDL
MODEL 6
REMARK VINA RESULT:      -3.7     11.458     12.417
REMARK  5 active torsions:
REMARK  status: ('A' for Active; 'I' for Inactive)
REMARK    1  A    between atoms: C5_5  and  C7_7 
REMARK    2  A    between atoms: C6_6  and  C8_8 
REMARK    3  A    between atoms: C6_6  and  C9_9 
REMARK    4  A    between atoms: C7_7  and  O11_11 
REMARK    5  A    between atoms: C9_9  and  O11_11 
ROOT
HETATM    1  C1  UNL     1     -34.393   5.045   5.364  1.00 20.00     0.061 C 
HETATM    2  C5  UNL     1     -34.457   6.097   6.390  1.00 20.00     0.150 C 
HETATM    3  N10 UNL     1     -34.343   4.215   4.556  1.00 20.00    -0.197 NA
ENDROOT
BRANCH   2   4
HETATM    4  C7  UNL     1     -33.855   7.401   5.889  1.00 20.00     0.182 C 
BRANCH   4   5
HETATM    5  O11 UNL     1     -33.870   7.419   4.471  1.00 20.00    -0.385 OA
BRANCH   5   6
HETATM    6  C9  UNL     1     -33.035   8.459   3.957  1.00 20.00     0.117 C 
HETATM    7  C4  UNL     1     -32.128   8.949   5.076  1.00 20.00     0.039 C 
BRANCH   6   8
HETATM    8  C6  UNL     1     -32.269   7.880   2.761  1.00 20.00     0.035 C 
BRANCH   8   9
HETATM    9  C8  UNL     1     -32.701   8.392   1.374  1.00 20.00    -0.020 C 
HETATM   10  C2  UNL     1     -32.962   9.898   1.364  1.00 20.00     0.009 C 
HETATM   11  C3  UNL     1     -31.627   8.046   0.339  1.00 20.00     0.009 C 
ENDBRANCH   8   9
ENDBRANCH   6   8
ENDBRANCH   5   6
ENDBRANCH   4   5
ENDBRANCH   2   4
TORSDOF 5
ENDMDL
MODEL 7
REMARK VINA RESULT:      -3.6     12.157     13.871
REMARK  5 active torsions:
REMARK  status: ('A' for Active; 'I' for Inactive)
REMARK    1  A    between atoms: C5_5  and  C7_7 
REMARK    2  A    between atoms: C6_6  and  C8_8 
REMARK    3  A    between atoms: C6_6  and  C9_9 
REMARK    4  A    between atoms: C7_7  and  O11_11 
REMARK    5  A    between atoms: C9_9  and  O11_11 
ROOT
HETATM    1  C1  UNL     1     -40.284  15.073   9.787  1.00 20.00     0.061 C 
HETATM    2  C5  UNL     1     -40.288  15.455   8.367  1.00 20.00     0.150 C 
HETATM    3  N10 UNL     1     -40.280  14.772  10.907  1.00 20.00    -0.197 NA
ENDROOT
BRANCH   2   4
HETATM    4  C7  UNL     1     -41.441  14.803   7.618  1.00 20.00     0.182 C 
BRANCH   4   5
HETATM    5  O11 UNL     1     -41.408  13.400   7.820  1.00 20.00    -0.385 OA
BRANCH   5   6
HETATM    6  C9  UNL     1     -41.898  12.700   6.674  1.00 20.00     0.117 C 
HETATM    7  C4  UNL     1     -43.273  13.251   6.321  1.00 20.00     0.039 C 
BRANCH   6   8
HETATM    8  C6  UNL     1     -40.865  12.878   5.555  1.00 20.00     0.035 C 
BRANCH   8   9
HETATM    9  C8  UNL     1     -39.775  11.794   5.467  1.00 20.00    -0.020 C 
HETATM   10  C2  UNL     1     -39.171  11.687   4.067  1.00 20.00     0.009 C 
HETATM   11  C3  UNL     1     -38.670  12.088   6.485  1.00 20.00     0.009 C 
ENDBRANCH   8   9
ENDBRANCH   6   8
ENDBRANCH   5   6
ENDBRANCH   4   5
ENDBRANCH   2   4
TORSDOF 5
ENDMDL
MODEL 8
REMARK VINA RESULT:      -3.6      4.446      6.548
REMARK  5 active torsions:
REMARK  status: ('A' for Active; 'I' for Inactive)
REMARK    1  A    between atoms: C5_5  and  C7_7 
REMARK    2  A    between atoms: C6_6  and  C8_8 
REMARK    3  A    between atoms: C6_6  and  C9_9 
REMARK    4  A    between atoms: C7_7  and  O11_11 
REMARK    5  A    between atoms: C9_9  and  O11_11 
ROOT
HETATM    1  C1  UNL     1     -29.195  18.671   3.020  1.00 20.00     0.061 C 
HETATM    2  C5  UNL     1     -30.340  18.256   2.197  1.00 20.00     0.150 C 
HETATM    3  N10 UNL     1     -28.292  18.998   3.671  1.00 20.00    -0.197 NA
ENDROOT
BRANCH   2   4
HETATM    4  C7  UNL     1     -30.626  19.263   1.092  1.00 20.00     0.182 C 
BRANCH   4   5
HETATM    5  O11 UNL     1     -30.817  18.581  -0.137  1.00 20.00    -0.385 OA
BRANCH   5   6
HETATM    6  C9  UNL     1     -32.183  18.199  -0.310  1.00 20.00     0.117 C 
HETATM    7  C4  UNL     1     -33.063  19.196   0.431  1.00 20.00     0.039 C 
BRANCH   6   8
HETATM    8  C6  UNL     1     -32.455  18.150  -1.818  1.00 20.00     0.035 C 
BRANCH   8   9
HETATM    9  C8  UNL     1     -33.713  17.374  -2.250  1.00 20.00    -0.020 C 
HETATM   10  C2  UNL     1     -34.745  18.271  -2.933  1.00 20.00     0.009 C 
HETATM   11  C3  UNL     1     -33.318  16.232  -3.190  1.00 20.00     0.009 C 
ENDBRANCH   8   9
ENDBRANCH   6   8
ENDBRANCH   5   6
ENDBRANCH   4   5
ENDBRANCH   2   4
TORSDOF 5
ENDMDL
MODEL 9
REMARK VINA RESULT:      -3.6     12.208     13.242
REMARK  5 active torsions:
REMARK  status: ('A' for Active; 'I' for Inactive)
REMARK    1  A    between atoms: C5_5  and  C7_7 
REMARK    2  A    between atoms: C6_6  and  C8_8 
REMARK    3  A    between atoms: C6_6  and  C9_9 
REMARK    4  A    between atoms: C7_7  and  O11_11 
REMARK    5  A    between atoms: C9_9  and  O11_11 
ROOT
HETATM    1  C1  UNL     1     -32.575   8.758   4.283  1.00 20.00     0.061 C 
HETATM    2  C5  UNL     1     -32.596   8.681   2.814  1.00 20.00     0.150 C 
HETATM    3  N10 UNL     1     -32.560   8.821   5.441  1.00 20.00    -0.197 NA
ENDROOT
BRANCH   2   4
HETATM    4  C7  UNL     1     -32.224   7.289   2.325  1.00 20.00     0.182 C 
BRANCH   4   5
HETATM    5  O11 UNL     1     -32.400   6.352   3.375  1.00 20.00    -0.385 OA
BRANCH   5   6
HETATM    6  C9  UNL     1     -33.392   5.379   3.040  1.00 20.00     0.117 C 
HETATM    7  C4  UNL     1     -32.842   4.486   1.937  1.00 20.00     0.039 C 
BRANCH   6   8
HETATM    8  C6  UNL     1     -33.735   4.617   4.327  1.00 20.00     0.035 C 
BRANCH   8   9
HETATM    9  C8  UNL     1     -34.885   5.201   5.167  1.00 20.00    -0.020 C 
HETATM   10  C2  UNL     1     -34.386   5.903   6.430  1.00 20.00     0.009 C 
HETATM   11  C3  UNL     1     -35.701   6.180   4.318  1.00 20.00     0.009 C 
ENDBRANCH   8   9
ENDBRANCH   6   8
ENDBRANCH   5   6
ENDBRANCH   4   5
ENDBRANCH   2   4
TORSDOF 5
ENDMDL
