MODEL 1
REMARK VINA RESULT:      -4.1      0.000      0.000
REMARK  2 active torsions:
REMARK  status: ('A' for Active; 'I' for Inactive)
REMARK    1  A    between atoms: C2_2  and  C3_3 
REMARK    2  A    between atoms: C2_2  and  N4_4 
ROOT
HETATM    1  C1  UNL     1     -33.087   7.780   4.407  1.00 20.00     0.157 C 
HETATM    2  N4  UNL     1     -33.823   7.863   5.320  1.00 20.00    -0.267 NA
HETATM    3  S8  UNL     1     -32.099   7.690   3.161  1.00 20.00    -0.055 SA
ENDROOT
BRANCH   2   4
HETATM    4  C2  UNL     1     -33.794   6.728   6.242  1.00 20.00     0.267 C 
BRANCH   4   5
HETATM    5  C3  UNL     1     -34.703   5.643   5.723  1.00 20.00     0.405 C 
HETATM    6  F5  UNL     1     -35.325   5.017   6.746  1.00 20.00    -0.169 F 
HETATM    7  F6  UNL     1     -34.013   4.711   5.031  1.00 20.00    -0.169 F 
HETATM    8  F7  UNL     1     -35.657   6.147   4.911  1.00 20.00    -0.169 F 
ENDBRANCH   4   5
ENDBRANCH   2   4
TORSDOF 2
ENDMDL
MODEL 2
REMARK VINA RESULT:      -4.0      0.094      1.338
REMARK  2 active torsions:
REMARK  status: ('A' for Active; 'I' for Inactive)
REMARK    1  A    between atoms: C2_2  and  C3_3 
REMARK    2  A    between atoms: C2_2  and  N4_4 
ROOT
HETATM    1  C1  UNL     1     -33.080   7.730   4.296  1.00 20.00     0.157 C 
HETATM    2  N4  UNL     1     -33.828   7.857   5.193  1.00 20.00    -0.267 NA
HETATM    3  S8  UNL     1     -32.075   7.579   3.069  1.00 20.00    -0.055 SA
ENDROOT
BRANCH   2   4
HETATM    4  C2  UNL     1     -33.819   6.765   6.165  1.00 20.00     0.267 C 
BRANCH   4   5
HETATM    5  C3  UNL     1     -34.720   5.658   5.678  1.00 20.00     0.405 C 
HETATM    6  F5  UNL     1     -34.008   4.733   4.999  1.00 20.00    -0.169 F 
HETATM    7  F6  UNL     1     -35.675   6.130   4.849  1.00 20.00    -0.169 F 
HETATM    8  F7  UNL     1     -35.329   5.031   6.707  1.00 20.00    -0.169 F 
ENDBRANCH   4   5
ENDBRANCH   2   4
TORSDOF 2
ENDMDL
MODEL 3
REMARK VINA RESULT:      -3.9      3.065      3.900
REMARK  2 active torsions:
REMARK  status: ('A' for Active; 'I' for Inactive)
REMARK    1  A    between atoms: C2_2  and  C3_3 
REMARK    2  A    between atoms: C2_2  and  N4_4 
ROOT
HETATM    1  C1  UNL     1     -33.782   6.797   5.821  1.00 20.00     0.157 C 
HETATM    2  N4  UNL     1     -33.165   7.747   5.507  1.00 20.00    -0.267 NA
HETATM    3  S8  UNL     1     -34.606   5.510   6.271  1.00 20.00    -0.055 SA
ENDROOT
BRANCH   2   4
HETATM    4  C2  UNL     1     -33.368   8.186   4.127  1.00 20.00     0.267 C 
BRANCH   4   5
HETATM    5  C3  UNL     1     -32.304   7.575   3.250  1.00 20.00     0.405 C 
HETATM    6  F5  UNL     1     -32.263   8.199   2.052  1.00 20.00    -0.169 F 
HETATM    7  F6  UNL     1     -32.544   6.267   3.023  1.00 20.00    -0.169 F 
HETATM    8  F7  UNL     1     -31.080   7.687   3.811  1.00 20.00    -0.169 F 
ENDBRANCH   4   5
ENDBRANCH   2   4
TORSDOF 2
ENDMDL
MODEL 4
REMARK VINA RESULT:      -3.9      2.243      2.578
REMARK  2 active torsions:
REMARK  status: ('A' for Active; 'I' for Inactive)
REMARK    1  A    between atoms: C2_2  and  C3_3 
REMARK    2  A    between atoms: C2_2  and  N4_4 
ROOT
HETATM    1  C1  UNL     1     -33.858   4.943   3.702  1.00 20.00     0.157 C 
HETATM    2  N4  UNL     1     -34.594   4.758   4.600  1.00 20.00    -0.267 NA
HETATM    3  S8  UNL     1     -32.858   5.169   2.484  1.00 20.00    -0.055 SA
ENDROOT
BRANCH   2   4
HETATM    4  C2  UNL     1     -35.093   5.969   5.250  1.00 20.00     0.267 C 
BRANCH   4   5
HETATM    5  C3  UNL     1     -34.132   6.382   6.337  1.00 20.00     0.405 C 
HETATM    6  F5  UNL     1     -34.755   7.161   7.248  1.00 20.00    -0.169 F 
HETATM    7  F6  UNL     1     -33.095   7.085   5.836  1.00 20.00    -0.169 F 
HETATM    8  F7  UNL     1     -33.636   5.307   6.988  1.00 20.00    -0.169 F 
ENDBRANCH   4   5
ENDBRANCH   2   4
TORSDOF 2
ENDMDL
MODEL 5
REMARK VINA RESULT:      -3.8      3.076      3.844
REMARK  2 active torsions:
REMARK  status: ('A' for Active; 'I' for Inactive)
REMARK    1  A    between atoms: C2_2  and  C3_3 
REMARK    2  A    between atoms: C2_2  and  N4_4 
ROOT
HETATM    1  C1  UNL     1     -33.799   6.696   5.921  1.00 20.00     0.157 C 
HETATM    2  N4  UNL     1     -33.193   7.667   5.653  1.00 20.00    -0.267 NA
HETATM    3  S8  UNL     1     -34.608   5.380   6.308  1.00 20.00    -0.055 SA
ENDROOT
BRANCH   2   4
HETATM    4  C2  UNL     1     -33.421   8.184   4.304  1.00 20.00     0.267 C 
BRANCH   4   5
HETATM    5  C3  UNL     1     -32.325   7.693   3.392  1.00 20.00     0.405 C 
HETATM    6  F5  UNL     1     -31.121   7.807   3.994  1.00 20.00    -0.169 F 
HETATM    7  F6  UNL     1     -32.280   8.407   2.247  1.00 20.00    -0.169 F 
HETATM    8  F7  UNL     1     -32.500   6.393   3.070  1.00 20.00    -0.169 F 
ENDBRANCH   4   5
ENDBRANCH   2   4
TORSDOF 2
ENDMDL
MODEL 6
REMARK VINA RESULT:      -3.6      8.617      9.051
REMARK  2 active torsions:
REMARK  status: ('A' for Active; 'I' for Inactive)
REMARK    1  A    between atoms: C2_2  and  C3_3 
REMARK    2  A    between atoms: C2_2  and  N4_4 
ROOT
HETATM    1  C1  UNL     1     -41.910  12.513   6.658  1.00 20.00     0.157 C 
HETATM    2  N4  UNL     1     -40.858  12.094   6.340  1.00 20.00    -0.267 NA
HETATM    3  S8  UNL     1     -43.335  13.063   7.107  1.00 20.00    -0.055 SA
ENDROOT
BRANCH   2   4
HETATM    4  C2  UNL     1     -40.255  12.753   5.183  1.00 20.00     0.267 C 
BRANCH   4   5
HETATM    5  C3  UNL     1     -39.240  11.829   4.558  1.00 20.00     0.405 C 
HETATM    6  F5  UNL     1     -39.598  10.540   4.742  1.00 20.00    -0.169 F 
HETATM    7  F6  UNL     1     -38.017  11.998   5.104  1.00 20.00    -0.169 F 
HETATM    8  F7  UNL     1     -39.138  12.040   3.227  1.00 20.00    -0.169 F 
ENDBRANCH   4   5
ENDBRANCH   2   4
TORSDOF 2
ENDMDL
MODEL 7
REMARK VINA RESULT:      -3.6      8.486      8.941
REMARK  2 active torsions:
REMARK  status: ('A' for Active; 'I' for Inactive)
REMARK    1  A    between atoms: C2_2  and  C3_3 
REMARK    2  A    between atoms: C2_2  and  N4_4 
ROOT
HETATM    1  C1  UNL     1     -40.424  13.769   7.274  1.00 20.00     0.157 C 
HETATM    2  N4  UNL     1     -40.336  12.732   6.727  1.00 20.00    -0.267 NA
HETATM    3  S8  UNL     1     -40.544  15.162   8.037  1.00 20.00    -0.055 SA
ENDROOT
BRANCH   2   4
HETATM    4  C2  UNL     1     -40.384  12.797   5.268  1.00 20.00     0.267 C 
BRANCH   4   5
HETATM    5  C3  UNL     1     -39.325  11.889   4.694  1.00 20.00     0.405 C 
HETATM    6  F5  UNL     1     -38.125  12.147   5.257  1.00 20.00    -0.169 F 
HETATM    7  F6  UNL     1     -39.199  12.059   3.361  1.00 20.00    -0.169 F 
HETATM    8  F7  UNL     1     -39.614  10.590   4.926  1.00 20.00    -0.169 F 
ENDBRANCH   4   5
ENDBRANCH   2   4
TORSDOF 2
ENDMDL
MODEL 8
REMARK VINA RESULT:      -3.6      8.539      9.019
REMARK  2 active torsions:
REMARK  status: ('A' for Active; 'I' for Inactive)
REMARK    1  A    between atoms: C2_2  and  C3_3 
REMARK    2  A    between atoms: C2_2  and  N4_4 
ROOT
HETATM    1  C1  UNL     1     -40.450  13.810   7.313  1.00 20.00     0.157 C 
HETATM    2  N4  UNL     1     -40.406  12.768   6.771  1.00 20.00    -0.267 NA
HETATM    3  S8  UNL     1     -40.511  15.210   8.070  1.00 20.00    -0.055 SA
ENDROOT
BRANCH   2   4
HETATM    4  C2  UNL     1     -40.438  12.829   5.311  1.00 20.00     0.267 C 
BRANCH   4   5
HETATM    5  C3  UNL     1     -39.363  11.932   4.752  1.00 20.00     0.405 C 
HETATM    6  F5  UNL     1     -39.276  12.075   3.411  1.00 20.00    -0.169 F 
HETATM    7  F6  UNL     1     -39.623  10.632   5.010  1.00 20.00    -0.169 F 
HETATM    8  F7  UNL     1     -38.153  12.230   5.274  1.00 20.00    -0.169 F 
ENDBRANCH   4   5
ENDBRANCH   2   4
TORSDOF 2
ENDMDL
MODEL 9
REMARK VINA RESULT:      -3.4     12.612     13.129
REMARK  2 active torsions:
REMARK  status: ('A' for Active; 'I' for Inactive)
REMARK    1  A    between atoms: C2_2  and  C3_3 
REMARK    2  A    between atoms: C2_2  and  N4_4 
ROOT
HETATM    1  C1  UNL     1     -32.987  17.401  -1.820  1.00 20.00     0.157 C 
HETATM    2  N4  UNL     1     -33.532  16.481  -2.308  1.00 20.00    -0.267 NA
HETATM    3  S8  UNL     1     -32.255  18.638  -1.136  1.00 20.00    -0.055 SA
ENDROOT
BRANCH   2   4
HETATM    4  C2  UNL     1     -33.585  16.497  -3.769  1.00 20.00     0.267 C 
BRANCH   4   5
HETATM    5  C3  UNL     1     -33.363  15.099  -4.290  1.00 20.00     0.405 C 
HETATM    6  F5  UNL     1     -33.628  15.040  -5.614  1.00 20.00    -0.169 F 
HETATM    7  F6  UNL     1     -34.168  14.209  -3.671  1.00 20.00    -0.169 F 
HETATM    8  F7  UNL     1     -32.084  14.704  -4.110  1.00 20.00    -0.169 F 
ENDBRANCH   4   5
ENDBRANCH   2   4
TORSDOF 2
ENDMDL
