MODEL 1
REMARK VINA RESULT:      -7.0      0.000      0.000
REMARK  0 active torsions:
REMARK  status: ('A' for Active; 'I' for Inactive)
ROOT
HETATM    1  C1  UNL     1     -32.965   6.315   3.132  1.00 20.00     0.061 A 
HETATM    2  C2  UNL     1     -33.204   8.428   5.000  1.00 20.00     0.053 A 
HETATM    3  C3  UNL     1     -33.575   6.145   4.361  1.00 20.00     0.019 A 
HETATM    4  C4  UNL     1     -33.702   7.169   5.293  1.00 20.00    -0.041 A 
HETATM    5  C5  UNL     1     -32.464   7.583   2.837  1.00 20.00     0.155 A 
HETATM    6  C6  UNL     1     -32.583   8.632   3.763  1.00 20.00     0.155 A 
HETATM    7  C7  UNL     1     -34.177   4.945   4.920  1.00 20.00     0.160 A 
HETATM    8  C8  UNL     1     -34.397   6.733   6.542  1.00 20.00     0.047 A 
HETATM    9  C9  UNL     1     -34.715   5.247   6.298  1.00 20.00     0.088 A 
HETATM   10  O10 UNL     1     -34.227   3.872   4.346  1.00 20.00    -0.292 OA
HETATM   11  F11 UNL     1     -31.863   7.803   1.660  1.00 20.00    -0.203 F 
HETATM   12  F12 UNL     1     -32.094   9.843   3.459  1.00 20.00    -0.203 F 
ENDROOT
TORSDOF 0
ENDMDL
MODEL 2
REMARK VINA RESULT:      -6.4      1.274      2.414
REMARK  0 active torsions:
REMARK  status: ('A' for Active; 'I' for Inactive)
ROOT
HETATM    1  C1  UNL     1     -33.206   8.228   4.787  1.00 20.00     0.061 A 
HETATM    2  C2  UNL     1     -32.925   6.202   2.829  1.00 20.00     0.053 A 
HETATM    3  C3  UNL     1     -33.676   6.943   4.985  1.00 20.00     0.019 A 
HETATM    4  C4  UNL     1     -33.549   5.935   4.037  1.00 20.00    -0.041 A 
HETATM    5  C5  UNL     1     -32.577   8.498   3.571  1.00 20.00     0.155 A 
HETATM    6  C6  UNL     1     -32.437   7.494   2.600  1.00 20.00     0.155 A 
HETATM    7  C7  UNL     1     -34.361   6.393   6.144  1.00 20.00     0.160 A 
HETATM    8  C8  UNL     1     -34.138   4.637   4.488  1.00 20.00     0.047 A 
HETATM    9  C9  UNL     1     -34.683   4.939   5.895  1.00 20.00     0.088 A 
HETATM   10  O10 UNL     1     -34.625   7.028   7.149  1.00 20.00    -0.292 OA
HETATM   11  F11 UNL     1     -32.103   9.727   3.327  1.00 20.00    -0.203 F 
HETATM   12  F12 UNL     1     -31.830   7.775   1.438  1.00 20.00    -0.203 F 
ENDROOT
TORSDOF 0
ENDMDL
MODEL 3
REMARK VINA RESULT:      -5.9      2.704      3.803
REMARK  0 active torsions:
REMARK  status: ('A' for Active; 'I' for Inactive)
ROOT
HETATM    1  C1  UNL     1     -34.166   5.243   4.727  1.00 20.00     0.061 A 
HETATM    2  C2  UNL     1     -33.549   7.874   5.571  1.00 20.00     0.053 A 
HETATM    3  C3  UNL     1     -33.424   6.111   3.947  1.00 20.00     0.019 A 
HETATM    4  C4  UNL     1     -33.111   7.406   4.343  1.00 20.00    -0.041 A 
HETATM    5  C5  UNL     1     -34.607   5.713   5.964  1.00 20.00     0.155 A 
HETATM    6  C6  UNL     1     -34.301   7.018   6.383  1.00 20.00     0.155 A 
HETATM    7  C7  UNL     1     -32.845   5.885   2.632  1.00 20.00     0.160 A 
HETATM    8  C8  UNL     1     -32.301   8.144   3.326  1.00 20.00     0.047 A 
HETATM    9  C9  UNL     1     -32.122   7.132   2.180  1.00 20.00     0.088 A 
HETATM   10  O10 UNL     1     -32.942   4.843   2.011  1.00 20.00    -0.292 OA
HETATM   11  F11 UNL     1     -35.330   4.913   6.759  1.00 20.00    -0.203 F 
HETATM   12  F12 UNL     1     -34.736   7.449   7.576  1.00 20.00    -0.203 F 
ENDROOT
TORSDOF 0
ENDMDL
MODEL 4
REMARK VINA RESULT:      -5.9      2.962      3.996
REMARK  0 active torsions:
REMARK  status: ('A' for Active; 'I' for Inactive)
ROOT
HETATM    1  C1  UNL     1     -33.641   5.779   3.726  1.00 20.00     0.061 A 
HETATM    2  C2  UNL     1     -33.988   7.060   6.227  1.00 20.00     0.053 A 
HETATM    3  C3  UNL     1     -33.147   7.045   3.980  1.00 20.00     0.019 A 
HETATM    4  C4  UNL     1     -33.307   7.692   5.200  1.00 20.00    -0.041 A 
HETATM    5  C5  UNL     1     -34.327   5.142   4.760  1.00 20.00     0.155 A 
HETATM    6  C6  UNL     1     -34.499   5.777   6.001  1.00 20.00     0.155 A 
HETATM    7  C7  UNL     1     -32.403   7.926   3.093  1.00 20.00     0.160 A 
HETATM    8  C8  UNL     1     -32.684   9.050   5.222  1.00 20.00     0.047 A 
HETATM    9  C9  UNL     1     -32.080   9.211   3.816  1.00 20.00     0.088 A 
HETATM   10  O10 UNL     1     -32.099   7.648   1.948  1.00 20.00    -0.292 OA
HETATM   11  F11 UNL     1     -34.827   3.914   4.569  1.00 20.00    -0.203 F 
HETATM   12  F12 UNL     1     -35.162   5.146   6.981  1.00 20.00    -0.203 F 
ENDROOT
TORSDOF 0
ENDMDL
MODEL 5
REMARK VINA RESULT:      -5.8      3.107      4.537
REMARK  0 active torsions:
REMARK  status: ('A' for Active; 'I' for Inactive)
ROOT
HETATM    1  C1  UNL     1     -33.642   7.739   5.603  1.00 20.00     0.061 A 
HETATM    2  C2  UNL     1     -34.158   5.124   4.650  1.00 20.00     0.053 A 
HETATM    3  C3  UNL     1     -33.207   7.309   4.363  1.00 20.00     0.019 A 
HETATM    4  C4  UNL     1     -33.449   6.030   3.877  1.00 20.00    -0.041 A 
HETATM    5  C5  UNL     1     -34.356   6.828   6.381  1.00 20.00     0.155 A 
HETATM    6  C6  UNL     1     -34.612   5.531   5.909  1.00 20.00     0.155 A 
HETATM    7  C7  UNL     1     -32.452   8.042   3.359  1.00 20.00     0.160 A 
HETATM    8  C8  UNL     1     -32.877   5.809   2.514  1.00 20.00     0.047 A 
HETATM    9  C9  UNL     1     -32.208   7.150   2.164  1.00 20.00     0.088 A 
HETATM   10  O10 UNL     1     -32.084   9.195   3.485  1.00 20.00    -0.292 OA
HETATM   11  F11 UNL     1     -34.800   7.193   7.592  1.00 20.00    -0.203 F 
HETATM   12  F12 UNL     1     -35.300   4.671   6.674  1.00 20.00    -0.203 F 
ENDROOT
TORSDOF 0
ENDMDL
MODEL 6
REMARK VINA RESULT:      -5.4      1.283      2.665
REMARK  0 active torsions:
REMARK  status: ('A' for Active; 'I' for Inactive)
ROOT
HETATM    1  C1  UNL     1     -34.128   7.299   5.434  1.00 20.00     0.061 A 
HETATM    2  C2  UNL     1     -32.293   7.731   3.322  1.00 20.00     0.053 A 
HETATM    3  C3  UNL     1     -33.818   6.314   4.515  1.00 20.00     0.019 A 
HETATM    4  C4  UNL     1     -32.921   6.505   3.470  1.00 20.00    -0.041 A 
HETATM    5  C5  UNL     1     -33.495   8.533   5.285  1.00 20.00     0.155 A 
HETATM    6  C6  UNL     1     -32.584   8.748   4.237  1.00 20.00     0.155 A 
HETATM    7  C7  UNL     1     -34.324   4.952   4.435  1.00 20.00     0.160 A 
HETATM    8  C8  UNL     1     -32.759   5.291   2.615  1.00 20.00     0.047 A 
HETATM    9  C9  UNL     1     -33.696   4.251   3.255  1.00 20.00     0.088 A 
HETATM   10  O10 UNL     1     -35.131   4.475   5.211  1.00 20.00    -0.292 OA
HETATM   11  F11 UNL     1     -33.758   9.523   6.147  1.00 20.00    -0.203 F 
HETATM   12  F12 UNL     1     -31.988   9.942   4.113  1.00 20.00    -0.203 F 
ENDROOT
TORSDOF 0
ENDMDL
MODEL 7
REMARK VINA RESULT:      -5.1      1.443      2.153
REMARK  0 active torsions:
REMARK  status: ('A' for Active; 'I' for Inactive)
ROOT
HETATM    1  C1  UNL     1     -32.590   7.572   3.605  1.00 20.00     0.061 A 
HETATM    2  C2  UNL     1     -34.174   7.478   5.950  1.00 20.00     0.053 A 
HETATM    3  C3  UNL     1     -33.253   6.425   4.000  1.00 20.00     0.019 A 
HETATM    4  C4  UNL     1     -34.035   6.358   5.147  1.00 20.00    -0.041 A 
HETATM    5  C5  UNL     1     -32.730   8.701   4.412  1.00 20.00     0.155 A 
HETATM    6  C6  UNL     1     -33.515   8.655   5.576  1.00 20.00     0.155 A 
HETATM    7  C7  UNL     1     -33.282   5.122   3.353  1.00 20.00     0.160 A 
HETATM    8  C8  UNL     1     -34.644   5.009   5.355  1.00 20.00     0.047 A 
HETATM    9  C9  UNL     1     -34.142   4.180   4.160  1.00 20.00     0.088 A 
HETATM   10  O10 UNL     1     -32.693   4.856   2.322  1.00 20.00    -0.292 OA
HETATM   11  F11 UNL     1     -32.108   9.839   4.077  1.00 20.00    -0.203 F 
HETATM   12  F12 UNL     1     -33.636   9.752   6.337  1.00 20.00    -0.203 F 
ENDROOT
TORSDOF 0
ENDMDL
MODEL 8
REMARK VINA RESULT:      -5.1      2.621      3.643
REMARK  0 active torsions:
REMARK  status: ('A' for Active; 'I' for Inactive)
ROOT
HETATM    1  C1  UNL     1     -32.692   6.576   3.123  1.00 20.00     0.061 A 
HETATM    2  C2  UNL     1     -34.238   5.237   5.080  1.00 20.00     0.053 A 
HETATM    3  C3  UNL     1     -33.128   7.206   4.274  1.00 20.00     0.019 A 
HETATM    4  C4  UNL     1     -33.888   6.567   5.247  1.00 20.00    -0.041 A 
HETATM    5  C5  UNL     1     -33.044   5.237   2.955  1.00 20.00     0.155 A 
HETATM    6  C6  UNL     1     -33.811   4.572   3.926  1.00 20.00     0.155 A 
HETATM    7  C7  UNL     1     -32.907   8.579   4.699  1.00 20.00     0.160 A 
HETATM    8  C8  UNL     1     -34.233   7.462   6.393  1.00 20.00     0.047 A 
HETATM    9  C9  UNL     1     -33.581   8.808   6.031  1.00 20.00     0.088 A 
HETATM   10  O10 UNL     1     -32.274   9.401   4.062  1.00 20.00    -0.292 OA
HETATM   11  F11 UNL     1     -32.649   4.579   1.858  1.00 20.00    -0.203 F 
HETATM   12  F12 UNL     1     -34.139   3.285   3.744  1.00 20.00    -0.203 F 
ENDROOT
TORSDOF 0
ENDMDL
MODEL 9
REMARK VINA RESULT:      -4.8      2.483      3.712
REMARK  0 active torsions:
REMARK  status: ('A' for Active; 'I' for Inactive)
ROOT
HETATM    1  C1  UNL     1     -34.055   5.422   4.870  1.00 20.00     0.061 A 
HETATM    2  C2  UNL     1     -32.506   6.483   2.751  1.00 20.00     0.053 A 
HETATM    3  C3  UNL     1     -33.585   6.722   4.882  1.00 20.00     0.019 A 
HETATM    4  C4  UNL     1     -32.823   7.262   3.853  1.00 20.00    -0.041 A 
HETATM    5  C5  UNL     1     -33.737   4.638   3.761  1.00 20.00     0.155 A 
HETATM    6  C6  UNL     1     -32.969   5.164   2.710  1.00 20.00     0.155 A 
HETATM    7  C7  UNL     1     -33.766   7.746   5.899  1.00 20.00     0.160 A 
HETATM    8  C8  UNL     1     -32.436   8.684   4.102  1.00 20.00     0.047 A 
HETATM    9  C9  UNL     1     -33.063   9.011   5.468  1.00 20.00     0.088 A 
HETATM   10  O10 UNL     1     -34.390   7.584   6.931  1.00 20.00    -0.292 OA
HETATM   11  F11 UNL     1     -34.167   3.370   3.699  1.00 20.00    -0.203 F 
HETATM   12  F12 UNL     1     -32.675   4.392   1.654  1.00 20.00    -0.203 F 
ENDROOT
TORSDOF 0
ENDMDL
