MODEL 1
REMARK VINA RESULT:      -5.0      0.000      0.000
REMARK  0 active torsions:
REMARK  status: ('A' for Active; 'I' for Inactive)
ROOT
HETATM    1  C1  UNL     1     -32.835   8.899   3.935  1.00 20.00     0.012 A 
HETATM    2  C2  UNL     1     -32.360   9.066   2.633  1.00 20.00     0.024 A 
HETATM    3  C3  UNL     1     -32.633   6.714   2.269  1.00 20.00     0.031 A 
HETATM    4  C4  UNL     1     -33.228   7.641   4.454  1.00 20.00    -0.021 A 
HETATM    5  C5  UNL     1     -33.125   6.536   3.581  1.00 20.00    -0.048 A 
HETATM    6  C6  UNL     1     -32.257   7.968   1.798  1.00 20.00     0.034 A 
HETATM    7  C7  UNL     1     -33.501   5.131   3.987  1.00 20.00     0.039 C 
HETATM    8  C8  UNL     1     -34.904   5.036   4.577  1.00 20.00     0.007 C 
HETATM    9  C9  UNL     1     -34.908   5.195   6.086  1.00 20.00     0.035 C 
HETATM   10  C10 UNL     1     -33.692   7.607   5.893  1.00 20.00     0.184 A 
HETATM   11  C11 UNL     1     -34.494   6.533   6.591  1.00 20.00     0.156 A 
HETATM   12  O12 UNL     1     -33.070   6.650   6.761  1.00 20.00    -0.370 OA
HETATM   13 CL13 UNL     1     -31.670   8.149   0.192  1.00 20.00    -0.084 Cl
ENDROOT
TORSDOF 0
ENDMDL
MODEL 2
REMARK VINA RESULT:      -4.7     12.012     13.433
REMARK  0 active torsions:
REMARK  status: ('A' for Active; 'I' for Inactive)
ROOT
HETATM    1  C1  UNL     1     -33.605  19.027  -3.884  1.00 20.00     0.012 A 
HETATM    2  C2  UNL     1     -32.915  19.263  -2.694  1.00 20.00     0.024 A 
HETATM    3  C3  UNL     1     -32.952  16.910  -2.246  1.00 20.00     0.031 A 
HETATM    4  C4  UNL     1     -33.992  17.730  -4.303  1.00 20.00    -0.021 A 
HETATM    5  C5  UNL     1     -33.640  16.659  -3.453  1.00 20.00    -0.048 A 
HETATM    6  C6  UNL     1     -32.590  18.199  -1.870  1.00 20.00     0.034 A 
HETATM    7  C7  UNL     1     -33.986  15.221  -3.759  1.00 20.00     0.039 C 
HETATM    8  C8  UNL     1     -33.538  14.782  -5.149  1.00 20.00     0.007 C 
HETATM    9  C9  UNL     1     -34.617  14.992  -6.196  1.00 20.00     0.035 C 
HETATM   10  C10 UNL     1     -34.763  17.629  -5.600  1.00 20.00     0.184 A 
HETATM   11  C11 UNL     1     -34.983  16.410  -6.466  1.00 20.00     0.156 A 
HETATM   12  O12 UNL     1     -36.000  16.904  -5.575  1.00 20.00    -0.370 OA
HETATM   13 CL13 UNL     1     -31.745  18.467  -0.398  1.00 20.00    -0.084 Cl
ENDROOT
TORSDOF 0
ENDMDL
MODEL 3
REMARK VINA RESULT:      -4.6     12.162     13.891
REMARK  0 active torsions:
REMARK  status: ('A' for Active; 'I' for Inactive)
ROOT
HETATM    1  C1  UNL     1     -33.643  15.759  -3.400  1.00 20.00     0.012 A 
HETATM    2  C2  UNL     1     -33.121  16.723  -2.537  1.00 20.00     0.024 A 
HETATM    3  C3  UNL     1     -33.734  18.419  -4.114  1.00 20.00     0.031 A 
HETATM    4  C4  UNL     1     -34.232  16.083  -4.647  1.00 20.00    -0.021 A 
HETATM    5  C5  UNL     1     -34.276  17.452  -4.990  1.00 20.00    -0.048 A 
HETATM    6  C6  UNL     1     -33.165  18.059  -2.897  1.00 20.00     0.034 A 
HETATM    7  C7  UNL     1     -34.866  17.956  -6.285  1.00 20.00     0.039 C 
HETATM    8  C8  UNL     1     -36.280  17.443  -6.536  1.00 20.00     0.007 C 
HETATM    9  C9  UNL     1     -36.293  16.152  -7.333  1.00 20.00     0.035 C 
HETATM   10  C10 UNL     1     -34.727  14.931  -5.493  1.00 20.00     0.184 A 
HETATM   11  C11 UNL     1     -35.695  14.970  -6.652  1.00 20.00     0.156 A 
HETATM   12  O12 UNL     1     -34.273  14.871  -6.852  1.00 20.00    -0.370 OA
HETATM   13 CL13 UNL     1     -32.523  19.263  -1.851  1.00 20.00    -0.084 Cl
ENDROOT
TORSDOF 0
ENDMDL
MODEL 4
REMARK VINA RESULT:      -4.4     11.799     13.305
REMARK  0 active torsions:
REMARK  status: ('A' for Active; 'I' for Inactive)
ROOT
HETATM    1  C1  UNL     1     -33.975  15.030  -3.989  1.00 20.00     0.012 A 
HETATM    2  C2  UNL     1     -34.515  14.648  -5.218  1.00 20.00     0.024 A 
HETATM    3  C3  UNL     1     -34.751  16.962  -5.794  1.00 20.00     0.031 A 
HETATM    4  C4  UNL     1     -33.799  16.385  -3.615  1.00 20.00    -0.021 A 
HETATM    5  C5  UNL     1     -34.195  17.359  -4.557  1.00 20.00    -0.048 A 
HETATM    6  C6  UNL     1     -34.907  15.619  -6.123  1.00 20.00     0.034 A 
HETATM    7  C7  UNL     1     -34.076  18.842  -4.305  1.00 20.00     0.039 C 
HETATM    8  C8  UNL     1     -32.675  19.263  -3.871  1.00 20.00     0.007 C 
HETATM    9  C9  UNL     1     -32.511  19.256  -2.363  1.00 20.00     0.035 C 
HETATM   10  C10 UNL     1     -33.232  16.649  -2.238  1.00 20.00     0.184 A 
HETATM   11  C11 UNL     1     -32.605  17.920  -1.712  1.00 20.00     0.156 A 
HETATM   12  O12 UNL     1     -33.957  17.549  -1.389  1.00 20.00    -0.370 OA
HETATM   13 CL13 UNL     1     -35.579  15.172  -7.640  1.00 20.00    -0.084 Cl
ENDROOT
TORSDOF 0
ENDMDL
MODEL 5
REMARK VINA RESULT:      -3.9     10.931     11.808
REMARK  0 active torsions:
REMARK  status: ('A' for Active; 'I' for Inactive)
ROOT
HETATM    1  C1  UNL     1     -42.092  14.567   5.551  1.00 20.00     0.012 A 
HETATM    2  C2  UNL     1     -41.409  13.573   4.848  1.00 20.00     0.024 A 
HETATM    3  C3  UNL     1     -40.028  13.210   6.772  1.00 20.00     0.031 A 
HETATM    4  C4  UNL     1     -41.775  14.919   6.886  1.00 20.00    -0.021 A 
HETATM    5  C5  UNL     1     -40.720  14.206   7.495  1.00 20.00    -0.048 A 
HETATM    6  C6  UNL     1     -40.370  12.894   5.461  1.00 20.00     0.034 A 
HETATM    7  C7  UNL     1     -40.262  14.468   8.910  1.00 20.00     0.039 C 
HETATM    8  C8  UNL     1     -41.400  14.427   9.924  1.00 20.00     0.007 C 
HETATM    9  C9  UNL     1     -42.023  15.792  10.149  1.00 20.00     0.035 C 
HETATM   10  C10 UNL     1     -42.580  16.037   7.510  1.00 20.00     0.184 A 
HETATM   11  C11 UNL     1     -42.728  16.378   8.974  1.00 20.00     0.156 A 
HETATM   12  O12 UNL     1     -41.850  17.117   8.107  1.00 20.00    -0.370 OA
HETATM   13 CL13 UNL     1     -39.512  11.670   4.613  1.00 20.00    -0.084 Cl
ENDROOT
TORSDOF 0
ENDMDL
MODEL 6
REMARK VINA RESULT:      -3.8     10.341     11.168
REMARK  0 active torsions:
REMARK  status: ('A' for Active; 'I' for Inactive)
ROOT
HETATM    1  C1  UNL     1     -39.843  12.823   7.259  1.00 20.00     0.012 A 
HETATM    2  C2  UNL     1     -39.234  12.168   6.187  1.00 20.00     0.024 A 
HETATM    3  C3  UNL     1     -40.818  13.189   4.708  1.00 20.00     0.031 A 
HETATM    4  C4  UNL     1     -40.956  13.685   7.100  1.00 20.00    -0.021 A 
HETATM    5  C5  UNL     1     -41.435  13.865   5.784  1.00 20.00    -0.048 A 
HETATM    6  C6  UNL     1     -39.726  12.351   4.906  1.00 20.00     0.034 A 
HETATM    7  C7  UNL     1     -42.615  14.747   5.453  1.00 20.00     0.039 C 
HETATM    8  C8  UNL     1     -42.483  16.157   6.019  1.00 20.00     0.007 C 
HETATM    9  C9  UNL     1     -43.104  16.286   7.397  1.00 20.00     0.035 C 
HETATM   10  C10 UNL     1     -41.533  14.300   8.356  1.00 20.00     0.184 A 
HETATM   11  C11 UNL     1     -42.443  15.500   8.476  1.00 20.00     0.156 A 
HETATM   12  O12 UNL     1     -42.942  14.153   8.572  1.00 20.00    -0.370 OA
HETATM   13 CL13 UNL     1     -38.995  11.550   3.572  1.00 20.00    -0.084 Cl
ENDROOT
TORSDOF 0
ENDMDL
MODEL 7
REMARK VINA RESULT:      -3.8      1.219      2.434
REMARK  0 active torsions:
REMARK  status: ('A' for Active; 'I' for Inactive)
ROOT
HETATM    1  C1  UNL     1     -32.968   5.355   2.517  1.00 20.00     0.012 A 
HETATM    2  C2  UNL     1     -32.334   6.173   1.580  1.00 20.00     0.024 A 
HETATM    3  C3  UNL     1     -32.794   8.067   2.973  1.00 20.00     0.031 A 
HETATM    4  C4  UNL     1     -33.534   5.856   3.715  1.00 20.00    -0.021 A 
HETATM    5  C5  UNL     1     -33.427   7.247   3.933  1.00 20.00    -0.048 A 
HETATM    6  C6  UNL     1     -32.250   7.535   1.808  1.00 20.00     0.034 A 
HETATM    7  C7  UNL     1     -33.984   7.931   5.158  1.00 20.00     0.039 C 
HETATM    8  C8  UNL     1     -33.518   7.293   6.462  1.00 20.00     0.007 C 
HETATM    9  C9  UNL     1     -34.470   6.216   6.950  1.00 20.00     0.035 C 
HETATM   10  C10 UNL     1     -34.217   4.857   4.622  1.00 20.00     0.184 A 
HETATM   11  C11 UNL     1     -34.575   5.010   6.082  1.00 20.00     0.156 A 
HETATM   12  O12 UNL     1     -35.556   5.156   5.039  1.00 20.00    -0.370 OA
HETATM   13 CL13 UNL     1     -31.478   8.562   0.665  1.00 20.00    -0.084 Cl
ENDROOT
TORSDOF 0
ENDMDL
MODEL 8
REMARK VINA RESULT:      -3.6     12.361     13.904
REMARK  0 active torsions:
REMARK  status: ('A' for Active; 'I' for Inactive)
ROOT
HETATM    1  C1  UNL     1     -36.780  18.242  -4.453  1.00 20.00     0.012 A 
HETATM    2  C2  UNL     1     -37.866  18.141  -5.324  1.00 20.00     0.024 A 
HETATM    3  C3  UNL     1     -36.728  16.383  -6.486  1.00 20.00     0.031 A 
HETATM    4  C4  UNL     1     -35.631  17.420  -4.561  1.00 20.00    -0.021 A 
HETATM    5  C5  UNL     1     -35.629  16.469  -5.604  1.00 20.00    -0.048 A 
HETATM    6  C6  UNL     1     -37.838  17.209  -6.346  1.00 20.00     0.034 A 
HETATM    7  C7  UNL     1     -34.476  15.525  -5.851  1.00 20.00     0.039 C 
HETATM    8  C8  UNL     1     -34.066  14.744  -4.607  1.00 20.00     0.007 C 
HETATM    9  C9  UNL     1     -32.980  15.448  -3.815  1.00 20.00     0.035 C 
HETATM   10  C10 UNL     1     -34.517  17.663  -3.567  1.00 20.00     0.184 A 
HETATM   11  C11 UNL     1     -33.373  16.747  -3.201  1.00 20.00     0.156 A 
HETATM   12  O12 UNL     1     -33.199  17.862  -4.094  1.00 20.00    -0.370 OA
HETATM   13 CL13 UNL     1     -39.163  17.071  -7.433  1.00 20.00    -0.084 Cl
ENDROOT
TORSDOF 0
ENDMDL
MODEL 9
REMARK VINA RESULT:      -3.5     12.291     14.097
REMARK  0 active torsions:
REMARK  status: ('A' for Active; 'I' for Inactive)
ROOT
HETATM    1  C1  UNL     1     -35.822  15.635  -7.279  1.00 20.00     0.012 A 
HETATM    2  C2  UNL     1     -36.738  16.502  -7.875  1.00 20.00     0.024 A 
HETATM    3  C3  UNL     1     -36.595  17.921  -5.950  1.00 20.00     0.031 A 
HETATM    4  C4  UNL     1     -35.255  15.874  -6.003  1.00 20.00    -0.021 A 
HETATM    5  C5  UNL     1     -35.658  17.055  -5.343  1.00 20.00    -0.048 A 
HETATM    6  C6  UNL     1     -37.128  17.650  -7.205  1.00 20.00     0.034 A 
HETATM    7  C7  UNL     1     -35.148  17.447  -3.977  1.00 20.00     0.039 C 
HETATM    8  C8  UNL     1     -33.625  17.447  -3.886  1.00 20.00     0.007 C 
HETATM    9  C9  UNL     1     -33.075  16.111  -3.422  1.00 20.00     0.035 C 
HETATM   10  C10 UNL     1     -34.300  14.830  -5.469  1.00 20.00     0.184 A 
HETATM   11  C11 UNL     1     -33.290  14.969  -4.355  1.00 20.00     0.156 A 
HETATM   12  O12 UNL     1     -34.556  14.316  -4.155  1.00 20.00    -0.370 OA
HETATM   13 CL13 UNL     1     -38.259  18.730  -7.918  1.00 20.00    -0.084 Cl
ENDROOT
TORSDOF 0
ENDMDL
