MODEL 1
REMARK VINA RESULT:      -4.8      0.000      0.000
REMARK  1 active torsions:
REMARK  status: ('A' for Active; 'I' for Inactive)
REMARK    1  A    between atoms: C3_3  and  C8_8 
ROOT
HETATM    1  C1  UNL     1     -32.467   6.708   2.556  1.00 20.00     0.058 A 
HETATM    2  C2  UNL     1     -33.551   6.983   4.562  1.00 20.00    -0.037 A 
HETATM    3  C3  UNL     1     -32.778   7.608   3.564  1.00 20.00    -0.031 A 
HETATM    4  C4  UNL     1     -33.792   5.665   4.285  1.00 20.00    -0.011 A 
HETATM    5  C5  UNL     1     -34.178   7.386   5.844  1.00 20.00     0.040 C 
HETATM    6  C6  UNL     1     -34.603   4.972   5.312  1.00 20.00     0.047 C 
HETATM    7  C7  UNL     1     -34.548   6.007   6.478  1.00 20.00     0.010 C 
HETATM    8  S9  UNL     1     -33.121   5.132   2.850  1.00 20.00    -0.105 SA
ENDROOT
BRANCH   3   9
HETATM    9  C8  UNL     1     -32.355   9.026   3.580  1.00 20.00     0.154 C 
HETATM   10 CL10 UNL     1     -32.874   9.865   2.095  1.00 20.00    -0.126 Cl
ENDBRANCH   3   9
TORSDOF 1
ENDMDL
MODEL 2
REMARK VINA RESULT:      -4.8      1.615      2.279
REMARK  1 active torsions:
REMARK  status: ('A' for Active; 'I' for Inactive)
REMARK    1  A    between atoms: C3_3  and  C8_8 
ROOT
HETATM    1  C1  UNL     1     -32.449   8.787   4.149  1.00 20.00     0.058 A 
HETATM    2  C2  UNL     1     -33.350   6.677   4.037  1.00 20.00    -0.037 A 
HETATM    3  C3  UNL     1     -32.602   7.659   3.357  1.00 20.00    -0.031 A 
HETATM    4  C4  UNL     1     -33.728   7.084   5.287  1.00 20.00    -0.011 A 
HETATM    5  C5  UNL     1     -33.835   5.305   3.748  1.00 20.00     0.040 C 
HETATM    6  C6  UNL     1     -34.516   6.078   6.035  1.00 20.00     0.047 C 
HETATM    7  C7  UNL     1     -34.870   5.074   4.895  1.00 20.00     0.010 C 
HETATM    8  S9  UNL     1     -33.215   8.622   5.692  1.00 20.00    -0.105 SA
ENDROOT
BRANCH   3   9
HETATM    9  C8  UNL     1     -32.053   7.514   1.991  1.00 20.00     0.154 C 
HETATM   10 CL10 UNL     1     -32.495   8.909   0.972  1.00 20.00    -0.126 Cl
ENDBRANCH   3   9
TORSDOF 1
ENDMDL
MODEL 3
REMARK VINA RESULT:      -4.1      2.670      3.879
REMARK  1 active torsions:
REMARK  status: ('A' for Active; 'I' for Inactive)
REMARK    1  A    between atoms: C3_3  and  C8_8 
ROOT
HETATM    1  C1  UNL     1     -33.062   8.544   5.538  1.00 20.00     0.058 A 
HETATM    2  C2  UNL     1     -33.458   6.637   4.320  1.00 20.00    -0.037 A 
HETATM    3  C3  UNL     1     -33.706   7.316   5.529  1.00 20.00    -0.031 A 
HETATM    4  C4  UNL     1     -32.655   7.355   3.476  1.00 20.00    -0.011 A 
HETATM    5  C5  UNL     1     -33.845   5.338   3.717  1.00 20.00     0.040 C 
HETATM    6  C6  UNL     1     -32.370   6.675   2.192  1.00 20.00     0.047 C 
HETATM    7  C7  UNL     1     -32.862   5.229   2.509  1.00 20.00     0.010 C 
HETATM    8  S9  UNL     1     -32.177   8.838   4.081  1.00 20.00    -0.105 SA
ENDROOT
BRANCH   3   9
HETATM    9  C8  UNL     1     -34.538   6.799   6.638  1.00 20.00     0.154 C 
HETATM   10 CL10 UNL     1     -34.525   5.016   6.670  1.00 20.00    -0.126 Cl
ENDBRANCH   3   9
TORSDOF 1
ENDMDL
MODEL 4
REMARK VINA RESULT:      -4.1      2.325      2.854
REMARK  1 active torsions:
REMARK  status: ('A' for Active; 'I' for Inactive)
REMARK    1  A    between atoms: C3_3  and  C8_8 
ROOT
HETATM    1  C1  UNL     1     -32.298   7.978   3.389  1.00 20.00     0.058 A 
HETATM    2  C2  UNL     1     -33.597   6.388   4.419  1.00 20.00    -0.037 A 
HETATM    3  C3  UNL     1     -32.919   6.748   3.237  1.00 20.00    -0.031 A 
HETATM    4  C4  UNL     1     -33.470   7.332   5.400  1.00 20.00    -0.011 A 
HETATM    5  C5  UNL     1     -34.416   5.241   4.881  1.00 20.00     0.040 C 
HETATM    6  C6  UNL     1     -34.168   6.991   6.660  1.00 20.00     0.047 C 
HETATM    7  C7  UNL     1     -35.060   5.801   6.188  1.00 20.00     0.010 C 
HETATM    8  S9  UNL     1     -32.554   8.660   4.959  1.00 20.00    -0.105 SA
ENDROOT
BRANCH   3   9
HETATM    9  C8  UNL     1     -32.871   5.932   2.004  1.00 20.00     0.154 C 
HETATM   10 CL10 UNL     1     -32.620   4.209   2.385  1.00 20.00    -0.126 Cl
ENDBRANCH   3   9
TORSDOF 1
ENDMDL
MODEL 5
REMARK VINA RESULT:      -4.0      1.571      2.636
REMARK  1 active torsions:
REMARK  status: ('A' for Active; 'I' for Inactive)
REMARK    1  A    between atoms: C3_3  and  C8_8 
ROOT
HETATM    1  C1  UNL     1     -33.975   7.456   6.188  1.00 20.00     0.058 A 
HETATM    2  C2  UNL     1     -33.189   6.568   4.220  1.00 20.00    -0.037 A 
HETATM    3  C3  UNL     1     -33.200   7.697   5.064  1.00 20.00    -0.031 A 
HETATM    4  C4  UNL     1     -33.937   5.538   4.721  1.00 20.00    -0.011 A 
HETATM    5  C5  UNL     1     -32.571   6.202   2.923  1.00 20.00     0.040 C 
HETATM    6  C6  UNL     1     -33.950   4.331   3.863  1.00 20.00     0.047 C 
HETATM    7  C7  UNL     1     -33.348   4.902   2.542  1.00 20.00     0.010 C 
HETATM    8  S9  UNL     1     -34.666   5.869   6.189  1.00 20.00    -0.105 SA
ENDROOT
BRANCH   3   9
HETATM    9  C8  UNL     1     -32.486   8.964   4.795  1.00 20.00     0.154 C 
HETATM   10 CL10 UNL     1     -32.698   9.472   3.100  1.00 20.00    -0.126 Cl
ENDBRANCH   3   9
TORSDOF 1
ENDMDL
MODEL 6
REMARK VINA RESULT:      -4.0     12.303     12.724
REMARK  1 active torsions:
REMARK  status: ('A' for Active; 'I' for Inactive)
REMARK    1  A    between atoms: C3_3  and  C8_8 
ROOT
HETATM    1  C1  UNL     1     -34.629  18.768  -0.849  1.00 20.00     0.058 A 
HETATM    2  C2  UNL     1     -32.419  18.558  -0.257  1.00 20.00    -0.037 A 
HETATM    3  C3  UNL     1     -33.363  18.421  -1.295  1.00 20.00    -0.031 A 
HETATM    4  C4  UNL     1     -32.988  18.992   0.908  1.00 20.00    -0.011 A 
HETATM    5  C5  UNL     1     -30.959  18.355  -0.100  1.00 20.00     0.040 C 
HETATM    6  C6  UNL     1     -32.028  19.149   2.025  1.00 20.00     0.047 C 
HETATM    7  C7  UNL     1     -30.785  18.401   1.452  1.00 20.00     0.010 C 
HETATM    8  S9  UNL     1     -34.637  19.250   0.813  1.00 20.00    -0.105 SA
ENDROOT
BRANCH   3   9
HETATM    9  C8  UNL     1     -33.053  17.973  -2.671  1.00 20.00     0.154 C 
HETATM   10 CL10 UNL     1     -33.372  16.230  -2.862  1.00 20.00    -0.126 Cl
ENDBRANCH   3   9
TORSDOF 1
ENDMDL
MODEL 7
REMARK VINA RESULT:      -3.9      2.063      3.524
REMARK  1 active torsions:
REMARK  status: ('A' for Active; 'I' for Inactive)
REMARK    1  A    between atoms: C3_3  and  C8_8 
ROOT
HETATM    1  C1  UNL     1     -33.952   4.608   3.906  1.00 20.00     0.058 A 
HETATM    2  C2  UNL     1     -33.403   6.800   4.321  1.00 20.00    -0.037 A 
HETATM    3  C3  UNL     1     -34.095   5.666   4.791  1.00 20.00    -0.031 A 
HETATM    4  C4  UNL     1     -32.775   6.568   3.128  1.00 20.00    -0.011 A 
HETATM    5  C5  UNL     1     -33.174   8.188   4.788  1.00 20.00     0.040 C 
HETATM    6  C6  UNL     1     -32.035   7.737   2.600  1.00 20.00     0.047 C 
HETATM    7  C7  UNL     1     -32.592   8.874   3.511  1.00 20.00     0.010 C 
HETATM    8  S9  UNL     1     -32.981   5.019   2.533  1.00 20.00    -0.105 SA
ENDROOT
BRANCH   3   9
HETATM    9  C8  UNL     1     -34.868   5.604   6.051  1.00 20.00     0.154 C 
HETATM   10 CL10 UNL     1     -34.489   6.993   7.103  1.00 20.00    -0.126 Cl
ENDBRANCH   3   9
TORSDOF 1
ENDMDL
MODEL 8
REMARK VINA RESULT:      -3.8      2.419      3.502
REMARK  1 active torsions:
REMARK  status: ('A' for Active; 'I' for Inactive)
REMARK    1  A    between atoms: C3_3  and  C8_8 
ROOT
HETATM    1  C1  UNL     1     -33.004   5.654   2.779  1.00 20.00     0.058 A 
HETATM    2  C2  UNL     1     -33.401   6.942   4.639  1.00 20.00    -0.037 A 
HETATM    3  C3  UNL     1     -33.646   5.707   4.006  1.00 20.00    -0.031 A 
HETATM    4  C4  UNL     1     -32.602   7.760   3.889  1.00 20.00    -0.011 A 
HETATM    5  C5  UNL     1     -33.784   7.588   5.918  1.00 20.00     0.040 C 
HETATM    6  C6  UNL     1     -32.319   9.070   4.521  1.00 20.00     0.047 C 
HETATM    7  C7  UNL     1     -33.373   9.075   5.672  1.00 20.00     0.010 C 
HETATM    8  S9  UNL     1     -32.121   7.102   2.430  1.00 20.00    -0.105 SA
ENDROOT
BRANCH   3   9
HETATM    9  C8  UNL     1     -34.472   4.614   4.566  1.00 20.00     0.154 C 
HETATM   10 CL10 UNL     1     -34.756   4.857   6.309  1.00 20.00    -0.126 Cl
ENDBRANCH   3   9
TORSDOF 1
ENDMDL
MODEL 9
REMARK VINA RESULT:      -3.6     12.294     13.559
REMARK  1 active torsions:
REMARK  status: ('A' for Active; 'I' for Inactive)
REMARK    1  A    between atoms: C3_3  and  C8_8 
ROOT
HETATM    1  C1  UNL     1     -34.798  17.668  -6.192  1.00 20.00     0.058 A 
HETATM    2  C2  UNL     1     -33.970  16.748  -4.257  1.00 20.00    -0.037 A 
HETATM    3  C3  UNL     1     -34.492  16.484  -5.539  1.00 20.00    -0.031 A 
HETATM    4  C4  UNL     1     -33.901  18.088  -3.990  1.00 20.00    -0.011 A 
HETATM    5  C5  UNL     1     -33.470  15.946  -3.114  1.00 20.00     0.040 C 
HETATM    6  C6  UNL     1     -33.357  18.408  -2.650  1.00 20.00     0.047 C 
HETATM    7  C7  UNL     1     -33.410  17.006  -1.968  1.00 20.00     0.010 C 
HETATM    8  S9  UNL     1     -34.444  19.064  -5.233  1.00 20.00    -0.105 SA
ENDROOT
BRANCH   3   9
HETATM    9  C8  UNL     1     -34.686  15.135  -6.115  1.00 20.00     0.154 C 
HETATM   10 CL10 UNL     1     -36.041  14.290  -5.322  1.00 20.00    -0.126 Cl
ENDBRANCH   3   9
TORSDOF 1
ENDMDL
