MODEL 1
REMARK VINA RESULT:      -5.8      0.000      0.000
REMARK  0 active torsions:
REMARK  status: ('A' for Active; 'I' for Inactive)
ROOT
HETATM    1  C1  UNL     1     -32.868   8.450   5.026  1.00 20.00     0.009 A 
HETATM    2  C2  UNL     1     -32.327   8.674   3.759  1.00 20.00     0.024 A 
HETATM    3  C3  UNL     1     -33.197   6.545   2.962  1.00 20.00     0.034 A 
HETATM    4  C4  UNL     1     -33.568   7.274   5.241  1.00 20.00    -0.047 A 
HETATM    5  C5  UNL     1     -33.738   6.316   4.219  1.00 20.00    -0.019 A 
HETATM    6  C6  UNL     1     -32.490   7.729   2.736  1.00 20.00     0.034 A 
HETATM    7  C7  UNL     1     -34.227   6.827   6.528  1.00 20.00     0.074 A 
HETATM    8  C8  UNL     1     -34.522   5.150   4.719  1.00 20.00     0.185 A 
HETATM    9  C9  UNL     1     -34.876   5.509   6.152  1.00 20.00     0.160 A 
HETATM   10  O10 UNL     1     -33.999   4.425   5.844  1.00 20.00    -0.370 OA
HETATM   11 CL11 UNL     1     -31.811   8.033   1.181  1.00 20.00    -0.084 Cl
ENDROOT
TORSDOF 0
ENDMDL
MODEL 2
REMARK VINA RESULT:      -4.4     12.054     13.056
REMARK  0 active torsions:
REMARK  status: ('A' for Active; 'I' for Inactive)
ROOT
HETATM    1  C1  UNL     1     -35.125  18.150  -3.807  1.00 20.00     0.009 A 
HETATM    2  C2  UNL     1     -34.782  18.630  -2.543  1.00 20.00     0.024 A 
HETATM    3  C3  UNL     1     -33.310  16.727  -2.171  1.00 20.00     0.034 A 
HETATM    4  C4  UNL     1     -34.553  16.963  -4.235  1.00 20.00    -0.047 A 
HETATM    5  C5  UNL     1     -33.646  16.245  -3.427  1.00 20.00    -0.019 A 
HETATM    6  C6  UNL     1     -33.881  17.925  -1.731  1.00 20.00     0.034 A 
HETATM    7  C7  UNL     1     -34.786  16.262  -5.556  1.00 20.00     0.074 A 
HETATM    8  C8  UNL     1     -33.189  15.009  -4.125  1.00 20.00     0.185 A 
HETATM    9  C9  UNL     1     -33.863  15.061  -5.485  1.00 20.00     0.160 A 
HETATM   10  O10 UNL     1     -34.188  14.056  -4.523  1.00 20.00    -0.370 OA
HETATM   11 CL11 UNL     1     -33.476  18.542  -0.174  1.00 20.00    -0.084 Cl
ENDROOT
TORSDOF 0
ENDMDL
MODEL 3
REMARK VINA RESULT:      -4.1     12.405     13.452
REMARK  0 active torsions:
REMARK  status: ('A' for Active; 'I' for Inactive)
ROOT
HETATM    1  C1  UNL     1     -33.373  15.229  -3.860  1.00 20.00     0.009 A 
HETATM    2  C2  UNL     1     -33.765  14.944  -5.168  1.00 20.00     0.024 A 
HETATM    3  C3  UNL     1     -34.774  17.147  -5.394  1.00 20.00     0.034 A 
HETATM    4  C4  UNL     1     -33.687  16.474  -3.338  1.00 20.00    -0.047 A 
HETATM    5  C5  UNL     1     -34.386  17.438  -4.095  1.00 20.00    -0.019 A 
HETATM    6  C6  UNL     1     -34.459  15.895  -5.929  1.00 20.00     0.034 A 
HETATM    7  C7  UNL     1     -33.367  16.988  -1.952  1.00 20.00     0.074 A 
HETATM    8  C8  UNL     1     -34.595  18.679  -3.295  1.00 20.00     0.185 A 
HETATM    9  C9  UNL     1     -33.898  18.409  -1.972  1.00 20.00     0.160 A 
HETATM   10  O10 UNL     1     -35.316  18.564  -2.057  1.00 20.00    -0.370 OA
HETATM   11 CL11 UNL     1     -34.931  15.515  -7.543  1.00 20.00    -0.084 Cl
ENDROOT
TORSDOF 0
ENDMDL
MODEL 4
REMARK VINA RESULT:      -4.1     12.648     12.836
REMARK  0 active torsions:
REMARK  status: ('A' for Active; 'I' for Inactive)
ROOT
HETATM    1  C1  UNL     1     -33.087  19.263   2.126  1.00 20.00     0.009 A 
HETATM    2  C2  UNL     1     -31.857  19.250   2.785  1.00 20.00     0.024 A 
HETATM    3  C3  UNL     1     -30.729  18.501   0.762  1.00 20.00     0.034 A 
HETATM    4  C4  UNL     1     -33.118  18.895   0.790  1.00 20.00    -0.047 A 
HETATM    5  C5  UNL     1     -31.948  18.513   0.100  1.00 20.00    -0.019 A 
HETATM    6  C6  UNL     1     -30.688  18.873   2.109  1.00 20.00     0.034 A 
HETATM    7  C7  UNL     1     -34.333  18.832  -0.109  1.00 20.00     0.074 A 
HETATM    8  C8  UNL     1     -32.266  18.164  -1.314  1.00 20.00     0.185 A 
HETATM    9  C9  UNL     1     -33.756  18.426  -1.452  1.00 20.00     0.160 A 
HETATM   10  O10 UNL     1     -33.213  17.108  -1.547  1.00 20.00    -0.370 OA
HETATM   11 CL11 UNL     1     -29.183  18.867   2.949  1.00 20.00    -0.084 Cl
ENDROOT
TORSDOF 0
ENDMDL
MODEL 5
REMARK VINA RESULT:      -4.0      1.211      2.221
REMARK  0 active torsions:
REMARK  status: ('A' for Active; 'I' for Inactive)
ROOT
HETATM    1  C1  UNL     1     -33.485   5.098   2.928  1.00 20.00     0.009 A 
HETATM    2  C2  UNL     1     -32.897   5.965   2.005  1.00 20.00     0.024 A 
HETATM    3  C3  UNL     1     -32.666   7.691   3.706  1.00 20.00     0.034 A 
HETATM    4  C4  UNL     1     -33.653   5.543   4.230  1.00 20.00    -0.047 A 
HETATM    5  C5  UNL     1     -33.249   6.835   4.628  1.00 20.00    -0.019 A 
HETATM    6  C6  UNL     1     -32.491   7.251   2.391  1.00 20.00     0.034 A 
HETATM    7  C7  UNL     1     -34.268   4.779   5.382  1.00 20.00     0.074 A 
HETATM    8  C8  UNL     1     -33.549   7.054   6.072  1.00 20.00     0.185 A 
HETATM    9  C9  UNL     1     -34.132   5.736   6.551  1.00 20.00     0.160 A 
HETATM   10  O10 UNL     1     -34.916   6.929   6.498  1.00 20.00    -0.370 OA
HETATM   11 CL11 UNL     1     -31.768   8.299   1.229  1.00 20.00    -0.084 Cl
ENDROOT
TORSDOF 0
ENDMDL
MODEL 6
REMARK VINA RESULT:      -4.0     12.678     13.862
REMARK  0 active torsions:
REMARK  status: ('A' for Active; 'I' for Inactive)
ROOT
HETATM    1  C1  UNL     1     -33.303  15.891  -3.230  1.00 20.00     0.009 A 
HETATM    2  C2  UNL     1     -33.468  16.901  -2.281  1.00 20.00     0.024 A 
HETATM    3  C3  UNL     1     -34.994  18.096  -3.753  1.00 20.00     0.034 A 
HETATM    4  C4  UNL     1     -33.989  16.000  -4.429  1.00 20.00    -0.047 A 
HETATM    5  C5  UNL     1     -34.835  17.096  -4.701  1.00 20.00    -0.019 A 
HETATM    6  C6  UNL     1     -34.307  17.994  -2.541  1.00 20.00     0.034 A 
HETATM    7  C7  UNL     1     -33.952  15.032  -5.591  1.00 20.00     0.074 A 
HETATM    8  C8  UNL     1     -35.442  16.965  -6.057  1.00 20.00     0.185 A 
HETATM    9  C9  UNL     1     -34.929  15.635  -6.583  1.00 20.00     0.160 A 
HETATM   10  O10 UNL     1     -34.552  16.876  -7.182  1.00 20.00    -0.370 OA
HETATM   11 CL11 UNL     1     -34.492  19.226  -1.349  1.00 20.00    -0.084 Cl
ENDROOT
TORSDOF 0
ENDMDL
MODEL 7
REMARK VINA RESULT:      -4.0      1.686      2.469
REMARK  0 active torsions:
REMARK  status: ('A' for Active; 'I' for Inactive)
ROOT
HETATM    1  C1  UNL     1     -32.311   6.986   2.928  1.00 20.00     0.009 A 
HETATM    2  C2  UNL     1     -31.885   8.245   3.354  1.00 20.00     0.024 A 
HETATM    3  C3  UNL     1     -33.207   8.053   5.389  1.00 20.00     0.034 A 
HETATM    4  C4  UNL     1     -33.180   6.278   3.743  1.00 20.00    -0.047 A 
HETATM    5  C5  UNL     1     -33.633   6.801   4.972  1.00 20.00    -0.019 A 
HETATM    6  C6  UNL     1     -32.329   8.774   4.574  1.00 20.00     0.034 A 
HETATM    7  C7  UNL     1     -33.769   4.910   3.477  1.00 20.00     0.074 A 
HETATM    8  C8  UNL     1     -34.557   5.840   5.641  1.00 20.00     0.185 A 
HETATM    9  C9  UNL     1     -34.587   4.630   4.722  1.00 20.00     0.160 A 
HETATM   10  O10 UNL     1     -35.742   5.445   4.929  1.00 20.00    -0.370 OA
HETATM   11 CL11 UNL     1     -31.786  10.331   5.075  1.00 20.00    -0.084 Cl
ENDROOT
TORSDOF 0
ENDMDL
MODEL 8
REMARK VINA RESULT:      -3.8     12.616     13.368
REMARK  0 active torsions:
REMARK  status: ('A' for Active; 'I' for Inactive)
ROOT
HETATM    1  C1  UNL     1     -35.348  18.101  -3.896  1.00 20.00     0.009 A 
HETATM    2  C2  UNL     1     -35.176  17.052  -4.799  1.00 20.00     0.024 A 
HETATM    3  C3  UNL     1     -33.234  16.251  -3.568  1.00 20.00     0.034 A 
HETATM    4  C4  UNL     1     -34.459  18.208  -2.838  1.00 20.00    -0.047 A 
HETATM    5  C5  UNL     1     -33.401  17.292  -2.666  1.00 20.00    -0.019 A 
HETATM    6  C6  UNL     1     -34.128  16.134  -4.637  1.00 20.00     0.034 A 
HETATM    7  C7  UNL     1     -34.456  19.263  -1.754  1.00 20.00     0.074 A 
HETATM    8  C8  UNL     1     -32.598  17.640  -1.459  1.00 20.00     0.185 A 
HETATM    9  C9  UNL     1     -33.305  18.843  -0.858  1.00 20.00     0.160 A 
HETATM   10  O10 UNL     1     -31.992  18.942  -1.411  1.00 20.00    -0.370 OA
HETATM   11 CL11 UNL     1     -33.939  14.848  -5.769  1.00 20.00    -0.084 Cl
ENDROOT
TORSDOF 0
ENDMDL
MODEL 9
REMARK VINA RESULT:      -3.8     12.721     13.313
REMARK  0 active torsions:
REMARK  status: ('A' for Active; 'I' for Inactive)
ROOT
HETATM    1  C1  UNL     1     -34.352  18.929   0.179  1.00 20.00     0.009 A 
HETATM    2  C2  UNL     1     -33.220  18.882   0.994  1.00 20.00     0.024 A 
HETATM    3  C3  UNL     1     -31.817  18.309  -0.911  1.00 20.00     0.034 A 
HETATM    4  C4  UNL     1     -34.198  18.666  -1.173  1.00 20.00    -0.047 A 
HETATM    5  C5  UNL     1     -32.938  18.356  -1.728  1.00 20.00    -0.019 A 
HETATM    6  C6  UNL     1     -31.963  18.575   0.453  1.00 20.00     0.034 A 
HETATM    7  C7  UNL     1     -35.280  18.657  -2.230  1.00 20.00     0.074 A 
HETATM    8  C8  UNL     1     -33.057  18.114  -3.194  1.00 20.00     0.185 A 
HETATM    9  C9  UNL     1     -34.521  18.366  -3.510  1.00 20.00     0.160 A 
HETATM   10  O10 UNL     1     -33.939  17.067  -3.631  1.00 20.00    -0.370 OA
HETATM   11 CL11 UNL     1     -30.583  18.524   1.484  1.00 20.00    -0.084 Cl
ENDROOT
TORSDOF 0
ENDMDL
