MODEL 1
REMARK VINA RESULT:      -5.5      0.000      0.000
REMARK  0 active torsions:
REMARK  status: ('A' for Active; 'I' for Inactive)
ROOT
HETATM    1  C1  UNL     1     -33.123   8.401   4.979  1.00 20.00     0.009 A 
HETATM    2  C2  UNL     1     -32.595   8.731   3.731  1.00 20.00     0.019 A 
HETATM    3  C3  UNL     1     -33.037   6.486   2.897  1.00 20.00     0.029 A 
HETATM    4  C4  UNL     1     -33.601   7.113   5.167  1.00 20.00    -0.047 A 
HETATM    5  C5  UNL     1     -33.564   6.151   4.137  1.00 20.00    -0.019 A 
HETATM    6  C6  UNL     1     -32.550   7.782   2.699  1.00 20.00     0.011 A 
HETATM    7  C7  UNL     1     -34.218   6.545   6.427  1.00 20.00     0.074 A 
HETATM    8  C8  UNL     1     -34.145   4.859   4.605  1.00 20.00     0.185 A 
HETATM    9  C9  UNL     1     -34.495   5.100   6.064  1.00 20.00     0.160 A 
HETATM   10  O10 UNL     1     -35.502   4.869   5.077  1.00 20.00    -0.370 OA
HETATM   11 BR11 UNL     1     -31.829   8.262   1.017  1.00 20.00    -0.051 Br
ENDROOT
TORSDOF 0
ENDMDL
MODEL 2
REMARK VINA RESULT:      -4.2     12.513     13.699
REMARK  0 active torsions:
REMARK  status: ('A' for Active; 'I' for Inactive)
ROOT
HETATM    1  C1  UNL     1     -33.630  15.245  -3.806  1.00 20.00     0.009 A 
HETATM    2  C2  UNL     1     -34.115  15.005  -5.092  1.00 20.00     0.019 A 
HETATM    3  C3  UNL     1     -34.433  17.390  -5.468  1.00 20.00     0.029 A 
HETATM    4  C4  UNL     1     -33.555  16.558  -3.369  1.00 20.00    -0.047 A 
HETATM    5  C5  UNL     1     -33.951  17.636  -4.189  1.00 20.00    -0.019 A 
HETATM    6  C6  UNL     1     -34.514  16.068  -5.916  1.00 20.00     0.011 A 
HETATM    7  C7  UNL     1     -33.057  17.045  -2.026  1.00 20.00     0.074 A 
HETATM    8  C8  UNL     1     -33.761  18.933  -3.478  1.00 20.00     0.185 A 
HETATM    9  C9  UNL     1     -33.258  18.546  -2.097  1.00 20.00     0.160 A 
HETATM   10  O10 UNL     1     -32.437  19.259  -3.024  1.00 20.00    -0.370 OA
HETATM   11 BR11 UNL     1     -35.165  15.709  -7.655  1.00 20.00    -0.051 Br
ENDROOT
TORSDOF 0
ENDMDL
MODEL 3
REMARK VINA RESULT:      -4.1      1.280      2.251
REMARK  0 active torsions:
REMARK  status: ('A' for Active; 'I' for Inactive)
ROOT
HETATM    1  C1  UNL     1     -33.423   5.098   3.042  1.00 20.00     0.009 A 
HETATM    2  C2  UNL     1     -32.827   5.917   2.083  1.00 20.00     0.019 A 
HETATM    3  C3  UNL     1     -32.979   7.842   3.565  1.00 20.00     0.029 A 
HETATM    4  C4  UNL     1     -33.791   5.666   4.251  1.00 20.00    -0.047 A 
HETATM    5  C5  UNL     1     -33.573   7.033   4.524  1.00 20.00    -0.019 A 
HETATM    6  C6  UNL     1     -32.607   7.278   2.341  1.00 20.00     0.011 A 
HETATM    7  C7  UNL     1     -34.440   4.968   5.426  1.00 20.00     0.074 A 
HETATM    8  C8  UNL     1     -34.054   7.377   5.893  1.00 20.00     0.185 A 
HETATM    9  C9  UNL     1     -34.653   6.087   6.427  1.00 20.00     0.160 A 
HETATM   10  O10 UNL     1     -33.480   6.666   7.002  1.00 20.00    -0.370 OA
HETATM   11 BR11 UNL     1     -31.795   8.361   1.021  1.00 20.00    -0.051 Br
ENDROOT
TORSDOF 0
ENDMDL
MODEL 4
REMARK VINA RESULT:      -4.1     12.580     13.498
REMARK  0 active torsions:
REMARK  status: ('A' for Active; 'I' for Inactive)
ROOT
HETATM    1  C1  UNL     1     -35.226  18.209  -4.299  1.00 20.00     0.009 A 
HETATM    2  C2  UNL     1     -34.450  18.553  -3.192  1.00 20.00     0.019 A 
HETATM    3  C3  UNL     1     -33.334  16.390  -3.243  1.00 20.00     0.029 A 
HETATM    4  C4  UNL     1     -35.045  16.955  -4.861  1.00 20.00    -0.047 A 
HETATM    5  C5  UNL     1     -34.104  16.041  -4.344  1.00 20.00    -0.019 A 
HETATM    6  C6  UNL     1     -33.512  17.651  -2.668  1.00 20.00     0.011 A 
HETATM    7  C7  UNL     1     -35.768  16.381  -6.060  1.00 20.00     0.074 A 
HETATM    8  C8  UNL     1     -34.109  14.778  -5.138  1.00 20.00     0.185 A 
HETATM    9  C9  UNL     1     -35.202  14.979  -6.175  1.00 20.00     0.160 A 
HETATM   10  O10 UNL     1     -33.826  14.871  -6.544  1.00 20.00    -0.370 OA
HETATM   11 BR11 UNL     1     -32.474  18.150  -1.167  1.00 20.00    -0.051 Br
ENDROOT
TORSDOF 0
ENDMDL
MODEL 5
REMARK VINA RESULT:      -4.1     12.849     12.991
REMARK  0 active torsions:
REMARK  status: ('A' for Active; 'I' for Inactive)
ROOT
HETATM    1  C1  UNL     1     -32.281  19.263   3.022  1.00 20.00     0.009 A 
HETATM    2  C2  UNL     1     -31.088  19.217   3.742  1.00 20.00     0.019 A 
HETATM    3  C3  UNL     1     -29.868  18.489   1.764  1.00 20.00     0.029 A 
HETATM    4  C4  UNL     1     -32.250  18.918   1.680  1.00 20.00    -0.047 A 
HETATM    5  C5  UNL     1     -31.052  18.532   1.042  1.00 20.00    -0.019 A 
HETATM    6  C6  UNL     1     -29.891  18.832   3.119  1.00 20.00     0.011 A 
HETATM    7  C7  UNL     1     -33.415  18.904   0.714  1.00 20.00     0.074 A 
HETATM    8  C8  UNL     1     -31.301  18.223  -0.396  1.00 20.00     0.185 A 
HETATM    9  C9  UNL     1     -32.799  18.400  -0.576  1.00 20.00     0.160 A 
HETATM   10  O10 UNL     1     -31.858  19.262  -1.217  1.00 20.00    -0.370 OA
HETATM   11 BR11 UNL     1     -28.289  18.783   4.124  1.00 20.00    -0.051 Br
ENDROOT
TORSDOF 0
ENDMDL
MODEL 6
REMARK VINA RESULT:      -4.1     12.491     13.572
REMARK  0 active torsions:
REMARK  status: ('A' for Active; 'I' for Inactive)
ROOT
HETATM    1  C1  UNL     1     -33.215  15.861  -3.448  1.00 20.00     0.009 A 
HETATM    2  C2  UNL     1     -33.367  16.883  -2.512  1.00 20.00     0.019 A 
HETATM    3  C3  UNL     1     -35.150  17.888  -3.831  1.00 20.00     0.029 A 
HETATM    4  C4  UNL     1     -34.034  15.868  -4.566  1.00 20.00    -0.047 A 
HETATM    5  C5  UNL     1     -35.003  16.874  -4.767  1.00 20.00    -0.019 A 
HETATM    6  C6  UNL     1     -34.325  17.890  -2.702  1.00 20.00     0.011 A 
HETATM    7  C7  UNL     1     -34.046  14.861  -5.695  1.00 20.00     0.074 A 
HETATM    8  C8  UNL     1     -35.746  16.638  -6.038  1.00 20.00     0.185 A 
HETATM    9  C9  UNL     1     -35.094  15.406  -6.644  1.00 20.00     0.160 A 
HETATM   10  O10 UNL     1     -36.447  15.392  -6.183  1.00 20.00    -0.370 OA
HETATM   11 BR11 UNL     1     -34.508  19.262  -1.413  1.00 20.00    -0.051 Br
ENDROOT
TORSDOF 0
ENDMDL
MODEL 7
REMARK VINA RESULT:      -3.9     12.510     13.425
REMARK  0 active torsions:
REMARK  status: ('A' for Active; 'I' for Inactive)
ROOT
HETATM    1  C1  UNL     1     -24.745  -1.249  12.177  1.00 20.00     0.009 A 
HETATM    2  C2  UNL     1     -23.918  -2.163  11.524  1.00 20.00     0.019 A 
HETATM    3  C3  UNL     1     -25.751  -2.863  10.083  1.00 20.00     0.029 A 
HETATM    4  C4  UNL     1     -26.067  -1.158  11.772  1.00 20.00    -0.047 A 
HETATM    5  C5  UNL     1     -26.579  -1.957  10.728  1.00 20.00    -0.019 A 
HETATM    6  C6  UNL     1     -24.416  -2.965  10.486  1.00 20.00     0.011 A 
HETATM    7  C7  UNL     1     -27.131  -0.237  12.331  1.00 20.00     0.074 A 
HETATM    8  C8  UNL     1     -28.021  -1.652  10.494  1.00 20.00     0.185 A 
HETATM    9  C9  UNL     1     -28.372  -0.615  11.548  1.00 20.00     0.160 A 
HETATM   10  O10 UNL     1     -28.372  -0.300  10.154  1.00 20.00    -0.370 OA
HETATM   11 BR11 UNL     1     -23.267  -4.193   9.620  1.00 20.00    -0.051 Br
ENDROOT
TORSDOF 0
ENDMDL
MODEL 8
REMARK VINA RESULT:      -3.9     12.341     13.739
REMARK  0 active torsions:
REMARK  status: ('A' for Active; 'I' for Inactive)
ROOT
HETATM    1  C1  UNL     1     -33.879  14.898  -4.460  1.00 20.00     0.009 A 
HETATM    2  C2  UNL     1     -33.306  15.652  -3.436  1.00 20.00     0.019 A 
HETATM    3  C3  UNL     1     -34.653  17.587  -4.045  1.00 20.00     0.029 A 
HETATM    4  C4  UNL     1     -34.831  15.503  -5.265  1.00 20.00    -0.047 A 
HETATM    5  C5  UNL     1     -35.226  16.842  -5.066  1.00 20.00    -0.019 A 
HETATM    6  C6  UNL     1     -33.689  16.986  -3.230  1.00 20.00     0.011 A 
HETATM    7  C7  UNL     1     -35.581  14.875  -6.420  1.00 20.00     0.074 A 
HETATM    8  C8  UNL     1     -36.265  17.235  -6.062  1.00 20.00     0.185 A 
HETATM    9  C9  UNL     1     -36.435  16.011  -6.946  1.00 20.00     0.160 A 
HETATM   10  O10 UNL     1     -37.483  16.474  -6.093  1.00 20.00    -0.370 OA
HETATM   11 BR11 UNL     1     -32.895  17.981  -1.831  1.00 20.00    -0.051 Br
ENDROOT
TORSDOF 0
ENDMDL
MODEL 9
REMARK VINA RESULT:      -3.7     12.913     13.455
REMARK  0 active torsions:
REMARK  status: ('A' for Active; 'I' for Inactive)
ROOT
HETATM    1  C1  UNL     1     -34.519  19.158   0.031  1.00 20.00     0.009 A 
HETATM    2  C2  UNL     1     -33.445  19.108   0.919  1.00 20.00     0.019 A 
HETATM    3  C3  UNL     1     -32.005  18.163  -0.802  1.00 20.00     0.029 A 
HETATM    4  C4  UNL     1     -34.319  18.707  -1.265  1.00 20.00    -0.047 A 
HETATM    5  C5  UNL     1     -33.070  18.210  -1.691  1.00 20.00    -0.019 A 
HETATM    6  C6  UNL     1     -32.198  18.614   0.507  1.00 20.00     0.011 A 
HETATM    7  C7  UNL     1     -35.334  18.676  -2.386  1.00 20.00     0.074 A 
HETATM    8  C8  UNL     1     -33.130  17.801  -3.124  1.00 20.00     0.185 A 
HETATM    9  C9  UNL     1     -34.574  18.040  -3.533  1.00 20.00     0.160 A 
HETATM   10  O10 UNL     1     -33.499  18.799  -4.090  1.00 20.00    -0.370 OA
HETATM   11 BR11 UNL     1     -30.761  18.561   1.736  1.00 20.00    -0.051 Br
ENDROOT
TORSDOF 0
ENDMDL
