MODEL 1
REMARK VINA RESULT:      -4.7      0.000      0.000
REMARK  0 active torsions:
REMARK  status: ('A' for Active; 'I' for Inactive)
ROOT
HETATM    1  C1  UNL     1     -32.777   8.882   4.240  1.00 20.00     0.012 A 
HETATM    2  C2  UNL     1     -32.551   9.299   2.928  1.00 20.00     0.024 A 
HETATM    3  C3  UNL     1     -32.686   7.007   2.163  1.00 20.00     0.031 A 
HETATM    4  C4  UNL     1     -32.962   7.527   4.532  1.00 20.00    -0.021 A 
HETATM    5  C5  UNL     1     -32.915   6.572   3.475  1.00 20.00    -0.048 A 
HETATM    6  C6  UNL     1     -32.508   8.364   1.894  1.00 20.00     0.034 A 
HETATM    7  C7  UNL     1     -33.059   5.076   3.770  1.00 20.00     0.039 C 
HETATM    8  C8  UNL     1     -34.400   4.584   4.377  1.00 20.00     0.007 C 
HETATM    9  C9  UNL     1     -34.697   5.025   5.834  1.00 20.00     0.035 C 
HETATM   10  C10 UNL     1     -33.239   7.014   5.907  1.00 20.00     0.184 A 
HETATM   11  C11 UNL     1     -34.694   6.502   5.865  1.00 20.00     0.156 A 
HETATM   12  O12 UNL     1     -34.226   7.360   6.876  1.00 20.00    -0.370 OA
HETATM   13 CL13 UNL     1     -32.228   8.888   0.278  1.00 20.00    -0.084 Cl
ENDROOT
TORSDOF 0
ENDMDL
MODEL 2
REMARK VINA RESULT:      -4.5     11.895     14.077
REMARK  0 active torsions:
REMARK  status: ('A' for Active; 'I' for Inactive)
ROOT
HETATM    1  C1  UNL     1     -33.877  15.052  -4.663  1.00 20.00     0.012 A 
HETATM    2  C2  UNL     1     -33.398  15.571  -3.460  1.00 20.00     0.024 A 
HETATM    3  C3  UNL     1     -33.959  17.809  -4.188  1.00 20.00     0.031 A 
HETATM    4  C4  UNL     1     -34.405  15.900  -5.642  1.00 20.00    -0.021 A 
HETATM    5  C5  UNL     1     -34.446  17.305  -5.400  1.00 20.00    -0.048 A 
HETATM    6  C6  UNL     1     -33.441  16.944  -3.224  1.00 20.00     0.034 A 
HETATM    7  C7  UNL     1     -34.966  18.265  -6.475  1.00 20.00     0.039 C 
HETATM    8  C8  UNL     1     -36.450  18.129  -6.909  1.00 20.00     0.007 C 
HETATM    9  C9  UNL     1     -36.819  16.848  -7.701  1.00 20.00     0.035 C 
HETATM   10  C10 UNL     1     -34.964  15.412  -6.938  1.00 20.00     0.184 A 
HETATM   11  C11 UNL     1     -36.480  15.684  -6.856  1.00 20.00     0.156 A 
HETATM   12  O12 UNL     1     -35.959  14.437  -7.244  1.00 20.00    -0.370 OA
HETATM   13 CL13 UNL     1     -32.846  17.576  -1.736  1.00 20.00    -0.084 Cl
ENDROOT
TORSDOF 0
ENDMDL
MODEL 3
REMARK VINA RESULT:      -4.4     12.050     13.420
REMARK  0 active torsions:
REMARK  status: ('A' for Active; 'I' for Inactive)
ROOT
HETATM    1  C1  UNL     1     -34.450  18.975  -3.523  1.00 20.00     0.012 A 
HETATM    2  C2  UNL     1     -33.539  19.263  -2.507  1.00 20.00     0.024 A 
HETATM    3  C3  UNL     1     -32.913  16.929  -2.387  1.00 20.00     0.031 A 
HETATM    4  C4  UNL     1     -34.604  17.664  -3.987  1.00 20.00    -0.021 A 
HETATM    5  C5  UNL     1     -33.823  16.622  -3.408  1.00 20.00    -0.048 A 
HETATM    6  C6  UNL     1     -32.773  18.244  -1.943  1.00 20.00     0.034 A 
HETATM    7  C7  UNL     1     -34.008  15.168  -3.855  1.00 20.00     0.039 C 
HETATM    8  C8  UNL     1     -33.682  14.819  -5.332  1.00 20.00     0.007 C 
HETATM    9  C9  UNL     1     -34.641  15.400  -6.403  1.00 20.00     0.035 C 
HETATM   10  C10 UNL     1     -35.536  17.287  -5.091  1.00 20.00     0.184 A 
HETATM   11  C11 UNL     1     -34.628  16.871  -6.267  1.00 20.00     0.156 A 
HETATM   12  O12 UNL     1     -35.691  17.779  -6.421  1.00 20.00    -0.370 OA
HETATM   13 CL13 UNL     1     -31.651  18.610  -0.689  1.00 20.00    -0.084 Cl
ENDROOT
TORSDOF 0
ENDMDL
MODEL 4
REMARK VINA RESULT:      -4.4     12.021     13.624
REMARK  0 active torsions:
REMARK  status: ('A' for Active; 'I' for Inactive)
ROOT
HETATM    1  C1  UNL     1     -33.396  16.077  -3.576  1.00 20.00     0.012 A 
HETATM    2  C2  UNL     1     -33.312  16.670  -2.317  1.00 20.00     0.024 A 
HETATM    3  C3  UNL     1     -34.971  18.308  -2.961  1.00 20.00     0.031 A 
HETATM    4  C4  UNL     1     -34.267  16.588  -4.544  1.00 20.00    -0.021 A 
HETATM    5  C5  UNL     1     -35.069  17.725  -4.231  1.00 20.00    -0.048 A 
HETATM    6  C6  UNL     1     -34.098  17.780  -2.010  1.00 20.00     0.034 A 
HETATM    7  C7  UNL     1     -35.991  18.342  -5.288  1.00 20.00     0.039 C 
HETATM    8  C8  UNL     1     -37.151  17.468  -5.834  1.00 20.00     0.007 C 
HETATM    9  C9  UNL     1     -36.743  16.261  -6.719  1.00 20.00     0.035 C 
HETATM   10  C10 UNL     1     -34.431  15.988  -5.901  1.00 20.00     0.184 A 
HETATM   11  C11 UNL     1     -35.856  15.395  -5.915  1.00 20.00     0.156 A 
HETATM   12  O12 UNL     1     -34.731  14.660  -6.330  1.00 20.00    -0.370 OA
HETATM   13 CL13 UNL     1     -33.987  18.504  -0.452  1.00 20.00    -0.084 Cl
ENDROOT
TORSDOF 0
ENDMDL
MODEL 5
REMARK VINA RESULT:      -4.0      9.792     10.782
REMARK  0 active torsions:
REMARK  status: ('A' for Active; 'I' for Inactive)
ROOT
HETATM    1  C1  UNL     1     -39.345  12.677   7.201  1.00 20.00     0.012 A 
HETATM    2  C2  UNL     1     -38.959  12.007   6.040  1.00 20.00     0.024 A 
HETATM    3  C3  UNL     1     -40.724  13.104   4.802  1.00 20.00     0.031 A 
HETATM    4  C4  UNL     1     -40.422  13.569   7.179  1.00 20.00    -0.021 A 
HETATM    5  C5  UNL     1     -41.125  13.786   5.958  1.00 20.00    -0.048 A 
HETATM    6  C6  UNL     1     -39.644  12.222   4.845  1.00 20.00     0.034 A 
HETATM    7  C7  UNL     1     -42.343  14.714   5.914  1.00 20.00     0.039 C 
HETATM    8  C8  UNL     1     -42.121  16.215   6.245  1.00 20.00     0.007 C 
HETATM    9  C9  UNL     1     -41.767  16.547   7.718  1.00 20.00     0.035 C 
HETATM   10  C10 UNL     1     -40.872  14.344   8.374  1.00 20.00     0.184 A 
HETATM   11  C11 UNL     1     -40.530  15.815   8.058  1.00 20.00     0.156 A 
HETATM   12  O12 UNL     1     -40.175  15.203   9.274  1.00 20.00    -0.370 OA
HETATM   13 CL13 UNL     1     -39.159  11.389   3.418  1.00 20.00    -0.084 Cl
ENDROOT
TORSDOF 0
ENDMDL
MODEL 6
REMARK VINA RESULT:      -3.9     12.974     14.069
REMARK  0 active torsions:
REMARK  status: ('A' for Active; 'I' for Inactive)
ROOT
HETATM    1  C1  UNL     1     -25.270  -1.276  12.013  1.00 20.00     0.012 A 
HETATM    2  C2  UNL     1     -24.035  -1.762  11.582  1.00 20.00     0.024 A 
HETATM    3  C3  UNL     1     -25.087  -3.807  10.832  1.00 20.00     0.031 A 
HETATM    4  C4  UNL     1     -26.428  -2.045  11.859  1.00 20.00    -0.021 A 
HETATM    5  C5  UNL     1     -26.335  -3.335  11.258  1.00 20.00    -0.048 A 
HETATM    6  C6  UNL     1     -23.946  -3.022  10.992  1.00 20.00     0.034 A 
HETATM    7  C7  UNL     1     -27.576  -4.224  11.127  1.00 20.00     0.039 C 
HETATM    8  C8  UNL     1     -28.741  -3.711  10.238  1.00 20.00     0.007 C 
HETATM    9  C9  UNL     1     -29.526  -2.485  10.775  1.00 20.00     0.035 C 
HETATM   10  C10 UNL     1     -27.785  -1.577  12.269  1.00 20.00     0.184 A 
HETATM   11  C11 UNL     1     -28.563  -1.379  10.951  1.00 20.00     0.156 A 
HETATM   12  O12 UNL     1     -28.525  -0.398  11.958  1.00 20.00    -0.370 OA
HETATM   13 CL13 UNL     1     -22.418  -3.613  10.463  1.00 20.00    -0.084 Cl
ENDROOT
TORSDOF 0
ENDMDL
MODEL 7
REMARK VINA RESULT:      -3.8     10.792     11.989
REMARK  0 active torsions:
REMARK  status: ('A' for Active; 'I' for Inactive)
ROOT
HETATM    1  C1  UNL     1     -42.891  12.872   7.862  1.00 20.00     0.012 A 
HETATM    2  C2  UNL     1     -42.247  12.399   6.719  1.00 20.00     0.024 A 
HETATM    3  C3  UNL     1     -40.372  13.866   7.152  1.00 20.00     0.031 A 
HETATM    4  C4  UNL     1     -42.287  13.844   8.666  1.00 20.00    -0.021 A 
HETATM    5  C5  UNL     1     -41.004  14.351   8.304  1.00 20.00    -0.048 A 
HETATM    6  C6  UNL     1     -40.992  12.893   6.367  1.00 20.00     0.034 A 
HETATM    7  C7  UNL     1     -40.341  15.456   9.132  1.00 20.00     0.039 C 
HETATM    8  C8  UNL     1     -39.982  15.136  10.608  1.00 20.00     0.007 C 
HETATM    9  C9  UNL     1     -41.175  14.954  11.582  1.00 20.00     0.035 C 
HETATM   10  C10 UNL     1     -42.903  14.374   9.919  1.00 20.00     0.184 A 
HETATM   11  C11 UNL     1     -42.011  13.851  11.064  1.00 20.00     0.156 A 
HETATM   12  O12 UNL     1     -43.412  13.725  11.083  1.00 20.00    -0.370 OA
HETATM   13 CL13 UNL     1     -40.205  12.303   4.954  1.00 20.00    -0.084 Cl
ENDROOT
TORSDOF 0
ENDMDL
MODEL 8
REMARK VINA RESULT:      -3.8     12.014     13.561
REMARK  0 active torsions:
REMARK  status: ('A' for Active; 'I' for Inactive)
ROOT
HETATM    1  C1  UNL     1     -36.392  18.432  -4.521  1.00 20.00     0.012 A 
HETATM    2  C2  UNL     1     -37.745  18.191  -4.757  1.00 20.00     0.024 A 
HETATM    3  C3  UNL     1     -37.227  15.955  -5.523  1.00 20.00     0.031 A 
HETATM    4  C4  UNL     1     -35.439  17.441  -4.780  1.00 20.00    -0.021 A 
HETATM    5  C5  UNL     1     -35.864  16.180  -5.291  1.00 20.00    -0.048 A 
HETATM    6  C6  UNL     1     -38.161  16.956  -5.254  1.00 20.00     0.034 A 
HETATM    7  C7  UNL     1     -34.840  15.094  -5.638  1.00 20.00     0.039 C 
HETATM    8  C8  UNL     1     -33.975  14.521  -4.483  1.00 20.00     0.007 C 
HETATM    9  C9  UNL     1     -32.928  15.485  -3.866  1.00 20.00     0.035 C 
HETATM   10  C10 UNL     1     -33.979  17.618  -4.523  1.00 20.00     0.184 A 
HETATM   11  C11 UNL     1     -33.653  16.666  -3.353  1.00 20.00     0.156 A 
HETATM   12  O12 UNL     1     -33.254  18.015  -3.361  1.00 20.00    -0.370 OA
HETATM   13 CL13 UNL     1     -39.834  16.668  -5.542  1.00 20.00    -0.084 Cl
ENDROOT
TORSDOF 0
ENDMDL
MODEL 9
REMARK VINA RESULT:      -3.8     10.579     11.544
REMARK  0 active torsions:
REMARK  status: ('A' for Active; 'I' for Inactive)
ROOT
HETATM    1  C1  UNL     1     -40.174  13.388   7.348  1.00 20.00     0.012 A 
HETATM    2  C2  UNL     1     -39.529  12.554   6.434  1.00 20.00     0.024 A 
HETATM    3  C3  UNL     1     -41.043  13.273   4.689  1.00 20.00     0.031 A 
HETATM    4  C4  UNL     1     -41.258  14.176   6.947  1.00 20.00    -0.021 A 
HETATM    5  C5  UNL     1     -41.702  14.117   5.593  1.00 20.00    -0.048 A 
HETATM    6  C6  UNL     1     -39.962  12.499   5.110  1.00 20.00     0.034 A 
HETATM    7  C7  UNL     1     -42.921  14.924   5.137  1.00 20.00     0.039 C 
HETATM    8  C8  UNL     1     -42.832  16.473   5.214  1.00 20.00     0.007 C 
HETATM    9  C9  UNL     1     -42.804  17.088   6.637  1.00 20.00     0.035 C 
HETATM   10  C10 UNL     1     -41.976  15.113   7.862  1.00 20.00     0.184 A 
HETATM   11  C11 UNL     1     -41.635  16.527   7.345  1.00 20.00     0.156 A 
HETATM   12  O12 UNL     1     -41.515  16.171   8.701  1.00 20.00    -0.370 OA
HETATM   13 CL13 UNL     1     -39.159  11.467   3.990  1.00 20.00    -0.084 Cl
ENDROOT
TORSDOF 0
ENDMDL
