MODEL 1
REMARK VINA RESULT:      -5.3      0.000      0.000
REMARK  1 active torsions:
REMARK  status: ('A' for Active; 'I' for Inactive)
REMARK    1  A    between atoms: C1_1  and  C8_8 
ROOT
HETATM    1  C1  UNL     1     -33.591   6.847   4.493  1.00 20.00     0.014 C 
HETATM    2  C2  UNL     1     -33.610   8.135   5.254  1.00 20.00     0.057 C 
HETATM    3  C3  UNL     1     -32.299   8.712   4.783  1.00 20.00     0.027 C 
HETATM    4  C4  UNL     1     -32.142   8.102   3.401  1.00 20.00     0.149 C 
HETATM    5  N9  UNL     1     -32.797   6.780   3.469  1.00 20.00    -0.298 NA
ENDROOT
BRANCH   1   6
HETATM    6  C8  UNL     1     -34.485   5.717   4.888  1.00 20.00    -0.011 C 
HETATM    7  C5  UNL     1     -35.883   5.956   4.303  1.00 20.00     0.021 C 
HETATM    8  C6  UNL     1     -34.571   5.641   6.420  1.00 20.00     0.021 C 
HETATM    9  C7  UNL     1     -33.916   4.399   4.346  1.00 20.00     0.021 C 
ENDBRANCH   1   6
TORSDOF 1
ENDMDL
MODEL 2
REMARK VINA RESULT:      -4.0      1.149      3.471
REMARK  1 active torsions:
REMARK  status: ('A' for Active; 'I' for Inactive)
REMARK    1  A    between atoms: C1_1  and  C8_8 
ROOT
HETATM    1  C1  UNL     1     -33.610   6.855   4.759  1.00 20.00     0.014 C 
HETATM    2  C2  UNL     1     -33.791   6.885   6.244  1.00 20.00     0.057 C 
HETATM    3  C3  UNL     1     -34.862   5.831   6.377  1.00 20.00     0.027 C 
HETATM    4  C4  UNL     1     -34.589   4.925   5.189  1.00 20.00     0.149 C 
HETATM    5  N9  UNL     1     -34.037   5.800   4.135  1.00 20.00    -0.298 NA
ENDROOT
BRANCH   1   6
HETATM    6  C8  UNL     1     -32.929   7.981   4.054  1.00 20.00    -0.011 C 
HETATM    7  C5  UNL     1     -32.077   7.416   2.910  1.00 20.00     0.021 C 
HETATM    8  C6  UNL     1     -32.031   8.739   5.042  1.00 20.00     0.021 C 
HETATM    9  C7  UNL     1     -33.982   8.943   3.486  1.00 20.00     0.021 C 
ENDBRANCH   1   6
TORSDOF 1
ENDMDL
MODEL 3
REMARK VINA RESULT:      -4.0      1.151      3.466
REMARK  1 active torsions:
REMARK  status: ('A' for Active; 'I' for Inactive)
REMARK    1  A    between atoms: C1_1  and  C8_8 
ROOT
HETATM    1  C1  UNL     1     -33.610   6.857   4.761  1.00 20.00     0.014 C 
HETATM    2  C2  UNL     1     -33.786   6.887   6.246  1.00 20.00     0.057 C 
HETATM    3  C3  UNL     1     -34.859   5.836   6.382  1.00 20.00     0.027 C 
HETATM    4  C4  UNL     1     -34.593   4.930   5.194  1.00 20.00     0.149 C 
HETATM    5  N9  UNL     1     -34.042   5.803   4.138  1.00 20.00    -0.298 NA
ENDROOT
BRANCH   1   6
HETATM    6  C8  UNL     1     -32.928   7.982   4.053  1.00 20.00    -0.011 C 
HETATM    7  C5  UNL     1     -32.037   8.735   5.049  1.00 20.00     0.021 C 
HETATM    8  C6  UNL     1     -33.981   8.939   3.475  1.00 20.00     0.021 C 
HETATM    9  C7  UNL     1     -32.069   7.424   2.910  1.00 20.00     0.021 C 
ENDBRANCH   1   6
TORSDOF 1
ENDMDL
MODEL 4
REMARK VINA RESULT:      -4.0      1.150      3.469
REMARK  1 active torsions:
REMARK  status: ('A' for Active; 'I' for Inactive)
REMARK    1  A    between atoms: C1_1  and  C8_8 
ROOT
HETATM    1  C1  UNL     1     -33.614   6.857   4.769  1.00 20.00     0.014 C 
HETATM    2  C2  UNL     1     -33.783   6.883   6.255  1.00 20.00     0.057 C 
HETATM    3  C3  UNL     1     -34.858   5.834   6.393  1.00 20.00     0.027 C 
HETATM    4  C4  UNL     1     -34.600   4.931   5.201  1.00 20.00     0.149 C 
HETATM    5  N9  UNL     1     -34.052   5.806   4.145  1.00 20.00    -0.298 NA
ENDROOT
BRANCH   1   6
HETATM    6  C8  UNL     1     -32.933   7.982   4.061  1.00 20.00    -0.011 C 
HETATM    7  C5  UNL     1     -33.994   8.930   3.489  1.00 20.00     0.021 C 
HETATM    8  C6  UNL     1     -32.068   7.424   2.921  1.00 20.00     0.021 C 
HETATM    9  C7  UNL     1     -32.038   8.743   5.049  1.00 20.00     0.021 C 
ENDBRANCH   1   6
TORSDOF 1
ENDMDL
MODEL 5
REMARK VINA RESULT:      -3.7     12.458     13.272
REMARK  1 active torsions:
REMARK  status: ('A' for Active; 'I' for Inactive)
REMARK    1  A    between atoms: C1_1  and  C8_8 
ROOT
HETATM    1  C1  UNL     1     -32.411  18.625  -0.622  1.00 20.00     0.014 C 
HETATM    2  C2  UNL     1     -33.028  18.727   0.737  1.00 20.00     0.057 C 
HETATM    3  C3  UNL     1     -31.796  18.498   1.577  1.00 20.00     0.027 C 
HETATM    4  C4  UNL     1     -30.682  19.025   0.689  1.00 20.00     0.149 C 
HETATM    5  N9  UNL     1     -31.124  18.778  -0.698  1.00 20.00    -0.298 NA
ENDROOT
BRANCH   1   6
HETATM    6  C8  UNL     1     -33.262  18.398  -1.828  1.00 20.00    -0.011 C 
HETATM    7  C5  UNL     1     -34.710  18.783  -1.499  1.00 20.00     0.021 C 
HETATM    8  C6  UNL     1     -33.199  16.918  -2.233  1.00 20.00     0.021 C 
HETATM    9  C7  UNL     1     -32.750  19.263  -2.989  1.00 20.00     0.021 C 
ENDBRANCH   1   6
TORSDOF 1
ENDMDL
MODEL 6
REMARK VINA RESULT:      -3.5     12.343     13.181
REMARK  1 active torsions:
REMARK  status: ('A' for Active; 'I' for Inactive)
REMARK    1  A    between atoms: C1_1  and  C8_8 
ROOT
HETATM    1  C1  UNL     1     -32.570  18.567  -0.215  1.00 20.00     0.014 C 
HETATM    2  C2  UNL     1     -31.079  18.447  -0.261  1.00 20.00     0.057 C 
HETATM    3  C3  UNL     1     -30.747  19.071   1.073  1.00 20.00     0.027 C 
HETATM    4  C4  UNL     1     -31.980  18.763   1.902  1.00 20.00     0.149 C 
HETATM    5  N9  UNL     1     -33.110  18.746   0.952  1.00 20.00    -0.298 NA
ENDROOT
BRANCH   1   6
HETATM    6  C8  UNL     1     -33.381  18.443  -1.463  1.00 20.00    -0.011 C 
HETATM    7  C5  UNL     1     -32.715  19.259  -2.578  1.00 20.00     0.021 C 
HETATM    8  C6  UNL     1     -34.799  18.974  -1.210  1.00 20.00     0.021 C 
HETATM    9  C7  UNL     1     -33.459  16.967  -1.879  1.00 20.00     0.021 C 
ENDBRANCH   1   6
TORSDOF 1
ENDMDL
MODEL 7
REMARK VINA RESULT:      -3.4     10.061     10.930
REMARK  1 active torsions:
REMARK  status: ('A' for Active; 'I' for Inactive)
REMARK    1  A    between atoms: C1_1  and  C8_8 
ROOT
HETATM    1  C1  UNL     1     -40.924  14.098   7.472  1.00 20.00     0.014 C 
HETATM    2  C2  UNL     1     -40.817  15.566   7.200  1.00 20.00     0.057 C 
HETATM    3  C3  UNL     1     -40.764  16.069   8.622  1.00 20.00     0.027 C 
HETATM    4  C4  UNL     1     -40.131  14.907   9.365  1.00 20.00     0.149 C 
HETATM    5  N9  UNL     1     -40.562  13.689   8.650  1.00 20.00    -0.298 NA
ENDROOT
BRANCH   1   6
HETATM    6  C8  UNL     1     -41.389  13.160   6.407  1.00 20.00    -0.011 C 
HETATM    7  C5  UNL     1     -42.592  12.364   6.929  1.00 20.00     0.021 C 
HETATM    8  C6  UNL     1     -40.252  12.196   6.038  1.00 20.00     0.021 C 
HETATM    9  C7  UNL     1     -41.800  13.959   5.162  1.00 20.00     0.021 C 
ENDBRANCH   1   6
TORSDOF 1
ENDMDL
MODEL 8
REMARK VINA RESULT:      -3.4     12.471     13.579
REMARK  1 active torsions:
REMARK  status: ('A' for Active; 'I' for Inactive)
REMARK    1  A    between atoms: C1_1  and  C8_8 
ROOT
HETATM    1  C1  UNL     1     -33.996  16.881  -3.838  1.00 20.00     0.014 C 
HETATM    2  C2  UNL     1     -33.156  15.650  -3.706  1.00 20.00     0.057 C 
HETATM    3  C3  UNL     1     -33.868  14.766  -4.701  1.00 20.00     0.027 C 
HETATM    4  C4  UNL     1     -34.436  15.767  -5.691  1.00 20.00     0.149 C 
HETATM    5  N9  UNL     1     -34.720  16.987  -4.911  1.00 20.00    -0.298 NA
ENDROOT
BRANCH   1   6
HETATM    6  C8  UNL     1     -33.956  17.944  -2.791  1.00 20.00    -0.011 C 
HETATM    7  C5  UNL     1     -33.593  17.308  -1.443  1.00 20.00     0.021 C 
HETATM    8  C6  UNL     1     -35.332  18.620  -2.690  1.00 20.00     0.021 C 
HETATM    9  C7  UNL     1     -32.902  18.995  -3.166  1.00 20.00     0.021 C 
ENDBRANCH   1   6
TORSDOF 1
ENDMDL
MODEL 9
REMARK VINA RESULT:      -3.4      9.466     10.427
REMARK  1 active torsions:
REMARK  status: ('A' for Active; 'I' for Inactive)
REMARK    1  A    between atoms: C1_1  and  C8_8 
ROOT
HETATM    1  C1  UNL     1     -40.626  13.364   6.788  1.00 20.00     0.014 C 
HETATM    2  C2  UNL     1     -41.130  13.264   5.383  1.00 20.00     0.057 C 
HETATM    3  C3  UNL     1     -39.983  12.500   4.770  1.00 20.00     0.027 C 
HETATM    4  C4  UNL     1     -39.448  11.700   5.944  1.00 20.00     0.149 C 
HETATM    5  N9  UNL     1     -39.698  12.528   7.141  1.00 20.00    -0.298 NA
ENDROOT
BRANCH   1   6
HETATM    6  C8  UNL     1     -41.207  14.362   7.735  1.00 20.00    -0.011 C 
HETATM    7  C5  UNL     1     -41.406  15.694   7.002  1.00 20.00     0.021 C 
HETATM    8  C6  UNL     1     -40.254  14.562   8.922  1.00 20.00     0.021 C 
HETATM    9  C7  UNL     1     -42.559  13.851   8.252  1.00 20.00     0.021 C 
ENDBRANCH   1   6
TORSDOF 1
ENDMDL
