MODEL 1
REMARK VINA RESULT:      -3.1      0.000      0.000
REMARK  3 active torsions:
REMARK  status: ('A' for Active; 'I' for Inactive)
REMARK    1  A    between atoms: C2_2  and  C6_6 
REMARK    2  A    between atoms: C6_6  and  S9_9 
REMARK    3  A    between atoms: C7_7  and  S9_9 
ROOT
HETATM    1  S9  UNL     1     -34.421  18.947  -1.374  1.00 20.00    -0.158 SA
ENDROOT
BRANCH   1   2
HETATM    2  C6  UNL     1     -33.177  18.178  -0.317  1.00 20.00     0.108 C 
BRANCH   2   3
HETATM    3  C2  UNL     1     -32.038  19.142  -0.047  1.00 20.00     0.154 A 
HETATM    4  C1  UNL     1     -30.925  18.788   0.899  1.00 20.00     0.201 A 
HETATM    5  O8  UNL     1     -30.761  18.705  -0.525  1.00 20.00    -0.380 OA
ENDBRANCH   2   3
ENDBRANCH   1   2
BRANCH   1   6
HETATM    6  C7  UNL     1     -33.957  18.119  -2.945  1.00 20.00    -0.003 C 
HETATM    7  C3  UNL     1     -32.913  18.978  -3.662  1.00 20.00     0.026 C 
HETATM    8  C4  UNL     1     -33.376  16.742  -2.611  1.00 20.00     0.026 C 
HETATM    9  C5  UNL     1     -35.212  17.970  -3.810  1.00 20.00     0.026 C 
ENDBRANCH   1   6
TORSDOF 3
ENDMDL
MODEL 2
REMARK VINA RESULT:      -3.0      3.075      3.852
REMARK  3 active torsions:
REMARK  status: ('A' for Active; 'I' for Inactive)
REMARK    1  A    between atoms: C2_2  and  C6_6 
REMARK    2  A    between atoms: C6_6  and  S9_9 
REMARK    3  A    between atoms: C7_7  and  S9_9 
ROOT
HETATM    1  S9  UNL     1     -33.618  15.142  -4.184  1.00 20.00    -0.158 SA
ENDROOT
BRANCH   1   2
HETATM    2  C6  UNL     1     -33.513  16.835  -3.568  1.00 20.00     0.108 C 
BRANCH   2   3
HETATM    3  C2  UNL     1     -33.430  16.847  -2.053  1.00 20.00     0.154 A 
HETATM    4  C1  UNL     1     -32.734  17.959  -1.320  1.00 20.00     0.201 A 
HETATM    5  O8  UNL     1     -34.165  17.902  -1.424  1.00 20.00    -0.380 OA
ENDBRANCH   2   3
ENDBRANCH   1   2
BRANCH   1   6
HETATM    6  C7  UNL     1     -34.845  15.439  -5.515  1.00 20.00    -0.003 C 
HETATM    7  C3  UNL     1     -35.428  16.845  -5.341  1.00 20.00     0.026 C 
HETATM    8  C4  UNL     1     -34.131  15.323  -6.865  1.00 20.00     0.026 C 
HETATM    9  C5  UNL     1     -35.951  14.386  -5.407  1.00 20.00     0.026 C 
ENDBRANCH   1   6
TORSDOF 3
ENDMDL
MODEL 3
REMARK VINA RESULT:      -3.0      2.758      3.484
REMARK  3 active torsions:
REMARK  status: ('A' for Active; 'I' for Inactive)
REMARK    1  A    between atoms: C2_2  and  C6_6 
REMARK    2  A    between atoms: C6_6  and  S9_9 
REMARK    3  A    between atoms: C7_7  and  S9_9 
ROOT
HETATM    1  S9  UNL     1     -34.472  17.060  -4.699  1.00 20.00    -0.158 SA
ENDROOT
BRANCH   1   2
HETATM    2  C6  UNL     1     -33.376  16.724  -3.305  1.00 20.00     0.108 C 
BRANCH   2   3
HETATM    3  C2  UNL     1     -33.362  17.898  -2.344  1.00 20.00     0.154 A 
HETATM    4  C1  UNL     1     -33.727  17.722  -0.896  1.00 20.00     0.201 A 
HETATM    5  O8  UNL     1     -32.360  17.822  -1.325  1.00 20.00    -0.380 OA
ENDBRANCH   2   3
ENDBRANCH   1   2
BRANCH   1   6
HETATM    6  C7  UNL     1     -34.643  15.335  -5.300  1.00 20.00    -0.003 C 
HETATM    7  C3  UNL     1     -33.914  15.208  -6.641  1.00 20.00     0.026 C 
HETATM    8  C4  UNL     1     -34.016  14.398  -4.263  1.00 20.00     0.026 C 
HETATM    9  C5  UNL     1     -36.131  15.019  -5.471  1.00 20.00     0.026 C 
ENDBRANCH   1   6
TORSDOF 3
ENDMDL
MODEL 4
REMARK VINA RESULT:      -2.9      3.558      5.435
REMARK  3 active torsions:
REMARK  status: ('A' for Active; 'I' for Inactive)
REMARK    1  A    between atoms: C2_2  and  C6_6 
REMARK    2  A    between atoms: C6_6  and  S9_9 
REMARK    3  A    between atoms: C7_7  and  S9_9 
ROOT
HETATM    1  S9  UNL     1     -33.313  16.259  -3.362  1.00 20.00    -0.158 SA
ENDROOT
BRANCH   1   2
HETATM    2  C6  UNL     1     -34.380  16.400  -4.810  1.00 20.00     0.108 C 
BRANCH   2   3
HETATM    3  C2  UNL     1     -34.657  15.032  -5.403  1.00 20.00     0.154 A 
HETATM    4  C1  UNL     1     -35.696  14.842  -6.473  1.00 20.00     0.201 A 
HETATM    5  O8  UNL     1     -34.294  14.895  -6.781  1.00 20.00    -0.380 OA
ENDBRANCH   2   3
ENDBRANCH   1   2
BRANCH   1   6
HETATM    6  C7  UNL     1     -33.775  17.843  -2.559  1.00 20.00    -0.003 C 
HETATM    7  C3  UNL     1     -35.166  18.254  -3.049  1.00 20.00     0.026 C 
HETATM    8  C4  UNL     1     -33.786  17.631  -1.042  1.00 20.00     0.026 C 
HETATM    9  C5  UNL     1     -32.740  18.906  -2.938  1.00 20.00     0.026 C 
ENDBRANCH   1   6
TORSDOF 3
ENDMDL
MODEL 5
REMARK VINA RESULT:      -2.9      3.552      5.412
REMARK  3 active torsions:
REMARK  status: ('A' for Active; 'I' for Inactive)
REMARK    1  A    between atoms: C2_2  and  C6_6 
REMARK    2  A    between atoms: C6_6  and  S9_9 
REMARK    3  A    between atoms: C7_7  and  S9_9 
ROOT
HETATM    1  S9  UNL     1     -33.320  16.259  -3.355  1.00 20.00    -0.158 SA
ENDROOT
BRANCH   1   2
HETATM    2  C6  UNL     1     -34.398  16.399  -4.796  1.00 20.00     0.108 C 
BRANCH   2   3
HETATM    3  C2  UNL     1     -34.663  15.031  -5.397  1.00 20.00     0.154 A 
HETATM    4  C1  UNL     1     -35.682  14.844  -6.485  1.00 20.00     0.201 A 
HETATM    5  O8  UNL     1     -34.276  14.898  -6.768  1.00 20.00    -0.380 OA
ENDBRANCH   2   3
ENDBRANCH   1   2
BRANCH   1   6
HETATM    6  C7  UNL     1     -33.775  17.845  -2.552  1.00 20.00    -0.003 C 
HETATM    7  C3  UNL     1     -33.784  17.641  -1.034  1.00 20.00     0.026 C 
HETATM    8  C4  UNL     1     -32.735  18.900  -2.941  1.00 20.00     0.026 C 
HETATM    9  C5  UNL     1     -35.164  18.263  -3.042  1.00 20.00     0.026 C 
ENDBRANCH   1   6
TORSDOF 3
ENDMDL
MODEL 6
REMARK VINA RESULT:      -2.9     11.914     13.015
REMARK  3 active torsions:
REMARK  status: ('A' for Active; 'I' for Inactive)
REMARK    1  A    between atoms: C2_2  and  C6_6 
REMARK    2  A    between atoms: C6_6  and  S9_9 
REMARK    3  A    between atoms: C7_7  and  S9_9 
ROOT
HETATM    1  S9  UNL     1     -41.898  12.871   6.695  1.00 20.00    -0.158 SA
ENDROOT
BRANCH   1   2
HETATM    2  C6  UNL     1     -40.291  13.245   5.965  1.00 20.00     0.108 C 
BRANCH   2   3
HETATM    3  C2  UNL     1     -39.538  11.967   5.649  1.00 20.00     0.154 A 
HETATM    4  C1  UNL     1     -39.090  11.653   4.249  1.00 20.00     0.201 A 
HETATM    5  O8  UNL     1     -38.181  12.160   5.239  1.00 20.00    -0.380 OA
ENDBRANCH   2   3
ENDBRANCH   1   2
BRANCH   1   6
HETATM    6  C7  UNL     1     -41.878  14.152   8.008  1.00 20.00    -0.003 C 
HETATM    7  C3  UNL     1     -42.460  15.448   7.438  1.00 20.00     0.026 C 
HETATM    8  C4  UNL     1     -42.730  13.656   9.180  1.00 20.00     0.026 C 
HETATM    9  C5  UNL     1     -40.431  14.371   8.458  1.00 20.00     0.026 C 
ENDBRANCH   1   6
TORSDOF 3
ENDMDL
MODEL 7
REMARK VINA RESULT:      -2.9     11.913     13.014
REMARK  3 active torsions:
REMARK  status: ('A' for Active; 'I' for Inactive)
REMARK    1  A    between atoms: C2_2  and  C6_6 
REMARK    2  A    between atoms: C6_6  and  S9_9 
REMARK    3  A    between atoms: C7_7  and  S9_9 
ROOT
HETATM    1  S9  UNL     1     -41.878  12.863   6.696  1.00 20.00    -0.158 SA
ENDROOT
BRANCH   1   2
HETATM    2  C6  UNL     1     -40.258  13.236   5.994  1.00 20.00     0.108 C 
BRANCH   2   3
HETATM    3  C2  UNL     1     -39.522  11.956   5.644  1.00 20.00     0.154 A 
HETATM    4  C1  UNL     1     -39.093  11.665   4.233  1.00 20.00     0.201 A 
HETATM    5  O8  UNL     1     -38.167  12.145   5.221  1.00 20.00    -0.380 OA
ENDBRANCH   2   3
ENDBRANCH   1   2
BRANCH   1   6
HETATM    6  C7  UNL     1     -41.878  14.144   8.010  1.00 20.00    -0.003 C 
HETATM    7  C3  UNL     1     -40.437  14.370   8.475  1.00 20.00     0.026 C 
HETATM    8  C4  UNL     1     -42.458  15.435   7.426  1.00 20.00     0.026 C 
HETATM    9  C5  UNL     1     -42.743  13.652   9.174  1.00 20.00     0.026 C 
ENDBRANCH   1   6
TORSDOF 3
ENDMDL
MODEL 8
REMARK VINA RESULT:      -2.9     11.914     13.014
REMARK  3 active torsions:
REMARK  status: ('A' for Active; 'I' for Inactive)
REMARK    1  A    between atoms: C2_2  and  C6_6 
REMARK    2  A    between atoms: C6_6  and  S9_9 
REMARK    3  A    between atoms: C7_7  and  S9_9 
ROOT
HETATM    1  S9  UNL     1     -41.861  12.884   6.695  1.00 20.00    -0.158 SA
ENDROOT
BRANCH   1   2
HETATM    2  C6  UNL     1     -40.219  13.240   6.037  1.00 20.00     0.108 C 
BRANCH   2   3
HETATM    3  C2  UNL     1     -39.504  11.955   5.665  1.00 20.00     0.154 A 
HETATM    4  C1  UNL     1     -39.100  11.671   4.246  1.00 20.00     0.201 A 
HETATM    5  O8  UNL     1     -38.154  12.131   5.223  1.00 20.00    -0.380 OA
ENDBRANCH   2   3
ENDBRANCH   1   2
BRANCH   1   6
HETATM    6  C7  UNL     1     -41.877  14.153   8.021  1.00 20.00    -0.003 C 
HETATM    7  C3  UNL     1     -42.736  13.641   9.180  1.00 20.00     0.026 C 
HETATM    8  C4  UNL     1     -40.436  14.382   8.487  1.00 20.00     0.026 C 
HETATM    9  C5  UNL     1     -42.464  15.448   7.453  1.00 20.00     0.026 C 
ENDBRANCH   1   6
TORSDOF 3
ENDMDL
MODEL 9
REMARK VINA RESULT:      -2.9      3.511      5.414
REMARK  3 active torsions:
REMARK  status: ('A' for Active; 'I' for Inactive)
REMARK    1  A    between atoms: C2_2  and  C6_6 
REMARK    2  A    between atoms: C6_6  and  S9_9 
REMARK    3  A    between atoms: C7_7  and  S9_9 
ROOT
HETATM    1  S9  UNL     1     -33.345  16.304  -3.409  1.00 20.00    -0.158 SA
ENDROOT
BRANCH   1   2
HETATM    2  C6  UNL     1     -34.483  16.482  -4.798  1.00 20.00     0.108 C 
BRANCH   2   3
HETATM    3  C2  UNL     1     -34.826  15.125  -5.383  1.00 20.00     0.154 A 
HETATM    4  C1  UNL     1     -35.657  15.001  -6.629  1.00 20.00     0.201 A 
HETATM    5  O8  UNL     1     -34.229  14.856  -6.656  1.00 20.00    -0.380 OA
ENDBRANCH   2   3
ENDBRANCH   1   2
BRANCH   1   6
HETATM    6  C7  UNL     1     -33.771  17.864  -2.540  1.00 20.00    -0.003 C 
HETATM    7  C3  UNL     1     -32.728  18.925  -2.898  1.00 20.00     0.026 C 
HETATM    8  C4  UNL     1     -35.163  18.308  -3.000  1.00 20.00     0.026 C 
HETATM    9  C5  UNL     1     -33.768  17.601  -1.031  1.00 20.00     0.026 C 
ENDBRANCH   1   6
TORSDOF 3
ENDMDL
