MODEL 1
REMARK VINA RESULT:      -4.4      0.000      0.000
REMARK  3 active torsions:
REMARK  status: ('A' for Active; 'I' for Inactive)
REMARK    1  A    between atoms: C5_5  and  C8_8 
REMARK    2  A    between atoms: C7_7  and  N9_9 
REMARK    3  A    between atoms: C8_8  and  N9_9 
ROOT
HETATM    1  C1  UNL     1     -32.583   8.947   0.478  1.00 20.00     0.013 C 
HETATM    2  C2  UNL     1     -32.578   8.824   1.673  1.00 20.00    -0.087 C 
HETATM    3  C7  UNL     1     -32.572   8.681   3.131  1.00 20.00     0.362 C 
ENDROOT
BRANCH   3   4
HETATM    4  N9  UNL     1     -32.681   7.287   3.506  1.00 20.00     0.098 N 
HETATM    5  H22 UNL     1     -33.335   6.809   2.903  1.00 20.00     0.317 HD
BRANCH   4   6
HETATM    6  C8  UNL     1     -33.182   7.176   4.897  1.00 20.00     0.221 C 
HETATM    7  C6  UNL     1     -33.397   8.575   5.457  1.00 20.00     0.043 C 
BRANCH   6   8
HETATM    8  C5  UNL     1     -34.469   6.364   4.900  1.00 20.00     0.018 A 
HETATM    9  C3  UNL     1     -34.426   4.874   4.705  1.00 20.00     0.007 A 
HETATM   10  C4  UNL     1     -34.783   5.446   6.049  1.00 20.00     0.007 A 
ENDBRANCH   6   8
ENDBRANCH   4   6
ENDBRANCH   3   4
TORSDOF 3
ENDMDL
MODEL 2
REMARK VINA RESULT:      -4.3      1.279      1.686
REMARK  3 active torsions:
REMARK  status: ('A' for Active; 'I' for Inactive)
REMARK    1  A    between atoms: C5_5  and  C8_8 
REMARK    2  A    between atoms: C7_7  and  N9_9 
REMARK    3  A    between atoms: C8_8  and  N9_9 
ROOT
HETATM    1  C1  UNL     1     -32.865   9.460   1.424  1.00 20.00     0.013 C 
HETATM    2  C2  UNL     1     -32.523   8.610   2.201  1.00 20.00    -0.087 C 
HETATM    3  C7  UNL     1     -32.101   7.574   3.147  1.00 20.00     0.362 C 
ENDROOT
BRANCH   3   4
HETATM    4  N9  UNL     1     -33.070   7.431   4.213  1.00 20.00     0.098 N 
HETATM    5  H22 UNL     1     -32.612   7.152   5.070  1.00 20.00     0.317 HD
BRANCH   4   6
HETATM    6  C8  UNL     1     -34.056   6.380   3.862  1.00 20.00     0.221 C 
HETATM    7  C6  UNL     1     -33.311   5.155   3.352  1.00 20.00     0.043 C 
BRANCH   6   8
HETATM    8  C5  UNL     1     -34.898   6.058   5.088  1.00 20.00     0.018 A 
HETATM    9  C3  UNL     1     -34.478   4.962   6.028  1.00 20.00     0.007 A 
HETATM   10  C4  UNL     1     -34.394   6.399   6.463  1.00 20.00     0.007 A 
ENDBRANCH   6   8
ENDBRANCH   4   6
ENDBRANCH   3   4
TORSDOF 3
ENDMDL
MODEL 3
REMARK VINA RESULT:      -4.2      1.547      2.107
REMARK  3 active torsions:
REMARK  status: ('A' for Active; 'I' for Inactive)
REMARK    1  A    between atoms: C5_5  and  C8_8 
REMARK    2  A    between atoms: C7_7  and  N9_9 
REMARK    3  A    between atoms: C8_8  and  N9_9 
ROOT
HETATM    1  C1  UNL     1     -32.927   4.715   2.437  1.00 20.00     0.013 C 
HETATM    2  C2  UNL     1     -32.635   5.864   2.625  1.00 20.00    -0.087 C 
HETATM    3  C7  UNL     1     -32.275   7.266   2.851  1.00 20.00     0.362 C 
ENDROOT
BRANCH   3   4
HETATM    4  N9  UNL     1     -33.280   7.927   3.656  1.00 20.00     0.098 N 
HETATM    5  H22 UNL     1     -33.277   8.922   3.476  1.00 20.00     0.317 HD
BRANCH   4   6
HETATM    6  C8  UNL     1     -32.988   7.726   5.096  1.00 20.00     0.221 C 
HETATM    7  C6  UNL     1     -32.544   9.052   5.699  1.00 20.00     0.043 C 
BRANCH   6   8
HETATM    8  C5  UNL     1     -34.231   7.182   5.786  1.00 20.00     0.018 A 
HETATM    9  C3  UNL     1     -35.004   6.049   5.171  1.00 20.00     0.007 A 
HETATM   10  C4  UNL     1     -34.207   5.822   6.426  1.00 20.00     0.007 A 
ENDBRANCH   6   8
ENDBRANCH   4   6
ENDBRANCH   3   4
TORSDOF 3
ENDMDL
MODEL 4
REMARK VINA RESULT:      -4.2      1.711      3.550
REMARK  3 active torsions:
REMARK  status: ('A' for Active; 'I' for Inactive)
REMARK    1  A    between atoms: C5_5  and  C8_8 
REMARK    2  A    between atoms: C7_7  and  N9_9 
REMARK    3  A    between atoms: C8_8  and  N9_9 
ROOT
HETATM    1  C1  UNL     1     -32.851   4.791   2.360  1.00 20.00     0.013 C 
HETATM    2  C2  UNL     1     -33.575   4.975   3.301  1.00 20.00    -0.087 C 
HETATM    3  C7  UNL     1     -34.456   5.193   4.450  1.00 20.00     0.362 C 
ENDROOT
BRANCH   3   4
HETATM    4  N9  UNL     1     -34.923   6.563   4.482  1.00 20.00     0.098 N 
HETATM    5  H22 UNL     1     -34.789   7.002   3.582  1.00 20.00     0.317 HD
BRANCH   4   6
HETATM    6  C8  UNL     1     -34.153   7.338   5.484  1.00 20.00     0.221 C 
HETATM    7  C6  UNL     1     -34.022   6.509   6.754  1.00 20.00     0.043 C 
BRANCH   6   8
HETATM    8  C5  UNL     1     -32.793   7.694   4.902  1.00 20.00     0.018 A 
HETATM    9  C3  UNL     1     -32.699   8.451   3.606  1.00 20.00     0.007 A 
HETATM   10  C4  UNL     1     -32.322   9.122   4.898  1.00 20.00     0.007 A 
ENDBRANCH   6   8
ENDBRANCH   4   6
ENDBRANCH   3   4
TORSDOF 3
ENDMDL
MODEL 5
REMARK VINA RESULT:      -4.2      1.443      4.088
REMARK  3 active torsions:
REMARK  status: ('A' for Active; 'I' for Inactive)
REMARK    1  A    between atoms: C5_5  and  C8_8 
REMARK    2  A    between atoms: C7_7  and  N9_9 
REMARK    3  A    between atoms: C8_8  and  N9_9 
ROOT
HETATM    1  C1  UNL     1     -34.634   5.041   6.318  1.00 20.00     0.013 C 
HETATM    2  C2  UNL     1     -34.275   6.173   6.139  1.00 20.00    -0.087 C 
HETATM    3  C7  UNL     1     -33.834   7.553   5.926  1.00 20.00     0.362 C 
ENDROOT
BRANCH   3   4
HETATM    4  N9  UNL     1     -34.049   7.952   4.552  1.00 20.00     0.098 N 
HETATM    5  H22 UNL     1     -34.260   7.145   3.980  1.00 20.00     0.317 HD
BRANCH   4   6
HETATM    6  C8  UNL     1     -32.823   8.585   4.010  1.00 20.00     0.221 C 
HETATM    7  C6  UNL     1     -32.031   9.190   5.160  1.00 20.00     0.043 C 
BRANCH   6   8
HETATM    8  C5  UNL     1     -32.012   7.539   3.258  1.00 20.00     0.018 A 
HETATM    9  C3  UNL     1     -32.679   6.298   2.731  1.00 20.00     0.007 A 
HETATM   10  C4  UNL     1     -32.199   7.358   1.777  1.00 20.00     0.007 A 
ENDBRANCH   6   8
ENDBRANCH   4   6
ENDBRANCH   3   4
TORSDOF 3
ENDMDL
MODEL 6
REMARK VINA RESULT:      -4.0      1.059      2.129
REMARK  3 active torsions:
REMARK  status: ('A' for Active; 'I' for Inactive)
REMARK    1  A    between atoms: C5_5  and  C8_8 
REMARK    2  A    between atoms: C7_7  and  N9_9 
REMARK    3  A    between atoms: C8_8  and  N9_9 
ROOT
HETATM    1  C1  UNL     1     -32.476   8.724   0.786  1.00 20.00     0.013 C 
HETATM    2  C2  UNL     1     -32.280   8.058   1.766  1.00 20.00    -0.087 C 
HETATM    3  C7  UNL     1     -32.037   7.250   2.963  1.00 20.00     0.362 C 
ENDROOT
BRANCH   3   4
HETATM    4  N9  UNL     1     -32.880   6.073   2.964  1.00 20.00     0.098 N 
HETATM    5  H22 UNL     1     -33.352   5.977   2.076  1.00 20.00     0.317 HD
BRANCH   4   6
HETATM    6  C8  UNL     1     -33.916   6.194   4.019  1.00 20.00     0.221 C 
HETATM    7  C6  UNL     1     -34.314   4.799   4.480  1.00 20.00     0.043 C 
BRANCH   6   8
HETATM    8  C5  UNL     1     -33.366   7.031   5.164  1.00 20.00     0.018 A 
HETATM    9  C3  UNL     1     -34.093   8.267   5.617  1.00 20.00     0.007 A 
HETATM   10  C4  UNL     1     -34.067   7.046   6.495  1.00 20.00     0.007 A 
ENDBRANCH   6   8
ENDBRANCH   4   6
ENDBRANCH   3   4
TORSDOF 3
ENDMDL
MODEL 7
REMARK VINA RESULT:      -3.9      9.052     10.224
REMARK  3 active torsions:
REMARK  status: ('A' for Active; 'I' for Inactive)
REMARK    1  A    between atoms: C5_5  and  C8_8 
REMARK    2  A    between atoms: C7_7  and  N9_9 
REMARK    3  A    between atoms: C8_8  and  N9_9 
ROOT
HETATM    1  C1  UNL     1     -40.726  17.004   8.267  1.00 20.00     0.013 C 
HETATM    2  C2  UNL     1     -40.595  15.811   8.241  1.00 20.00    -0.087 C 
HETATM    3  C7  UNL     1     -40.439  14.355   8.214  1.00 20.00     0.362 C 
ENDROOT
BRANCH   3   4
HETATM    4  N9  UNL     1     -39.812  13.932   6.980  1.00 20.00     0.098 N 
HETATM    5  H22 UNL     1     -39.704  14.716   6.352  1.00 20.00     0.317 HD
BRANCH   4   6
HETATM    6  C8  UNL     1     -40.660  12.921   6.302  1.00 20.00     0.221 C 
HETATM    7  C6  UNL     1     -41.393  13.589   5.147  1.00 20.00     0.043 C 
BRANCH   6   8
HETATM    8  C5  UNL     1     -39.782  11.774   5.822  1.00 20.00     0.018 A 
HETATM    9  C3  UNL     1     -39.340  11.707   4.387  1.00 20.00     0.007 A 
HETATM   10  C4  UNL     1     -38.342  12.021   5.467  1.00 20.00     0.007 A 
ENDBRANCH   6   8
ENDBRANCH   4   6
ENDBRANCH   3   4
TORSDOF 3
ENDMDL
MODEL 8
REMARK VINA RESULT:      -3.9      1.787      4.408
REMARK  3 active torsions:
REMARK  status: ('A' for Active; 'I' for Inactive)
REMARK    1  A    between atoms: C5_5  and  C8_8 
REMARK    2  A    between atoms: C7_7  and  N9_9 
REMARK    3  A    between atoms: C8_8  and  N9_9 
ROOT
HETATM    1  C1  UNL     1     -34.328   6.862   6.949  1.00 20.00     0.013 C 
HETATM    2  C2  UNL     1     -34.513   6.113   6.029  1.00 20.00    -0.087 C 
HETATM    3  C7  UNL     1     -34.741   5.194   4.910  1.00 20.00     0.362 C 
ENDROOT
BRANCH   3   4
HETATM    4  N9  UNL     1     -34.457   5.845   3.649  1.00 20.00     0.098 N 
HETATM    5  H22 UNL     1     -34.928   5.370   2.893  1.00 20.00     0.317 HD
BRANCH   4   6
HETATM    6  C8  UNL     1     -33.000   5.803   3.374  1.00 20.00     0.221 C 
HETATM    7  C6  UNL     1     -32.748   4.874   2.195  1.00 20.00     0.043 C 
BRANCH   6   8
HETATM    8  C5  UNL     1     -32.504   7.214   3.095  1.00 20.00     0.018 A 
HETATM    9  C3  UNL     1     -33.244   8.401   3.646  1.00 20.00     0.007 A 
HETATM   10  C4  UNL     1     -31.894   8.034   4.198  1.00 20.00     0.007 A 
ENDBRANCH   6   8
ENDBRANCH   4   6
ENDBRANCH   3   4
TORSDOF 3
ENDMDL
MODEL 9
REMARK VINA RESULT:      -3.8      1.641      3.692
REMARK  3 active torsions:
REMARK  status: ('A' for Active; 'I' for Inactive)
REMARK    1  A    between atoms: C5_5  and  C8_8 
REMARK    2  A    between atoms: C7_7  and  N9_9 
REMARK    3  A    between atoms: C8_8  and  N9_9 
ROOT
HETATM    1  C1  UNL     1     -34.346   6.362   6.554  1.00 20.00     0.013 C 
HETATM    2  C2  UNL     1     -33.847   7.288   5.974  1.00 20.00    -0.087 C 
HETATM    3  C7  UNL     1     -33.242   8.421   5.271  1.00 20.00     0.362 C 
ENDROOT
BRANCH   3   4
HETATM    4  N9  UNL     1     -32.175   7.972   4.403  1.00 20.00     0.098 N 
HETATM    5  H22 UNL     1     -31.587   8.750   4.135  1.00 20.00     0.317 HD
BRANCH   4   6
HETATM    6  C8  UNL     1     -32.743   7.385   3.165  1.00 20.00     0.221 C 
HETATM    7  C6  UNL     1     -32.088   8.048   1.961  1.00 20.00     0.043 C 
BRANCH   6   8
HETATM    8  C5  UNL     1     -32.512   5.881   3.175  1.00 20.00     0.018 A 
HETATM    9  C3  UNL     1     -33.674   4.937   3.316  1.00 20.00     0.007 A 
HETATM   10  C4  UNL     1     -32.945   5.042   2.005  1.00 20.00     0.007 A 
ENDBRANCH   6   8
ENDBRANCH   4   6
ENDBRANCH   3   4
TORSDOF 3
ENDMDL
