MODEL 1
REMARK VINA RESULT:      -4.0      0.000      0.000
REMARK  5 active torsions:
REMARK  status: ('A' for Active; 'I' for Inactive)
REMARK    1  A    between atoms: C3_3  and  C5_5 
REMARK    2  A    between atoms: C4_4  and  C6_6 
REMARK    3  A    between atoms: C5_5  and  C7_7 
REMARK    4  A    between atoms: C6_6  and  S9_9 
REMARK    5  A    between atoms: C7_7  and  S9_9 
ROOT
HETATM    1  C1  UNL     1     -34.447   4.978   5.241  1.00 20.00     0.059 C 
HETATM    2  C3  UNL     1     -34.729   5.903   6.347  1.00 20.00     0.124 C 
HETATM    3  N8  UNL     1     -34.226   4.246   4.367  1.00 20.00    -0.197 NA
ENDROOT
BRANCH   2   4
HETATM    4  C5  UNL     1     -33.826   7.135   6.278  1.00 20.00     0.024 C 
BRANCH   4   5
HETATM    5  C7  UNL     1     -33.974   7.847   4.935  1.00 20.00     0.075 C 
BRANCH   5   6
HETATM    6  S9  UNL     1     -32.358   8.394   4.315  1.00 20.00    -0.169 SA
BRANCH   6   7
HETATM    7  C6  UNL     1     -32.220   7.265   2.911  1.00 20.00     0.073 C 
BRANCH   7   8
HETATM    8  C4  UNL     1     -32.138   8.044   1.605  1.00 20.00     0.006 C 
HETATM    9  C2  UNL     1     -32.811   9.403   1.734  1.00 20.00     0.006 C 
ENDBRANCH   7   8
ENDBRANCH   6   7
ENDBRANCH   5   6
ENDBRANCH   4   5
ENDBRANCH   2   4
TORSDOF 5
ENDMDL
MODEL 2
REMARK VINA RESULT:      -4.0      2.576      3.912
REMARK  5 active torsions:
REMARK  status: ('A' for Active; 'I' for Inactive)
REMARK    1  A    between atoms: C3_3  and  C5_5 
REMARK    2  A    between atoms: C4_4  and  C6_6 
REMARK    3  A    between atoms: C5_5  and  C7_7 
REMARK    4  A    between atoms: C6_6  and  S9_9 
REMARK    5  A    between atoms: C7_7  and  S9_9 
ROOT
HETATM    1  C1  UNL     1     -32.509   8.693   3.304  1.00 20.00     0.059 C 
HETATM    2  C3  UNL     1     -32.503   8.518   4.763  1.00 20.00     0.124 C 
HETATM    3  N8  UNL     1     -32.511   8.830   2.152  1.00 20.00    -0.197 NA
ENDROOT
BRANCH   2   4
HETATM    4  C5  UNL     1     -33.851   7.994   5.260  1.00 20.00     0.024 C 
BRANCH   4   5
HETATM    5  C7  UNL     1     -33.670   7.086   6.474  1.00 20.00     0.075 C 
BRANCH   5   6
HETATM    6  S9  UNL     1     -34.624   5.554   6.279  1.00 20.00    -0.169 SA
BRANCH   6   7
HETATM    7  C6  UNL     1     -34.775   5.567   4.478  1.00 20.00     0.073 C 
BRANCH   7   8
HETATM    8  C4  UNL     1     -33.844   4.533   3.857  1.00 20.00     0.006 C 
HETATM    9  C2  UNL     1     -33.023   5.142   2.729  1.00 20.00     0.006 C 
ENDBRANCH   7   8
ENDBRANCH   6   7
ENDBRANCH   5   6
ENDBRANCH   4   5
ENDBRANCH   2   4
TORSDOF 5
ENDMDL
MODEL 3
REMARK VINA RESULT:      -3.8      2.381      4.455
REMARK  5 active torsions:
REMARK  status: ('A' for Active; 'I' for Inactive)
REMARK    1  A    between atoms: C3_3  and  C5_5 
REMARK    2  A    between atoms: C4_4  and  C6_6 
REMARK    3  A    between atoms: C5_5  and  C7_7 
REMARK    4  A    between atoms: C6_6  and  S9_9 
REMARK    5  A    between atoms: C7_7  and  S9_9 
ROOT
HETATM    1  C1  UNL     1     -32.351   8.268   1.642  1.00 20.00     0.059 C 
HETATM    2  C3  UNL     1     -32.168   7.360   2.782  1.00 20.00     0.124 C 
HETATM    3  N8  UNL     1     -32.496   8.985   0.741  1.00 20.00    -0.197 NA
ENDROOT
BRANCH   2   4
HETATM    4  C5  UNL     1     -32.349   8.098   4.109  1.00 20.00     0.024 C 
BRANCH   4   5
HETATM    5  C7  UNL     1     -33.754   7.882   4.667  1.00 20.00     0.075 C 
BRANCH   5   6
HETATM    6  S9  UNL     1     -33.682   7.274   6.376  1.00 20.00    -0.169 SA
BRANCH   6   7
HETATM    7  C6  UNL     1     -34.684   5.784   6.166  1.00 20.00     0.073 C 
BRANCH   7   8
HETATM    8  C4  UNL     1     -34.913   5.499   4.687  1.00 20.00     0.006 C 
HETATM    9  C2  UNL     1     -34.008   4.377   4.197  1.00 20.00     0.006 C 
ENDBRANCH   7   8
ENDBRANCH   6   7
ENDBRANCH   5   6
ENDBRANCH   4   5
ENDBRANCH   2   4
TORSDOF 5
ENDMDL
MODEL 4
REMARK VINA RESULT:      -3.6      1.755      2.471
REMARK  5 active torsions:
REMARK  status: ('A' for Active; 'I' for Inactive)
REMARK    1  A    between atoms: C3_3  and  C5_5 
REMARK    2  A    between atoms: C4_4  and  C6_6 
REMARK    3  A    between atoms: C5_5  and  C7_7 
REMARK    4  A    between atoms: C6_6  and  S9_9 
REMARK    5  A    between atoms: C7_7  and  S9_9 
ROOT
HETATM    1  C1  UNL     1     -33.382   4.945   3.180  1.00 20.00     0.059 C 
HETATM    2  C3  UNL     1     -34.181   4.529   4.341  1.00 20.00     0.124 C 
HETATM    3  N8  UNL     1     -32.752   5.272   2.262  1.00 20.00    -0.197 NA
ENDROOT
BRANCH   2   4
HETATM    4  C5  UNL     1     -35.096   5.660   4.813  1.00 20.00     0.024 C 
BRANCH   4   5
HETATM    5  C7  UNL     1     -34.859   5.974   6.288  1.00 20.00     0.075 C 
BRANCH   5   6
HETATM    6  S9  UNL     1     -33.541   7.208   6.479  1.00 20.00    -0.169 SA
BRANCH   6   7
HETATM    7  C6  UNL     1     -33.746   8.058   4.897  1.00 20.00     0.073 C 
BRANCH   7   8
HETATM    8  C4  UNL     1     -32.390   8.435   4.314  1.00 20.00     0.006 C 
HETATM    9  C2  UNL     1     -32.510   8.805   2.842  1.00 20.00     0.006 C 
ENDBRANCH   7   8
ENDBRANCH   6   7
ENDBRANCH   5   6
ENDBRANCH   4   5
ENDBRANCH   2   4
TORSDOF 5
ENDMDL
MODEL 5
REMARK VINA RESULT:      -3.6     12.162     12.611
REMARK  5 active torsions:
REMARK  status: ('A' for Active; 'I' for Inactive)
REMARK    1  A    between atoms: C3_3  and  C5_5 
REMARK    2  A    between atoms: C4_4  and  C6_6 
REMARK    3  A    between atoms: C5_5  and  C7_7 
REMARK    4  A    between atoms: C6_6  and  S9_9 
REMARK    5  A    between atoms: C7_7  and  S9_9 
ROOT
HETATM    1  C1  UNL     1     -31.815  18.466  -0.333  1.00 20.00     0.059 C 
HETATM    2  C3  UNL     1     -33.259  18.198  -0.292  1.00 20.00     0.124 C 
HETATM    3  N8  UNL     1     -30.674  18.677  -0.364  1.00 20.00    -0.197 NA
ENDROOT
BRANCH   2   4
HETATM    4  C5  UNL     1     -33.684  17.288  -1.446  1.00 20.00     0.024 C 
BRANCH   4   5
HETATM    5  C7  UNL     1     -34.391  18.087  -2.539  1.00 20.00     0.075 C 
BRANCH   5   6
HETATM    6  S9  UNL     1     -34.078  17.358  -4.172  1.00 20.00    -0.169 SA
BRANCH   6   7
HETATM    7  C6  UNL     1     -33.217  15.864  -3.631  1.00 20.00     0.073 C 
BRANCH   7   8
HETATM    8  C4  UNL     1     -33.672  14.660  -4.447  1.00 20.00     0.006 C 
HETATM    9  C2  UNL     1     -34.088  15.075  -5.851  1.00 20.00     0.006 C 
ENDBRANCH   7   8
ENDBRANCH   6   7
ENDBRANCH   5   6
ENDBRANCH   4   5
ENDBRANCH   2   4
TORSDOF 5
ENDMDL
MODEL 6
REMARK VINA RESULT:      -3.5     12.083     12.753
REMARK  5 active torsions:
REMARK  status: ('A' for Active; 'I' for Inactive)
REMARK    1  A    between atoms: C3_3  and  C5_5 
REMARK    2  A    between atoms: C4_4  and  C6_6 
REMARK    3  A    between atoms: C5_5  and  C7_7 
REMARK    4  A    between atoms: C6_6  and  S9_9 
REMARK    5  A    between atoms: C7_7  and  S9_9 
ROOT
HETATM    1  C1  UNL     1     -33.961  14.909  -5.647  1.00 20.00     0.059 C 
HETATM    2  C3  UNL     1     -33.887  14.770  -4.186  1.00 20.00     0.124 C 
HETATM    3  N8  UNL     1     -34.022  15.017  -6.800  1.00 20.00    -0.197 NA
ENDROOT
BRANCH   2   4
HETATM    4  C5  UNL     1     -33.282  16.020  -3.544  1.00 20.00     0.024 C 
BRANCH   4   5
HETATM    5  C7  UNL     1     -34.027  17.277  -3.989  1.00 20.00     0.075 C 
BRANCH   5   6
HETATM    6  S9  UNL     1     -34.495  18.287  -2.555  1.00 20.00    -0.169 SA
BRANCH   6   7
HETATM    7  C6  UNL     1     -33.585  17.378  -1.286  1.00 20.00     0.073 C 
BRANCH   7   8
HETATM    8  C4  UNL     1     -32.980  18.340  -0.270  1.00 20.00     0.006 C 
HETATM    9  C2  UNL     1     -31.480  18.492  -0.484  1.00 20.00     0.006 C 
ENDBRANCH   7   8
ENDBRANCH   6   7
ENDBRANCH   5   6
ENDBRANCH   4   5
ENDBRANCH   2   4
TORSDOF 5
ENDMDL
MODEL 7
REMARK VINA RESULT:      -3.4      2.471      3.712
REMARK  5 active torsions:
REMARK  status: ('A' for Active; 'I' for Inactive)
REMARK    1  A    between atoms: C3_3  and  C5_5 
REMARK    2  A    between atoms: C4_4  and  C6_6 
REMARK    3  A    between atoms: C5_5  and  C7_7 
REMARK    4  A    between atoms: C6_6  and  S9_9 
REMARK    5  A    between atoms: C7_7  and  S9_9 
ROOT
HETATM    1  C1  UNL     1     -32.561   6.210   2.495  1.00 20.00     0.059 C 
HETATM    2  C3  UNL     1     -33.221   4.900   2.576  1.00 20.00     0.124 C 
HETATM    3  N8  UNL     1     -32.040   7.245   2.429  1.00 20.00    -0.197 NA
ENDROOT
BRANCH   2   4
HETATM    4  C5  UNL     1     -33.678   4.601   4.004  1.00 20.00     0.024 C 
BRANCH   4   5
HETATM    5  C7  UNL     1     -34.743   5.598   4.457  1.00 20.00     0.075 C 
BRANCH   5   6
HETATM    6  S9  UNL     1     -34.750   5.755   6.265  1.00 20.00    -0.169 SA
BRANCH   6   7
HETATM    7  C6  UNL     1     -33.525   7.076   6.418  1.00 20.00     0.073 C 
BRANCH   7   8
HETATM    8  C4  UNL     1     -33.760   8.147   5.360  1.00 20.00     0.006 C 
HETATM    9  C2  UNL     1     -32.488   8.938   5.089  1.00 20.00     0.006 C 
ENDBRANCH   7   8
ENDBRANCH   6   7
ENDBRANCH   5   6
ENDBRANCH   4   5
ENDBRANCH   2   4
TORSDOF 5
ENDMDL
MODEL 8
REMARK VINA RESULT:      -3.4     11.608     12.288
REMARK  5 active torsions:
REMARK  status: ('A' for Active; 'I' for Inactive)
REMARK    1  A    between atoms: C3_3  and  C5_5 
REMARK    2  A    between atoms: C4_4  and  C6_6 
REMARK    3  A    between atoms: C5_5  and  C7_7 
REMARK    4  A    between atoms: C6_6  and  S9_9 
REMARK    5  A    between atoms: C7_7  and  S9_9 
ROOT
HETATM    1  C1  UNL     1     -33.681  15.184  -3.891  1.00 20.00     0.059 C 
HETATM    2  C3  UNL     1     -33.241  16.518  -3.459  1.00 20.00     0.124 C 
HETATM    3  N8  UNL     1     -34.027  14.131  -4.234  1.00 20.00    -0.197 NA
ENDROOT
BRANCH   2   4
HETATM    4  C5  UNL     1     -33.508  16.729  -1.968  1.00 20.00     0.024 C 
BRANCH   4   5
HETATM    5  C7  UNL     1     -33.932  18.169  -1.688  1.00 20.00     0.075 C 
BRANCH   5   6
HETATM    6  S9  UNL     1     -33.301  18.724  -0.078  1.00 20.00    -0.169 SA
BRANCH   6   7
HETATM    7  C6  UNL     1     -31.535  18.686  -0.462  1.00 20.00     0.073 C 
BRANCH   7   8
HETATM    8  C4  UNL     1     -30.716  19.102   0.753  1.00 20.00     0.006 C 
HETATM    9  C2  UNL     1     -31.191  18.382   2.008  1.00 20.00     0.006 C 
ENDBRANCH   7   8
ENDBRANCH   6   7
ENDBRANCH   5   6
ENDBRANCH   4   5
ENDBRANCH   2   4
TORSDOF 5
ENDMDL
MODEL 9
REMARK VINA RESULT:      -3.3     12.156     12.549
REMARK  5 active torsions:
REMARK  status: ('A' for Active; 'I' for Inactive)
REMARK    1  A    between atoms: C3_3  and  C5_5 
REMARK    2  A    between atoms: C4_4  and  C6_6 
REMARK    3  A    between atoms: C5_5  and  C7_7 
REMARK    4  A    between atoms: C6_6  and  S9_9 
REMARK    5  A    between atoms: C7_7  and  S9_9 
ROOT
HETATM    1  C1  UNL     1     -31.551  18.625   0.212  1.00 20.00     0.059 C 
HETATM    2  C3  UNL     1     -32.725  18.574   1.094  1.00 20.00     0.124 C 
HETATM    3  N8  UNL     1     -30.623  18.664  -0.483  1.00 20.00    -0.197 NA
ENDROOT
BRANCH   2   4
HETATM    4  C5  UNL     1     -34.023  18.631   0.286  1.00 20.00     0.024 C 
BRANCH   4   5
HETATM    5  C7  UNL     1     -33.954  17.703  -0.924  1.00 20.00     0.075 C 
BRANCH   5   6
HETATM    6  S9  UNL     1     -34.545  18.549  -2.418  1.00 20.00    -0.169 SA
BRANCH   6   7
HETATM    7  C6  UNL     1     -33.623  17.593  -3.643  1.00 20.00     0.073 C 
BRANCH   7   8
HETATM    8  C4  UNL     1     -33.242  16.229  -3.080  1.00 20.00     0.006 C 
HETATM    9  C2  UNL     1     -33.708  15.107  -3.998  1.00 20.00     0.006 C 
ENDBRANCH   7   8
ENDBRANCH   6   7
ENDBRANCH   5   6
ENDBRANCH   4   5
ENDBRANCH   2   4
TORSDOF 5
ENDMDL
