MODEL 1
REMARK VINA RESULT:      -4.5      0.000      0.000
REMARK  0 active torsions:
REMARK  status: ('A' for Active; 'I' for Inactive)
ROOT
HETATM    1  C1  UNL     1     -34.667  18.431  -4.251  1.00 20.00     0.010 A 
HETATM    2  C2  UNL     1     -34.082  18.773  -3.027  1.00 20.00     0.019 A 
HETATM    3  C3  UNL     1     -33.243  16.509  -2.741  1.00 20.00     0.034 A 
HETATM    4  C4  UNL     1     -33.834  16.202  -3.954  1.00 20.00     0.018 A 
HETATM    5  C5  UNL     1     -34.534  17.130  -4.715  1.00 20.00    -0.040 A 
HETATM    6  C6  UNL     1     -33.374  17.818  -2.279  1.00 20.00     0.011 A 
HETATM    7  C7  UNL     1     -33.857  14.926  -4.650  1.00 20.00     0.160 A 
HETATM    8  C8  UNL     1     -34.654  15.061  -5.924  1.00 20.00     0.093 A 
HETATM    9  C9  UNL     1     -35.075  16.548  -5.990  1.00 20.00     0.023 A 
HETATM   10  C10 UNL     1     -34.522  17.241  -7.231  1.00 20.00     0.015 C 
HETATM   11  O11 UNL     1     -33.316  13.914  -4.243  1.00 20.00    -0.292 OA
HETATM   12 BR12 UNL     1     -32.595  18.313  -0.628  1.00 20.00    -0.051 Br
ENDROOT
TORSDOF 0
ENDMDL
MODEL 2
REMARK VINA RESULT:      -4.2      2.996      4.704
REMARK  0 active torsions:
REMARK  status: ('A' for Active; 'I' for Inactive)
ROOT
HETATM    1  C1  UNL     1     -33.023  15.884  -3.398  1.00 20.00     0.010 A 
HETATM    2  C2  UNL     1     -33.363  15.472  -4.691  1.00 20.00     0.019 A 
HETATM    3  C3  UNL     1     -35.136  17.131  -4.805  1.00 20.00     0.034 A 
HETATM    4  C4  UNL     1     -34.776  17.515  -3.526  1.00 20.00     0.018 A 
HETATM    5  C5  UNL     1     -33.739  16.920  -2.817  1.00 20.00    -0.040 A 
HETATM    6  C6  UNL     1     -34.412  16.093  -5.389  1.00 20.00     0.011 A 
HETATM    7  C7  UNL     1     -35.366  18.550  -2.694  1.00 20.00     0.160 A 
HETATM    8  C8  UNL     1     -34.665  18.584  -1.357  1.00 20.00     0.093 A 
HETATM    9  C9  UNL     1     -33.547  17.519  -1.452  1.00 20.00     0.023 A 
HETATM   10  C10 UNL     1     -32.162  18.130  -1.271  1.00 20.00     0.015 C 
HETATM   11  O11 UNL     1     -36.290  19.263  -3.040  1.00 20.00    -0.292 OA
HETATM   12 BR12 UNL     1     -34.847  15.512  -7.136  1.00 20.00    -0.051 Br
ENDROOT
TORSDOF 0
ENDMDL
MODEL 3
REMARK VINA RESULT:      -4.1      2.991      4.131
REMARK  0 active torsions:
REMARK  status: ('A' for Active; 'I' for Inactive)
ROOT
HETATM    1  C1  UNL     1     -34.599  17.514  -5.614  1.00 20.00     0.010 A 
HETATM    2  C2  UNL     1     -35.699  17.785  -6.435  1.00 20.00     0.019 A 
HETATM    3  C3  UNL     1     -36.600  15.562  -6.044  1.00 20.00     0.034 A 
HETATM    4  C4  UNL     1     -35.500  15.324  -5.239  1.00 20.00     0.018 A 
HETATM    5  C5  UNL     1     -34.508  16.269  -5.010  1.00 20.00    -0.040 A 
HETATM    6  C6  UNL     1     -36.692  16.815  -6.646  1.00 20.00     0.011 A 
HETATM    7  C7  UNL     1     -35.160  14.114  -4.509  1.00 20.00     0.160 A 
HETATM    8  C8  UNL     1     -33.844  14.308  -3.796  1.00 20.00     0.093 A 
HETATM    9  C9  UNL     1     -33.424  15.766  -4.097  1.00 20.00     0.023 A 
HETATM   10  C10 UNL     1     -33.299  16.596  -2.824  1.00 20.00     0.015 C 
HETATM   11  O11 UNL     1     -35.843  13.106  -4.498  1.00 20.00    -0.292 OA
HETATM   12 BR12 UNL     1     -38.167  17.214  -7.762  1.00 20.00    -0.051 Br
ENDROOT
TORSDOF 0
ENDMDL
MODEL 4
REMARK VINA RESULT:      -3.8      3.145      4.022
REMARK  0 active torsions:
REMARK  status: ('A' for Active; 'I' for Inactive)
ROOT
HETATM    1  C1  UNL     1     -35.811  17.997  -4.192  1.00 20.00     0.010 A 
HETATM    2  C2  UNL     1     -37.158  18.360  -4.309  1.00 20.00     0.019 A 
HETATM    3  C3  UNL     1     -37.590  16.473  -5.778  1.00 20.00     0.034 A 
HETATM    4  C4  UNL     1     -36.253  16.140  -5.643  1.00 20.00     0.018 A 
HETATM    5  C5  UNL     1     -35.363  16.871  -4.866  1.00 20.00    -0.040 A 
HETATM    6  C6  UNL     1     -38.039  17.602  -5.096  1.00 20.00     0.011 A 
HETATM    7  C7  UNL     1     -35.533  15.031  -6.247  1.00 20.00     0.160 A 
HETATM    8  C8  UNL     1     -34.081  15.092  -5.840  1.00 20.00     0.093 A 
HETATM    9  C9  UNL     1     -33.972  16.301  -4.882  1.00 20.00     0.023 A 
HETATM   10  C10 UNL     1     -33.494  15.886  -3.495  1.00 20.00     0.015 C 
HETATM   11  O11 UNL     1     -36.043  14.199  -6.975  1.00 20.00    -0.292 OA
HETATM   12 BR12 UNL     1     -39.853  18.121  -5.234  1.00 20.00    -0.051 Br
ENDROOT
TORSDOF 0
ENDMDL
MODEL 5
REMARK VINA RESULT:      -3.8     12.135     12.955
REMARK  0 active torsions:
REMARK  status: ('A' for Active; 'I' for Inactive)
ROOT
HETATM    1  C1  UNL     1     -41.934  14.114   4.206  1.00 20.00     0.010 A 
HETATM    2  C2  UNL     1     -42.598  15.326   4.419  1.00 20.00     0.019 A 
HETATM    3  C3  UNL     1     -41.753  15.446   6.695  1.00 20.00     0.034 A 
HETATM    4  C4  UNL     1     -41.109  14.245   6.454  1.00 20.00     0.018 A 
HETATM    5  C5  UNL     1     -41.180  13.575   5.238  1.00 20.00    -0.040 A 
HETATM    6  C6  UNL     1     -42.507  15.987   5.655  1.00 20.00     0.011 A 
HETATM    7  C7  UNL     1     -40.278  13.469   7.358  1.00 20.00     0.160 A 
HETATM    8  C8  UNL     1     -39.820  12.208   6.666  1.00 20.00     0.093 A 
HETATM    9  C9  UNL     1     -40.390  12.297   5.231  1.00 20.00     0.023 A 
HETATM   10  C10 UNL     1     -39.286  12.296   4.179  1.00 20.00     0.015 C 
HETATM   11  O11 UNL     1     -40.012  13.800   8.499  1.00 20.00    -0.292 OA
HETATM   12 BR12 UNL     1     -43.417  17.625   5.910  1.00 20.00    -0.051 Br
ENDROOT
TORSDOF 0
ENDMDL
MODEL 6
REMARK VINA RESULT:      -3.8     12.204     13.575
REMARK  0 active torsions:
REMARK  status: ('A' for Active; 'I' for Inactive)
ROOT
HETATM    1  C1  UNL     1     -32.631   8.374   4.885  1.00 20.00     0.010 A 
HETATM    2  C2  UNL     1     -32.281   8.696   3.569  1.00 20.00     0.019 A 
HETATM    3  C3  UNL     1     -33.043   6.526   2.784  1.00 20.00     0.034 A 
HETATM    4  C4  UNL     1     -33.378   6.237   4.095  1.00 20.00     0.018 A 
HETATM    5  C5  UNL     1     -33.189   7.131   5.142  1.00 20.00    -0.040 A 
HETATM    6  C6  UNL     1     -32.487   7.778   2.527  1.00 20.00     0.011 A 
HETATM    7  C7  UNL     1     -33.957   5.017   4.632  1.00 20.00     0.160 A 
HETATM    8  C8  UNL     1     -34.114   5.148   6.128  1.00 20.00     0.093 A 
HETATM    9  C9  UNL     1     -33.637   6.579   6.467  1.00 20.00     0.023 A 
HETATM   10  C10 UNL     1     -34.745   7.412   7.103  1.00 20.00     0.015 C 
HETATM   11  O11 UNL     1     -34.253   4.046   3.959  1.00 20.00    -0.292 OA
HETATM   12 BR12 UNL     1     -32.002   8.244   0.759  1.00 20.00    -0.051 Br
ENDROOT
TORSDOF 0
ENDMDL
MODEL 7
REMARK VINA RESULT:      -3.7      1.605      2.390
REMARK  0 active torsions:
REMARK  status: ('A' for Active; 'I' for Inactive)
ROOT
HETATM    1  C1  UNL     1     -34.883  19.194  -1.499  1.00 20.00     0.010 A 
HETATM    2  C2  UNL     1     -33.953  19.262  -0.456  1.00 20.00     0.019 A 
HETATM    3  C3  UNL     1     -32.629  17.485  -1.454  1.00 20.00     0.034 A 
HETATM    4  C4  UNL     1     -33.566  17.441  -2.471  1.00 20.00     0.018 A 
HETATM    5  C5  UNL     1     -34.678  18.274  -2.516  1.00 20.00    -0.040 A 
HETATM    6  C6  UNL     1     -32.834  18.414  -0.435  1.00 20.00     0.011 A 
HETATM    7  C7  UNL     1     -33.597  16.570  -3.634  1.00 20.00     0.160 A 
HETATM    8  C8  UNL     1     -34.833  16.861  -4.450  1.00 20.00     0.093 A 
HETATM    9  C9  UNL     1     -35.539  18.030  -3.724  1.00 20.00     0.023 A 
HETATM   10  C10 UNL     1     -35.660  19.262  -4.615  1.00 20.00     0.015 C 
HETATM   11  O11 UNL     1     -32.748  15.735  -3.886  1.00 20.00    -0.292 OA
HETATM   12 BR12 UNL     1     -31.596  18.532   0.990  1.00 20.00    -0.051 Br
ENDROOT
TORSDOF 0
ENDMDL
MODEL 8
REMARK VINA RESULT:      -3.5     24.608     25.696
REMARK  0 active torsions:
REMARK  status: ('A' for Active; 'I' for Inactive)
ROOT
HETATM    1  C1  UNL     1     -24.565  -1.673  11.962  1.00 20.00     0.010 A 
HETATM    2  C2  UNL     1     -23.650  -2.382  11.175  1.00 20.00     0.019 A 
HETATM    3  C3  UNL     1     -25.438  -3.186   9.737  1.00 20.00     0.034 A 
HETATM    4  C4  UNL     1     -26.317  -2.476  10.536  1.00 20.00     0.018 A 
HETATM    5  C5  UNL     1     -25.911  -1.723  11.630  1.00 20.00    -0.040 A 
HETATM    6  C6  UNL     1     -24.085  -3.131  10.070  1.00 20.00     0.011 A 
HETATM    7  C7  UNL     1     -27.762  -2.373  10.418  1.00 20.00     0.160 A 
HETATM    8  C8  UNL     1     -28.300  -1.516  11.538  1.00 20.00     0.093 A 
HETATM    9  C9  UNL     1     -27.056  -1.046  12.329  1.00 20.00     0.023 A 
HETATM   10  C10 UNL     1     -26.925   0.473  12.332  1.00 20.00     0.015 C 
HETATM   11  O11 UNL     1     -28.418  -2.912   9.545  1.00 20.00    -0.292 OA
HETATM   12 BR12 UNL     1     -22.823  -4.077   9.026  1.00 20.00    -0.051 Br
ENDROOT
TORSDOF 0
ENDMDL
MODEL 9
REMARK VINA RESULT:      -3.5      3.090      4.464
REMARK  0 active torsions:
REMARK  status: ('A' for Active; 'I' for Inactive)
ROOT
HETATM    1  C1  UNL     1     -35.461  15.114  -5.884  1.00 20.00     0.010 A 
HETATM    2  C2  UNL     1     -36.249  15.847  -6.778  1.00 20.00     0.019 A 
HETATM    3  C3  UNL     1     -35.615  17.933  -5.703  1.00 20.00     0.034 A 
HETATM    4  C4  UNL     1     -34.846  17.179  -4.833  1.00 20.00     0.018 A 
HETATM    5  C5  UNL     1     -34.752  15.795  -4.906  1.00 20.00    -0.040 A 
HETATM    6  C6  UNL     1     -36.323  17.247  -6.688  1.00 20.00     0.011 A 
HETATM    7  C7  UNL     1     -34.027  17.638  -3.723  1.00 20.00     0.160 A 
HETATM    8  C8  UNL     1     -33.399  16.450  -3.035  1.00 20.00     0.093 A 
HETATM    9  C9  UNL     1     -33.852  15.216  -3.851  1.00 20.00     0.023 A 
HETATM   10  C10 UNL     1     -32.667  14.461  -4.443  1.00 20.00     0.015 C 
HETATM   11  O11 UNL     1     -33.891  18.806  -3.409  1.00 20.00    -0.292 OA
HETATM   12 BR12 UNL     1     -37.397  18.208  -7.912  1.00 20.00    -0.051 Br
ENDROOT
TORSDOF 0
ENDMDL
