MODEL 1
REMARK VINA RESULT:      -4.7      0.000      0.000
REMARK  0 active torsions:
REMARK  status: ('A' for Active; 'I' for Inactive)
ROOT
HETATM    1  C1  UNL     1     -33.393   8.200   5.102  1.00 20.00     0.033 A 
HETATM    2  C2  UNL     1     -32.568   7.369   2.969  1.00 20.00     0.033 A 
HETATM    3  C3  UNL     1     -33.875   6.929   5.360  1.00 20.00    -0.028 A 
HETATM    4  C4  UNL     1     -33.055   6.089   3.250  1.00 20.00    -0.033 A 
HETATM    5  C5  UNL     1     -33.727   5.887   4.441  1.00 20.00     0.040 A 
HETATM    6  C6  UNL     1     -32.739   8.418   3.887  1.00 20.00     0.035 A 
HETATM    7  C7  UNL     1     -34.552   6.413   6.588  1.00 20.00     0.060 C 
HETATM    8  C8  UNL     1     -35.008   5.013   6.121  1.00 20.00     0.124 C 
HETATM    9  C9  UNL     1     -32.846   4.984   2.273  1.00 20.00     0.050 C 
HETATM   10  N10 UNL     1     -34.233   4.684   4.931  1.00 20.00    -0.389 N 
HETATM   11 CL11 UNL     1     -32.123   9.983   3.520  1.00 20.00    -0.084 Cl
HETATM   12  H21 UNL     1     -34.460   3.909   4.323  1.00 20.00     0.159 HD
ENDROOT
TORSDOF 0
ENDMDL
MODEL 2
REMARK VINA RESULT:      -4.7      2.228      3.058
REMARK  0 active torsions:
REMARK  status: ('A' for Active; 'I' for Inactive)
ROOT
HETATM    1  C1  UNL     1     -33.806   4.774   3.853  1.00 20.00     0.033 A 
HETATM    2  C2  UNL     1     -32.542   6.504   2.701  1.00 20.00     0.033 A 
HETATM    3  C3  UNL     1     -34.037   5.683   4.871  1.00 20.00    -0.028 A 
HETATM    4  C4  UNL     1     -32.792   7.412   3.734  1.00 20.00    -0.033 A 
HETATM    5  C5  UNL     1     -33.525   6.981   4.825  1.00 20.00     0.040 A 
HETATM    6  C6  UNL     1     -33.042   5.193   2.762  1.00 20.00     0.035 A 
HETATM    7  C7  UNL     1     -34.859   5.518   6.107  1.00 20.00     0.060 C 
HETATM    8  C8  UNL     1     -34.508   6.808   6.882  1.00 20.00     0.124 C 
HETATM    9  C9  UNL     1     -32.271   8.804   3.643  1.00 20.00     0.050 C 
HETATM   10  N10 UNL     1     -33.929   7.740   5.922  1.00 20.00    -0.389 N 
HETATM   11 CL11 UNL     1     -32.725   4.098   1.471  1.00 20.00    -0.084 Cl
HETATM   12  H21 UNL     1     -33.450   8.586   6.197  1.00 20.00     0.159 HD
ENDROOT
TORSDOF 0
ENDMDL
MODEL 3
REMARK VINA RESULT:      -4.7      1.375      2.675
REMARK  0 active torsions:
REMARK  status: ('A' for Active; 'I' for Inactive)
ROOT
HETATM    1  C1  UNL     1     -33.129   6.195   2.884  1.00 20.00     0.033 A 
HETATM    2  C2  UNL     1     -32.514   8.420   3.650  1.00 20.00     0.033 A 
HETATM    3  C3  UNL     1     -33.684   5.966   4.131  1.00 20.00    -0.028 A 
HETATM    4  C4  UNL     1     -33.087   8.176   4.902  1.00 20.00    -0.033 A 
HETATM    5  C5  UNL     1     -33.651   6.935   5.137  1.00 20.00     0.040 A 
HETATM    6  C6  UNL     1     -32.532   7.435   2.650  1.00 20.00     0.035 A 
HETATM    7  C7  UNL     1     -34.427   4.767   4.622  1.00 20.00     0.060 C 
HETATM    8  C8  UNL     1     -34.562   5.087   6.128  1.00 20.00     0.124 C 
HETATM    9  C9  UNL     1     -33.077   9.240   5.945  1.00 20.00     0.050 C 
HETATM   10  N10 UNL     1     -34.319   6.516   6.286  1.00 20.00    -0.389 N 
HETATM   11 CL11 UNL     1     -31.825   7.765   1.115  1.00 20.00    -0.084 Cl
HETATM   12  H21 UNL     1     -34.168   6.952   7.185  1.00 20.00     0.159 HD
ENDROOT
TORSDOF 0
ENDMDL
MODEL 4
REMARK VINA RESULT:      -4.6      2.287      3.694
REMARK  0 active torsions:
REMARK  status: ('A' for Active; 'I' for Inactive)
ROOT
HETATM    1  C1  UNL     1     -32.520   6.395   2.751  1.00 20.00     0.033 A 
HETATM    2  C2  UNL     1     -33.924   4.767   3.889  1.00 20.00     0.033 A 
HETATM    3  C3  UNL     1     -32.767   7.271   3.794  1.00 20.00    -0.028 A 
HETATM    4  C4  UNL     1     -34.156   5.661   4.938  1.00 20.00    -0.033 A 
HETATM    5  C5  UNL     1     -33.588   6.920   4.868  1.00 20.00     0.040 A 
HETATM    6  C6  UNL     1     -33.116   5.133   2.802  1.00 20.00     0.035 A 
HETATM    7  C7  UNL     1     -32.218   8.642   4.018  1.00 20.00     0.060 C 
HETATM    8  C8  UNL     1     -33.061   9.117   5.222  1.00 20.00     0.124 C 
HETATM    9  C9  UNL     1     -35.001   5.249   6.094  1.00 20.00     0.050 C 
HETATM   10  N10 UNL     1     -33.648   7.928   5.829  1.00 20.00    -0.389 N 
HETATM   11 CL11 UNL     1     -32.841   4.009   1.526  1.00 20.00    -0.084 Cl
HETATM   12  H21 UNL     1     -34.385   7.970   6.519  1.00 20.00     0.159 HD
ENDROOT
TORSDOF 0
ENDMDL
MODEL 5
REMARK VINA RESULT:      -4.5     16.107     16.945
REMARK  0 active torsions:
REMARK  status: ('A' for Active; 'I' for Inactive)
ROOT
HETATM    1  C1  UNL     1     -23.534  18.577   8.516  1.00 20.00     0.033 A 
HETATM    2  C2  UNL     1     -21.529  18.209   9.843  1.00 20.00     0.033 A 
HETATM    3  C3  UNL     1     -24.212  18.839   9.694  1.00 20.00    -0.028 A 
HETATM    4  C4  UNL     1     -22.227  18.485  11.023  1.00 20.00    -0.033 A 
HETATM    5  C5  UNL     1     -23.576  18.778  10.936  1.00 20.00     0.040 A 
HETATM    6  C6  UNL     1     -22.179  18.251   8.600  1.00 20.00     0.035 A 
HETATM    7  C7  UNL     1     -25.631  19.263   9.885  1.00 20.00     0.060 C 
HETATM    8  C8  UNL     1     -25.777  19.161  11.420  1.00 20.00     0.124 C 
HETATM    9  C9  UNL     1     -21.516  18.455  12.332  1.00 20.00     0.050 C 
HETATM   10  N10 UNL     1     -24.430  19.135  11.977  1.00 20.00    -0.389 N 
HETATM   11 CL11 UNL     1     -21.293  17.915   7.162  1.00 20.00    -0.084 Cl
HETATM   12  H21 UNL     1     -24.238  18.891  12.939  1.00 20.00     0.159 HD
ENDROOT
TORSDOF 0
ENDMDL
MODEL 6
REMARK VINA RESULT:      -4.3     12.213     13.528
REMARK  0 active torsions:
REMARK  status: ('A' for Active; 'I' for Inactive)
ROOT
HETATM    1  C1  UNL     1     -33.444  16.477  -2.251  1.00 20.00     0.033 A 
HETATM    2  C2  UNL     1     -34.492  18.616  -2.739  1.00 20.00     0.033 A 
HETATM    3  C3  UNL     1     -33.618  16.138  -3.582  1.00 20.00    -0.028 A 
HETATM    4  C4  UNL     1     -34.653  18.262  -4.081  1.00 20.00    -0.033 A 
HETATM    5  C5  UNL     1     -34.230  17.009  -4.487  1.00 20.00     0.040 A 
HETATM    6  C6  UNL     1     -33.895  17.729  -1.830  1.00 20.00     0.035 A 
HETATM    7  C7  UNL     1     -33.181  14.904  -4.302  1.00 20.00     0.060 C 
HETATM    8  C8  UNL     1     -33.878  15.084  -5.669  1.00 20.00     0.124 C 
HETATM    9  C9  UNL     1     -35.270  19.225  -5.036  1.00 20.00     0.050 C 
HETATM   10  N10 UNL     1     -34.247  16.490  -5.780  1.00 20.00    -0.389 N 
HETATM   11 CL11 UNL     1     -33.704  18.194  -0.183  1.00 20.00    -0.084 Cl
HETATM   12  H21 UNL     1     -34.873  16.840  -6.492  1.00 20.00     0.159 HD
ENDROOT
TORSDOF 0
ENDMDL
MODEL 7
REMARK VINA RESULT:      -4.2      2.564      3.579
REMARK  0 active torsions:
REMARK  status: ('A' for Active; 'I' for Inactive)
ROOT
HETATM    1  C1  UNL     1     -34.012   6.965   5.988  1.00 20.00     0.033 A 
HETATM    2  C2  UNL     1     -34.136   4.974   4.596  1.00 20.00     0.033 A 
HETATM    3  C3  UNL     1     -33.307   7.580   4.968  1.00 20.00    -0.028 A 
HETATM    4  C4  UNL     1     -33.431   5.613   3.573  1.00 20.00    -0.033 A 
HETATM    5  C5  UNL     1     -33.002   6.912   3.780  1.00 20.00     0.040 A 
HETATM    6  C6  UNL     1     -34.421   5.644   5.797  1.00 20.00     0.035 A 
HETATM    7  C7  UNL     1     -32.808   8.986   4.887  1.00 20.00     0.060 C 
HETATM    8  C8  UNL     1     -31.942   8.930   3.609  1.00 20.00     0.124 C 
HETATM    9  C9  UNL     1     -33.154   4.893   2.298  1.00 20.00     0.050 C 
HETATM   10  N10 UNL     1     -32.342   7.737   2.872  1.00 20.00    -0.389 N 
HETATM   11 CL11 UNL     1     -35.298   4.835   7.038  1.00 20.00    -0.084 Cl
HETATM   12  H21 UNL     1     -31.812   7.367   2.095  1.00 20.00     0.159 HD
ENDROOT
TORSDOF 0
ENDMDL
MODEL 8
REMARK VINA RESULT:      -4.1      0.795      2.816
REMARK  0 active torsions:
REMARK  status: ('A' for Active; 'I' for Inactive)
ROOT
HETATM    1  C1  UNL     1     -32.347   7.660   3.611  1.00 20.00     0.033 A 
HETATM    2  C2  UNL     1     -33.459   7.884   5.762  1.00 20.00     0.033 A 
HETATM    3  C3  UNL     1     -32.915   6.403   3.497  1.00 20.00    -0.028 A 
HETATM    4  C4  UNL     1     -34.033   6.616   5.627  1.00 20.00    -0.033 A 
HETATM    5  C5  UNL     1     -33.735   5.876   4.498  1.00 20.00     0.040 A 
HETATM    6  C6  UNL     1     -32.619   8.400   4.763  1.00 20.00     0.035 A 
HETATM    7  C7  UNL     1     -32.838   5.437   2.361  1.00 20.00     0.060 C 
HETATM    8  C8  UNL     1     -33.498   4.184   2.978  1.00 20.00     0.124 C 
HETATM    9  C9  UNL     1     -34.938   6.092   6.689  1.00 20.00     0.050 C 
HETATM   10  N10 UNL     1     -34.245   4.626   4.149  1.00 20.00    -0.389 N 
HETATM   11 CL11 UNL     1     -31.932   9.968   4.951  1.00 20.00    -0.084 Cl
HETATM   12  H21 UNL     1     -34.619   3.987   4.836  1.00 20.00     0.159 HD
ENDROOT
TORSDOF 0
ENDMDL
MODEL 9
REMARK VINA RESULT:      -4.0     12.294     13.673
REMARK  0 active torsions:
REMARK  status: ('A' for Active; 'I' for Inactive)
ROOT
HETATM    1  C1  UNL     1     -34.833  18.531  -2.425  1.00 20.00     0.033 A 
HETATM    2  C2  UNL     1     -33.388  16.582  -2.260  1.00 20.00     0.033 A 
HETATM    3  C3  UNL     1     -35.044  18.208  -3.754  1.00 20.00    -0.028 A 
HETATM    4  C4  UNL     1     -33.619  16.264  -3.602  1.00 20.00    -0.033 A 
HETATM    5  C5  UNL     1     -34.434  17.099  -4.345  1.00 20.00     0.040 A 
HETATM    6  C6  UNL     1     -33.988  17.709  -1.677  1.00 20.00     0.035 A 
HETATM    7  C7  UNL     1     -35.935  18.873  -4.752  1.00 20.00     0.060 C 
HETATM    8  C8  UNL     1     -35.526  18.152  -6.055  1.00 20.00     0.124 C 
HETATM    9  C9  UNL     1     -32.990  15.053  -4.199  1.00 20.00     0.050 C 
HETATM   10  N10 UNL     1     -34.832  16.929  -5.670  1.00 20.00    -0.389 N 
HETATM   11 CL11 UNL     1     -33.692  18.072  -0.020  1.00 20.00    -0.084 Cl
HETATM   12  H21 UNL     1     -34.304  16.367  -6.322  1.00 20.00     0.159 HD
ENDROOT
TORSDOF 0
ENDMDL
