MODEL 1
REMARK VINA RESULT:      -4.6      0.000      0.000
REMARK  0 active torsions:
REMARK  status: ('A' for Active; 'I' for Inactive)
ROOT
HETATM    1  C1  UNL     1     -34.726  18.334  -4.255  1.00 20.00     0.010 A 
HETATM    2  C2  UNL     1     -34.406  18.634  -2.926  1.00 20.00     0.019 A 
HETATM    3  C3  UNL     1     -33.466  16.417  -2.598  1.00 20.00     0.034 A 
HETATM    4  C4  UNL     1     -33.793  16.150  -3.916  1.00 20.00     0.018 A 
HETATM    5  C5  UNL     1     -34.416  17.074  -4.747  1.00 20.00    -0.040 A 
HETATM    6  C6  UNL     1     -33.781  17.681  -2.104  1.00 20.00     0.011 A 
HETATM    7  C7  UNL     1     -33.568  14.931  -4.673  1.00 20.00     0.160 A 
HETATM    8  C8  UNL     1     -34.058  15.117  -6.088  1.00 20.00     0.093 A 
HETATM    9  C9  UNL     1     -34.666  16.539  -6.129  1.00 20.00     0.023 A 
HETATM   10  C10 UNL     1     -36.147  16.515  -6.487  1.00 20.00     0.015 C 
HETATM   11  O11 UNL     1     -33.050  13.927  -4.218  1.00 20.00    -0.292 OA
HETATM   12 BR12 UNL     1     -33.364  18.122  -0.313  1.00 20.00    -0.051 Br
ENDROOT
TORSDOF 0
ENDMDL
MODEL 2
REMARK VINA RESULT:      -4.1     16.696     17.986
REMARK  0 active torsions:
REMARK  status: ('A' for Active; 'I' for Inactive)
ROOT
HETATM    1  C1  UNL     1     -24.821  19.174   8.802  1.00 20.00     0.010 A 
HETATM    2  C2  UNL     1     -25.970  19.261   9.595  1.00 20.00     0.019 A 
HETATM    3  C3  UNL     1     -24.673  18.847  11.608  1.00 20.00     0.034 A 
HETATM    4  C4  UNL     1     -23.555  18.768  10.798  1.00 20.00     0.018 A 
HETATM    5  C5  UNL     1     -23.603  18.920   9.417  1.00 20.00    -0.040 A 
HETATM    6  C6  UNL     1     -25.896  19.097  10.988  1.00 20.00     0.011 A 
HETATM    7  C7  UNL     1     -22.175  18.529  11.185  1.00 20.00     0.160 A 
HETATM    8  C8  UNL     1     -21.293  18.566   9.960  1.00 20.00     0.093 A 
HETATM    9  C9  UNL     1     -22.254  18.787   8.768  1.00 20.00     0.023 A 
HETATM   10  C10 UNL     1     -22.198  17.635   7.771  1.00 20.00     0.015 C 
HETATM   11  O11 UNL     1     -21.806  18.342  12.330  1.00 20.00    -0.292 OA
HETATM   12 BR12 UNL     1     -27.470  19.221  12.029  1.00 20.00    -0.051 Br
ENDROOT
TORSDOF 0
ENDMDL
MODEL 3
REMARK VINA RESULT:      -4.0     12.030     13.379
REMARK  0 active torsions:
REMARK  status: ('A' for Active; 'I' for Inactive)
ROOT
HETATM    1  C1  UNL     1     -33.295   8.440   4.489  1.00 20.00     0.010 A 
HETATM    2  C2  UNL     1     -32.701   8.694   3.249  1.00 20.00     0.019 A 
HETATM    3  C3  UNL     1     -32.923   6.360   2.607  1.00 20.00     0.034 A 
HETATM    4  C4  UNL     1     -33.509   6.141   3.841  1.00 20.00     0.018 A 
HETATM    5  C5  UNL     1     -33.698   7.145   4.783  1.00 20.00    -0.040 A 
HETATM    6  C6  UNL     1     -32.514   7.661   2.315  1.00 20.00     0.011 A 
HETATM    7  C7  UNL     1     -34.026   4.897   4.386  1.00 20.00     0.160 A 
HETATM    8  C8  UNL     1     -34.609   5.150   5.756  1.00 20.00     0.093 A 
HETATM    9  C9  UNL     1     -34.352   6.648   6.042  1.00 20.00     0.023 A 
HETATM   10  C10 UNL     1     -33.477   6.850   7.273  1.00 20.00     0.015 C 
HETATM   11  O11 UNL     1     -33.995   3.828   3.804  1.00 20.00    -0.292 OA
HETATM   12 BR12 UNL     1     -31.706   8.040   0.648  1.00 20.00    -0.051 Br
ENDROOT
TORSDOF 0
ENDMDL
MODEL 4
REMARK VINA RESULT:      -3.9      1.983      2.810
REMARK  0 active torsions:
REMARK  status: ('A' for Active; 'I' for Inactive)
ROOT
HETATM    1  C1  UNL     1     -33.651  15.573  -4.010  1.00 20.00     0.010 A 
HETATM    2  C2  UNL     1     -33.294  16.244  -2.836  1.00 20.00     0.019 A 
HETATM    3  C3  UNL     1     -34.765  18.098  -3.388  1.00 20.00     0.034 A 
HETATM    4  C4  UNL     1     -35.099  17.409  -4.540  1.00 20.00     0.018 A 
HETATM    5  C5  UNL     1     -34.562  16.171  -4.869  1.00 20.00    -0.040 A 
HETATM    6  C6  UNL     1     -33.846  17.499  -2.528  1.00 20.00     0.011 A 
HETATM    7  C7  UNL     1     -36.028  17.800  -5.588  1.00 20.00     0.160 A 
HETATM    8  C8  UNL     1     -36.098  16.711  -6.632  1.00 20.00     0.093 A 
HETATM    9  C9  UNL     1     -35.084  15.636  -6.173  1.00 20.00     0.023 A 
HETATM   10  C10 UNL     1     -33.979  15.422  -7.201  1.00 20.00     0.015 C 
HETATM   11  O11 UNL     1     -36.652  18.845  -5.597  1.00 20.00    -0.292 OA
HETATM   12 BR12 UNL     1     -33.340  18.377  -0.932  1.00 20.00    -0.051 Br
ENDROOT
TORSDOF 0
ENDMDL
MODEL 5
REMARK VINA RESULT:      -3.9     12.663     13.914
REMARK  0 active torsions:
REMARK  status: ('A' for Active; 'I' for Inactive)
ROOT
HETATM    1  C1  UNL     1     -42.243  14.519   5.363  1.00 20.00     0.010 A 
HETATM    2  C2  UNL     1     -41.385  13.631   4.705  1.00 20.00     0.019 A 
HETATM    3  C3  UNL     1     -40.260  13.093   6.791  1.00 20.00     0.034 A 
HETATM    4  C4  UNL     1     -41.124  13.976   7.413  1.00 20.00     0.018 A 
HETATM    5  C5  UNL     1     -42.102  14.691   6.732  1.00 20.00    -0.040 A 
HETATM    6  C6  UNL     1     -40.399  12.925   5.414  1.00 20.00     0.011 A 
HETATM    7  C7  UNL     1     -41.198  14.325   8.822  1.00 20.00     0.160 A 
HETATM    8  C8  UNL     1     -42.325  15.305   9.041  1.00 20.00     0.093 A 
HETATM    9  C9  UNL     1     -42.906  15.584   7.635  1.00 20.00     0.023 A 
HETATM   10  C10 UNL     1     -42.791  17.055   7.254  1.00 20.00     0.015 C 
HETATM   11  O11 UNL     1     -40.461  13.874   9.680  1.00 20.00    -0.292 OA
HETATM   12 BR12 UNL     1     -39.256  11.733   4.492  1.00 20.00    -0.051 Br
ENDROOT
TORSDOF 0
ENDMDL
MODEL 6
REMARK VINA RESULT:      -3.8     11.775     13.226
REMARK  0 active torsions:
REMARK  status: ('A' for Active; 'I' for Inactive)
ROOT
HETATM    1  C1  UNL     1     -33.127   5.501   3.173  1.00 20.00     0.010 A 
HETATM    2  C2  UNL     1     -32.630   6.191   2.062  1.00 20.00     0.019 A 
HETATM    3  C3  UNL     1     -32.798   8.310   3.240  1.00 20.00     0.034 A 
HETATM    4  C4  UNL     1     -33.285   7.600   4.322  1.00 20.00     0.018 A 
HETATM    5  C5  UNL     1     -33.459   6.221   4.311  1.00 20.00    -0.040 A 
HETATM    6  C6  UNL     1     -32.469   7.586   2.095  1.00 20.00     0.011 A 
HETATM    7  C7  UNL     1     -33.689   8.103   5.624  1.00 20.00     0.160 A 
HETATM    8  C8  UNL     1     -34.118   6.951   6.500  1.00 20.00     0.093 A 
HETATM    9  C9  UNL     1     -34.005   5.692   5.608  1.00 20.00     0.023 A 
HETATM   10  C10 UNL     1     -35.349   4.995   5.435  1.00 20.00     0.015 C 
HETATM   11  O11 UNL     1     -33.665   9.278   5.943  1.00 20.00    -0.292 OA
HETATM   12 BR12 UNL     1     -31.795   8.486   0.574  1.00 20.00    -0.051 Br
ENDROOT
TORSDOF 0
ENDMDL
MODEL 7
REMARK VINA RESULT:      -3.7     12.711     13.692
REMARK  0 active torsions:
REMARK  status: ('A' for Active; 'I' for Inactive)
ROOT
HETATM    1  C1  UNL     1     -42.206  15.912   7.612  1.00 20.00     0.010 A 
HETATM    2  C2  UNL     1     -41.801  16.110   8.937  1.00 20.00     0.019 A 
HETATM    3  C3  UNL     1     -40.287  14.212   8.811  1.00 20.00     0.034 A 
HETATM    4  C4  UNL     1     -40.705  14.043   7.504  1.00 20.00     0.018 A 
HETATM    5  C5  UNL     1     -41.650  14.862   6.895  1.00 20.00    -0.040 A 
HETATM    6  C6  UNL     1     -40.849  15.265   9.532  1.00 20.00     0.011 A 
HETATM    7  C7  UNL     1     -40.276  13.043   6.541  1.00 20.00     0.160 A 
HETATM    8  C8  UNL     1     -40.981  13.273   5.226  1.00 20.00     0.093 A 
HETATM    9  C9  UNL     1     -41.934  14.467   5.473  1.00 20.00     0.023 A 
HETATM   10  C10 UNL     1     -43.393  14.084   5.254  1.00 20.00     0.015 C 
HETATM   11  O11 UNL     1     -39.462  12.169   6.777  1.00 20.00    -0.292 OA
HETATM   12 BR12 UNL     1     -40.327  15.562  11.325  1.00 20.00    -0.051 Br
ENDROOT
TORSDOF 0
ENDMDL
MODEL 8
REMARK VINA RESULT:      -3.6      2.611      3.947
REMARK  0 active torsions:
REMARK  status: ('A' for Active; 'I' for Inactive)
ROOT
HETATM    1  C1  UNL     1     -35.867  18.474  -4.295  1.00 20.00     0.010 A 
HETATM    2  C2  UNL     1     -36.436  18.142  -5.529  1.00 20.00     0.019 A 
HETATM    3  C3  UNL     1     -34.958  16.224  -5.751  1.00 20.00     0.034 A 
HETATM    4  C4  UNL     1     -34.417  16.577  -4.527  1.00 20.00     0.018 A 
HETATM    5  C5  UNL     1     -34.844  17.680  -3.797  1.00 20.00    -0.040 A 
HETATM    6  C6  UNL     1     -35.983  17.025  -6.252  1.00 20.00     0.011 A 
HETATM    7  C7  UNL     1     -33.359  15.915  -3.784  1.00 20.00     0.160 A 
HETATM    8  C8  UNL     1     -33.129  16.639  -2.479  1.00 20.00     0.093 A 
HETATM    9  C9  UNL     1     -34.095  17.848  -2.504  1.00 20.00     0.023 A 
HETATM   10  C10 UNL     1     -33.347  19.174  -2.431  1.00 20.00     0.015 C 
HETATM   11  O11 UNL     1     -32.769  14.921  -4.168  1.00 20.00    -0.292 OA
HETATM   12 BR12 UNL     1     -36.774  16.607  -7.918  1.00 20.00    -0.051 Br
ENDROOT
TORSDOF 0
ENDMDL
MODEL 9
REMARK VINA RESULT:      -3.5     12.590     13.524
REMARK  0 active torsions:
REMARK  status: ('A' for Active; 'I' for Inactive)
ROOT
HETATM    1  C1  UNL     1     -40.276  14.352   8.565  1.00 20.00     0.010 A 
HETATM    2  C2  UNL     1     -40.430  15.602   9.173  1.00 20.00     0.019 A 
HETATM    3  C3  UNL     1     -41.709  16.424   7.277  1.00 20.00     0.034 A 
HETATM    4  C4  UNL     1     -41.542  15.177   6.702  1.00 20.00     0.018 A 
HETATM    5  C5  UNL     1     -40.838  14.146   7.313  1.00 20.00    -0.040 A 
HETATM    6  C6  UNL     1     -41.140  16.632   8.533  1.00 20.00     0.011 A 
HETATM    7  C7  UNL     1     -42.036  14.700   5.422  1.00 20.00     0.160 A 
HETATM    8  C8  UNL     1     -41.637  13.256   5.233  1.00 20.00     0.093 A 
HETATM    9  C9  UNL     1     -40.798  12.895   6.482  1.00 20.00     0.023 A 
HETATM   10  C10 UNL     1     -39.378  12.484   6.113  1.00 20.00     0.015 C 
HETATM   11  O11 UNL     1     -42.680  15.376   4.641  1.00 20.00    -0.292 OA
HETATM   12 BR12 UNL     1     -41.327  18.310   9.385  1.00 20.00    -0.051 Br
ENDROOT
TORSDOF 0
ENDMDL
