MODEL 1
REMARK VINA RESULT:      -3.7      0.000      0.000
REMARK  2 active torsions:
REMARK  status: ('A' for Active; 'I' for Inactive)
REMARK    1  A    between atoms: C2_2  and  C8_8 
REMARK    2  A    between atoms: C8_8  and  N9_9 
ROOT
HETATM    1  C3  UNL     1     -32.463  18.778   0.761  1.00 20.00     0.003 C 
HETATM    2  C4  UNL     1     -31.513  18.542  -0.408  1.00 20.00     0.030 C 
HETATM    3  C5  UNL     1     -33.816  18.121   0.503  1.00 20.00     0.030 C 
HETATM    4  C6  UNL     1     -32.159  18.938  -1.738  1.00 20.00     0.273 C 
HETATM    5  C7  UNL     1     -34.382  18.533  -0.859  1.00 20.00     0.273 C 
HETATM    6  N9  UNL     1     -33.464  18.312  -1.983  1.00 20.00     0.093 N 
ENDROOT
BRANCH   6   7
HETATM    7  C8  UNL     1     -33.343  16.898  -2.329  1.00 20.00     0.317 C 
BRANCH   7   8
HETATM    8  C2  UNL     1     -33.789  16.604  -3.734  1.00 20.00     0.007 C 
HETATM    9  C1  UNL     1     -34.184  17.555  -4.591  1.00 20.00     0.029 C 
HETATM   10 BR10 UNL     1     -33.687  14.807  -4.256  1.00 20.00    -0.055 Br
ENDBRANCH   7   8
ENDBRANCH   6   7
TORSDOF 2
ENDMDL
MODEL 2
REMARK VINA RESULT:      -3.4      3.766      5.745
REMARK  2 active torsions:
REMARK  status: ('A' for Active; 'I' for Inactive)
REMARK    1  A    between atoms: C2_2  and  C8_8 
REMARK    2  A    between atoms: C8_8  and  N9_9 
ROOT
HETATM    1  C3  UNL     1     -33.327  17.891  -1.043  1.00 20.00     0.003 C 
HETATM    2  C4  UNL     1     -33.954  17.908   0.347  1.00 20.00     0.030 C 
HETATM    3  C5  UNL     1     -31.811  18.034  -0.958  1.00 20.00     0.030 C 
HETATM    4  C6  UNL     1     -33.483  19.121   1.154  1.00 20.00     0.273 C 
HETATM    5  C7  UNL     1     -31.415  19.244  -0.106  1.00 20.00     0.273 C 
HETATM    6  N9  UNL     1     -32.023  19.262   1.230  1.00 20.00     0.093 N 
ENDROOT
BRANCH   6   7
HETATM    7  C8  UNL     1     -31.418  18.282   2.128  1.00 20.00     0.317 C 
BRANCH   7   8
HETATM    8  C2  UNL     1     -30.725  18.920   3.300  1.00 20.00     0.007 C 
HETATM    9  C1  UNL     1     -31.342  19.184   4.460  1.00 20.00     0.029 C 
HETATM   10 BR10 UNL     1     -28.897  19.263   3.072  1.00 20.00    -0.055 Br
ENDBRANCH   7   8
ENDBRANCH   6   7
TORSDOF 2
ENDMDL
MODEL 3
REMARK VINA RESULT:      -3.4      2.295      4.741
REMARK  2 active torsions:
REMARK  status: ('A' for Active; 'I' for Inactive)
REMARK    1  A    between atoms: C2_2  and  C8_8 
REMARK    2  A    between atoms: C8_8  and  N9_9 
ROOT
HETATM    1  C3  UNL     1     -35.057  15.271  -5.304  1.00 20.00     0.003 C 
HETATM    2  C4  UNL     1     -35.306  16.687  -4.798  1.00 20.00     0.030 C 
HETATM    3  C5  UNL     1     -34.153  14.503  -4.346  1.00 20.00     0.030 C 
HETATM    4  C6  UNL     1     -33.991  17.400  -4.469  1.00 20.00     0.273 C 
HETATM    5  C7  UNL     1     -32.878  15.290  -4.034  1.00 20.00     0.273 C 
HETATM    6  N9  UNL     1     -33.119  16.656  -3.552  1.00 20.00     0.093 N 
ENDROOT
BRANCH   6   7
HETATM    7  C8  UNL     1     -33.611  16.680  -2.177  1.00 20.00     0.317 C 
BRANCH   7   8
HETATM    8  C2  UNL     1     -33.298  17.970  -1.471  1.00 20.00     0.007 C 
HETATM    9  C1  UNL     1     -32.063  18.309  -1.078  1.00 20.00     0.029 C 
HETATM   10 BR10 UNL     1     -34.748  19.134  -1.231  1.00 20.00    -0.055 Br
ENDBRANCH   7   8
ENDBRANCH   6   7
TORSDOF 2
ENDMDL
MODEL 4
REMARK VINA RESULT:      -3.1      2.218      3.215
REMARK  2 active torsions:
REMARK  status: ('A' for Active; 'I' for Inactive)
REMARK    1  A    between atoms: C2_2  and  C8_8 
REMARK    2  A    between atoms: C8_8  and  N9_9 
ROOT
HETATM    1  C3  UNL     1     -33.727  17.649  -1.674  1.00 20.00     0.003 C 
HETATM    2  C4  UNL     1     -33.628  16.312  -2.399  1.00 20.00     0.030 C 
HETATM    3  C5  UNL     1     -34.612  18.623  -2.445  1.00 20.00     0.030 C 
HETATM    4  C6  UNL     1     -33.223  16.503  -3.864  1.00 20.00     0.273 C 
HETATM    5  C7  UNL     1     -34.172  18.735  -3.907  1.00 20.00     0.273 C 
HETATM    6  N9  UNL     1     -34.071  17.445  -4.604  1.00 20.00     0.093 N 
ENDROOT
BRANCH   6   7
HETATM    7  C8  UNL     1     -35.381  16.882  -4.918  1.00 20.00     0.317 C 
BRANCH   7   8
HETATM    8  C2  UNL     1     -35.293  15.647  -5.770  1.00 20.00     0.007 C 
HETATM    9  C1  UNL     1     -35.856  14.479  -5.428  1.00 20.00     0.029 C 
HETATM   10 BR10 UNL     1     -34.397  15.853  -7.404  1.00 20.00    -0.055 Br
ENDBRANCH   7   8
ENDBRANCH   6   7
TORSDOF 2
ENDMDL
MODEL 5
REMARK VINA RESULT:      -3.1     12.217     13.007
REMARK  2 active torsions:
REMARK  status: ('A' for Active; 'I' for Inactive)
REMARK    1  A    between atoms: C2_2  and  C8_8 
REMARK    2  A    between atoms: C8_8  and  N9_9 
ROOT
HETATM    1  C3  UNL     1     -34.498   5.048   6.380  1.00 20.00     0.003 C 
HETATM    2  C4  UNL     1     -34.311   6.561   6.368  1.00 20.00     0.030 C 
HETATM    3  C5  UNL     1     -33.814   4.406   5.177  1.00 20.00     0.030 C 
HETATM    4  C6  UNL     1     -34.720   7.161   5.020  1.00 20.00     0.273 C 
HETATM    5  C7  UNL     1     -34.241   5.080   3.870  1.00 20.00     0.273 C 
HETATM    6  N9  UNL     1     -34.067   6.539   3.863  1.00 20.00     0.093 N 
ENDROOT
BRANCH   6   7
HETATM    7  C8  UNL     1     -32.664   6.928   3.742  1.00 20.00     0.317 C 
BRANCH   7   8
HETATM    8  C2  UNL     1     -32.480   8.418   3.667  1.00 20.00     0.007 C 
HETATM    9  C1  UNL     1     -32.119   9.166   4.719  1.00 20.00     0.029 C 
HETATM   10 BR10 UNL     1     -32.715   9.178   1.970  1.00 20.00    -0.055 Br
ENDBRANCH   7   8
ENDBRANCH   6   7
TORSDOF 2
ENDMDL
MODEL 6
REMARK VINA RESULT:      -3.1      3.750      4.933
REMARK  2 active torsions:
REMARK  status: ('A' for Active; 'I' for Inactive)
REMARK    1  A    between atoms: C2_2  and  C8_8 
REMARK    2  A    between atoms: C8_8  and  N9_9 
ROOT
HETATM    1  C3  UNL     1     -33.232  16.053  -3.492  1.00 20.00     0.003 C 
HETATM    2  C4  UNL     1     -33.682  14.767  -4.176  1.00 20.00     0.030 C 
HETATM    3  C5  UNL     1     -34.219  17.185  -3.757  1.00 20.00     0.030 C 
HETATM    4  C6  UNL     1     -33.980  15.003  -5.660  1.00 20.00     0.273 C 
HETATM    5  C7  UNL     1     -34.498  17.337  -5.255  1.00 20.00     0.273 C 
HETATM    6  N9  UNL     1     -34.925  16.097  -5.916  1.00 20.00     0.093 N 
ENDROOT
BRANCH   6   7
HETATM    7  C8  UNL     1     -36.299  15.734  -5.576  1.00 20.00     0.317 C 
BRANCH   7   8
HETATM    8  C2  UNL     1     -37.304  16.728  -6.086  1.00 20.00     0.007 C 
HETATM    9  C1  UNL     1     -37.540  16.929  -7.390  1.00 20.00     0.029 C 
HETATM   10 BR10 UNL     1     -38.283  17.636  -4.770  1.00 20.00    -0.055 Br
ENDBRANCH   7   8
ENDBRANCH   6   7
TORSDOF 2
ENDMDL
MODEL 7
REMARK VINA RESULT:      -3.0      2.571      5.365
REMARK  2 active torsions:
REMARK  status: ('A' for Active; 'I' for Inactive)
REMARK    1  A    between atoms: C2_2  and  C8_8 
REMARK    2  A    between atoms: C8_8  and  N9_9 
ROOT
HETATM    1  C3  UNL     1     -34.443  16.411  -7.468  1.00 20.00     0.003 C 
HETATM    2  C4  UNL     1     -33.866  15.219  -6.714  1.00 20.00     0.030 C 
HETATM    3  C5  UNL     1     -34.456  17.657  -6.588  1.00 20.00     0.030 C 
HETATM    4  C6  UNL     1     -34.563  15.025  -5.364  1.00 20.00     0.273 C 
HETATM    5  C7  UNL     1     -35.134  17.379  -5.243  1.00 20.00     0.273 C 
HETATM    6  N9  UNL     1     -34.582  16.226  -4.520  1.00 20.00     0.093 N 
ENDROOT
BRANCH   6   7
HETATM    7  C8  UNL     1     -33.274  16.513  -3.936  1.00 20.00     0.317 C 
BRANCH   7   8
HETATM    8  C2  UNL     1     -33.350  17.486  -2.792  1.00 20.00     0.007 C 
HETATM    9  C1  UNL     1     -33.663  17.122  -1.541  1.00 20.00     0.029 C 
HETATM   10 BR10 UNL     1     -32.902  19.258  -3.206  1.00 20.00    -0.055 Br
ENDBRANCH   7   8
ENDBRANCH   6   7
TORSDOF 2
ENDMDL
MODEL 8
REMARK VINA RESULT:      -3.0     24.448     25.040
REMARK  2 active torsions:
REMARK  status: ('A' for Active; 'I' for Inactive)
REMARK    1  A    between atoms: C2_2  and  C8_8 
REMARK    2  A    between atoms: C8_8  and  N9_9 
ROOT
HETATM    1  C3  UNL     1     -27.740  -0.647  11.346  1.00 20.00     0.003 C 
HETATM    2  C4  UNL     1     -27.768  -1.516  10.094  1.00 20.00     0.030 C 
HETATM    3  C5  UNL     1     -26.342  -0.613  11.954  1.00 20.00     0.030 C 
HETATM    4  C6  UNL     1     -27.169  -2.899  10.364  1.00 20.00     0.273 C 
HETATM    5  C7  UNL     1     -25.793  -2.028  12.161  1.00 20.00     0.273 C 
HETATM    6  N9  UNL     1     -25.826  -2.867  10.956  1.00 20.00     0.093 N 
ENDROOT
BRANCH   6   7
HETATM    7  C8  UNL     1     -24.803  -2.484   9.986  1.00 20.00     0.317 C 
BRANCH   7   8
HETATM    8  C2  UNL     1     -23.936  -3.640   9.570  1.00 20.00     0.007 C 
HETATM    9  C1  UNL     1     -23.768  -4.737  10.321  1.00 20.00     0.029 C 
HETATM   10 BR10 UNL     1     -23.149  -3.492   7.876  1.00 20.00    -0.055 Br
ENDBRANCH   7   8
ENDBRANCH   6   7
TORSDOF 2
ENDMDL
MODEL 9
REMARK VINA RESULT:      -3.0     11.602     12.744
REMARK  2 active torsions:
REMARK  status: ('A' for Active; 'I' for Inactive)
REMARK    1  A    between atoms: C2_2  and  C8_8 
REMARK    2  A    between atoms: C8_8  and  N9_9 
ROOT
HETATM    1  C3  UNL     1     -41.292  15.080  10.372  1.00 20.00     0.003 C 
HETATM    2  C4  UNL     1     -40.087  15.440   9.510  1.00 20.00     0.030 C 
HETATM    3  C5  UNL     1     -42.129  13.990   9.711  1.00 20.00     0.030 C 
HETATM    4  C6  UNL     1     -40.508  15.759   8.073  1.00 20.00     0.273 C 
HETATM    5  C7  UNL     1     -42.480  14.361   8.267  1.00 20.00     0.273 C 
HETATM    6  N9  UNL     1     -41.320  14.713   7.438  1.00 20.00     0.093 N 
ENDROOT
BRANCH   6   7
HETATM    7  C8  UNL     1     -40.526  13.544   7.070  1.00 20.00     0.317 C 
BRANCH   7   8
HETATM    8  C2  UNL     1     -40.668  13.180   5.618  1.00 20.00     0.007 C 
HETATM    9  C1  UNL     1     -41.531  13.787   4.792  1.00 20.00     0.029 C 
HETATM   10 BR10 UNL     1     -39.496  11.856   4.998  1.00 20.00    -0.055 Br
ENDBRANCH   7   8
ENDBRANCH   6   7
TORSDOF 2
ENDMDL
