MODEL 1
REMARK VINA RESULT:      -4.9      0.000      0.000
REMARK  1 active torsions:
REMARK  status: ('A' for Active; 'I' for Inactive)
REMARK    1  A    between atoms: C1_1  and  C6_6 
ROOT
HETATM    1  C2  UNL     1     -34.578   4.963   5.764  1.00 20.00     0.005 C 
HETATM    2  C3  UNL     1     -34.157   6.219   6.543  1.00 20.00     0.006 C 
HETATM    3  C4  UNL     1     -33.313   5.756   3.747  1.00 20.00     0.018 C 
HETATM    4  C5  UNL     1     -35.246   6.892   4.543  1.00 20.00     0.010 C 
HETATM    5  C6  UNL     1     -32.847   6.978   4.557  1.00 20.00     0.076 C 
HETATM    6  C7  UNL     1     -34.716   5.478   4.320  1.00 20.00    -0.013 C 
HETATM    7  C8  UNL     1     -34.072   7.292   5.442  1.00 20.00    -0.002 C 
ENDROOT
BRANCH   5   8
HETATM    8  C1  UNL     1     -32.497   8.129   3.664  1.00 20.00     0.223 C 
HETATM    9  O9  UNL     1     -32.417   9.276   4.093  1.00 20.00    -0.279 OA
HETATM   10 CL10 UNL     1     -32.237   7.628   2.022  1.00 20.00    -0.043 Cl
ENDBRANCH   5   8
TORSDOF 1
ENDMDL
MODEL 2
REMARK VINA RESULT:      -4.2      0.913      1.818
REMARK  1 active torsions:
REMARK  status: ('A' for Active; 'I' for Inactive)
REMARK    1  A    between atoms: C1_1  and  C6_6 
ROOT
HETATM    1  C2  UNL     1     -35.396   5.338   6.003  1.00 20.00     0.005 C 
HETATM    2  C3  UNL     1     -35.557   5.743   4.529  1.00 20.00     0.006 C 
HETATM    3  C4  UNL     1     -33.628   7.091   6.320  1.00 20.00     0.018 C 
HETATM    4  C5  UNL     1     -33.281   5.196   4.924  1.00 20.00     0.010 C 
HETATM    5  C6  UNL     1     -33.843   7.529   4.861  1.00 20.00     0.076 C 
HETATM    6  C7  UNL     1     -33.898   5.575   6.267  1.00 20.00    -0.013 C 
HETATM    7  C8  UNL     1     -34.137   6.195   4.141  1.00 20.00    -0.002 C 
ENDROOT
BRANCH   5   8
HETATM    8  C1  UNL     1     -32.627   8.203   4.303  1.00 20.00     0.223 C 
HETATM    9  O9  UNL     1     -32.031   9.077   4.926  1.00 20.00    -0.279 OA
HETATM   10 CL10 UNL     1     -32.208   7.599   2.729  1.00 20.00    -0.043 Cl
ENDBRANCH   5   8
TORSDOF 1
ENDMDL
MODEL 3
REMARK VINA RESULT:      -3.8      9.255     10.322
REMARK  1 active torsions:
REMARK  status: ('A' for Active; 'I' for Inactive)
REMARK    1  A    between atoms: C1_1  and  C6_6 
ROOT
HETATM    1  C2  UNL     1     -42.584  15.149   6.829  1.00 20.00     0.005 C 
HETATM    2  C3  UNL     1     -42.395  14.618   5.399  1.00 20.00     0.006 C 
HETATM    3  C4  UNL     1     -40.468  14.014   7.560  1.00 20.00     0.018 C 
HETATM    4  C5  UNL     1     -42.393  12.780   6.901  1.00 20.00     0.010 C 
HETATM    5  C6  UNL     1     -40.258  13.540   6.112  1.00 20.00     0.076 C 
HETATM    6  C7  UNL     1     -42.003  14.020   7.699  1.00 20.00    -0.013 C 
HETATM    7  C8  UNL     1     -41.697  13.265   5.626  1.00 20.00    -0.002 C 
ENDROOT
BRANCH   5   8
HETATM    8  C1  UNL     1     -39.407  12.308   6.053  1.00 20.00     0.223 C 
HETATM    9  O9  UNL     1     -38.924  11.810   7.064  1.00 20.00    -0.279 OA
HETATM   10 CL10 UNL     1     -39.217  11.722   4.428  1.00 20.00    -0.043 Cl
ENDBRANCH   5   8
TORSDOF 1
ENDMDL
MODEL 4
REMARK VINA RESULT:      -3.8      2.238      3.606
REMARK  1 active torsions:
REMARK  status: ('A' for Active; 'I' for Inactive)
REMARK    1  A    between atoms: C1_1  and  C6_6 
ROOT
HETATM    1  C2  UNL     1     -32.439   8.129   1.935  1.00 20.00     0.005 C 
HETATM    2  C3  UNL     1     -33.094   9.127   2.903  1.00 20.00     0.006 C 
HETATM    3  C4  UNL     1     -33.284   6.203   3.305  1.00 20.00     0.018 C 
HETATM    4  C5  UNL     1     -31.642   7.711   4.137  1.00 20.00     0.010 C 
HETATM    5  C6  UNL     1     -33.988   7.210   4.231  1.00 20.00     0.076 C 
HETATM    6  C7  UNL     1     -32.024   6.969   2.859  1.00 20.00    -0.013 C 
HETATM    7  C8  UNL     1     -33.004   8.400   4.257  1.00 20.00    -0.002 C 
ENDROOT
BRANCH   5   8
HETATM    8  C1  UNL     1     -34.205   6.640   5.600  1.00 20.00     0.223 C 
HETATM    9  O9  UNL     1     -34.174   7.345   6.604  1.00 20.00    -0.279 OA
HETATM   10 CL10 UNL     1     -34.492   4.927   5.557  1.00 20.00    -0.043 Cl
ENDBRANCH   5   8
TORSDOF 1
ENDMDL
MODEL 5
REMARK VINA RESULT:      -3.8      2.655      3.718
REMARK  1 active torsions:
REMARK  status: ('A' for Active; 'I' for Inactive)
REMARK    1  A    between atoms: C1_1  and  C6_6 
ROOT
HETATM    1  C2  UNL     1     -32.788   8.868   3.081  1.00 20.00     0.005 C 
HETATM    2  C3  UNL     1     -34.087   8.926   3.900  1.00 20.00     0.006 C 
HETATM    3  C4  UNL     1     -32.778   6.362   3.225  1.00 20.00     0.018 C 
HETATM    4  C5  UNL     1     -32.456   7.732   5.144  1.00 20.00     0.010 C 
HETATM    5  C6  UNL     1     -34.110   6.431   3.990  1.00 20.00     0.076 C 
HETATM    6  C7  UNL     1     -32.058   7.649   3.673  1.00 20.00    -0.013 C 
HETATM    7  C8  UNL     1     -33.956   7.712   4.837  1.00 20.00    -0.002 C 
ENDROOT
BRANCH   5   8
HETATM    8  C1  UNL     1     -34.316   5.220   4.848  1.00 20.00     0.223 C 
HETATM    9  O9  UNL     1     -34.117   4.086   4.423  1.00 20.00    -0.279 OA
HETATM   10 CL10 UNL     1     -34.850   5.636   6.448  1.00 20.00    -0.043 Cl
ENDBRANCH   5   8
TORSDOF 1
ENDMDL
MODEL 6
REMARK VINA RESULT:      -3.8      2.758      3.819
REMARK  1 active torsions:
REMARK  status: ('A' for Active; 'I' for Inactive)
REMARK    1  A    between atoms: C1_1  and  C6_6 
ROOT
HETATM    1  C2  UNL     1     -32.183   8.818   4.615  1.00 20.00     0.005 C 
HETATM    2  C3  UNL     1     -32.120   7.714   3.546  1.00 20.00     0.006 C 
HETATM    3  C4  UNL     1     -33.368   7.263   6.189  1.00 20.00     0.018 C 
HETATM    4  C5  UNL     1     -34.386   8.032   4.181  1.00 20.00     0.010 C 
HETATM    5  C6  UNL     1     -33.244   6.150   5.136  1.00 20.00     0.076 C 
HETATM    6  C7  UNL     1     -33.516   8.534   5.330  1.00 20.00    -0.013 C 
HETATM    7  C8  UNL     1     -33.410   6.914   3.805  1.00 20.00    -0.002 C 
ENDROOT
BRANCH   5   8
HETATM    8  C1  UNL     1     -34.303   5.104   5.311  1.00 20.00     0.223 C 
HETATM    9  O9  UNL     1     -34.493   4.231   4.470  1.00 20.00    -0.279 OA
HETATM   10 CL10 UNL     1     -35.176   5.302   6.800  1.00 20.00    -0.043 Cl
ENDBRANCH   5   8
TORSDOF 1
ENDMDL
MODEL 7
REMARK VINA RESULT:      -3.6     12.287     13.408
REMARK  1 active torsions:
REMARK  status: ('A' for Active; 'I' for Inactive)
REMARK    1  A    between atoms: C1_1  and  C6_6 
ROOT
HETATM    1  C2  UNL     1     -32.520  18.507  -1.531  1.00 20.00     0.005 C 
HETATM    2  C3  UNL     1     -32.710  19.250  -2.864  1.00 20.00     0.006 C 
HETATM    3  C4  UNL     1     -33.360  16.380  -2.565  1.00 20.00     0.018 C 
HETATM    4  C5  UNL     1     -34.778  18.263  -2.240  1.00 20.00     0.010 C 
HETATM    5  C6  UNL     1     -33.487  17.119  -3.909  1.00 20.00     0.076 C 
HETATM    6  C7  UNL     1     -33.671  17.484  -1.536  1.00 20.00    -0.013 C 
HETATM    7  C8  UNL     1     -33.925  18.536  -3.483  1.00 20.00    -0.002 C 
ENDROOT
BRANCH   5   8
HETATM    8  C1  UNL     1     -34.500  16.469  -4.802  1.00 20.00     0.223 C 
HETATM    9  O9  UNL     1     -35.196  17.125  -5.570  1.00 20.00    -0.279 OA
HETATM   10 CL10 UNL     1     -34.541  14.744  -4.597  1.00 20.00    -0.043 Cl
ENDBRANCH   5   8
TORSDOF 1
ENDMDL
MODEL 8
REMARK VINA RESULT:      -3.6     11.843     12.825
REMARK  1 active torsions:
REMARK  status: ('A' for Active; 'I' for Inactive)
REMARK    1  A    between atoms: C1_1  and  C6_6 
ROOT
HETATM    1  C2  UNL     1     -25.998  -0.885  11.850  1.00 20.00     0.005 C 
HETATM    2  C3  UNL     1     -25.906  -2.134  10.959  1.00 20.00     0.006 C 
HETATM    3  C4  UNL     1     -28.427  -1.340  12.285  1.00 20.00     0.018 C 
HETATM    4  C5  UNL     1     -27.630  -0.731  10.127  1.00 20.00     0.010 C 
HETATM    5  C6  UNL     1     -28.307  -2.621  11.442  1.00 20.00     0.076 C 
HETATM    6  C7  UNL     1     -27.432  -0.384  11.600  1.00 20.00    -0.013 C 
HETATM    7  C8  UNL     1     -27.311  -2.214  10.336  1.00 20.00    -0.002 C 
ENDROOT
BRANCH   5   8
HETATM    8  C1  UNL     1     -29.631  -3.033  10.873  1.00 20.00     0.223 C 
HETATM    9  O9  UNL     1     -30.669  -2.447  11.166  1.00 20.00    -0.279 OA
HETATM   10 CL10 UNL     1     -29.486  -4.388   9.796  1.00 20.00    -0.043 Cl
ENDBRANCH   5   8
TORSDOF 1
ENDMDL
MODEL 9
REMARK VINA RESULT:      -3.5     12.132     13.655
REMARK  1 active torsions:
REMARK  status: ('A' for Active; 'I' for Inactive)
REMARK    1  A    between atoms: C1_1  and  C6_6 
ROOT
HETATM    1  C2  UNL     1     -36.514  16.686  -7.094  1.00 20.00     0.005 C 
HETATM    2  C3  UNL     1     -35.627  15.497  -7.498  1.00 20.00     0.006 C 
HETATM    3  C4  UNL     1     -35.222  16.959  -4.960  1.00 20.00     0.018 C 
HETATM    4  C5  UNL     1     -36.579  15.048  -5.370  1.00 20.00     0.010 C 
HETATM    5  C6  UNL     1     -34.303  15.809  -5.404  1.00 20.00     0.076 C 
HETATM    6  C7  UNL     1     -36.584  16.562  -5.561  1.00 20.00    -0.013 C 
HETATM    7  C8  UNL     1     -35.270  14.860  -6.144  1.00 20.00    -0.002 C 
ENDROOT
BRANCH   5   8
HETATM    8  C1  UNL     1     -33.654  15.137  -4.233  1.00 20.00     0.223 C 
HETATM    9  O9  UNL     1     -33.334  13.953  -4.264  1.00 20.00    -0.279 OA
HETATM   10 CL10 UNL     1     -33.434  16.224  -2.895  1.00 20.00    -0.043 Cl
ENDBRANCH   5   8
TORSDOF 1
ENDMDL
