MODEL 1
REMARK VINA RESULT:      -4.0      0.000      0.000
REMARK  3 active torsions:
REMARK  status: ('A' for Active; 'I' for Inactive)
REMARK    1  A    between atoms: C5_5  and  N9_9 
REMARK    2  A    between atoms: C6_6  and  C7_7 
REMARK    3  A    between atoms: C7_7  and  N9_9 
ROOT
HETATM    1  C1  UNL     1     -32.165   8.181   1.858  1.00 20.00     0.089 C 
HETATM    2  C5  UNL     1     -32.128   7.837   3.278  1.00 20.00     0.393 C 
HETATM    3  N8  UNL     1     -32.194   8.458   0.732  1.00 20.00    -0.195 NA
ENDROOT
BRANCH   2   4
HETATM    4  N9  UNL     1     -32.938   6.652   3.547  1.00 20.00     0.100 N 
HETATM    5  H23 UNL     1     -32.338   5.923   3.938  1.00 20.00     0.317 HD
BRANCH   4   6
HETATM    6  C7  UNL     1     -34.010   6.949   4.476  1.00 20.00     0.221 C 
HETATM    7  C4  UNL     1     -33.464   7.826   5.601  1.00 20.00     0.043 C 
BRANCH   6   8
HETATM    8  C6  UNL     1     -34.675   5.651   4.988  1.00 20.00     0.010 C 
HETATM    9  C2  UNL     1     -34.108   4.373   4.361  1.00 20.00     0.011 C 
HETATM   10  C3  UNL     1     -34.603   5.554   6.516  1.00 20.00     0.011 C 
ENDBRANCH   6   8
ENDBRANCH   4   6
ENDBRANCH   2   4
TORSDOF 3
ENDMDL
MODEL 2
REMARK VINA RESULT:      -3.8      1.286      1.393
REMARK  3 active torsions:
REMARK  status: ('A' for Active; 'I' for Inactive)
REMARK    1  A    between atoms: C5_5  and  N9_9 
REMARK    2  A    between atoms: C6_6  and  C7_7 
REMARK    3  A    between atoms: C7_7  and  N9_9 
ROOT
HETATM    1  C1  UNL     1     -32.636   9.121   2.675  1.00 20.00     0.089 C 
HETATM    2  C5  UNL     1     -32.471   8.977   4.120  1.00 20.00     0.393 C 
HETATM    3  N8  UNL     1     -32.768   9.238   1.528  1.00 20.00    -0.195 NA
ENDROOT
BRANCH   2   4
HETATM    4  N9  UNL     1     -32.505   7.570   4.509  1.00 20.00     0.100 N 
HETATM    5  H23 UNL     1     -31.921   7.444   5.339  1.00 20.00     0.317 HD
BRANCH   4   6
HETATM    6  C7  UNL     1     -33.858   7.137   4.795  1.00 20.00     0.221 C 
HETATM    7  C4  UNL     1     -34.020   6.976   6.305  1.00 20.00     0.043 C 
BRANCH   6   8
HETATM    8  C6  UNL     1     -34.205   5.852   4.007  1.00 20.00     0.010 C 
HETATM    9  C2  UNL     1     -33.132   5.432   2.999  1.00 20.00     0.011 C 
HETATM   10  C3  UNL     1     -34.511   4.686   4.954  1.00 20.00     0.011 C 
ENDBRANCH   6   8
ENDBRANCH   4   6
ENDBRANCH   2   4
TORSDOF 3
ENDMDL
MODEL 3
REMARK VINA RESULT:      -3.8      1.958      4.142
REMARK  3 active torsions:
REMARK  status: ('A' for Active; 'I' for Inactive)
REMARK    1  A    between atoms: C5_5  and  N9_9 
REMARK    2  A    between atoms: C6_6  and  C7_7 
REMARK    3  A    between atoms: C7_7  and  N9_9 
ROOT
HETATM    1  C1  UNL     1     -34.517   5.752   6.049  1.00 20.00     0.089 C 
HETATM    2  C5  UNL     1     -34.153   7.165   6.131  1.00 20.00     0.393 C 
HETATM    3  N8  UNL     1     -34.805   4.629   5.986  1.00 20.00    -0.195 NA
ENDROOT
BRANCH   2   4
HETATM    4  N9  UNL     1     -33.917   7.720   4.802  1.00 20.00     0.100 N 
HETATM    5  H23 UNL     1     -34.372   8.633   4.739  1.00 20.00     0.317 HD
BRANCH   4   6
HETATM    6  C7  UNL     1     -32.499   7.863   4.537  1.00 20.00     0.221 C 
HETATM    7  C4  UNL     1     -32.102   9.324   4.732  1.00 20.00     0.043 C 
BRANCH   6   8
HETATM    8  C6  UNL     1     -32.140   7.318   3.135  1.00 20.00     0.010 C 
HETATM    9  C2  UNL     1     -32.832   5.997   2.785  1.00 20.00     0.011 C 
HETATM   10  C3  UNL     1     -32.428   8.358   2.045  1.00 20.00     0.011 C 
ENDBRANCH   6   8
ENDBRANCH   4   6
ENDBRANCH   2   4
TORSDOF 3
ENDMDL
MODEL 4
REMARK VINA RESULT:      -3.6     11.355     12.411
REMARK  3 active torsions:
REMARK  status: ('A' for Active; 'I' for Inactive)
REMARK    1  A    between atoms: C5_5  and  N9_9 
REMARK    2  A    between atoms: C6_6  and  C7_7 
REMARK    3  A    between atoms: C7_7  and  N9_9 
ROOT
HETATM    1  C1  UNL     1     -33.848  14.908  -3.870  1.00 20.00     0.089 C 
HETATM    2  C5  UNL     1     -33.177  16.150  -3.492  1.00 20.00     0.393 C 
HETATM    3  N8  UNL     1     -34.381  13.923  -4.174  1.00 20.00    -0.195 NA
ENDROOT
BRANCH   2   4
HETATM    4  N9  UNL     1     -33.623  16.602  -2.177  1.00 20.00     0.100 N 
HETATM    5  H23 UNL     1     -32.940  16.308  -1.477  1.00 20.00     0.317 HD
BRANCH   4   6
HETATM    6  C7  UNL     1     -33.770  18.044  -2.140  1.00 20.00     0.221 C 
HETATM    7  C4  UNL     1     -33.112  18.642  -3.382  1.00 20.00     0.043 C 
BRANCH   6   8
HETATM    8  C6  UNL     1     -33.211  18.623  -0.820  1.00 20.00     0.010 C 
HETATM    9  C2  UNL     1     -33.881  18.062   0.438  1.00 20.00     0.011 C 
HETATM   10  C3  UNL     1     -31.692  18.431  -0.728  1.00 20.00     0.011 C 
ENDBRANCH   6   8
ENDBRANCH   4   6
ENDBRANCH   2   4
TORSDOF 3
ENDMDL
MODEL 5
REMARK VINA RESULT:      -3.6     11.911     13.457
REMARK  3 active torsions:
REMARK  status: ('A' for Active; 'I' for Inactive)
REMARK    1  A    between atoms: C5_5  and  N9_9 
REMARK    2  A    between atoms: C6_6  and  C7_7 
REMARK    3  A    between atoms: C7_7  and  N9_9 
ROOT
HETATM    1  C1  UNL     1     -35.656  15.505  -6.983  1.00 20.00     0.089 C 
HETATM    2  C5  UNL     1     -35.237  16.905  -6.950  1.00 20.00     0.393 C 
HETATM    3  N8  UNL     1     -35.993  14.395  -7.010  1.00 20.00    -0.195 NA
ENDROOT
BRANCH   2   4
HETATM    4  N9  UNL     1     -34.095  17.085  -6.059  1.00 20.00     0.100 N 
HETATM    5  H23 UNL     1     -33.659  17.988  -6.259  1.00 20.00     0.317 HD
BRANCH   4   6
HETATM    6  C7  UNL     1     -34.501  17.036  -4.669  1.00 20.00     0.221 C 
HETATM    7  C4  UNL     1     -34.719  18.461  -4.165  1.00 20.00     0.043 C 
BRANCH   6   8
HETATM    8  C6  UNL     1     -33.479  16.244  -3.821  1.00 20.00     0.010 C 
HETATM    9  C2  UNL     1     -33.460  16.639  -2.341  1.00 20.00     0.011 C 
HETATM   10  C3  UNL     1     -33.702  14.732  -3.951  1.00 20.00     0.011 C 
ENDBRANCH   6   8
ENDBRANCH   4   6
ENDBRANCH   2   4
TORSDOF 3
ENDMDL
MODEL 6
REMARK VINA RESULT:      -3.5     11.520     12.712
REMARK  3 active torsions:
REMARK  status: ('A' for Active; 'I' for Inactive)
REMARK    1  A    between atoms: C5_5  and  N9_9 
REMARK    2  A    between atoms: C6_6  and  C7_7 
REMARK    3  A    between atoms: C7_7  and  N9_9 
ROOT
HETATM    1  C1  UNL     1     -32.198  18.188  -0.934  1.00 20.00     0.089 C 
HETATM    2  C5  UNL     1     -33.551  17.671  -1.124  1.00 20.00     0.393 C 
HETATM    3  N8  UNL     1     -31.124  18.601  -0.781  1.00 20.00    -0.195 NA
ENDROOT
BRANCH   2   4
HETATM    4  N9  UNL     1     -33.573  16.637  -2.155  1.00 20.00     0.100 N 
HETATM    5  H23 UNL     1     -34.332  15.983  -1.950  1.00 20.00     0.317 HD
BRANCH   4   6
HETATM    6  C7  UNL     1     -33.766  17.211  -3.471  1.00 20.00     0.221 C 
HETATM    7  C4  UNL     1     -34.913  18.217  -3.411  1.00 20.00     0.043 C 
BRANCH   6   8
HETATM    8  C6  UNL     1     -33.983  16.106  -4.531  1.00 20.00     0.010 C 
HETATM    9  C2  UNL     1     -33.852  14.682  -3.980  1.00 20.00     0.011 C 
HETATM   10  C3  UNL     1     -35.338  16.267  -5.231  1.00 20.00     0.011 C 
ENDBRANCH   6   8
ENDBRANCH   4   6
ENDBRANCH   2   4
TORSDOF 3
ENDMDL
MODEL 7
REMARK VINA RESULT:      -3.4     12.103     13.240
REMARK  3 active torsions:
REMARK  status: ('A' for Active; 'I' for Inactive)
REMARK    1  A    between atoms: C5_5  and  N9_9 
REMARK    2  A    between atoms: C6_6  and  C7_7 
REMARK    3  A    between atoms: C7_7  and  N9_9 
ROOT
HETATM    1  C1  UNL     1     -35.762  15.397  -6.622  1.00 20.00     0.089 C 
HETATM    2  C5  UNL     1     -35.480  16.679  -5.981  1.00 20.00     0.393 C 
HETATM    3  N8  UNL     1     -35.987  14.379  -7.133  1.00 20.00    -0.195 NA
ENDROOT
BRANCH   2   4
HETATM    4  N9  UNL     1     -35.308  16.515  -4.541  1.00 20.00     0.100 N 
HETATM    5  H23 UNL     1     -35.534  15.551  -4.289  1.00 20.00     0.317 HD
BRANCH   4   6
HETATM    6  C7  UNL     1     -33.950  16.819  -4.137  1.00 20.00     0.221 C 
HETATM    7  C4  UNL     1     -33.218  15.513  -3.834  1.00 20.00     0.043 C 
BRANCH   6   8
HETATM    8  C6  UNL     1     -33.934  17.811  -2.951  1.00 20.00     0.010 C 
HETATM    9  C2  UNL     1     -35.251  18.569  -2.757  1.00 20.00     0.011 C 
HETATM   10  C3  UNL     1     -33.543  17.110  -1.645  1.00 20.00     0.011 C 
ENDBRANCH   6   8
ENDBRANCH   4   6
ENDBRANCH   2   4
TORSDOF 3
ENDMDL
MODEL 8
REMARK VINA RESULT:      -3.4     12.082     12.859
REMARK  3 active torsions:
REMARK  status: ('A' for Active; 'I' for Inactive)
REMARK    1  A    between atoms: C5_5  and  N9_9 
REMARK    2  A    between atoms: C6_6  and  C7_7 
REMARK    3  A    between atoms: C7_7  and  N9_9 
ROOT
HETATM    1  C1  UNL     1     -30.144  18.607   2.500  1.00 20.00     0.089 C 
HETATM    2  C5  UNL     1     -31.402  18.407   1.783  1.00 20.00     0.393 C 
HETATM    3  N8  UNL     1     -29.147  18.767   3.072  1.00 20.00    -0.195 NA
ENDROOT
BRANCH   2   4
HETATM    4  N9  UNL     1     -31.228  18.639   0.352  1.00 20.00     0.100 N 
HETATM    5  H23 UNL     1     -30.740  17.839  -0.056  1.00 20.00     0.317 HD
BRANCH   4   6
HETATM    6  C7  UNL     1     -32.504  18.820  -0.309  1.00 20.00     0.221 C 
HETATM    7  C4  UNL     1     -33.612  18.281   0.593  1.00 20.00     0.043 C 
BRANCH   6   8
HETATM    8  C6  UNL     1     -32.497  18.171  -1.713  1.00 20.00     0.010 C 
HETATM    9  C2  UNL     1     -33.481  17.007  -1.865  1.00 20.00     0.011 C 
HETATM   10  C3  UNL     1     -32.755  19.213  -2.808  1.00 20.00     0.011 C 
ENDBRANCH   6   8
ENDBRANCH   4   6
ENDBRANCH   2   4
TORSDOF 3
ENDMDL
MODEL 9
REMARK VINA RESULT:      -3.3      9.514     10.422
REMARK  3 active torsions:
REMARK  status: ('A' for Active; 'I' for Inactive)
REMARK    1  A    between atoms: C5_5  and  N9_9 
REMARK    2  A    between atoms: C6_6  and  C7_7 
REMARK    3  A    between atoms: C7_7  and  N9_9 
ROOT
HETATM    1  C1  UNL     1     -39.348  11.815   4.469  1.00 20.00     0.089 C 
HETATM    2  C5  UNL     1     -39.678  11.925   5.888  1.00 20.00     0.393 C 
HETATM    3  N8  UNL     1     -39.085  11.724   3.342  1.00 20.00    -0.195 NA
ENDROOT
BRANCH   2   4
HETATM    4  N9  UNL     1     -39.494  13.294   6.360  1.00 20.00     0.100 N 
HETATM    5  H23 UNL     1     -39.429  13.916   5.552  1.00 20.00     0.317 HD
BRANCH   4   6
HETATM    6  C7  UNL     1     -40.594  13.709   7.208  1.00 20.00     0.221 C 
HETATM    7  C4  UNL     1     -41.909  13.466   6.469  1.00 20.00     0.043 C 
BRANCH   6   8
HETATM    8  C6  UNL     1     -40.417  15.175   7.666  1.00 20.00     0.010 C 
HETATM    9  C2  UNL     1     -41.572  16.096   7.260  1.00 20.00     0.011 C 
HETATM   10  C3  UNL     1     -40.194  15.261   9.180  1.00 20.00     0.011 C 
ENDBRANCH   6   8
ENDBRANCH   4   6
ENDBRANCH   2   4
TORSDOF 3
ENDMDL
