MODEL 1
REMARK VINA RESULT:      -3.5      0.000      0.000
REMARK  4 active torsions:
REMARK  status: ('A' for Active; 'I' for Inactive)
REMARK    1  A    between atoms: C2_2  and  C5_5 
REMARK    2  A    between atoms: C5_5  and  S9_9 
REMARK    3  A    between atoms: C6_6  and  C7_7 
REMARK    4  A    between atoms: C6_6  and  S9_9 
ROOT
HETATM    1  S9  UNL     1     -33.039  18.313  -2.391  1.00 20.00    -0.166 SA
ENDROOT
BRANCH   1   2
HETATM    2  C5  UNL     1     -33.049  18.397  -0.586  1.00 20.00     0.108 C 
BRANCH   2   3
HETATM    3  C2  UNL     1     -31.841  19.164  -0.082  1.00 20.00     0.154 A 
HETATM    4  C1  UNL     1     -30.909  18.567   0.934  1.00 20.00     0.201 A 
HETATM    5  O8  UNL     1     -30.581  18.606  -0.464  1.00 20.00    -0.380 OA
ENDBRANCH   2   3
ENDBRANCH   1   2
BRANCH   1   6
HETATM    6  C6  UNL     1     -33.383  16.535  -2.571  1.00 20.00     0.077 C 
BRANCH   6   7
HETATM    7  C7  UNL     1     -33.565  16.043  -4.017  1.00 20.00    -0.013 C 
HETATM    8  C3  UNL     1     -33.897  14.552  -4.097  1.00 20.00     0.010 C 
HETATM    9  C4  UNL     1     -34.594  16.865  -4.795  1.00 20.00     0.010 C 
ENDBRANCH   6   7
ENDBRANCH   1   6
TORSDOF 4
ENDMDL
MODEL 2
REMARK VINA RESULT:      -3.4     12.053     12.486
REMARK  4 active torsions:
REMARK  status: ('A' for Active; 'I' for Inactive)
REMARK    1  A    between atoms: C2_2  and  C5_5 
REMARK    2  A    between atoms: C5_5  and  S9_9 
REMARK    3  A    between atoms: C6_6  and  C7_7 
REMARK    4  A    between atoms: C6_6  and  S9_9 
ROOT
HETATM    1  S9  UNL     1     -41.946  13.065   6.635  1.00 20.00    -0.166 SA
ENDROOT
BRANCH   1   2
HETATM    2  C5  UNL     1     -41.656  14.779   7.129  1.00 20.00     0.108 C 
BRANCH   2   3
HETATM    3  C2  UNL     1     -40.391  14.888   7.959  1.00 20.00     0.154 A 
HETATM    4  C1  UNL     1     -40.447  15.196   9.428  1.00 20.00     0.201 A 
HETATM    5  O8  UNL     1     -40.234  13.861   8.942  1.00 20.00    -0.380 OA
ENDBRANCH   2   3
ENDBRANCH   1   2
BRANCH   1   6
HETATM    6  C6  UNL     1     -40.827  13.014   5.201  1.00 20.00     0.077 C 
BRANCH   6   7
HETATM    7  C7  UNL     1     -39.796  11.872   5.211  1.00 20.00    -0.013 C 
HETATM    8  C3  UNL     1     -39.084  11.706   3.868  1.00 20.00     0.010 C 
HETATM    9  C4  UNL     1     -38.780  12.004   6.347  1.00 20.00     0.010 C 
ENDBRANCH   6   7
ENDBRANCH   1   6
TORSDOF 4
ENDMDL
MODEL 3
REMARK VINA RESULT:      -3.3      3.980      6.325
REMARK  4 active torsions:
REMARK  status: ('A' for Active; 'I' for Inactive)
REMARK    1  A    between atoms: C2_2  and  C5_5 
REMARK    2  A    between atoms: C5_5  and  S9_9 
REMARK    3  A    between atoms: C6_6  and  C7_7 
REMARK    4  A    between atoms: C6_6  and  S9_9 
ROOT
HETATM    1  S9  UNL     1     -33.389  15.007  -4.372  1.00 20.00    -0.166 SA
ENDROOT
BRANCH   1   2
HETATM    2  C5  UNL     1     -33.976  14.995  -6.081  1.00 20.00     0.108 C 
BRANCH   2   3
HETATM    3  C2  UNL     1     -35.492  14.958  -6.124  1.00 20.00     0.154 A 
HETATM    4  C1  UNL     1     -36.262  15.742  -7.149  1.00 20.00     0.201 A 
HETATM    5  O8  UNL     1     -36.039  14.329  -7.287  1.00 20.00    -0.380 OA
ENDBRANCH   2   3
ENDBRANCH   1   2
BRANCH   1   6
HETATM    6  C6  UNL     1     -33.979  16.664  -3.906  1.00 20.00     0.077 C 
BRANCH   6   7
HETATM    7  C7  UNL     1     -33.118  17.400  -2.865  1.00 20.00    -0.013 C 
HETATM    8  C3  UNL     1     -32.932  18.882  -3.193  1.00 20.00     0.010 C 
HETATM    9  C4  UNL     1     -33.640  17.227  -1.437  1.00 20.00     0.010 C 
ENDBRANCH   6   7
ENDBRANCH   1   6
TORSDOF 4
ENDMDL
MODEL 4
REMARK VINA RESULT:      -3.2      2.057      4.945
REMARK  4 active torsions:
REMARK  status: ('A' for Active; 'I' for Inactive)
REMARK    1  A    between atoms: C2_2  and  C5_5 
REMARK    2  A    between atoms: C5_5  and  S9_9 
REMARK    3  A    between atoms: C6_6  and  C7_7 
REMARK    4  A    between atoms: C6_6  and  S9_9 
ROOT
HETATM    1  S9  UNL     1     -33.284  18.491  -3.396  1.00 20.00    -0.166 SA
ENDROOT
BRANCH   1   2
HETATM    2  C5  UNL     1     -33.995  17.085  -4.282  1.00 20.00     0.108 C 
BRANCH   2   3
HETATM    3  C2  UNL     1     -33.647  15.784  -3.584  1.00 20.00     0.154 A 
HETATM    4  C1  UNL     1     -33.973  14.455  -4.206  1.00 20.00     0.201 A 
HETATM    5  O8  UNL     1     -32.645  15.004  -4.244  1.00 20.00    -0.380 OA
ENDBRANCH   2   3
ENDBRANCH   1   2
BRANCH   1   6
HETATM    6  C6  UNL     1     -32.862  17.635  -1.846  1.00 20.00     0.077 C 
BRANCH   6   7
HETATM    7  C7  UNL     1     -32.685  18.546  -0.619  1.00 20.00    -0.013 C 
HETATM    8  C3  UNL     1     -33.680  18.233   0.499  1.00 20.00     0.010 C 
HETATM    9  C4  UNL     1     -31.252  18.539  -0.081  1.00 20.00     0.010 C 
ENDBRANCH   6   7
ENDBRANCH   1   6
TORSDOF 4
ENDMDL
MODEL 5
REMARK VINA RESULT:      -3.2     10.768     11.839
REMARK  4 active torsions:
REMARK  status: ('A' for Active; 'I' for Inactive)
REMARK    1  A    between atoms: C2_2  and  C5_5 
REMARK    2  A    between atoms: C5_5  and  S9_9 
REMARK    3  A    between atoms: C6_6  and  C7_7 
REMARK    4  A    between atoms: C6_6  and  S9_9 
ROOT
HETATM    1  S9  UNL     1     -32.050   8.082   3.900  1.00 20.00    -0.166 SA
ENDROOT
BRANCH   1   2
HETATM    2  C5  UNL     1     -32.398   7.504   2.223  1.00 20.00     0.108 C 
BRANCH   2   3
HETATM    3  C2  UNL     1     -32.004   8.556   1.204  1.00 20.00     0.154 A 
HETATM    4  C1  UNL     1     -32.894   8.884   0.039  1.00 20.00     0.201 A 
HETATM    5  O8  UNL     1     -32.831   9.723   1.203  1.00 20.00    -0.380 OA
ENDBRANCH   2   3
ENDBRANCH   1   2
BRANCH   1   6
HETATM    6  C6  UNL     1     -33.726   7.906   4.589  1.00 20.00     0.077 C 
BRANCH   6   7
HETATM    7  C7  UNL     1     -34.047   6.529   5.195  1.00 20.00    -0.013 C 
HETATM    8  C3  UNL     1     -34.328   6.595   6.696  1.00 20.00     0.010 C 
HETATM    9  C4  UNL     1     -35.185   5.813   4.465  1.00 20.00     0.010 C 
ENDBRANCH   6   7
ENDBRANCH   1   6
TORSDOF 4
ENDMDL
MODEL 6
REMARK VINA RESULT:      -3.2     12.124     12.870
REMARK  4 active torsions:
REMARK  status: ('A' for Active; 'I' for Inactive)
REMARK    1  A    between atoms: C2_2  and  C5_5 
REMARK    2  A    between atoms: C5_5  and  S9_9 
REMARK    3  A    between atoms: C6_6  and  C7_7 
REMARK    4  A    between atoms: C6_6  and  S9_9 
ROOT
HETATM    1  S9  UNL     1     -33.272   5.771   2.657  1.00 20.00    -0.166 SA
ENDROOT
BRANCH   1   2
HETATM    2  C5  UNL     1     -32.144   7.010   3.333  1.00 20.00     0.108 C 
BRANCH   2   3
HETATM    3  C2  UNL     1     -32.914   8.220   3.828  1.00 20.00     0.154 A 
HETATM    4  C1  UNL     1     -33.123   8.463   5.296  1.00 20.00     0.201 A 
HETATM    5  O8  UNL     1     -32.126   9.175   4.545  1.00 20.00    -0.380 OA
ENDBRANCH   2   3
ENDBRANCH   1   2
BRANCH   1   6
HETATM    6  C6  UNL     1     -33.468   4.753   4.152  1.00 20.00     0.077 C 
BRANCH   6   7
HETATM    7  C7  UNL     1     -34.757   5.001   4.953  1.00 20.00    -0.013 C 
HETATM    8  C3  UNL     1     -34.485   5.408   6.402  1.00 20.00     0.010 C 
HETATM    9  C4  UNL     1     -35.687   6.011   4.277  1.00 20.00     0.010 C 
ENDBRANCH   6   7
ENDBRANCH   1   6
TORSDOF 4
ENDMDL
MODEL 7
REMARK VINA RESULT:      -3.2      2.425      5.032
REMARK  4 active torsions:
REMARK  status: ('A' for Active; 'I' for Inactive)
REMARK    1  A    between atoms: C2_2  and  C5_5 
REMARK    2  A    between atoms: C5_5  and  S9_9 
REMARK    3  A    between atoms: C6_6  and  C7_7 
REMARK    4  A    between atoms: C6_6  and  S9_9 
ROOT
HETATM    1  S9  UNL     1     -33.462  18.065  -3.599  1.00 20.00    -0.166 SA
ENDROOT
BRANCH   1   2
HETATM    2  C5  UNL     1     -33.311  16.401  -2.910  1.00 20.00     0.108 C 
BRANCH   2   3
HETATM    3  C2  UNL     1     -33.149  15.379  -4.019  1.00 20.00     0.154 A 
HETATM    4  C1  UNL     1     -34.272  14.454  -4.397  1.00 20.00     0.201 A 
HETATM    5  O8  UNL     1     -33.957  15.620  -5.175  1.00 20.00    -0.380 OA
ENDBRANCH   2   3
ENDBRANCH   1   2
BRANCH   1   6
HETATM    6  C6  UNL     1     -32.905  19.002  -2.141  1.00 20.00     0.077 C 
BRANCH   6   7
HETATM    7  C7  UNL     1     -32.591  18.155  -0.895  1.00 20.00    -0.013 C 
HETATM    8  C3  UNL     1     -31.226  18.479  -0.288  1.00 20.00     0.010 C 
HETATM    9  C4  UNL     1     -33.688  18.241   0.169  1.00 20.00     0.010 C 
ENDBRANCH   6   7
ENDBRANCH   1   6
TORSDOF 4
ENDMDL
MODEL 8
REMARK VINA RESULT:      -3.2     12.111     12.903
REMARK  4 active torsions:
REMARK  status: ('A' for Active; 'I' for Inactive)
REMARK    1  A    between atoms: C2_2  and  C5_5 
REMARK    2  A    between atoms: C5_5  and  S9_9 
REMARK    3  A    between atoms: C6_6  and  C7_7 
REMARK    4  A    between atoms: C6_6  and  S9_9 
ROOT
HETATM    1  S9  UNL     1     -33.362   8.524   5.200  1.00 20.00    -0.166 SA
ENDROOT
BRANCH   1   2
HETATM    2  C5  UNL     1     -33.398   7.015   6.194  1.00 20.00     0.108 C 
BRANCH   2   3
HETATM    3  C2  UNL     1     -34.669   6.231   5.927  1.00 20.00     0.154 A 
HETATM    4  C1  UNL     1     -34.664   5.020   5.038  1.00 20.00     0.201 A 
HETATM    5  O8  UNL     1     -34.676   4.907   6.470  1.00 20.00    -0.380 OA
ENDBRANCH   2   3
ENDBRANCH   1   2
BRANCH   1   6
HETATM    6  C6  UNL     1     -32.101   8.010   3.992  1.00 20.00     0.077 C 
BRANCH   6   7
HETATM    7  C7  UNL     1     -32.648   7.450   2.668  1.00 20.00    -0.013 C 
HETATM    8  C3  UNL     1     -32.013   8.107   1.441  1.00 20.00     0.010 C 
HETATM    9  C4  UNL     1     -32.536   5.927   2.580  1.00 20.00     0.010 C 
ENDBRANCH   6   7
ENDBRANCH   1   6
TORSDOF 4
ENDMDL
MODEL 9
REMARK VINA RESULT:      -3.2      3.944      6.035
REMARK  4 active torsions:
REMARK  status: ('A' for Active; 'I' for Inactive)
REMARK    1  A    between atoms: C2_2  and  C5_5 
REMARK    2  A    between atoms: C5_5  and  S9_9 
REMARK    3  A    between atoms: C6_6  and  C7_7 
REMARK    4  A    between atoms: C6_6  and  S9_9 
ROOT
HETATM    1  S9  UNL     1     -34.522  17.943  -5.797  1.00 20.00    -0.166 SA
ENDROOT
BRANCH   1   2
HETATM    2  C5  UNL     1     -35.746  16.819  -6.507  1.00 20.00     0.108 C 
BRANCH   2   3
HETATM    3  C2  UNL     1     -35.224  15.395  -6.509  1.00 20.00     0.154 A 
HETATM    4  C1  UNL     1     -35.881  14.323  -5.687  1.00 20.00     0.201 A 
HETATM    5  O8  UNL     1     -36.108  14.438  -7.101  1.00 20.00    -0.380 OA
ENDBRANCH   2   3
ENDBRANCH   1   2
BRANCH   1   6
HETATM    6  C6  UNL     1     -34.733  17.488  -4.048  1.00 20.00     0.077 C 
BRANCH   6   7
HETATM    7  C7  UNL     1     -33.455  17.021  -3.331  1.00 20.00    -0.013 C 
HETATM    8  C3  UNL     1     -33.550  17.147  -1.810  1.00 20.00     0.010 C 
HETATM    9  C4  UNL     1     -33.039  15.603  -3.728  1.00 20.00     0.010 C 
ENDBRANCH   6   7
ENDBRANCH   1   6
TORSDOF 4
ENDMDL
