MODEL 1
REMARK VINA RESULT:      -3.4      0.000      0.000
REMARK  1 active torsions:
REMARK  status: ('A' for Active; 'I' for Inactive)
REMARK    1  A    between atoms: C4_4  and  S6_6 
ROOT
HETATM    1  C1  UNL     1     -33.721   6.960   6.293  1.00 20.00     0.026 C 
HETATM    2  C2  UNL     1     -34.749   5.840   6.343  1.00 20.00     0.075 C 
HETATM    3  C3  UNL     1     -33.558   6.243   3.966  1.00 20.00     0.088 C 
HETATM    4  C4  UNL     1     -33.723   7.469   4.855  1.00 20.00     0.054 C 
HETATM    5  S5  UNL     1     -34.562   4.957   4.769  1.00 20.00    -0.168 SA
ENDROOT
BRANCH   4   6
HETATM    6  S6  UNL     1     -32.387   8.666   4.572  1.00 20.00    -0.177 SA
HETATM    7  H14 UNL     1     -31.500   8.057   5.369  1.00 20.00     0.102 HD
ENDBRANCH   4   6
TORSDOF 1
ENDMDL
MODEL 2
REMARK VINA RESULT:      -3.0      1.081      3.435
REMARK  1 active torsions:
REMARK  status: ('A' for Active; 'I' for Inactive)
REMARK    1  A    between atoms: C4_4  and  S6_6 
ROOT
HETATM    1  C1  UNL     1     -32.907   6.279   3.495  1.00 20.00     0.026 C 
HETATM    2  C2  UNL     1     -32.304   7.614   3.088  1.00 20.00     0.075 C 
HETATM    3  C3  UNL     1     -33.445   7.530   5.521  1.00 20.00     0.088 C 
HETATM    4  C4  UNL     1     -34.039   6.608   4.464  1.00 20.00     0.054 C 
HETATM    5  S5  UNL     1     -32.322   8.621   4.597  1.00 20.00    -0.168 SA
ENDROOT
BRANCH   4   6
HETATM    6  S6  UNL     1     -34.724   5.104   5.219  1.00 20.00    -0.177 SA
HETATM    7  H14 UNL     1     -35.151   4.567   4.069  1.00 20.00     0.102 HD
ENDBRANCH   4   6
TORSDOF 1
ENDMDL
MODEL 3
REMARK VINA RESULT:      -2.7      1.138      1.830
REMARK  1 active torsions:
REMARK  status: ('A' for Active; 'I' for Inactive)
REMARK    1  A    between atoms: C4_4  and  S6_6 
ROOT
HETATM    1  C1  UNL     1     -33.965   6.024   3.812  1.00 20.00     0.026 C 
HETATM    2  C2  UNL     1     -34.393   4.856   4.687  1.00 20.00     0.075 C 
HETATM    3  C3  UNL     1     -33.852   7.156   5.972  1.00 20.00     0.088 C 
HETATM    4  C4  UNL     1     -33.074   6.901   4.688  1.00 20.00     0.054 C 
HETATM    5  S5  UNL     1     -34.676   5.576   6.329  1.00 20.00    -0.168 SA
ENDROOT
BRANCH   4   6
HETATM    6  S6  UNL     1     -32.655   8.461   3.856  1.00 20.00    -0.177 SA
HETATM    7  H14 UNL     1     -33.899   8.720   3.436  1.00 20.00     0.102 HD
ENDBRANCH   4   6
TORSDOF 1
ENDMDL
MODEL 4
REMARK VINA RESULT:      -2.6      1.277      2.928
REMARK  1 active torsions:
REMARK  status: ('A' for Active; 'I' for Inactive)
REMARK    1  A    between atoms: C4_4  and  S6_6 
ROOT
HETATM    1  C1  UNL     1     -33.628   8.030   5.551  1.00 20.00     0.026 C 
HETATM    2  C2  UNL     1     -32.492   8.711   4.803  1.00 20.00     0.075 C 
HETATM    3  C3  UNL     1     -33.289   6.336   3.827  1.00 20.00     0.088 C 
HETATM    4  C4  UNL     1     -33.438   6.532   5.330  1.00 20.00     0.054 C 
HETATM    5  S5  UNL     1     -32.288   7.750   3.277  1.00 20.00    -0.168 SA
ENDROOT
BRANCH   4   6
HETATM    6  S6  UNL     1     -34.844   5.582   5.978  1.00 20.00    -0.177 SA
HETATM    7  H14 UNL     1     -35.224   6.508   6.868  1.00 20.00     0.102 HD
ENDBRANCH   4   6
TORSDOF 1
ENDMDL
MODEL 5
REMARK VINA RESULT:      -2.6     15.221     15.807
REMARK  1 active torsions:
REMARK  status: ('A' for Active; 'I' for Inactive)
REMARK    1  A    between atoms: C4_4  and  S6_6 
ROOT
HETATM    1  C1  UNL     1     -23.854  16.901  10.525  1.00 20.00     0.026 C 
HETATM    2  C2  UNL     1     -24.405  16.340  11.827  1.00 20.00     0.075 C 
HETATM    3  C3  UNL     1     -25.224  18.816  11.169  1.00 20.00     0.088 C 
HETATM    4  C4  UNL     1     -23.832  18.417  10.696  1.00 20.00     0.054 C 
HETATM    5  S5  UNL     1     -25.708  17.500  12.326  1.00 20.00    -0.168 SA
ENDROOT
BRANCH   4   6
HETATM    6  S6  UNL     1     -23.404  19.255   9.142  1.00 20.00    -0.177 SA
HETATM    7  H14 UNL     1     -23.961  18.336   8.344  1.00 20.00     0.102 HD
ENDBRANCH   4   6
TORSDOF 1
ENDMDL
MODEL 6
REMARK VINA RESULT:      -2.5     16.078     16.647
REMARK  1 active torsions:
REMARK  status: ('A' for Active; 'I' for Inactive)
REMARK    1  A    between atoms: C4_4  and  S6_6 
ROOT
HETATM    1  C1  UNL     1     -24.219  18.209   9.904  1.00 20.00     0.026 C 
HETATM    2  C2  UNL     1     -24.644  18.031  11.354  1.00 20.00     0.075 C 
HETATM    3  C3  UNL     1     -22.016  18.421  10.934  1.00 20.00     0.088 C 
HETATM    4  C4  UNL     1     -22.779  17.711   9.824  1.00 20.00     0.054 C 
HETATM    5  S5  UNL     1     -23.178  18.465  12.332  1.00 20.00    -0.168 SA
ENDROOT
BRANCH   4   6
HETATM    6  S6  UNL     1     -22.046  18.061   8.199  1.00 20.00    -0.177 SA
HETATM    7  H14 UNL     1     -22.441  16.915   7.631  1.00 20.00     0.102 HD
ENDBRANCH   4   6
TORSDOF 1
ENDMDL
MODEL 7
REMARK VINA RESULT:      -2.5     15.675     16.613
REMARK  1 active torsions:
REMARK  status: ('A' for Active; 'I' for Inactive)
REMARK    1  A    between atoms: C4_4  and  S6_6 
ROOT
HETATM    1  C1  UNL     1     -22.800  18.128  11.604  1.00 20.00     0.026 C 
HETATM    2  C2  UNL     1     -21.884  18.505  10.450  1.00 20.00     0.075 C 
HETATM    3  C3  UNL     1     -24.523  18.602   9.941  1.00 20.00     0.088 C 
HETATM    4  C4  UNL     1     -24.070  17.571  10.967  1.00 20.00     0.054 C 
HETATM    5  S5  UNL     1     -22.982  19.200   9.184  1.00 20.00    -0.168 SA
ENDROOT
BRANCH   4   6
HETATM    6  S6  UNL     1     -25.361  17.276  12.211  1.00 20.00    -0.177 SA
HETATM    7  H14 UNL     1     -25.741  18.556  12.306  1.00 20.00     0.102 HD
ENDBRANCH   4   6
TORSDOF 1
ENDMDL
MODEL 8
REMARK VINA RESULT:      -2.4     16.442     16.960
REMARK  1 active torsions:
REMARK  status: ('A' for Active; 'I' for Inactive)
REMARK    1  A    between atoms: C4_4  and  S6_6 
ROOT
HETATM    1  C1  UNL     1     -23.963  18.715   9.622  1.00 20.00     0.026 C 
HETATM    2  C2  UNL     1     -23.568  19.076   8.198  1.00 20.00     0.075 C 
HETATM    3  C3  UNL     1     -21.646  17.954   9.707  1.00 20.00     0.088 C 
HETATM    4  C4  UNL     1     -22.682  18.792  10.446  1.00 20.00     0.054 C 
HETATM    5  S5  UNL     1     -21.945  18.303   7.948  1.00 20.00    -0.168 SA
ENDROOT
BRANCH   4   6
HETATM    6  S6  UNL     1     -22.940  18.172  12.134  1.00 20.00    -0.177 SA
HETATM    7  H14 UNL     1     -23.066  16.887  11.781  1.00 20.00     0.102 HD
ENDBRANCH   4   6
TORSDOF 1
ENDMDL
MODEL 9
REMARK VINA RESULT:      -2.4     15.767     16.633
REMARK  1 active torsions:
REMARK  status: ('A' for Active; 'I' for Inactive)
REMARK    1  A    between atoms: C4_4  and  S6_6 
ROOT
HETATM    1  C1  UNL     1     -24.667  18.623   9.971  1.00 20.00     0.026 C 
HETATM    2  C2  UNL     1     -23.423  19.237   9.347  1.00 20.00     0.075 C 
HETATM    3  C3  UNL     1     -23.036  17.822  11.600  1.00 20.00     0.088 C 
HETATM    4  C4  UNL     1     -24.381  18.523  11.466  1.00 20.00     0.054 C 
HETATM    5  S5  UNL     1     -22.031  18.498  10.245  1.00 20.00    -0.168 SA
ENDROOT
BRANCH   4   6
HETATM    6  S6  UNL     1     -25.687  17.604  12.332  1.00 20.00    -0.177 SA
HETATM    7  H14 UNL     1     -25.465  18.163  13.528  1.00 20.00     0.102 HD
ENDBRANCH   4   6
TORSDOF 1
ENDMDL
