MODEL 1
REMARK VINA RESULT:      -4.7      0.000      0.000
REMARK  1 active torsions:
REMARK  status: ('A' for Active; 'I' for Inactive)
REMARK    1  A    between atoms: C1_1  and  C6_6 
ROOT
HETATM    1  C2  UNL     1     -34.878   5.167   4.839  1.00 20.00     0.027 C 
HETATM    2  C3  UNL     1     -33.837   5.880   3.982  1.00 20.00     0.015 C 
HETATM    3  C4  UNL     1     -34.570   5.347   6.319  1.00 20.00     0.167 C 
HETATM    4  C5  UNL     1     -33.426   7.388   5.945  1.00 20.00     0.179 C 
HETATM    5  C6  UNL     1     -33.671   7.322   4.445  1.00 20.00     0.071 C 
HETATM    6  O8  UNL     1     -34.479   6.732   6.653  1.00 20.00    -0.390 OA
ENDROOT
BRANCH   5   7
HETATM    7  C1  UNL     1     -32.466   7.914   3.741  1.00 20.00     0.237 C 
HETATM    8  O7  UNL     1     -32.081   7.547   2.637  1.00 20.00    -0.306 OA
ENDBRANCH   5   7
TORSDOF 1
ENDMDL
MODEL 2
REMARK VINA RESULT:      -4.6      1.506      3.467
REMARK  1 active torsions:
REMARK  status: ('A' for Active; 'I' for Inactive)
REMARK    1  A    between atoms: C1_1  and  C6_6 
ROOT
HETATM    1  C2  UNL     1     -33.275   8.519   5.449  1.00 20.00     0.027 C 
HETATM    2  C3  UNL     1     -33.890   7.175   5.823  1.00 20.00     0.015 C 
HETATM    3  C4  UNL     1     -32.154   8.333   4.435  1.00 20.00     0.167 C 
HETATM    4  C5  UNL     1     -33.094   6.324   3.602  1.00 20.00     0.179 C 
HETATM    5  C6  UNL     1     -34.267   6.399   4.568  1.00 20.00     0.071 C 
HETATM    6  O8  UNL     1     -32.624   7.635   3.282  1.00 20.00    -0.390 OA
ENDROOT
BRANCH   5   7
HETATM    7  C1  UNL     1     -34.638   4.986   4.972  1.00 20.00     0.237 C 
HETATM    8  O7  UNL     1     -34.109   3.987   4.498  1.00 20.00    -0.306 OA
ENDBRANCH   5   7
TORSDOF 1
ENDMDL
MODEL 3
REMARK VINA RESULT:      -4.3      1.484      2.019
REMARK  1 active torsions:
REMARK  status: ('A' for Active; 'I' for Inactive)
REMARK    1  A    between atoms: C1_1  and  C6_6 
ROOT
HETATM    1  C2  UNL     1     -34.625   5.821   6.244  1.00 20.00     0.027 C 
HETATM    2  C3  UNL     1     -34.042   7.225   6.130  1.00 20.00     0.015 C 
HETATM    3  C4  UNL     1     -35.012   5.286   4.872  1.00 20.00     0.167 C 
HETATM    4  C5  UNL     1     -33.413   6.644   3.772  1.00 20.00     0.179 C 
HETATM    5  C6  UNL     1     -32.936   7.253   5.082  1.00 20.00     0.071 C 
HETATM    6  O8  UNL     1     -33.896   5.317   3.983  1.00 20.00    -0.390 OA
ENDROOT
BRANCH   5   7
HETATM    7  C1  UNL     1     -32.560   8.698   4.823  1.00 20.00     0.237 C 
HETATM    8  O7  UNL     1     -32.424   9.170   3.700  1.00 20.00    -0.306 OA
ENDBRANCH   5   7
TORSDOF 1
ENDMDL
MODEL 4
REMARK VINA RESULT:      -4.1      1.167      1.849
REMARK  1 active torsions:
REMARK  status: ('A' for Active; 'I' for Inactive)
REMARK    1  A    between atoms: C1_1  and  C6_6 
ROOT
HETATM    1  C2  UNL     1     -34.196   6.736   6.386  1.00 20.00     0.027 C 
HETATM    2  C3  UNL     1     -33.620   7.748   5.401  1.00 20.00     0.015 C 
HETATM    3  C4  UNL     1     -34.979   5.656   5.650  1.00 20.00     0.167 C 
HETATM    4  C5  UNL     1     -33.714   5.938   3.667  1.00 20.00     0.179 C 
HETATM    5  C6  UNL     1     -32.861   7.032   4.291  1.00 20.00     0.071 C 
HETATM    6  O8  UNL     1     -34.163   5.022   4.666  1.00 20.00    -0.390 OA
ENDROOT
BRANCH   5   7
HETATM    7  C1  UNL     1     -32.523   8.043   3.214  1.00 20.00     0.237 C 
HETATM    8  O7  UNL     1     -32.168   7.731   2.083  1.00 20.00    -0.306 OA
ENDBRANCH   5   7
TORSDOF 1
ENDMDL
MODEL 5
REMARK VINA RESULT:      -4.0      1.429      1.740
REMARK  1 active torsions:
REMARK  status: ('A' for Active; 'I' for Inactive)
REMARK    1  A    between atoms: C1_1  and  C6_6 
ROOT
HETATM    1  C2  UNL     1     -34.955   5.624   5.949  1.00 20.00     0.027 C 
HETATM    2  C3  UNL     1     -34.176   5.152   4.726  1.00 20.00     0.015 C 
HETATM    3  C4  UNL     1     -34.223   6.764   6.646  1.00 20.00     0.167 C 
HETATM    4  C5  UNL     1     -33.146   7.438   4.646  1.00 20.00     0.179 C 
HETATM    5  C6  UNL     1     -33.818   6.337   3.839  1.00 20.00     0.071 C 
HETATM    6  O8  UNL     1     -33.976   7.837   5.737  1.00 20.00    -0.390 OA
ENDROOT
BRANCH   5   7
HETATM    7  C1  UNL     1     -32.843   5.864   2.780  1.00 20.00     0.237 C 
HETATM    8  O7  UNL     1     -32.798   4.709   2.371  1.00 20.00    -0.306 OA
ENDBRANCH   5   7
TORSDOF 1
ENDMDL
MODEL 6
REMARK VINA RESULT:      -4.0      1.572      3.296
REMARK  1 active torsions:
REMARK  status: ('A' for Active; 'I' for Inactive)
REMARK    1  A    between atoms: C1_1  and  C6_6 
ROOT
HETATM    1  C2  UNL     1     -32.182   7.311   3.113  1.00 20.00     0.027 C 
HETATM    2  C3  UNL     1     -33.297   6.374   3.565  1.00 20.00     0.015 C 
HETATM    3  C4  UNL     1     -32.460   8.737   3.570  1.00 20.00     0.167 C 
HETATM    4  C5  UNL     1     -33.763   8.008   5.410  1.00 20.00     0.179 C 
HETATM    5  C6  UNL     1     -33.556   6.543   5.056  1.00 20.00     0.071 C 
HETATM    6  O8  UNL     1     -32.645   8.788   4.985  1.00 20.00    -0.390 OA
ENDROOT
BRANCH   5   7
HETATM    7  C1  UNL     1     -34.821   5.787   5.410  1.00 20.00     0.237 C 
HETATM    8  O7  UNL     1     -35.076   4.664   4.990  1.00 20.00    -0.306 OA
ENDBRANCH   5   7
TORSDOF 1
ENDMDL
MODEL 7
REMARK VINA RESULT:      -3.9      1.628      2.009
REMARK  1 active torsions:
REMARK  status: ('A' for Active; 'I' for Inactive)
REMARK    1  A    between atoms: C1_1  and  C6_6 
ROOT
HETATM    1  C2  UNL     1     -33.416   5.245   3.103  1.00 20.00     0.027 C 
HETATM    2  C3  UNL     1     -32.935   6.576   3.673  1.00 20.00     0.015 C 
HETATM    3  C4  UNL     1     -33.900   4.327   4.217  1.00 20.00     0.167 C 
HETATM    4  C5  UNL     1     -34.447   6.149   5.629  1.00 20.00     0.179 C 
HETATM    5  C6  UNL     1     -33.994   7.168   4.594  1.00 20.00     0.071 C 
HETATM    6  O8  UNL     1     -34.918   4.962   4.990  1.00 20.00    -0.390 OA
ENDROOT
BRANCH   5   7
HETATM    7  C1  UNL     1     -33.386   8.348   5.325  1.00 20.00     0.237 C 
HETATM    8  O7  UNL     1     -32.336   8.884   4.987  1.00 20.00    -0.306 OA
ENDBRANCH   5   7
TORSDOF 1
ENDMDL
MODEL 8
REMARK VINA RESULT:      -3.5     12.589     13.192
REMARK  1 active torsions:
REMARK  status: ('A' for Active; 'I' for Inactive)
REMARK    1  A    between atoms: C1_1  and  C6_6 
ROOT
HETATM    1  C2  UNL     1     -33.130  18.109  -0.428  1.00 20.00     0.027 C 
HETATM    2  C3  UNL     1     -33.186  18.611   1.011  1.00 20.00     0.015 C 
HETATM    3  C4  UNL     1     -32.012  18.802  -1.196  1.00 20.00     0.167 C 
HETATM    4  C5  UNL     1     -30.760  19.202   0.775  1.00 20.00     0.179 C 
HETATM    5  C6  UNL     1     -31.807  18.530   1.652  1.00 20.00     0.071 C 
HETATM    6  O8  UNL     1     -30.760  18.629  -0.533  1.00 20.00    -0.390 OA
ENDROOT
BRANCH   5   7
HETATM    7  C1  UNL     1     -31.853  19.261   2.979  1.00 20.00     0.237 C 
HETATM    8  O7  UNL     1     -31.226  18.903   3.969  1.00 20.00    -0.306 OA
ENDBRANCH   5   7
TORSDOF 1
ENDMDL
MODEL 9
REMARK VINA RESULT:      -3.5     15.978     16.854
REMARK  1 active torsions:
REMARK  status: ('A' for Active; 'I' for Inactive)
REMARK    1  A    between atoms: C1_1  and  C6_6 
ROOT
HETATM    1  C2  UNL     1     -24.352  18.400  11.317  1.00 20.00     0.027 C 
HETATM    2  C3  UNL     1     -24.009  18.173   9.849  1.00 20.00     0.015 C 
HETATM    3  C4  UNL     1     -23.190  17.986  12.211  1.00 20.00     0.167 C 
HETATM    4  C5  UNL     1     -21.596  18.377  10.503  1.00 20.00     0.179 C 
HETATM    5  C6  UNL     1     -22.667  18.814   9.516  1.00 20.00     0.071 C 
HETATM    6  O8  UNL     1     -21.996  18.675  11.841  1.00 20.00    -0.390 OA
ENDROOT
BRANCH   5   7
HETATM    7  C1  UNL     1     -22.251  18.358   8.132  1.00 20.00     0.237 C 
HETATM    8  O7  UNL     1     -22.070  17.182   7.834  1.00 20.00    -0.306 OA
ENDBRANCH   5   7
TORSDOF 1
ENDMDL
