MODEL 1
REMARK VINA RESULT:      -4.0      0.000      0.000
REMARK  1 active torsions:
REMARK  status: ('A' for Active; 'I' for Inactive)
REMARK    1  A    between atoms: C1_1  and  C5_5 
ROOT
HETATM    1  C2  UNL     1     -32.163   8.381   4.507  1.00 20.00     0.193 C 
HETATM    2  C3  UNL     1     -32.555   7.553   3.295  1.00 20.00     0.195 C 
HETATM    3  C4  UNL     1     -33.822   7.307   5.782  1.00 20.00     0.206 C 
HETATM    4  C5  UNL     1     -34.210   6.477   4.569  1.00 20.00     0.206 C 
HETATM    5  O7  UNL     1     -33.300   8.568   5.354  1.00 20.00    -0.386 OA
HETATM    6  O8  UNL     1     -33.077   6.292   3.722  1.00 20.00    -0.375 OA
ENDROOT
BRANCH   4   7
HETATM    7  C1  UNL     1     -34.625   5.101   4.967  1.00 20.00     0.265 C 
HETATM    8  O6  UNL     1     -34.158   4.082   4.467  1.00 20.00    -0.304 OA
ENDBRANCH   4   7
TORSDOF 1
ENDMDL
MODEL 2
REMARK VINA RESULT:      -4.0      1.262      3.363
REMARK  1 active torsions:
REMARK  status: ('A' for Active; 'I' for Inactive)
REMARK    1  A    between atoms: C1_1  and  C5_5 
ROOT
HETATM    1  C2  UNL     1     -34.627   5.392   6.191  1.00 20.00     0.193 C 
HETATM    2  C3  UNL     1     -34.289   6.818   6.591  1.00 20.00     0.195 C 
HETATM    3  C4  UNL     1     -33.917   5.838   3.993  1.00 20.00     0.206 C 
HETATM    4  C5  UNL     1     -33.575   7.263   4.398  1.00 20.00     0.206 C 
HETATM    5  O7  UNL     1     -34.987   5.351   4.808  1.00 20.00    -0.386 OA
HETATM    6  O8  UNL     1     -33.219   7.306   5.779  1.00 20.00    -0.375 OA
ENDROOT
BRANCH   4   7
HETATM    7  C1  UNL     1     -32.370   7.757   3.671  1.00 20.00     0.265 C 
HETATM    8  O6  UNL     1     -32.086   7.422   2.526  1.00 20.00    -0.304 OA
ENDBRANCH   4   7
TORSDOF 1
ENDMDL
MODEL 3
REMARK VINA RESULT:      -3.6      1.467      3.235
REMARK  1 active torsions:
REMARK  status: ('A' for Active; 'I' for Inactive)
REMARK    1  A    between atoms: C1_1  and  C5_5 
ROOT
HETATM    1  C2  UNL     1     -35.164   5.339   5.173  1.00 20.00     0.193 C 
HETATM    2  C3  UNL     1     -34.065   5.355   4.124  1.00 20.00     0.195 C 
HETATM    3  C4  UNL     1     -34.151   7.161   6.264  1.00 20.00     0.206 C 
HETATM    4  C5  UNL     1     -33.055   7.176   5.209  1.00 20.00     0.206 C 
HETATM    5  O7  UNL     1     -34.653   5.831   6.415  1.00 20.00    -0.386 OA
HETATM    6  O8  UNL     1     -33.564   6.684   3.971  1.00 20.00    -0.375 OA
ENDROOT
BRANCH   4   7
HETATM    7  C1  UNL     1     -32.605   8.568   4.918  1.00 20.00     0.265 C 
HETATM    8  O6  UNL     1     -32.466   9.011   3.783  1.00 20.00    -0.304 OA
ENDBRANCH   4   7
TORSDOF 1
ENDMDL
MODEL 4
REMARK VINA RESULT:      -3.4      1.667      2.300
REMARK  1 active torsions:
REMARK  status: ('A' for Active; 'I' for Inactive)
REMARK    1  A    between atoms: C1_1  and  C5_5 
ROOT
HETATM    1  C2  UNL     1     -33.968   7.134   6.551  1.00 20.00     0.193 C 
HETATM    2  C3  UNL     1     -33.780   7.785   5.190  1.00 20.00     0.195 C 
HETATM    3  C4  UNL     1     -34.456   5.083   5.505  1.00 20.00     0.206 C 
HETATM    4  C5  UNL     1     -34.263   5.737   4.145  1.00 20.00     0.206 C 
HETATM    5  O7  UNL     1     -34.908   6.061   6.447  1.00 20.00    -0.386 OA
HETATM    6  O8  UNL     1     -33.328   6.809   4.248  1.00 20.00    -0.375 OA
ENDROOT
BRANCH   4   7
HETATM    7  C1  UNL     1     -33.656   4.785   3.170  1.00 20.00     0.265 C 
HETATM    8  O6  UNL     1     -32.682   5.057   2.477  1.00 20.00    -0.304 OA
ENDBRANCH   4   7
TORSDOF 1
ENDMDL
MODEL 5
REMARK VINA RESULT:      -3.4      1.063      1.876
REMARK  1 active torsions:
REMARK  status: ('A' for Active; 'I' for Inactive)
REMARK    1  A    between atoms: C1_1  and  C5_5 
ROOT
HETATM    1  C2  UNL     1     -32.399   8.544   3.430  1.00 20.00     0.193 C 
HETATM    2  C3  UNL     1     -32.704   8.715   4.908  1.00 20.00     0.195 C 
HETATM    3  C4  UNL     1     -33.262   6.356   3.503  1.00 20.00     0.206 C 
HETATM    4  C5  UNL     1     -33.570   6.533   4.982  1.00 20.00     0.206 C 
HETATM    5  O7  UNL     1     -32.138   7.166   3.147  1.00 20.00    -0.386 OA
HETATM    6  O8  UNL     1     -33.828   7.907   5.265  1.00 20.00    -0.375 OA
ENDROOT
BRANCH   4   7
HETATM    7  C1  UNL     1     -34.822   5.817   5.362  1.00 20.00     0.265 C 
HETATM    8  O6  UNL     1     -35.075   4.668   5.017  1.00 20.00    -0.304 OA
ENDBRANCH   4   7
TORSDOF 1
ENDMDL
MODEL 6
REMARK VINA RESULT:      -3.3      8.305      9.199
REMARK  1 active torsions:
REMARK  status: ('A' for Active; 'I' for Inactive)
REMARK    1  A    between atoms: C1_1  and  C5_5 
ROOT
HETATM    1  C2  UNL     1     -40.840  13.920   6.858  1.00 20.00     0.193 C 
HETATM    2  C3  UNL     1     -41.568  13.588   5.567  1.00 20.00     0.195 C 
HETATM    3  C4  UNL     1     -39.202  12.309   6.352  1.00 20.00     0.206 C 
HETATM    4  C5  UNL     1     -39.931  11.982   5.059  1.00 20.00     0.206 C 
HETATM    5  O7  UNL     1     -40.141  12.765   7.330  1.00 20.00    -0.386 OA
HETATM    6  O8  UNL     1     -40.630  13.133   4.588  1.00 20.00    -0.375 OA
ENDROOT
BRANCH   4   7
HETATM    7  C1  UNL     1     -38.971  11.640   3.969  1.00 20.00     0.265 C 
HETATM    8  O6  UNL     1     -39.140  11.953   2.796  1.00 20.00    -0.304 OA
ENDBRANCH   4   7
TORSDOF 1
ENDMDL
MODEL 7
REMARK VINA RESULT:      -3.2      9.625     10.176
REMARK  1 active torsions:
REMARK  status: ('A' for Active; 'I' for Inactive)
REMARK    1  A    between atoms: C1_1  and  C5_5 
ROOT
HETATM    1  C2  UNL     1     -41.040   8.178  -0.205  1.00 20.00     0.193 C 
HETATM    2  C3  UNL     1     -42.546   8.250  -0.393  1.00 20.00     0.195 C 
HETATM    3  C4  UNL     1     -41.174   5.836  -0.016  1.00 20.00     0.206 C 
HETATM    4  C5  UNL     1     -42.681   5.913  -0.208  1.00 20.00     0.206 C 
HETATM    5  O7  UNL     1     -40.707   7.042   0.597  1.00 20.00    -0.386 OA
HETATM    6  O8  UNL     1     -43.014   7.047  -1.006  1.00 20.00    -0.375 OA
ENDROOT
BRANCH   4   7
HETATM    7  C1  UNL     1     -43.187   4.737  -0.974  1.00 20.00     0.265 C 
HETATM    8  O6  UNL     1     -42.819   4.460  -2.110  1.00 20.00    -0.304 OA
ENDBRANCH   4   7
TORSDOF 1
ENDMDL
MODEL 8
REMARK VINA RESULT:      -3.2     12.212     13.237
REMARK  1 active torsions:
REMARK  status: ('A' for Active; 'I' for Inactive)
REMARK    1  A    between atoms: C1_1  and  C5_5 
ROOT
HETATM    1  C2  UNL     1     -33.298  16.289  -3.422  1.00 20.00     0.193 C 
HETATM    2  C3  UNL     1     -32.951  15.001  -4.149  1.00 20.00     0.195 C 
HETATM    3  C4  UNL     1     -35.045  16.683  -4.948  1.00 20.00     0.206 C 
HETATM    4  C5  UNL     1     -34.697  15.391  -5.671  1.00 20.00     0.206 C 
HETATM    5  O7  UNL     1     -33.869  17.225  -4.341  1.00 20.00    -0.386 OA
HETATM    6  O8  UNL     1     -34.126  14.458  -4.755  1.00 20.00    -0.375 OA
ENDROOT
BRANCH   4   7
HETATM    7  C1  UNL     1     -35.922  14.720  -6.196  1.00 20.00     0.265 C 
HETATM    8  O6  UNL     1     -36.022  14.296  -7.342  1.00 20.00    -0.304 OA
ENDBRANCH   4   7
TORSDOF 1
ENDMDL
MODEL 9
REMARK VINA RESULT:      -3.1     15.912     16.370
REMARK  1 active torsions:
REMARK  status: ('A' for Active; 'I' for Inactive)
REMARK    1  A    between atoms: C1_1  and  C5_5 
ROOT
HETATM    1  C2  UNL     1     -22.196  18.441   7.974  1.00 20.00     0.193 C 
HETATM    2  C3  UNL     1     -22.152  17.267   8.938  1.00 20.00     0.195 C 
HETATM    3  C4  UNL     1     -24.151  19.230   9.020  1.00 20.00     0.206 C 
HETATM    4  C5  UNL     1     -24.101  18.056   9.985  1.00 20.00     0.206 C 
HETATM    5  O7  UNL     1     -23.551  18.854   7.777  1.00 20.00    -0.386 OA
HETATM    6  O8  UNL     1     -22.750  17.643  10.181  1.00 20.00    -0.375 OA
ENDROOT
BRANCH   4   7
HETATM    7  C1  UNL     1     -24.586  18.451  11.340  1.00 20.00     0.265 C 
HETATM    8  O6  UNL     1     -23.838  18.717  12.275  1.00 20.00    -0.304 OA
ENDBRANCH   4   7
TORSDOF 1
ENDMDL
