MODEL 1
REMARK VINA RESULT:      -3.3      0.000      0.000
REMARK  4 active torsions:
REMARK  status: ('A' for Active; 'I' for Inactive)
REMARK    1  A    between atoms: C5_5  and  C6_6 
REMARK    2  A    between atoms: C5_5  and  C7_7 
REMARK    3  A    between atoms: C6_6  and  S9_9 
REMARK    4  A    between atoms: C7_7  and  O8_8 
ROOT
HETATM    1  C5  UNL     1     -23.458  17.309   9.860  1.00 20.00     0.051 C 
ENDROOT
BRANCH   1   2
HETATM    2  C6  UNL     1     -22.826  18.551   9.199  1.00 20.00     0.043 C 
HETATM    3  C1  UNL     1     -23.727  19.261   8.195  1.00 20.00     0.021 C 
BRANCH   2   4
HETATM    4  S9  UNL     1     -21.297  18.026   8.331  1.00 20.00    -0.178 SA
HETATM    5  H25 UNL     1     -21.258  19.080   7.506  1.00 20.00     0.102 HD
ENDBRANCH   2   4
ENDBRANCH   1   2
BRANCH   1   6
HETATM    6  C7  UNL     1     -23.949  17.465  11.318  1.00 20.00     0.054 C 
HETATM    7  C2  UNL     1     -24.400  16.140  11.936  1.00 20.00     0.045 C 
HETATM    8  C3  UNL     1     -22.829  18.081  12.167  1.00 20.00     0.045 C 
BRANCH   6   9
HETATM    9  O8  UNL     1     -25.046  18.379  11.342  1.00 20.00    -0.386 OA
HETATM   10  C4  UNL     1     -26.001  18.013  12.326  1.00 20.00     0.202 C 
ENDBRANCH   6   9
ENDBRANCH   1   6
TORSDOF 4
ENDMDL
MODEL 2
REMARK VINA RESULT:      -3.3      2.556      4.244
REMARK  4 active torsions:
REMARK  status: ('A' for Active; 'I' for Inactive)
REMARK    1  A    between atoms: C5_5  and  C6_6 
REMARK    2  A    between atoms: C5_5  and  C7_7 
REMARK    3  A    between atoms: C6_6  and  S9_9 
REMARK    4  A    between atoms: C7_7  and  O8_8 
ROOT
HETATM    1  C5  UNL     1     -23.921  17.338  10.020  1.00 20.00     0.051 C 
ENDROOT
BRANCH   1   2
HETATM    2  C6  UNL     1     -24.026  17.375  11.558  1.00 20.00     0.043 C 
HETATM    3  C1  UNL     1     -24.445  16.055  12.196  1.00 20.00     0.021 C 
BRANCH   2   4
HETATM    4  S9  UNL     1     -25.256  18.654  12.021  1.00 20.00    -0.178 SA
HETATM    5  H25 UNL     1     -24.943  19.491  11.025  1.00 20.00     0.102 HD
ENDBRANCH   2   4
ENDBRANCH   1   2
BRANCH   1   6
HETATM    6  C7  UNL     1     -22.669  17.989   9.387  1.00 20.00     0.054 C 
HETATM    7  C2  UNL     1     -23.012  19.183   8.494  1.00 20.00     0.045 C 
HETATM    8  C3  UNL     1     -21.711  18.431  10.501  1.00 20.00     0.045 C 
BRANCH   6   9
HETATM    9  O8  UNL     1     -21.983  17.012   8.605  1.00 20.00    -0.386 OA
HETATM   10  C4  UNL     1     -21.294  17.613   7.518  1.00 20.00     0.202 C 
ENDBRANCH   6   9
ENDBRANCH   1   6
TORSDOF 4
ENDMDL
MODEL 3
REMARK VINA RESULT:      -3.0     16.998     18.383
REMARK  4 active torsions:
REMARK  status: ('A' for Active; 'I' for Inactive)
REMARK    1  A    between atoms: C5_5  and  C6_6 
REMARK    2  A    between atoms: C5_5  and  C7_7 
REMARK    3  A    between atoms: C6_6  and  S9_9 
REMARK    4  A    between atoms: C7_7  and  O8_8 
ROOT
HETATM    1  C5  UNL     1     -34.332  16.541  -4.253  1.00 20.00     0.051 C 
ENDROOT
BRANCH   1   2
HETATM    2  C6  UNL     1     -33.268  17.185  -3.342  1.00 20.00     0.043 C 
HETATM    3  C1  UNL     1     -33.560  17.073  -1.849  1.00 20.00     0.021 C 
BRANCH   2   4
HETATM    4  S9  UNL     1     -33.142  18.965  -3.771  1.00 20.00    -0.178 SA
HETATM    5  H25 UNL     1     -33.922  19.387  -2.769  1.00 20.00     0.102 HD
ENDBRANCH   2   4
ENDBRANCH   1   2
BRANCH   1   6
HETATM    6  C7  UNL     1     -33.986  15.165  -4.869  1.00 20.00     0.054 C 
HETATM    7  C2  UNL     1     -34.010  15.179  -6.399  1.00 20.00     0.045 C 
HETATM    8  C3  UNL     1     -32.603  14.722  -4.374  1.00 20.00     0.045 C 
BRANCH   6   9
HETATM    9  O8  UNL     1     -34.929  14.199  -4.404  1.00 20.00    -0.386 OA
HETATM   10  C4  UNL     1     -36.094  14.183  -5.215  1.00 20.00     0.202 C 
ENDBRANCH   6   9
ENDBRANCH   1   6
TORSDOF 4
ENDMDL
MODEL 4
REMARK VINA RESULT:      -2.9     14.913     16.461
REMARK  4 active torsions:
REMARK  status: ('A' for Active; 'I' for Inactive)
REMARK    1  A    between atoms: C5_5  and  C6_6 
REMARK    2  A    between atoms: C5_5  and  C7_7 
REMARK    3  A    between atoms: C6_6  and  S9_9 
REMARK    4  A    between atoms: C7_7  and  O8_8 
ROOT
HETATM    1  C5  UNL     1     -33.197  17.481  -1.925  1.00 20.00     0.051 C 
ENDROOT
BRANCH   1   2
HETATM    2  C6  UNL     1     -32.774  18.550  -0.898  1.00 20.00     0.043 C 
HETATM    3  C1  UNL     1     -31.328  18.437  -0.425  1.00 20.00     0.021 C 
BRANCH   2   4
HETATM    4  S9  UNL     1     -33.870  18.409   0.567  1.00 20.00    -0.178 SA
HETATM    5  H25 UNL     1     -32.902  18.026   1.408  1.00 20.00     0.102 HD
ENDBRANCH   2   4
ENDBRANCH   1   2
BRANCH   1   6
HETATM    6  C7  UNL     1     -33.864  17.984  -3.226  1.00 20.00     0.054 C 
HETATM    7  C2  UNL     1     -35.284  18.506  -2.999  1.00 20.00     0.045 C 
HETATM    8  C3  UNL     1     -32.997  19.089  -3.844  1.00 20.00     0.045 C 
BRANCH   6   9
HETATM    9  O8  UNL     1     -33.914  16.912  -4.167  1.00 20.00    -0.386 OA
HETATM   10  C4  UNL     1     -33.233  15.766  -3.680  1.00 20.00     0.202 C 
ENDBRANCH   6   9
ENDBRANCH   1   6
TORSDOF 4
ENDMDL
MODEL 5
REMARK VINA RESULT:      -2.9     17.027     18.342
REMARK  4 active torsions:
REMARK  status: ('A' for Active; 'I' for Inactive)
REMARK    1  A    between atoms: C5_5  and  C6_6 
REMARK    2  A    between atoms: C5_5  and  C7_7 
REMARK    3  A    between atoms: C6_6  and  S9_9 
REMARK    4  A    between atoms: C7_7  and  O8_8 
ROOT
HETATM    1  C5  UNL     1     -41.767  14.530   7.656  1.00 20.00     0.051 C 
ENDROOT
BRANCH   1   2
HETATM    2  C6  UNL     1     -40.496  15.323   8.020  1.00 20.00     0.043 C 
HETATM    3  C1  UNL     1     -40.113  15.264   9.494  1.00 20.00     0.021 C 
BRANCH   2   4
HETATM    4  S9  UNL     1     -40.763  17.081   7.565  1.00 20.00    -0.178 SA
HETATM    5  H25 UNL     1     -41.345  17.419   8.722  1.00 20.00     0.102 HD
ENDBRANCH   2   4
ENDBRANCH   1   2
BRANCH   1   6
HETATM    6  C7  UNL     1     -41.581  13.277   6.769  1.00 20.00     0.054 C 
HETATM    7  C2  UNL     1     -42.702  12.251   6.953  1.00 20.00     0.045 C 
HETATM    8  C3  UNL     1     -41.503  13.704   5.298  1.00 20.00     0.045 C 
BRANCH   6   9
HETATM    9  O8  UNL     1     -40.336  12.659   7.095  1.00 20.00    -0.386 OA
HETATM   10  C4  UNL     1     -39.766  12.020   5.963  1.00 20.00     0.202 C 
ENDBRANCH   6   9
ENDBRANCH   1   6
TORSDOF 4
ENDMDL
MODEL 6
REMARK VINA RESULT:      -2.9     17.442     18.876
REMARK  4 active torsions:
REMARK  status: ('A' for Active; 'I' for Inactive)
REMARK    1  A    between atoms: C5_5  and  C6_6 
REMARK    2  A    between atoms: C5_5  and  C7_7 
REMARK    3  A    between atoms: C6_6  and  S9_9 
REMARK    4  A    between atoms: C7_7  and  O8_8 
ROOT
HETATM    1  C5  UNL     1     -34.608  16.662  -4.518  1.00 20.00     0.051 C 
ENDROOT
BRANCH   1   2
HETATM    2  C6  UNL     1     -33.434  17.199  -3.675  1.00 20.00     0.043 C 
HETATM    3  C1  UNL     1     -33.616  17.053  -2.168  1.00 20.00     0.021 C 
BRANCH   2   4
HETATM    4  S9  UNL     1     -33.216  18.980  -4.059  1.00 20.00    -0.178 SA
HETATM    5  H25 UNL     1     -33.435  18.850  -5.372  1.00 20.00     0.102 HD
ENDBRANCH   2   4
ENDBRANCH   1   2
BRANCH   1   6
HETATM    6  C7  UNL     1     -34.408  15.292  -5.206  1.00 20.00     0.054 C 
HETATM    7  C2  UNL     1     -33.398  14.405  -4.474  1.00 20.00     0.045 C 
HETATM    8  C3  UNL     1     -35.759  14.571  -5.303  1.00 20.00     0.045 C 
BRANCH   6   9
HETATM    9  O8  UNL     1     -33.948  15.506  -6.541  1.00 20.00    -0.386 OA
HETATM   10  C4  UNL     1     -34.637  16.583  -7.157  1.00 20.00     0.202 C 
ENDBRANCH   6   9
ENDBRANCH   1   6
TORSDOF 4
ENDMDL
MODEL 7
REMARK VINA RESULT:      -2.9     17.482     18.269
REMARK  4 active torsions:
REMARK  status: ('A' for Active; 'I' for Inactive)
REMARK    1  A    between atoms: C5_5  and  C6_6 
REMARK    2  A    between atoms: C5_5  and  C7_7 
REMARK    3  A    between atoms: C6_6  and  S9_9 
REMARK    4  A    between atoms: C7_7  and  O8_8 
ROOT
HETATM    1  C5  UNL     1     -40.329  13.966   7.363  1.00 20.00     0.051 C 
ENDROOT
BRANCH   1   2
HETATM    2  C6  UNL     1     -40.988  15.126   8.136  1.00 20.00     0.043 C 
HETATM    3  C1  UNL     1     -40.708  16.510   7.562  1.00 20.00     0.021 C 
BRANCH   2   4
HETATM    4  S9  UNL     1     -40.379  15.086   9.866  1.00 20.00    -0.178 SA
HETATM    5  H25 UNL     1     -40.888  13.881  10.148  1.00 20.00     0.102 HD
ENDBRANCH   2   4
ENDBRANCH   1   2
BRANCH   1   6
HETATM    6  C7  UNL     1     -41.263  13.064   6.522  1.00 20.00     0.054 C 
HETATM    7  C2  UNL     1     -42.605  12.800   7.208  1.00 20.00     0.045 C 
HETATM    8  C3  UNL     1     -41.497  13.715   5.153  1.00 20.00     0.045 C 
BRANCH   6   9
HETATM    9  O8  UNL     1     -40.613  11.814   6.288  1.00 20.00    -0.386 OA
HETATM   10  C4  UNL     1     -39.253  11.999   5.927  1.00 20.00     0.202 C 
ENDBRANCH   6   9
ENDBRANCH   1   6
TORSDOF 4
ENDMDL
MODEL 8
REMARK VINA RESULT:      -2.8     18.530     19.573
REMARK  4 active torsions:
REMARK  status: ('A' for Active; 'I' for Inactive)
REMARK    1  A    between atoms: C5_5  and  C6_6 
REMARK    2  A    between atoms: C5_5  and  C7_7 
REMARK    3  A    between atoms: C6_6  and  S9_9 
REMARK    4  A    between atoms: C7_7  and  O8_8 
ROOT
HETATM    1  C5  UNL     1     -34.575  16.807  -5.624  1.00 20.00     0.051 C 
ENDROOT
BRANCH   1   2
HETATM    2  C6  UNL     1     -34.792  17.461  -4.245  1.00 20.00     0.043 C 
HETATM    3  C1  UNL     1     -36.089  18.252  -4.116  1.00 20.00     0.021 C 
BRANCH   2   4
HETATM    4  S9  UNL     1     -33.389  18.599  -3.920  1.00 20.00    -0.178 SA
HETATM    5  H25 UNL     1     -34.000  19.687  -4.403  1.00 20.00     0.102 HD
ENDBRANCH   2   4
ENDBRANCH   1   2
BRANCH   1   6
HETATM    6  C7  UNL     1     -34.425  15.268  -5.654  1.00 20.00     0.054 C 
HETATM    7  C2  UNL     1     -33.627  14.728  -4.465  1.00 20.00     0.045 C 
HETATM    8  C3  UNL     1     -35.818  14.624  -5.680  1.00 20.00     0.045 C 
BRANCH   6   9
HETATM    9  O8  UNL     1     -33.764  14.889  -6.861  1.00 20.00    -0.386 OA
HETATM   10  C4  UNL     1     -34.064  15.788  -7.918  1.00 20.00     0.202 C 
ENDBRANCH   6   9
ENDBRANCH   1   6
TORSDOF 4
ENDMDL
MODEL 9
REMARK VINA RESULT:      -2.8     14.682     16.133
REMARK  4 active torsions:
REMARK  status: ('A' for Active; 'I' for Inactive)
REMARK    1  A    between atoms: C5_5  and  C6_6 
REMARK    2  A    between atoms: C5_5  and  C7_7 
REMARK    3  A    between atoms: C6_6  and  S9_9 
REMARK    4  A    between atoms: C7_7  and  O8_8 
ROOT
HETATM    1  C5  UNL     1     -33.586  16.926  -2.110  1.00 20.00     0.051 C 
ENDROOT
BRANCH   1   2
HETATM    2  C6  UNL     1     -33.528  16.885  -3.650  1.00 20.00     0.043 C 
HETATM    3  C1  UNL     1     -34.798  17.366  -4.345  1.00 20.00     0.021 C 
BRANCH   2   4
HETATM    4  S9  UNL     1     -33.210  15.154  -4.170  1.00 20.00    -0.178 SA
HETATM    5  H25 UNL     1     -31.931  15.361  -4.505  1.00 20.00     0.102 HD
ENDBRANCH   2   4
ENDBRANCH   1   2
BRANCH   1   6
HETATM    6  C7  UNL     1     -33.319  18.291  -1.435  1.00 20.00     0.054 C 
HETATM    7  C2  UNL     1     -32.513  19.242  -2.322  1.00 20.00     0.045 C 
HETATM    8  C3  UNL     1     -34.658  18.940  -1.059  1.00 20.00     0.045 C 
BRANCH   6   9
HETATM    9  O8  UNL     1     -32.600  18.076  -0.221  1.00 20.00    -0.386 OA
HETATM   10  C4  UNL     1     -31.269  18.560  -0.316  1.00 20.00     0.202 C 
ENDBRANCH   6   9
ENDBRANCH   1   6
TORSDOF 4
ENDMDL
