MODEL 1
REMARK VINA RESULT:      -3.6      0.000      0.000
REMARK  3 active torsions:
REMARK  status: ('A' for Active; 'I' for Inactive)
REMARK    1  A    between atoms: C5_5  and  C6_6 
REMARK    2  A    between atoms: C5_5  and  C7_7 
REMARK    3  A    between atoms: C7_7  and  O8_8 
ROOT
HETATM    1  C2  UNL     1     -34.480   5.681   6.215  1.00 20.00     0.045 C 
HETATM    2  C3  UNL     1     -35.961   6.085   4.234  1.00 20.00     0.045 C 
HETATM    3  C7  UNL     1     -34.536   6.211   4.777  1.00 20.00     0.054 C 
ENDROOT
BRANCH   3   4
HETATM    4  C5  UNL     1     -34.013   7.668   4.751  1.00 20.00     0.057 C 
BRANCH   4   5
HETATM    5  C6  UNL     1     -32.531   7.883   4.389  1.00 20.00     0.081 C 
HETATM    6  C1  UNL     1     -32.042   9.233   4.909  1.00 20.00     0.026 C 
HETATM    7 CL9  UNL     1     -32.255   7.825   2.625  1.00 20.00    -0.125 Cl
ENDBRANCH   4   5
ENDBRANCH   3   4
BRANCH   3   8
HETATM    8  O8  UNL     1     -33.675   5.388   3.990  1.00 20.00    -0.386 OA
HETATM    9  C4  UNL     1     -33.817   4.019   4.334  1.00 20.00     0.202 C 
ENDBRANCH   3   8
TORSDOF 3
ENDMDL
MODEL 2
REMARK VINA RESULT:      -3.5      0.912      1.856
REMARK  3 active torsions:
REMARK  status: ('A' for Active; 'I' for Inactive)
REMARK    1  A    between atoms: C5_5  and  C6_6 
REMARK    2  A    between atoms: C5_5  and  C7_7 
REMARK    3  A    between atoms: C7_7  and  O8_8 
ROOT
HETATM    1  C2  UNL     1     -35.851   5.826   4.206  1.00 20.00     0.045 C 
HETATM    2  C3  UNL     1     -33.536   5.052   3.637  1.00 20.00     0.045 C 
HETATM    3  C7  UNL     1     -34.360   5.974   4.538  1.00 20.00     0.054 C 
ENDROOT
BRANCH   3   4
HETATM    4  C5  UNL     1     -33.954   7.461   4.401  1.00 20.00     0.057 C 
BRANCH   4   5
HETATM    5  C6  UNL     1     -32.481   7.767   4.068  1.00 20.00     0.081 C 
HETATM    6  C1  UNL     1     -32.031   9.054   4.755  1.00 20.00     0.026 C 
HETATM    7 CL9  UNL     1     -32.213   7.943   2.310  1.00 20.00    -0.125 Cl
ENDBRANCH   4   5
ENDBRANCH   3   4
BRANCH   3   8
HETATM    8  O8  UNL     1     -34.186   5.560   5.893  1.00 20.00    -0.386 OA
HETATM    9  C4  UNL     1     -34.389   6.640   6.791  1.00 20.00     0.202 C 
ENDBRANCH   3   8
TORSDOF 3
ENDMDL
MODEL 3
REMARK VINA RESULT:      -3.4      2.480      4.089
REMARK  3 active torsions:
REMARK  status: ('A' for Active; 'I' for Inactive)
REMARK    1  A    between atoms: C5_5  and  C6_6 
REMARK    2  A    between atoms: C5_5  and  C7_7 
REMARK    3  A    between atoms: C7_7  and  O8_8 
ROOT
HETATM    1  C2  UNL     1     -31.960   8.984   4.837  1.00 20.00     0.045 C 
HETATM    2  C3  UNL     1     -31.901   7.237   3.041  1.00 20.00     0.045 C 
HETATM    3  C7  UNL     1     -32.734   8.355   3.672  1.00 20.00     0.054 C 
ENDROOT
BRANCH   3   4
HETATM    4  C5  UNL     1     -34.108   7.859   4.183  1.00 20.00     0.057 C 
BRANCH   4   5
HETATM    5  C6  UNL     1     -34.129   6.565   5.019  1.00 20.00     0.081 C 
HETATM    6  C1  UNL     1     -35.283   5.664   4.585  1.00 20.00     0.026 C 
HETATM    7 CL9  UNL     1     -34.300   6.896   6.767  1.00 20.00    -0.125 Cl
ENDBRANCH   4   5
ENDBRANCH   3   4
BRANCH   3   8
HETATM    8  O8  UNL     1     -32.935   9.378   2.697  1.00 20.00    -0.386 OA
HETATM    9  C4  UNL     1     -32.573   8.932   1.400  1.00 20.00     0.202 C 
ENDBRANCH   3   8
TORSDOF 3
ENDMDL
MODEL 4
REMARK VINA RESULT:      -3.3      2.279      4.010
REMARK  3 active torsions:
REMARK  status: ('A' for Active; 'I' for Inactive)
REMARK    1  A    between atoms: C5_5  and  C6_6 
REMARK    2  A    between atoms: C5_5  and  C7_7 
REMARK    3  A    between atoms: C7_7  and  O8_8 
ROOT
HETATM    1  C2  UNL     1     -32.298   6.570   2.696  1.00 20.00     0.045 C 
HETATM    2  C3  UNL     1     -32.745   9.010   2.334  1.00 20.00     0.045 C 
HETATM    3  C7  UNL     1     -32.680   7.892   3.376  1.00 20.00     0.054 C 
ENDROOT
BRANCH   3   4
HETATM    4  C5  UNL     1     -34.015   7.704   4.136  1.00 20.00     0.057 C 
BRANCH   4   5
HETATM    5  C6  UNL     1     -34.166   6.439   5.003  1.00 20.00     0.081 C 
HETATM    6  C1  UNL     1     -35.413   5.657   4.599  1.00 20.00     0.026 C 
HETATM    7 CL9  UNL     1     -34.284   6.828   6.743  1.00 20.00    -0.125 Cl
ENDBRANCH   4   5
ENDBRANCH   3   4
BRANCH   3   8
HETATM    8  O8  UNL     1     -31.645   8.200   4.310  1.00 20.00    -0.386 OA
HETATM    9  C4  UNL     1     -31.989   9.321   5.108  1.00 20.00     0.202 C 
ENDBRANCH   3   8
TORSDOF 3
ENDMDL
MODEL 5
REMARK VINA RESULT:      -3.3     15.751     16.614
REMARK  3 active torsions:
REMARK  status: ('A' for Active; 'I' for Inactive)
REMARK    1  A    between atoms: C5_5  and  C6_6 
REMARK    2  A    between atoms: C5_5  and  C7_7 
REMARK    3  A    between atoms: C7_7  and  O8_8 
ROOT
HETATM    1  C2  UNL     1     -23.924  16.736  10.898  1.00 20.00     0.045 C 
HETATM    2  C3  UNL     1     -22.351  18.060  12.332  1.00 20.00     0.045 C 
HETATM    3  C7  UNL     1     -23.503  18.147  11.329  1.00 20.00     0.054 C 
ENDROOT
BRANCH   3   4
HETATM    4  C5  UNL     1     -23.139  18.974  10.072  1.00 20.00     0.057 C 
BRANCH   4   5
HETATM    5  C6  UNL     1     -23.451  18.351   8.697  1.00 20.00     0.081 C 
HETATM    6  C1  UNL     1     -22.222  18.398   7.794  1.00 20.00     0.026 C 
HETATM    7 CL9  UNL     1     -24.793  19.192   7.868  1.00 20.00    -0.125 Cl
ENDBRANCH   4   5
ENDBRANCH   3   4
BRANCH   3   8
HETATM    8  O8  UNL     1     -24.626  18.743  11.976  1.00 20.00    -0.386 OA
HETATM    9  C4  UNL     1     -25.681  17.809  12.140  1.00 20.00     0.202 C 
ENDBRANCH   3   8
TORSDOF 3
ENDMDL
MODEL 6
REMARK VINA RESULT:      -3.2     12.557     13.281
REMARK  3 active torsions:
REMARK  status: ('A' for Active; 'I' for Inactive)
REMARK    1  A    between atoms: C5_5  and  C6_6 
REMARK    2  A    between atoms: C5_5  and  C7_7 
REMARK    3  A    between atoms: C7_7  and  O8_8 
ROOT
HETATM    1  C2  UNL     1     -35.217  18.491  -2.823  1.00 20.00     0.045 C 
HETATM    2  C3  UNL     1     -33.060  18.880  -4.039  1.00 20.00     0.045 C 
HETATM    3  C7  UNL     1     -33.876  17.868  -3.234  1.00 20.00     0.054 C 
ENDROOT
BRANCH   3   4
HETATM    4  C5  UNL     1     -33.135  17.376  -1.967  1.00 20.00     0.057 C 
BRANCH   4   5
HETATM    5  C6  UNL     1     -32.889  18.404  -0.845  1.00 20.00     0.081 C 
HETATM    6  C1  UNL     1     -31.415  18.425  -0.450  1.00 20.00     0.026 C 
HETATM    7 CL9  UNL     1     -33.859  18.051   0.614  1.00 20.00    -0.125 Cl
ENDBRANCH   4   5
ENDBRANCH   3   4
BRANCH   3   8
HETATM    8  O8  UNL     1     -34.170  16.750  -4.072  1.00 20.00    -0.386 OA
HETATM    9  C4  UNL     1     -33.285  15.670  -3.819  1.00 20.00     0.202 C 
ENDBRANCH   3   8
TORSDOF 3
ENDMDL
MODEL 7
REMARK VINA RESULT:      -3.2     12.402     13.317
REMARK  3 active torsions:
REMARK  status: ('A' for Active; 'I' for Inactive)
REMARK    1  A    between atoms: C5_5  and  C6_6 
REMARK    2  A    between atoms: C5_5  and  C7_7 
REMARK    3  A    between atoms: C7_7  and  O8_8 
ROOT
HETATM    1  C2  UNL     1     -35.861  14.032  -4.985  1.00 20.00     0.045 C 
HETATM    2  C3  UNL     1     -36.696  15.995  -6.300  1.00 20.00     0.045 C 
HETATM    3  C7  UNL     1     -35.449  15.273  -5.787  1.00 20.00     0.054 C 
ENDROOT
BRANCH   3   4
HETATM    4  C5  UNL     1     -34.557  16.177  -4.901  1.00 20.00     0.057 C 
BRANCH   4   5
HETATM    5  C6  UNL     1     -33.796  15.504  -3.741  1.00 20.00     0.081 C 
HETATM    6  C1  UNL     1     -33.352  16.545  -2.717  1.00 20.00     0.026 C 
HETATM    7 CL9  UNL     1     -32.352  14.619  -4.309  1.00 20.00    -0.125 Cl
ENDBRANCH   4   5
ENDBRANCH   3   4
BRANCH   3   8
HETATM    8  O8  UNL     1     -34.692  14.818  -6.909  1.00 20.00    -0.386 OA
HETATM    9  C4  UNL     1     -34.266  15.904  -7.717  1.00 20.00     0.202 C 
ENDBRANCH   3   8
TORSDOF 3
ENDMDL
MODEL 8
REMARK VINA RESULT:      -3.2      2.225      3.921
REMARK  3 active torsions:
REMARK  status: ('A' for Active; 'I' for Inactive)
REMARK    1  A    between atoms: C5_5  and  C6_6 
REMARK    2  A    between atoms: C5_5  and  C7_7 
REMARK    3  A    between atoms: C7_7  and  O8_8 
ROOT
HETATM    1  C2  UNL     1     -32.866   9.409   2.727  1.00 20.00     0.045 C 
HETATM    2  C3  UNL     1     -32.032   9.160   5.078  1.00 20.00     0.045 C 
HETATM    3  C7  UNL     1     -32.674   8.432   3.895  1.00 20.00     0.054 C 
ENDROOT
BRANCH   3   4
HETATM    4  C5  UNL     1     -34.038   7.795   4.254  1.00 20.00     0.057 C 
BRANCH   4   5
HETATM    5  C6  UNL     1     -34.021   6.530   5.134  1.00 20.00     0.081 C 
HETATM    6  C1  UNL     1     -35.033   5.508   4.625  1.00 20.00     0.026 C 
HETATM    7 CL9  UNL     1     -34.398   6.896   6.842  1.00 20.00    -0.125 Cl
ENDBRANCH   4   5
ENDBRANCH   3   4
BRANCH   3   8
HETATM    8  O8  UNL     1     -31.780   7.413   3.449  1.00 20.00    -0.386 OA
HETATM    9  C4  UNL     1     -32.150   6.928   2.168  1.00 20.00     0.202 C 
ENDBRANCH   3   8
TORSDOF 3
ENDMDL
MODEL 9
REMARK VINA RESULT:      -3.2     12.311     13.261
REMARK  3 active torsions:
REMARK  status: ('A' for Active; 'I' for Inactive)
REMARK    1  A    between atoms: C5_5  and  C6_6 
REMARK    2  A    between atoms: C5_5  and  C7_7 
REMARK    3  A    between atoms: C7_7  and  O8_8 
ROOT
HETATM    1  C2  UNL     1     -32.552  19.104  -2.401  1.00 20.00     0.045 C 
HETATM    2  C3  UNL     1     -34.747  18.896  -1.210  1.00 20.00     0.045 C 
HETATM    3  C7  UNL     1     -33.400  18.221  -1.477  1.00 20.00     0.054 C 
ENDROOT
BRANCH   3   4
HETATM    4  C5  UNL     1     -33.551  16.817  -2.112  1.00 20.00     0.057 C 
BRANCH   4   5
HETATM    5  C6  UNL     1     -33.343  16.702  -3.635  1.00 20.00     0.081 C 
HETATM    6  C1  UNL     1     -34.646  16.991  -4.377  1.00 20.00     0.026 C 
HETATM    7 CL9  UNL     1     -32.770  15.079  -4.114  1.00 20.00    -0.125 Cl
ENDBRANCH   4   5
ENDBRANCH   3   4
BRANCH   3   8
HETATM    8  O8  UNL     1     -32.697  18.106  -0.240  1.00 20.00    -0.386 OA
HETATM    9  C4  UNL     1     -31.348  18.525  -0.375  1.00 20.00     0.202 C 
ENDBRANCH   3   8
TORSDOF 3
ENDMDL
