MODEL 1
REMARK VINA RESULT:      -3.6      0.000      0.000
REMARK  3 active torsions:
REMARK  status: ('A' for Active; 'I' for Inactive)
REMARK    1  A    between atoms: C5_5  and  O9_9 
REMARK    2  A    between atoms: C6_6  and  C7_7 
REMARK    3  A    between atoms: C7_7  and  O9_9 
ROOT
HETATM    1  C1  UNL     1     -33.675  15.249  -3.753  1.00 20.00     0.085 C 
HETATM    2  C5  UNL     1     -33.279  16.548  -3.209  1.00 20.00     0.292 C 
HETATM    3  N8  UNL     1     -33.989  14.219  -4.186  1.00 20.00    -0.195 NA
ENDROOT
BRANCH   2   4
HETATM    4  O9  UNL     1     -33.512  16.591  -1.810  1.00 20.00    -0.367 OA
BRANCH   4   5
HETATM    5  C7  UNL     1     -33.615  17.939  -1.344  1.00 20.00     0.054 C 
HETATM    6  C3  UNL     1     -34.746  18.608  -2.126  1.00 20.00     0.045 C 
HETATM    7  C4  UNL     1     -33.972  17.896   0.145  1.00 20.00     0.045 C 
BRANCH   5   8
HETATM    8  C6  UNL     1     -32.264  18.653  -1.541  1.00 20.00     0.033 C 
HETATM    9  C2  UNL     1     -31.273  18.459  -0.398  1.00 20.00     0.008 C 
ENDBRANCH   5   8
ENDBRANCH   4   5
ENDBRANCH   2   4
TORSDOF 3
ENDMDL
MODEL 2
REMARK VINA RESULT:      -3.5     12.100     13.073
REMARK  3 active torsions:
REMARK  status: ('A' for Active; 'I' for Inactive)
REMARK    1  A    between atoms: C5_5  and  O9_9 
REMARK    2  A    between atoms: C6_6  and  C7_7 
REMARK    3  A    between atoms: C7_7  and  O9_9 
ROOT
HETATM    1  C1  UNL     1     -32.570   8.711   5.180  1.00 20.00     0.085 C 
HETATM    2  C5  UNL     1     -33.466   7.609   5.530  1.00 20.00     0.292 C 
HETATM    3  N8  UNL     1     -31.859   9.586   4.904  1.00 20.00    -0.195 NA
ENDROOT
BRANCH   2   4
HETATM    4  O9  UNL     1     -33.925   6.953   4.359  1.00 20.00    -0.367 OA
BRANCH   4   5
HETATM    5  C7  UNL     1     -34.556   5.710   4.677  1.00 20.00     0.054 C 
HETATM    6  C3  UNL     1     -34.492   5.538   6.195  1.00 20.00     0.045 C 
HETATM    7  C4  UNL     1     -36.019   5.797   4.228  1.00 20.00     0.045 C 
BRANCH   5   8
HETATM    8  C6  UNL     1     -33.844   4.568   3.926  1.00 20.00     0.033 C 
HETATM    9  C2  UNL     1     -33.001   5.020   2.738  1.00 20.00     0.008 C 
ENDBRANCH   5   8
ENDBRANCH   4   5
ENDBRANCH   2   4
TORSDOF 3
ENDMDL
MODEL 3
REMARK VINA RESULT:      -3.4      0.654      1.539
REMARK  3 active torsions:
REMARK  status: ('A' for Active; 'I' for Inactive)
REMARK    1  A    between atoms: C5_5  and  O9_9 
REMARK    2  A    between atoms: C6_6  and  C7_7 
REMARK    3  A    between atoms: C7_7  and  O9_9 
ROOT
HETATM    1  C1  UNL     1     -33.673  15.214  -3.825  1.00 20.00     0.085 C 
HETATM    2  C5  UNL     1     -33.388  16.560  -3.328  1.00 20.00     0.292 C 
HETATM    3  N8  UNL     1     -33.900  14.147  -4.221  1.00 20.00    -0.195 NA
ENDROOT
BRANCH   2   4
HETATM    4  O9  UNL     1     -33.518  16.604  -1.916  1.00 20.00    -0.367 OA
BRANCH   4   5
HETATM    5  C7  UNL     1     -33.667  17.948  -1.451  1.00 20.00     0.054 C 
HETATM    6  C3  UNL     1     -32.420  18.722  -1.881  1.00 20.00     0.045 C 
HETATM    7  C4  UNL     1     -34.905  18.545  -2.129  1.00 20.00     0.045 C 
BRANCH   5   8
HETATM    8  C6  UNL     1     -33.855  17.942   0.078  1.00 20.00     0.033 C 
HETATM    9  C2  UNL     1     -32.704  18.566   0.860  1.00 20.00     0.008 C 
ENDBRANCH   5   8
ENDBRANCH   4   5
ENDBRANCH   2   4
TORSDOF 3
ENDMDL
MODEL 4
REMARK VINA RESULT:      -3.3     11.297     12.056
REMARK  3 active torsions:
REMARK  status: ('A' for Active; 'I' for Inactive)
REMARK    1  A    between atoms: C5_5  and  O9_9 
REMARK    2  A    between atoms: C6_6  and  C7_7 
REMARK    3  A    between atoms: C7_7  and  O9_9 
ROOT
HETATM    1  C1  UNL     1     -34.335   6.340   6.081  1.00 20.00     0.085 C 
HETATM    2  C5  UNL     1     -33.911   7.676   5.665  1.00 20.00     0.292 C 
HETATM    3  N8  UNL     1     -34.671   5.279   6.412  1.00 20.00    -0.195 NA
ENDROOT
BRANCH   2   4
HETATM    4  O9  UNL     1     -33.987   7.804   4.254  1.00 20.00    -0.367 OA
BRANCH   4   5
HETATM    5  C7  UNL     1     -32.745   8.257   3.708  1.00 20.00     0.054 C 
HETATM    6  C3  UNL     1     -33.065   9.365   2.703  1.00 20.00     0.045 C 
HETATM    7  C4  UNL     1     -31.906   8.827   4.856  1.00 20.00     0.045 C 
BRANCH   5   8
HETATM    8  C6  UNL     1     -32.010   7.070   3.057  1.00 20.00     0.033 C 
HETATM    9  C2  UNL     1     -32.895   5.866   2.753  1.00 20.00     0.008 C 
ENDBRANCH   5   8
ENDBRANCH   4   5
ENDBRANCH   2   4
TORSDOF 3
ENDMDL
MODEL 5
REMARK VINA RESULT:      -3.3     10.751     11.638
REMARK  3 active torsions:
REMARK  status: ('A' for Active; 'I' for Inactive)
REMARK    1  A    between atoms: C5_5  and  O9_9 
REMARK    2  A    between atoms: C6_6  and  C7_7 
REMARK    3  A    between atoms: C7_7  and  O9_9 
ROOT
HETATM    1  C1  UNL     1     -42.678  14.704   3.475  1.00 20.00     0.085 C 
HETATM    2  C5  UNL     1     -42.243  14.405   4.839  1.00 20.00     0.292 C 
HETATM    3  N8  UNL     1     -43.024  14.940   2.393  1.00 20.00    -0.195 NA
ENDROOT
BRANCH   2   4
HETATM    4  O9  UNL     1     -41.118  13.540   4.822  1.00 20.00    -0.367 OA
BRANCH   4   5
HETATM    5  C7  UNL     1     -40.844  13.023   6.127  1.00 20.00     0.054 C 
HETATM    6  C3  UNL     1     -40.418  14.201   7.005  1.00 20.00     0.045 C 
HETATM    7  C4  UNL     1     -42.138  12.413   6.674  1.00 20.00     0.045 C 
BRANCH   5   8
HETATM    8  C6  UNL     1     -39.752  11.941   6.028  1.00 20.00     0.033 C 
HETATM    9  C2  UNL     1     -39.224  11.701   4.618  1.00 20.00     0.008 C 
ENDBRANCH   5   8
ENDBRANCH   4   5
ENDBRANCH   2   4
TORSDOF 3
ENDMDL
MODEL 6
REMARK VINA RESULT:      -3.3     11.915     12.725
REMARK  3 active torsions:
REMARK  status: ('A' for Active; 'I' for Inactive)
REMARK    1  A    between atoms: C5_5  and  O9_9 
REMARK    2  A    between atoms: C6_6  and  C7_7 
REMARK    3  A    between atoms: C7_7  and  O9_9 
ROOT
HETATM    1  C1  UNL     1     -32.367   7.258   2.208  1.00 20.00     0.085 C 
HETATM    2  C5  UNL     1     -32.824   6.175   3.078  1.00 20.00     0.292 C 
HETATM    3  N8  UNL     1     -32.002   8.116   1.517  1.00 20.00    -0.195 NA
ENDROOT
BRANCH   2   4
HETATM    4  O9  UNL     1     -33.520   6.700   4.198  1.00 20.00    -0.367 OA
BRANCH   4   5
HETATM    5  C7  UNL     1     -34.437   5.742   4.732  1.00 20.00     0.054 C 
HETATM    6  C3  UNL     1     -35.807   6.026   4.115  1.00 20.00     0.045 C 
HETATM    7  C4  UNL     1     -33.960   4.348   4.312  1.00 20.00     0.045 C 
BRANCH   5   8
HETATM    8  C6  UNL     1     -34.452   5.851   6.269  1.00 20.00     0.033 C 
HETATM    9  C2  UNL     1     -34.118   7.238   6.809  1.00 20.00     0.008 C 
ENDBRANCH   5   8
ENDBRANCH   4   5
ENDBRANCH   2   4
TORSDOF 3
ENDMDL
MODEL 7
REMARK VINA RESULT:      -3.3     11.397     12.806
REMARK  3 active torsions:
REMARK  status: ('A' for Active; 'I' for Inactive)
REMARK    1  A    between atoms: C5_5  and  O9_9 
REMARK    2  A    between atoms: C6_6  and  C7_7 
REMARK    3  A    between atoms: C7_7  and  O9_9 
ROOT
HETATM    1  C1  UNL     1     -40.512  14.775   9.183  1.00 20.00     0.085 C 
HETATM    2  C5  UNL     1     -41.238  14.153   8.076  1.00 20.00     0.292 C 
HETATM    3  N8  UNL     1     -39.938  15.270  10.062  1.00 20.00    -0.195 NA
ENDROOT
BRANCH   2   4
HETATM    4  O9  UNL     1     -40.359  13.887   6.995  1.00 20.00    -0.367 OA
BRANCH   4   5
HETATM    5  C7  UNL     1     -40.896  12.885   6.127  1.00 20.00     0.054 C 
HETATM    6  C3  UNL     1     -42.170  12.349   6.779  1.00 20.00     0.045 C 
HETATM    7  C4  UNL     1     -41.240  13.554   4.792  1.00 20.00     0.045 C 
BRANCH   5   8
HETATM    8  C6  UNL     1     -39.842  11.783   5.906  1.00 20.00     0.033 C 
HETATM    9  C2  UNL     1     -39.253  11.742   4.500  1.00 20.00     0.008 C 
ENDBRANCH   5   8
ENDBRANCH   4   5
ENDBRANCH   2   4
TORSDOF 3
ENDMDL
MODEL 8
REMARK VINA RESULT:      -3.2     11.815     13.043
REMARK  3 active torsions:
REMARK  status: ('A' for Active; 'I' for Inactive)
REMARK    1  A    between atoms: C5_5  and  O9_9 
REMARK    2  A    between atoms: C6_6  and  C7_7 
REMARK    3  A    between atoms: C7_7  and  O9_9 
ROOT
HETATM    1  C1  UNL     1     -43.073  12.745   8.588  1.00 20.00     0.085 C 
HETATM    2  C5  UNL     1     -42.692  13.086   7.218  1.00 20.00     0.292 C 
HETATM    3  N8  UNL     1     -43.376  12.476   9.676  1.00 20.00    -0.195 NA
ENDROOT
BRANCH   2   4
HETATM    4  O9  UNL     1     -41.757  12.144   6.715  1.00 20.00    -0.367 OA
BRANCH   4   5
HETATM    5  C7  UNL     1     -40.648  12.798   6.092  1.00 20.00     0.054 C 
HETATM    6  C3  UNL     1     -41.166  13.461   4.815  1.00 20.00     0.045 C 
HETATM    7  C4  UNL     1     -40.130  13.869   7.058  1.00 20.00     0.045 C 
BRANCH   5   8
HETATM    8  C6  UNL     1     -39.540  11.765   5.809  1.00 20.00     0.033 C 
HETATM    9  C2  UNL     1     -39.026  11.765   4.374  1.00 20.00     0.008 C 
ENDBRANCH   5   8
ENDBRANCH   4   5
ENDBRANCH   2   4
TORSDOF 3
ENDMDL
MODEL 9
REMARK VINA RESULT:      -3.2     10.787     11.879
REMARK  3 active torsions:
REMARK  status: ('A' for Active; 'I' for Inactive)
REMARK    1  A    between atoms: C5_5  and  O9_9 
REMARK    2  A    between atoms: C6_6  and  C7_7 
REMARK    3  A    between atoms: C7_7  and  O9_9 
ROOT
HETATM    1  C1  UNL     1     -39.377  11.860   4.656  1.00 20.00     0.085 C 
HETATM    2  C5  UNL     1     -39.658  12.062   6.077  1.00 20.00     0.292 C 
HETATM    3  N8  UNL     1     -39.153  11.701   3.529  1.00 20.00    -0.195 NA
ENDROOT
BRANCH   2   4
HETATM    4  O9  UNL     1     -41.055  12.016   6.318  1.00 20.00    -0.367 OA
BRANCH   4   5
HETATM    5  C7  UNL     1     -41.537  13.269   6.809  1.00 20.00     0.054 C 
HETATM    6  C3  UNL     1     -41.951  14.107   5.598  1.00 20.00     0.045 C 
HETATM    7  C4  UNL     1     -42.760  12.992   7.688  1.00 20.00     0.045 C 
BRANCH   5   8
HETATM    8  C6  UNL     1     -40.434  13.949   7.643  1.00 20.00     0.033 C 
HETATM    9  C2  UNL     1     -40.463  15.474   7.609  1.00 20.00     0.008 C 
ENDBRANCH   5   8
ENDBRANCH   4   5
ENDBRANCH   2   4
TORSDOF 3
ENDMDL
