MODEL 1
REMARK VINA RESULT:      -3.7      0.000      0.000
REMARK  1 active torsions:
REMARK  status: ('A' for Active; 'I' for Inactive)
REMARK    1  A    between atoms: C9_9  and  O10_10 
ROOT
HETATM    1  C1  UNL     1     -43.349   5.183   1.983  1.00 20.00     0.001 C 
HETATM    2  C2  UNL     1     -43.415   6.700   2.140  1.00 20.00     0.005 C 
HETATM    3  C3  UNL     1     -42.026   4.637   1.459  1.00 20.00     0.007 C 
HETATM    4  C4  UNL     1     -41.534   7.858   0.887  1.00 20.00     0.005 C 
HETATM    5  C5  UNL     1     -40.642   6.631   0.710  1.00 20.00     0.007 C 
HETATM    6  C6  UNL     1     -43.417   6.827  -0.420  1.00 20.00     0.036 C 
HETATM    7  C7  UNL     1     -43.029   7.522   0.895  1.00 20.00    -0.012 C 
HETATM    8  C8  UNL     1     -41.406   5.378   0.257  1.00 20.00     0.014 C 
HETATM    9  C9  UNL     1     -42.415   5.742  -0.844  1.00 20.00     0.122 C 
ENDROOT
BRANCH   9  10
HETATM   10  O10 UNL     1     -43.107   4.573  -1.272  1.00 20.00    -0.395 OA
HETATM   11  H26 UNL     1     -42.506   4.097  -1.866  1.00 20.00     0.210 HD
ENDBRANCH   9  10
TORSDOF 1
ENDMDL
MODEL 2
REMARK VINA RESULT:      -3.6      1.561      3.087
REMARK  1 active torsions:
REMARK  status: ('A' for Active; 'I' for Inactive)
REMARK    1  A    between atoms: C9_9  and  O10_10 
ROOT
HETATM    1  C1  UNL     1     -40.440   6.945  -0.213  1.00 20.00     0.001 C 
HETATM    2  C2  UNL     1     -40.801   5.480  -0.449  1.00 20.00     0.005 C 
HETATM    3  C3  UNL     1     -41.011   7.562   1.059  1.00 20.00     0.007 C 
HETATM    4  C4  UNL     1     -42.739   4.742   1.017  1.00 20.00     0.005 C 
HETATM    5  C5  UNL     1     -42.668   5.893   2.017  1.00 20.00     0.007 C 
HETATM    6  C6  UNL     1     -43.190   6.287  -0.914  1.00 20.00     0.036 C 
HETATM    7  C7  UNL     1     -42.304   5.142  -0.397  1.00 20.00    -0.012 C 
HETATM    8  C8  UNL     1     -42.495   7.269   1.358  1.00 20.00     0.014 C 
HETATM    9  C9  UNL     1     -43.416   7.389   0.134  1.00 20.00     0.122 C 
ENDROOT
BRANCH   9  10
HETATM   10  O10 UNL     1     -43.264   8.673  -0.464  1.00 20.00    -0.395 OA
HETATM   11  H26 UNL     1     -42.991   8.521  -1.381  1.00 20.00     0.210 HD
ENDBRANCH   9  10
TORSDOF 1
ENDMDL
MODEL 3
REMARK VINA RESULT:      -3.6     12.496     13.813
REMARK  1 active torsions:
REMARK  status: ('A' for Active; 'I' for Inactive)
REMARK    1  A    between atoms: C9_9  and  O10_10 
ROOT
HETATM    1  C1  UNL     1     -33.870  16.219  -3.775  1.00 20.00     0.001 C 
HETATM    2  C2  UNL     1     -34.222  17.450  -4.608  1.00 20.00     0.005 C 
HETATM    3  C3  UNL     1     -33.450  14.989  -4.572  1.00 20.00     0.007 C 
HETATM    4  C4  UNL     1     -34.597  16.858  -7.048  1.00 20.00     0.005 C 
HETATM    5  C5  UNL     1     -33.921  15.490  -7.017  1.00 20.00     0.007 C 
HETATM    6  C6  UNL     1     -36.321  16.179  -5.350  1.00 20.00     0.036 C 
HETATM    7  C7  UNL     1     -35.265  17.232  -5.721  1.00 20.00    -0.012 C 
HETATM    8  C8  UNL     1     -34.313  14.639  -5.800  1.00 20.00     0.014 C 
HETATM    9  C9  UNL     1     -35.827  14.737  -5.552  1.00 20.00     0.122 C 
ENDROOT
BRANCH   9  10
HETATM   10  O10 UNL     1     -36.188  13.933  -4.434  1.00 20.00    -0.395 OA
HETATM   11  H26 UNL     1     -36.107  13.009  -4.719  1.00 20.00     0.210 HD
ENDBRANCH   9  10
TORSDOF 1
ENDMDL
MODEL 4
REMARK VINA RESULT:      -3.5     12.794     14.232
REMARK  1 active torsions:
REMARK  status: ('A' for Active; 'I' for Inactive)
REMARK    1  A    between atoms: C9_9  and  O10_10 
ROOT
HETATM    1  C1  UNL     1     -33.677  16.595  -3.981  1.00 20.00     0.001 C 
HETATM    2  C2  UNL     1     -33.908  15.086  -3.970  1.00 20.00     0.005 C 
HETATM    3  C3  UNL     1     -34.857  17.434  -4.459  1.00 20.00     0.007 C 
HETATM    4  C4  UNL     1     -35.945  14.437  -5.339  1.00 20.00     0.005 C 
HETATM    5  C5  UNL     1     -36.580  15.824  -5.403  1.00 20.00     0.007 C 
HETATM    6  C6  UNL     1     -33.868  15.199  -6.531  1.00 20.00     0.036 C 
HETATM    7  C7  UNL     1     -34.414  14.475  -5.291  1.00 20.00    -0.012 C 
HETATM    8  C8  UNL     1     -35.578  16.943  -5.729  1.00 20.00     0.014 C 
HETATM    9  C9  UNL     1     -34.632  16.493  -6.854  1.00 20.00     0.122 C 
ENDROOT
BRANCH   9  10
HETATM   10  O10 UNL     1     -33.717  17.540  -7.165  1.00 20.00    -0.395 OA
HETATM   11  H26 UNL     1     -34.193  18.163  -7.735  1.00 20.00     0.210 HD
ENDBRANCH   9  10
TORSDOF 1
ENDMDL
MODEL 5
REMARK VINA RESULT:      -3.4     12.184     13.445
REMARK  1 active torsions:
REMARK  status: ('A' for Active; 'I' for Inactive)
REMARK    1  A    between atoms: C9_9  and  O10_10 
ROOT
HETATM    1  C1  UNL     1     -35.370  13.757  -4.613  1.00 20.00     0.001 C 
HETATM    2  C2  UNL     1     -36.679  14.483  -4.914  1.00 20.00     0.005 C 
HETATM    3  C3  UNL     1     -34.206  14.652  -4.205  1.00 20.00     0.007 C 
HETATM    4  C4  UNL     1     -36.318  16.974  -5.247  1.00 20.00     0.005 C 
HETATM    5  C5  UNL     1     -34.935  17.052  -4.606  1.00 20.00     0.007 C 
HETATM    6  C6  UNL     1     -35.537  15.380  -7.026  1.00 20.00     0.036 C 
HETATM    7  C7  UNL     1     -36.590  15.632  -5.936  1.00 20.00    -0.012 C 
HETATM    8  C8  UNL     1     -33.990  15.925  -5.048  1.00 20.00     0.014 C 
HETATM    9  C9  UNL     1     -34.106  15.701  -6.564  1.00 20.00     0.122 C 
ENDROOT
BRANCH   9  10
HETATM   10  O10 UNL     1     -33.215  14.667  -6.971  1.00 20.00    -0.395 OA
HETATM   11  H26 UNL     1     -33.331  14.563  -7.928  1.00 20.00     0.210 HD
ENDBRANCH   9  10
TORSDOF 1
ENDMDL
MODEL 6
REMARK VINA RESULT:      -3.4     12.897     14.150
REMARK  1 active torsions:
REMARK  status: ('A' for Active; 'I' for Inactive)
REMARK    1  A    between atoms: C9_9  and  O10_10 
ROOT
HETATM    1  C1  UNL     1     -34.218  16.274  -7.479  1.00 20.00     0.001 C 
HETATM    2  C2  UNL     1     -34.583  17.567  -6.754  1.00 20.00     0.005 C 
HETATM    3  C3  UNL     1     -35.212  15.130  -7.318  1.00 20.00     0.007 C 
HETATM    4  C4  UNL     1     -36.393  17.188  -5.013  1.00 20.00     0.005 C 
HETATM    5  C5  UNL     1     -36.877  15.838  -5.535  1.00 20.00     0.007 C 
HETATM    6  C6  UNL     1     -34.076  16.323  -4.570  1.00 20.00     0.036 C 
HETATM    7  C7  UNL     1     -34.898  17.428  -5.252  1.00 20.00    -0.012 C 
HETATM    8  C8  UNL     1     -35.737  14.873  -5.891  1.00 20.00     0.014 C 
HETATM    9  C9  UNL     1     -34.649  14.917  -4.805  1.00 20.00     0.122 C 
ENDROOT
BRANCH   9  10
HETATM   10  O10 UNL     1     -33.602  14.007  -5.131  1.00 20.00    -0.395 OA
HETATM   11  H26 UNL     1     -33.281  14.259  -6.011  1.00 20.00     0.210 HD
ENDBRANCH   9  10
TORSDOF 1
ENDMDL
MODEL 7
REMARK VINA RESULT:      -3.4      1.732      2.969
REMARK  1 active torsions:
REMARK  status: ('A' for Active; 'I' for Inactive)
REMARK    1  A    between atoms: C9_9  and  O10_10 
ROOT
HETATM    1  C1  UNL     1     -42.142   5.023  -0.569  1.00 20.00     0.001 C 
HETATM    2  C2  UNL     1     -40.853   5.806  -0.808  1.00 20.00     0.005 C 
HETATM    3  C3  UNL     1     -43.417   5.857  -0.531  1.00 20.00     0.007 C 
HETATM    4  C4  UNL     1     -41.184   8.296  -0.434  1.00 20.00     0.005 C 
HETATM    5  C5  UNL     1     -42.709   8.297  -0.505  1.00 20.00     0.007 C 
HETATM    6  C6  UNL     1     -41.157   6.757   1.553  1.00 20.00     0.036 C 
HETATM    7  C7  UNL     1     -40.607   6.997   0.139  1.00 20.00    -0.012 C 
HETATM    8  C8  UNL     1     -43.362   7.159   0.294  1.00 20.00     0.014 C 
HETATM    9  C9  UNL     1     -42.670   7.007   1.658  1.00 20.00     0.122 C 
ENDROOT
BRANCH   9  10
HETATM   10  O10 UNL     1     -43.290   5.962   2.402  1.00 20.00    -0.395 OA
HETATM   11  H26 UNL     1     -44.213   5.922   2.107  1.00 20.00     0.210 HD
ENDBRANCH   9  10
TORSDOF 1
ENDMDL
MODEL 8
REMARK VINA RESULT:      -3.4     14.510     15.484
REMARK  1 active torsions:
REMARK  status: ('A' for Active; 'I' for Inactive)
REMARK    1  A    between atoms: C9_9  and  O10_10 
ROOT
HETATM    1  C1  UNL     1     -33.202  16.337  -3.248  1.00 20.00     0.001 C 
HETATM    2  C2  UNL     1     -34.041  16.798  -4.437  1.00 20.00     0.005 C 
HETATM    3  C3  UNL     1     -33.685  16.815  -1.883  1.00 20.00     0.007 C 
HETATM    4  C4  UNL     1     -35.584  18.716  -3.812  1.00 20.00     0.005 C 
HETATM    5  C5  UNL     1     -35.509  18.532  -2.298  1.00 20.00     0.007 C 
HETATM    6  C6  UNL     1     -33.115  19.149  -4.002  1.00 20.00     0.036 C 
HETATM    7  C7  UNL     1     -34.292  18.316  -4.533  1.00 20.00    -0.012 C 
HETATM    8  C8  UNL     1     -34.083  18.300  -1.777  1.00 20.00     0.014 C 
HETATM    9  C9  UNL     1     -33.105  19.263  -2.469  1.00 20.00     0.122 C 
ENDROOT
BRANCH   9  10
HETATM   10  O10 UNL     1     -31.787  19.056  -1.970  1.00 20.00    -0.395 OA
HETATM   11  H26 UNL     1     -31.583  18.118  -2.107  1.00 20.00     0.210 HD
ENDBRANCH   9  10
TORSDOF 1
ENDMDL
MODEL 9
REMARK VINA RESULT:      -3.3     12.613     13.890
REMARK  1 active torsions:
REMARK  status: ('A' for Active; 'I' for Inactive)
REMARK    1  A    between atoms: C9_9  and  O10_10 
ROOT
HETATM    1  C1  UNL     1     -36.872  15.831  -5.623  1.00 20.00     0.001 C 
HETATM    2  C2  UNL     1     -36.339  17.108  -4.978  1.00 20.00     0.005 C 
HETATM    3  C3  UNL     1     -36.052  14.573  -5.358  1.00 20.00     0.007 C 
HETATM    4  C4  UNL     1     -33.934  16.840  -4.209  1.00 20.00     0.005 C 
HETATM    5  C5  UNL     1     -33.895  15.314  -4.239  1.00 20.00     0.007 C 
HETATM    6  C6  UNL     1     -34.417  16.996  -6.671  1.00 20.00     0.036 C 
HETATM    7  C7  UNL     1     -34.863  17.441  -5.269  1.00 20.00    -0.012 C 
HETATM    8  C8  UNL     1     -34.523  14.709  -5.503  1.00 20.00     0.014 C 
HETATM    9  C9  UNL     1     -34.078  15.499  -6.744  1.00 20.00     0.122 C 
ENDROOT
BRANCH   9  10
HETATM   10  O10 UNL     1     -34.648  14.923  -7.916  1.00 20.00    -0.395 OA
HETATM   11  H26 UNL     1     -34.720  15.636  -8.568  1.00 20.00     0.210 HD
ENDBRANCH   9  10
TORSDOF 1
ENDMDL
