MODEL 1
REMARK VINA RESULT:      -4.7      0.000      0.000
REMARK  3 active torsions:
REMARK  status: ('A' for Active; 'I' for Inactive)
REMARK    1  A    between atoms: C1_1  and  C7_7 
REMARK    2  A    between atoms: C1_1  and  C9_9 
REMARK    3  A    between atoms: C8_8  and  C9_9 
ROOT
HETATM    1  C1  UNL     1     -33.799   6.964   5.947  1.00 20.00     0.131 C 
HETATM    2  O10 UNL     1     -32.978   6.977   6.863  1.00 20.00    -0.298 OA
ENDROOT
BRANCH   1   3
HETATM    3  C7  UNL     1     -34.800   5.845   5.816  1.00 20.00     0.055 A 
HETATM    4  C3  UNL     1     -35.534   5.709   4.532  1.00 20.00     0.013 A 
HETATM    5  C4  UNL     1     -34.471   4.719   4.904  1.00 20.00     0.013 A 
ENDBRANCH   1   3
BRANCH   1   6
HETATM    6  C9  UNL     1     -33.871   8.055   4.892  1.00 20.00     0.083 C 
BRANCH   6   7
HETATM    7  C8  UNL     1     -32.650   8.083   3.996  1.00 20.00    -0.008 C 
HETATM    8  C5  UNL     1     -32.730   8.994   2.742  1.00 20.00     0.005 C 
HETATM    9  C2  UNL     1     -31.924   7.909   1.996  1.00 20.00     0.001 C 
HETATM   10  C6  UNL     1     -32.482   6.894   3.015  1.00 20.00     0.005 C 
ENDBRANCH   6   7
ENDBRANCH   1   6
TORSDOF 3
ENDMDL
MODEL 2
REMARK VINA RESULT:      -4.7      1.211      3.733
REMARK  3 active torsions:
REMARK  status: ('A' for Active; 'I' for Inactive)
REMARK    1  A    between atoms: C1_1  and  C7_7 
REMARK    2  A    between atoms: C1_1  and  C9_9 
REMARK    3  A    between atoms: C8_8  and  C9_9 
ROOT
HETATM    1  C1  UNL     1     -32.691   8.355   4.410  1.00 20.00     0.131 C 
HETATM    2  O10 UNL     1     -32.169   9.160   5.180  1.00 20.00    -0.298 OA
ENDROOT
BRANCH   1   3
HETATM    3  C7  UNL     1     -31.863   7.584   3.414  1.00 20.00     0.055 A 
HETATM    4  C3  UNL     1     -32.505   6.452   2.698  1.00 20.00     0.013 A 
HETATM    5  C4  UNL     1     -32.195   7.727   1.973  1.00 20.00     0.013 A 
ENDBRANCH   1   3
BRANCH   1   6
HETATM    6  C9  UNL     1     -34.184   8.077   4.399  1.00 20.00     0.083 C 
BRANCH   6   7
HETATM    7  C8  UNL     1     -34.618   7.163   5.526  1.00 20.00    -0.008 C 
HETATM    8  C5  UNL     1     -33.490   6.560   6.405  1.00 20.00     0.005 C 
HETATM    9  C2  UNL     1     -34.334   5.270   6.472  1.00 20.00     0.001 C 
HETATM   10  C6  UNL     1     -34.976   5.705   5.139  1.00 20.00     0.005 C 
ENDBRANCH   6   7
ENDBRANCH   1   6
TORSDOF 3
ENDMDL
MODEL 3
REMARK VINA RESULT:      -4.4      1.428      2.388
REMARK  3 active torsions:
REMARK  status: ('A' for Active; 'I' for Inactive)
REMARK    1  A    between atoms: C1_1  and  C7_7 
REMARK    2  A    between atoms: C1_1  and  C9_9 
REMARK    3  A    between atoms: C8_8  and  C9_9 
ROOT
HETATM    1  C1  UNL     1     -32.690   8.281   4.545  1.00 20.00     0.131 C 
HETATM    2  O10 UNL     1     -32.142   9.196   5.156  1.00 20.00    -0.298 OA
ENDROOT
BRANCH   1   3
HETATM    3  C7  UNL     1     -34.015   7.726   5.001  1.00 20.00     0.055 A 
HETATM    4  C3  UNL     1     -34.225   6.258   4.917  1.00 20.00     0.013 A 
HETATM    5  C4  UNL     1     -34.041   6.921   6.249  1.00 20.00     0.013 A 
ENDBRANCH   1   3
BRANCH   1   6
HETATM    6  C9  UNL     1     -32.087   7.643   3.305  1.00 20.00     0.083 C 
BRANCH   6   7
HETATM    7  C8  UNL     1     -32.772   8.086   2.028  1.00 20.00    -0.008 C 
HETATM    8  C5  UNL     1     -31.898   8.119   0.746  1.00 20.00     0.005 C 
HETATM    9  C2  UNL     1     -32.681   9.383   0.335  1.00 20.00     0.001 C 
HETATM   10  C6  UNL     1     -32.959   9.613   1.835  1.00 20.00     0.005 C 
ENDBRANCH   6   7
ENDBRANCH   1   6
TORSDOF 3
ENDMDL
MODEL 4
REMARK VINA RESULT:      -4.2      1.636      4.365
REMARK  3 active torsions:
REMARK  status: ('A' for Active; 'I' for Inactive)
REMARK    1  A    between atoms: C1_1  and  C7_7 
REMARK    2  A    between atoms: C1_1  and  C9_9 
REMARK    3  A    between atoms: C8_8  and  C9_9 
ROOT
HETATM    1  C1  UNL     1     -32.378   7.387   2.920  1.00 20.00     0.131 C 
HETATM    2  O10 UNL     1     -32.508   6.227   2.531  1.00 20.00    -0.298 OA
ENDROOT
BRANCH   1   3
HETATM    3  C7  UNL     1     -31.941   8.478   1.977  1.00 20.00     0.055 A 
HETATM    4  C3  UNL     1     -32.469   8.456   0.589  1.00 20.00     0.013 A 
HETATM    5  C4  UNL     1     -32.950   9.488   1.565  1.00 20.00     0.013 A 
ENDBRANCH   1   3
BRANCH   1   6
HETATM    6  C9  UNL     1     -32.641   7.806   4.356  1.00 20.00     0.083 C 
BRANCH   6   7
HETATM    7  C8  UNL     1     -33.948   7.264   4.894  1.00 20.00    -0.008 C 
HETATM    8  C5  UNL     1     -33.981   6.897   6.402  1.00 20.00     0.005 C 
HETATM    9  C2  UNL     1     -34.886   5.708   6.016  1.00 20.00     0.001 C 
HETATM   10  C6  UNL     1     -34.248   5.769   4.613  1.00 20.00     0.005 C 
ENDBRANCH   6   7
ENDBRANCH   1   6
TORSDOF 3
ENDMDL
MODEL 5
REMARK VINA RESULT:      -4.2      1.671      4.095
REMARK  3 active torsions:
REMARK  status: ('A' for Active; 'I' for Inactive)
REMARK    1  A    between atoms: C1_1  and  C7_7 
REMARK    2  A    between atoms: C1_1  and  C9_9 
REMARK    3  A    between atoms: C8_8  and  C9_9 
ROOT
HETATM    1  C1  UNL     1     -33.158   6.377   3.210  1.00 20.00     0.131 C 
HETATM    2  O10 UNL     1     -32.856   5.263   2.786  1.00 20.00    -0.298 OA
ENDROOT
BRANCH   1   3
HETATM    3  C7  UNL     1     -32.126   7.469   3.332  1.00 20.00     0.055 A 
HETATM    4  C3  UNL     1     -32.559   8.871   3.102  1.00 20.00     0.013 A 
HETATM    5  C4  UNL     1     -32.228   8.398   4.486  1.00 20.00     0.013 A 
ENDBRANCH   1   3
BRANCH   1   6
HETATM    6  C9  UNL     1     -34.570   6.739   3.638  1.00 20.00     0.083 C 
BRANCH   6   7
HETATM    7  C8  UNL     1     -34.996   6.031   4.907  1.00 20.00    -0.008 C 
HETATM    8  C5  UNL     1     -34.385   6.554   6.234  1.00 20.00     0.005 C 
HETATM    9  C2  UNL     1     -34.341   5.086   6.706  1.00 20.00     0.001 C 
HETATM   10  C6  UNL     1     -34.296   4.683   5.218  1.00 20.00     0.005 C 
ENDBRANCH   6   7
ENDBRANCH   1   6
TORSDOF 3
ENDMDL
MODEL 6
REMARK VINA RESULT:      -4.0      9.163     10.354
REMARK  3 active torsions:
REMARK  status: ('A' for Active; 'I' for Inactive)
REMARK    1  A    between atoms: C1_1  and  C7_7 
REMARK    2  A    between atoms: C1_1  and  C9_9 
REMARK    3  A    between atoms: C8_8  and  C9_9 
ROOT
HETATM    1  C1  UNL     1     -40.846  13.003   5.245  1.00 20.00     0.131 C 
HETATM    2  O10 UNL     1     -41.141  13.567   4.193  1.00 20.00    -0.298 OA
ENDROOT
BRANCH   1   3
HETATM    3  C7  UNL     1     -39.908  11.823   5.257  1.00 20.00     0.055 A 
HETATM    4  C3  UNL     1     -38.989  11.648   4.103  1.00 20.00     0.013 A 
HETATM    5  C4  UNL     1     -38.458  12.088   5.435  1.00 20.00     0.013 A 
ENDBRANCH   1   3
BRANCH   1   6
HETATM    6  C9  UNL     1     -41.393  13.439   6.593  1.00 20.00     0.083 C 
BRANCH   6   7
HETATM    7  C8  UNL     1     -40.562  14.528   7.237  1.00 20.00    -0.008 C 
HETATM    8  C5  UNL     1     -40.308  14.398   8.763  1.00 20.00     0.005 C 
HETATM    9  C2  UNL     1     -40.431  15.934   8.839  1.00 20.00     0.001 C 
HETATM   10  C6  UNL     1     -41.292  15.858   7.562  1.00 20.00     0.005 C 
ENDBRANCH   6   7
ENDBRANCH   1   6
TORSDOF 3
ENDMDL
MODEL 7
REMARK VINA RESULT:      -3.9     11.785     12.609
REMARK  3 active torsions:
REMARK  status: ('A' for Active; 'I' for Inactive)
REMARK    1  A    between atoms: C1_1  and  C7_7 
REMARK    2  A    between atoms: C1_1  and  C9_9 
REMARK    3  A    between atoms: C8_8  and  C9_9 
ROOT
HETATM    1  C1  UNL     1     -33.361  16.695  -3.449  1.00 20.00     0.131 C 
HETATM    2  O10 UNL     1     -33.419  17.734  -4.105  1.00 20.00    -0.298 OA
ENDROOT
BRANCH   1   3
HETATM    3  C7  UNL     1     -33.116  15.367  -4.118  1.00 20.00     0.055 A 
HETATM    4  C3  UNL     1     -34.212  14.364  -4.104  1.00 20.00     0.013 A 
HETATM    5  C4  UNL     1     -33.852  15.074  -5.375  1.00 20.00     0.013 A 
ENDBRANCH   1   3
BRANCH   1   6
HETATM    6  C9  UNL     1     -33.529  16.665  -1.939  1.00 20.00     0.083 C 
BRANCH   6   7
HETATM    7  C8  UNL     1     -33.325  18.023  -1.301  1.00 20.00    -0.008 C 
HETATM    8  C5  UNL     1     -31.885  18.360  -0.828  1.00 20.00     0.005 C 
HETATM    9  C2  UNL     1     -32.529  19.085   0.372  1.00 20.00     0.001 C 
HETATM   10  C6  UNL     1     -33.750  18.162   0.184  1.00 20.00     0.005 C 
ENDBRANCH   6   7
ENDBRANCH   1   6
TORSDOF 3
ENDMDL
MODEL 8
REMARK VINA RESULT:      -3.8     15.265     16.417
REMARK  3 active torsions:
REMARK  status: ('A' for Active; 'I' for Inactive)
REMARK    1  A    between atoms: C1_1  and  C7_7 
REMARK    2  A    between atoms: C1_1  and  C9_9 
REMARK    3  A    between atoms: C8_8  and  C9_9 
ROOT
HETATM    1  C1  UNL     1     -22.630  18.059   9.678  1.00 20.00     0.131 C 
HETATM    2  O10 UNL     1     -22.403  17.056   9.005  1.00 20.00    -0.298 OA
ENDROOT
BRANCH   1   3
HETATM    3  C7  UNL     1     -23.308  19.262   9.076  1.00 20.00     0.055 A 
HETATM    4  C3  UNL     1     -23.721  19.192   7.650  1.00 20.00     0.013 A 
HETATM    5  C4  UNL     1     -24.751  19.152   8.739  1.00 20.00     0.013 A 
ENDBRANCH   1   3
BRANCH   1   6
HETATM    6  C9  UNL     1     -22.251  18.168  11.146  1.00 20.00     0.083 C 
BRANCH   6   7
HETATM    7  C8  UNL     1     -23.314  17.610  12.068  1.00 20.00    -0.008 C 
HETATM    8  C5  UNL     1     -24.295  16.577  11.452  1.00 20.00     0.005 C 
HETATM    9  C2  UNL     1     -25.397  17.215  12.324  1.00 20.00     0.001 C 
HETATM   10  C6  UNL     1     -24.554  18.507  12.319  1.00 20.00     0.005 C 
ENDBRANCH   6   7
ENDBRANCH   1   6
TORSDOF 3
ENDMDL
MODEL 9
REMARK VINA RESULT:      -3.8      9.151     10.200
REMARK  3 active torsions:
REMARK  status: ('A' for Active; 'I' for Inactive)
REMARK    1  A    between atoms: C1_1  and  C7_7 
REMARK    2  A    between atoms: C1_1  and  C9_9 
REMARK    3  A    between atoms: C8_8  and  C9_9 
ROOT
HETATM    1  C1  UNL     1     -41.877  13.470   7.492  1.00 20.00     0.131 C 
HETATM    2  O10 UNL     1     -42.395  12.536   8.101  1.00 20.00    -0.298 OA
ENDROOT
BRANCH   1   3
HETATM    3  C7  UNL     1     -41.540  14.763   8.191  1.00 20.00     0.055 A 
HETATM    4  C3  UNL     1     -40.272  14.831   8.962  1.00 20.00     0.013 A 
HETATM    5  C4  UNL     1     -40.408  15.566   7.662  1.00 20.00     0.013 A 
ENDBRANCH   1   3
BRANCH   1   6
HETATM    6  C9  UNL     1     -41.540  13.401   6.012  1.00 20.00     0.083 C 
BRANCH   6   7
HETATM    7  C8  UNL     1     -40.573  12.283   5.684  1.00 20.00    -0.008 C 
HETATM    8  C5  UNL     1     -39.212  12.301   6.429  1.00 20.00     0.005 C 
HETATM    9  C2  UNL     1     -38.574  11.788   5.120  1.00 20.00     0.001 C 
HETATM   10  C6  UNL     1     -39.758  12.434   4.373  1.00 20.00     0.005 C 
ENDBRANCH   6   7
ENDBRANCH   1   6
TORSDOF 3
ENDMDL
