MODEL 1
REMARK VINA RESULT:      -3.7      0.000      0.000
REMARK  2 active torsions:
REMARK  status: ('A' for Active; 'I' for Inactive)
REMARK    1  A    between atoms: C1_1  and  C2_2 
REMARK    2  A    between atoms: C2_2  and  O3_3 
ROOT
HETATM    1  C2  UNL     1     -34.558   5.735   4.846  1.00 20.00     0.226 C 
HETATM    2 CL5  UNL     1     -34.474   5.389   6.592  1.00 20.00    -0.070 Cl
HETATM    3 CL6  UNL     1     -33.753   7.300   4.532  1.00 20.00    -0.070 Cl
ENDROOT
BRANCH   1   4
HETATM    4  C1  UNL     1     -33.883   4.649   4.012  1.00 20.00     0.187 C 
HETATM    5 CL4  UNL     1     -32.931   5.317   2.656  1.00 20.00    -0.125 Cl
ENDBRANCH   1   4
BRANCH   1   6
HETATM    6  O3  UNL     1     -35.920   5.863   4.466  1.00 20.00    -0.361 OA
HETATM    7  H9  UNL     1     -36.137   5.068   3.951  1.00 20.00     0.213 HD
ENDBRANCH   1   6
TORSDOF 2
ENDMDL
MODEL 2
REMARK VINA RESULT:      -3.6      1.078      2.319
REMARK  2 active torsions:
REMARK  status: ('A' for Active; 'I' for Inactive)
REMARK    1  A    between atoms: C1_1  and  C2_2 
REMARK    2  A    between atoms: C2_2  and  O3_3 
ROOT
HETATM    1  C2  UNL     1     -34.450   5.900   4.791  1.00 20.00     0.226 C 
HETATM    2 CL5  UNL     1     -33.601   4.868   3.612  1.00 20.00    -0.070 Cl
HETATM    3 CL6  UNL     1     -34.260   5.188   6.419  1.00 20.00    -0.070 Cl
ENDROOT
BRANCH   1   4
HETATM    4  C1  UNL     1     -33.907   7.327   4.801  1.00 20.00     0.187 C 
HETATM    5 CL4  UNL     1     -32.504   7.536   3.715  1.00 20.00    -0.125 Cl
ENDBRANCH   1   4
BRANCH   1   6
HETATM    6  O3  UNL     1     -35.836   5.910   4.481  1.00 20.00    -0.361 OA
HETATM    7  H9  UNL     1     -36.108   4.980   4.406  1.00 20.00     0.213 HD
ENDBRANCH   1   6
TORSDOF 2
ENDMDL
MODEL 3
REMARK VINA RESULT:      -3.4      1.600      1.634
REMARK  2 active torsions:
REMARK  status: ('A' for Active; 'I' for Inactive)
REMARK    1  A    between atoms: C1_1  and  C2_2 
REMARK    2  A    between atoms: C2_2  and  O3_3 
ROOT
HETATM    1  C2  UNL     1     -34.476   5.674   4.803  1.00 20.00     0.226 C 
HETATM    2 CL5  UNL     1     -34.411   6.165   6.515  1.00 20.00    -0.070 Cl
HETATM    3 CL6  UNL     1     -36.084   6.092   4.146  1.00 20.00    -0.070 Cl
ENDROOT
BRANCH   1   4
HETATM    4  C1  UNL     1     -33.399   6.362   3.967  1.00 20.00     0.187 C 
HETATM    5 CL4  UNL     1     -32.854   5.360   2.592  1.00 20.00    -0.125 Cl
ENDBRANCH   1   4
BRANCH   1   6
HETATM    6  O3  UNL     1     -34.326   4.264   4.721  1.00 20.00    -0.361 OA
HETATM    7  H9  UNL     1     -33.449   4.059   5.088  1.00 20.00     0.213 HD
ENDBRANCH   1   6
TORSDOF 2
ENDMDL
MODEL 4
REMARK VINA RESULT:      -3.1     17.291     17.856
REMARK  2 active torsions:
REMARK  status: ('A' for Active; 'I' for Inactive)
REMARK    1  A    between atoms: C1_1  and  C2_2 
REMARK    2  A    between atoms: C2_2  and  O3_3 
ROOT
HETATM    1  C2  UNL     1     -22.633  17.632   9.698  1.00 20.00     0.226 C 
HETATM    2 CL5  UNL     1     -23.977  16.848  10.567  1.00 20.00    -0.070 Cl
HETATM    3 CL6  UNL     1     -23.309  18.659   8.402  1.00 20.00    -0.070 Cl
ENDROOT
BRANCH   1   4
HETATM    4  C1  UNL     1     -21.774  18.492  10.623  1.00 20.00     0.187 C 
HETATM    5 CL4  UNL     1     -22.290  18.390  12.330  1.00 20.00    -0.125 Cl
ENDBRANCH   1   4
BRANCH   1   6
HETATM    6  O3  UNL     1     -21.832  16.631   9.086  1.00 20.00    -0.361 OA
HETATM    7  H9  UNL     1     -22.122  16.576   8.159  1.00 20.00     0.213 HD
ENDBRANCH   1   6
TORSDOF 2
ENDMDL
MODEL 5
REMARK VINA RESULT:      -3.1     13.085     13.655
REMARK  2 active torsions:
REMARK  status: ('A' for Active; 'I' for Inactive)
REMARK    1  A    between atoms: C1_1  and  C2_2 
REMARK    2  A    between atoms: C2_2  and  O3_3 
ROOT
HETATM    1  C2  UNL     1     -34.270  14.923  -5.322  1.00 20.00     0.226 C 
HETATM    2 CL5  UNL     1     -35.910  14.229  -5.264  1.00 20.00    -0.070 Cl
HETATM    3 CL6  UNL     1     -33.815  15.180  -7.031  1.00 20.00    -0.070 Cl
ENDROOT
BRANCH   1   4
HETATM    4  C1  UNL     1     -34.181  16.252  -4.575  1.00 20.00     0.187 C 
HETATM    5 CL4  UNL     1     -33.404  16.089  -2.974  1.00 20.00    -0.125 Cl
ENDBRANCH   1   4
BRANCH   1   6
HETATM    6  O3  UNL     1     -33.354  13.991  -4.764  1.00 20.00    -0.361 OA
HETATM    7  H9  UNL     1     -32.464  14.328  -4.964  1.00 20.00     0.213 HD
ENDBRANCH   1   6
TORSDOF 2
ENDMDL
MODEL 6
REMARK VINA RESULT:      -3.1      1.502      1.976
REMARK  2 active torsions:
REMARK  status: ('A' for Active; 'I' for Inactive)
REMARK    1  A    between atoms: C1_1  and  C2_2 
REMARK    2  A    between atoms: C2_2  and  O3_3 
ROOT
HETATM    1  C2  UNL     1     -34.466   5.853   4.731  1.00 20.00     0.226 C 
HETATM    2 CL5  UNL     1     -36.111   6.162   4.120  1.00 20.00    -0.070 Cl
HETATM    3 CL6  UNL     1     -34.555   5.542   6.489  1.00 20.00    -0.070 Cl
ENDROOT
BRANCH   1   4
HETATM    4  C1  UNL     1     -33.813   4.656   4.043  1.00 20.00     0.187 C 
HETATM    5 CL4  UNL     1     -32.877   5.123   2.595  1.00 20.00    -0.125 Cl
ENDBRANCH   1   4
BRANCH   1   6
HETATM    6  O3  UNL     1     -33.674   7.016   4.535  1.00 20.00    -0.361 OA
HETATM    7  H9  UNL     1     -34.295   7.758   4.440  1.00 20.00     0.213 HD
ENDBRANCH   1   6
TORSDOF 2
ENDMDL
MODEL 7
REMARK VINA RESULT:      -3.1      1.737      2.502
REMARK  2 active torsions:
REMARK  status: ('A' for Active; 'I' for Inactive)
REMARK    1  A    between atoms: C1_1  and  C2_2 
REMARK    2  A    between atoms: C2_2  and  O3_3 
ROOT
HETATM    1  C2  UNL     1     -34.405   5.784   4.686  1.00 20.00     0.226 C 
HETATM    2 CL5  UNL     1     -36.056   6.131   4.112  1.00 20.00    -0.070 Cl
HETATM    3 CL6  UNL     1     -33.353   5.499   3.269  1.00 20.00    -0.070 Cl
ENDROOT
BRANCH   1   4
HETATM    4  C1  UNL     1     -33.831   6.931   5.514  1.00 20.00     0.187 C 
HETATM    5 CL4  UNL     1     -32.820   8.039   4.544  1.00 20.00    -0.125 Cl
ENDBRANCH   1   4
BRANCH   1   6
HETATM    6  O3  UNL     1     -34.425   4.591   5.458  1.00 20.00    -0.361 OA
HETATM    7  H9  UNL     1     -33.552   4.522   5.880  1.00 20.00     0.213 HD
ENDBRANCH   1   6
TORSDOF 2
ENDMDL
MODEL 8
REMARK VINA RESULT:      -3.0      8.865      9.500
REMARK  2 active torsions:
REMARK  status: ('A' for Active; 'I' for Inactive)
REMARK    1  A    between atoms: C1_1  and  C2_2 
REMARK    2  A    between atoms: C2_2  and  O3_3 
ROOT
HETATM    1  C2  UNL     1     -40.697  12.761   6.330  1.00 20.00     0.226 C 
HETATM    2 CL5  UNL     1     -40.395  14.009   7.565  1.00 20.00    -0.070 Cl
HETATM    3 CL6  UNL     1     -41.245  13.560   4.828  1.00 20.00    -0.070 Cl
ENDROOT
BRANCH   1   4
HETATM    4  C1  UNL     1     -39.450  11.933   6.031  1.00 20.00     0.187 C 
HETATM    5 CL4  UNL     1     -39.179  11.707   4.280  1.00 20.00    -0.125 Cl
ENDBRANCH   1   4
BRANCH   1   6
HETATM    6  O3  UNL     1     -41.746  11.913   6.777  1.00 20.00    -0.361 OA
HETATM    7  H9  UNL     1     -41.623  11.807   7.736  1.00 20.00     0.213 HD
ENDBRANCH   1   6
TORSDOF 2
ENDMDL
MODEL 9
REMARK VINA RESULT:      -3.0      2.951      3.814
REMARK  2 active torsions:
REMARK  status: ('A' for Active; 'I' for Inactive)
REMARK    1  A    between atoms: C1_1  and  C2_2 
REMARK    2  A    between atoms: C2_2  and  O3_3 
ROOT
HETATM    1  C2  UNL     1     -32.688   7.908   3.809  1.00 20.00     0.226 C 
HETATM    2 CL5  UNL     1     -32.610   6.300   3.045  1.00 20.00    -0.070 Cl
HETATM    3 CL6  UNL     1     -32.786   9.149   2.527  1.00 20.00    -0.070 Cl
ENDROOT
BRANCH   1   4
HETATM    4  C1  UNL     1     -33.895   8.047   4.734  1.00 20.00     0.187 C 
HETATM    5 CL4  UNL     1     -33.783   6.991   6.171  1.00 20.00    -0.125 Cl
ENDBRANCH   1   4
BRANCH   1   6
HETATM    6  O3  UNL     1     -31.490   8.132   4.539  1.00 20.00    -0.361 OA
HETATM    7  H9  UNL     1     -30.771   7.739   4.014  1.00 20.00     0.213 HD
ENDBRANCH   1   6
TORSDOF 2
ENDMDL
