MODEL 1
REMARK VINA RESULT:      -4.6      0.000      0.000
REMARK  5 active torsions:
REMARK  status: ('A' for Active; 'I' for Inactive)
REMARK    1  A    between atoms: C3_3  and  C8_8 
REMARK    2  A    between atoms: C6_6  and  C7_7 
REMARK    3  A    between atoms: C7_7  and  C9_9 
REMARK    4  A    between atoms: C8_8  and  C9_9 
REMARK    5  A    between atoms: C8_8  and  O10_10 
ROOT
HETATM    1  C8  UNL     1     -33.093   7.195   4.864  1.00 20.00     0.126 C 
ENDROOT
BRANCH   1   2
HETATM    2  C3  UNL     1     -34.380   6.430   4.980  1.00 20.00     0.015 A 
HETATM    3  C1  UNL     1     -34.372   4.997   5.432  1.00 20.00     0.007 A 
HETATM    4  C2  UNL     1     -34.924   6.065   6.332  1.00 20.00     0.007 A 
ENDBRANCH   1   2
BRANCH   1   5
HETATM    5  C9  UNL     1     -32.418   7.119   3.473  1.00 20.00     0.011 C 
HETATM    6  C5  UNL     1     -32.872   5.898   2.660  1.00 20.00     0.012 C 
BRANCH   5   7
HETATM    7  C7  UNL     1     -32.608   8.437   2.694  1.00 20.00     0.006 C 
BRANCH   7   8
HETATM    8  C6  UNL     1     -32.111   8.363   1.246  1.00 20.00    -0.004 C 
HETATM    9  C4  UNL     1     -32.777   9.418   0.377  1.00 20.00     0.005 C 
ENDBRANCH   7   8
ENDBRANCH   5   7
ENDBRANCH   1   5
BRANCH   1  10
HETATM   10  O10 UNL     1     -33.336   8.569   5.177  1.00 20.00    -0.395 OA
HETATM   11  H28 UNL     1     -34.051   8.858   4.593  1.00 20.00     0.210 HD
ENDBRANCH   1  10
TORSDOF 5
ENDMDL
MODEL 2
REMARK VINA RESULT:      -4.5      1.192      1.662
REMARK  5 active torsions:
REMARK  status: ('A' for Active; 'I' for Inactive)
REMARK    1  A    between atoms: C3_3  and  C8_8 
REMARK    2  A    between atoms: C6_6  and  C7_7 
REMARK    3  A    between atoms: C7_7  and  C9_9 
REMARK    4  A    between atoms: C8_8  and  C9_9 
REMARK    5  A    between atoms: C8_8  and  O10_10 
ROOT
HETATM    1  C8  UNL     1     -33.156   7.024   5.094  1.00 20.00     0.126 C 
ENDROOT
BRANCH   1   2
HETATM    2  C3  UNL     1     -34.477   6.330   4.928  1.00 20.00     0.015 A 
HETATM    3  C1  UNL     1     -34.526   4.865   4.592  1.00 20.00     0.007 A 
HETATM    4  C2  UNL     1     -34.945   5.338   5.955  1.00 20.00     0.007 A 
ENDBRANCH   1   2
BRANCH   1   5
HETATM    5  C9  UNL     1     -33.006   8.334   4.284  1.00 20.00     0.011 C 
HETATM    6  C5  UNL     1     -32.109   9.365   4.985  1.00 20.00     0.012 C 
BRANCH   5   7
HETATM    7  C7  UNL     1     -32.536   8.043   2.844  1.00 20.00     0.006 C 
BRANCH   7   8
HETATM    8  C6  UNL     1     -32.791   9.203   1.876  1.00 20.00    -0.004 C 
HETATM    9  C4  UNL     1     -32.465   8.810   0.443  1.00 20.00     0.005 C 
ENDBRANCH   7   8
ENDBRANCH   5   7
ENDBRANCH   1   5
BRANCH   1  10
HETATM   10  O10 UNL     1     -32.954   7.319   6.478  1.00 20.00    -0.395 OA
HETATM   11  H28 UNL     1     -33.371   8.179   6.636  1.00 20.00     0.210 HD
ENDBRANCH   1  10
TORSDOF 5
ENDMDL
MODEL 3
REMARK VINA RESULT:      -4.5      1.974      3.995
REMARK  5 active torsions:
REMARK  status: ('A' for Active; 'I' for Inactive)
REMARK    1  A    between atoms: C3_3  and  C8_8 
REMARK    2  A    between atoms: C6_6  and  C7_7 
REMARK    3  A    between atoms: C7_7  and  C9_9 
REMARK    4  A    between atoms: C8_8  and  C9_9 
REMARK    5  A    between atoms: C8_8  and  O10_10 
ROOT
HETATM    1  C8  UNL     1     -32.527   7.071   3.306  1.00 20.00     0.126 C 
ENDROOT
BRANCH   1   2
HETATM    2  C3  UNL     1     -33.104   8.183   4.134  1.00 20.00     0.015 A 
HETATM    3  C1  UNL     1     -32.895   8.207   5.623  1.00 20.00     0.007 A 
HETATM    4  C2  UNL     1     -32.202   9.215   4.750  1.00 20.00     0.007 A 
ENDBRANCH   1   2
BRANCH   1   5
HETATM    5  C9  UNL     1     -33.525   5.942   2.953  1.00 20.00     0.011 C 
HETATM    6  C5  UNL     1     -32.835   4.586   2.744  1.00 20.00     0.012 C 
BRANCH   5   7
HETATM    7  C7  UNL     1     -34.659   5.859   3.996  1.00 20.00     0.006 C 
BRANCH   7   8
HETATM    8  C6  UNL     1     -34.429   4.778   5.057  1.00 20.00    -0.004 C 
HETATM    9  C4  UNL     1     -34.589   5.339   6.462  1.00 20.00     0.005 C 
ENDBRANCH   7   8
ENDBRANCH   5   7
ENDBRANCH   1   5
BRANCH   1  10
HETATM   10  O10 UNL     1     -32.007   7.616   2.091  1.00 20.00    -0.395 OA
HETATM   11  H28 UNL     1     -32.756   8.021   1.633  1.00 20.00     0.210 HD
ENDBRANCH   1  10
TORSDOF 5
ENDMDL
MODEL 4
REMARK VINA RESULT:      -4.4      1.470      1.904
REMARK  5 active torsions:
REMARK  status: ('A' for Active; 'I' for Inactive)
REMARK    1  A    between atoms: C3_3  and  C8_8 
REMARK    2  A    between atoms: C6_6  and  C7_7 
REMARK    3  A    between atoms: C7_7  and  C9_9 
REMARK    4  A    between atoms: C8_8  and  C9_9 
REMARK    5  A    between atoms: C8_8  and  O10_10 
ROOT
HETATM    1  C8  UNL     1     -33.842   6.819   4.264  1.00 20.00     0.126 C 
ENDROOT
BRANCH   1   2
HETATM    2  C3  UNL     1     -33.610   6.442   5.699  1.00 20.00     0.015 A 
HETATM    3  C1  UNL     1     -34.704   6.616   6.714  1.00 20.00     0.007 A 
HETATM    4  C2  UNL     1     -34.292   5.237   6.284  1.00 20.00     0.007 A 
ENDBRANCH   1   2
BRANCH   1   5
HETATM    5  C9  UNL     1     -32.984   8.005   3.759  1.00 20.00     0.011 C 
HETATM    6  C5  UNL     1     -32.309   8.776   4.903  1.00 20.00     0.012 C 
BRANCH   5   7
HETATM    7  C7  UNL     1     -31.968   7.539   2.697  1.00 20.00     0.006 C 
BRANCH   7   8
HETATM    8  C6  UNL     1     -32.206   8.160   1.317  1.00 20.00    -0.004 C 
HETATM    9  C4  UNL     1     -32.875   9.521   1.429  1.00 20.00     0.005 C 
ENDBRANCH   7   8
ENDBRANCH   5   7
ENDBRANCH   1   5
BRANCH   1  10
HETATM   10  O10 UNL     1     -33.581   5.684   3.434  1.00 20.00    -0.395 OA
HETATM   11  H28 UNL     1     -34.445   5.326   3.185  1.00 20.00     0.210 HD
ENDBRANCH   1  10
TORSDOF 5
ENDMDL
MODEL 5
REMARK VINA RESULT:      -4.3      1.902      4.086
REMARK  5 active torsions:
REMARK  status: ('A' for Active; 'I' for Inactive)
REMARK    1  A    between atoms: C3_3  and  C8_8 
REMARK    2  A    between atoms: C6_6  and  C7_7 
REMARK    3  A    between atoms: C7_7  and  C9_9 
REMARK    4  A    between atoms: C8_8  and  C9_9 
REMARK    5  A    between atoms: C8_8  and  O10_10 
ROOT
HETATM    1  C8  UNL     1     -32.900   7.231   3.318  1.00 20.00     0.126 C 
ENDROOT
BRANCH   1   2
HETATM    2  C3  UNL     1     -32.604   5.762   3.216  1.00 20.00     0.015 A 
HETATM    3  C1  UNL     1     -33.724   4.760   3.232  1.00 20.00     0.007 A 
HETATM    4  C2  UNL     1     -32.953   5.004   1.966  1.00 20.00     0.007 A 
ENDBRANCH   1   2
BRANCH   1   5
HETATM    5  C9  UNL     1     -32.723   7.830   4.734  1.00 20.00     0.011 C 
HETATM    6  C5  UNL     1     -32.135   9.248   4.707  1.00 20.00     0.012 C 
BRANCH   5   7
HETATM    7  C7  UNL     1     -34.043   7.767   5.530  1.00 20.00     0.006 C 
BRANCH   7   8
HETATM    8  C6  UNL     1     -34.018   6.739   6.665  1.00 20.00    -0.004 C 
HETATM    9  C4  UNL     1     -34.770   5.473   6.284  1.00 20.00     0.005 C 
ENDBRANCH   7   8
ENDBRANCH   5   7
ENDBRANCH   1   5
BRANCH   1  10
HETATM   10  O10 UNL     1     -32.053   7.942   2.413  1.00 20.00    -0.395 OA
HETATM   11  H28 UNL     1     -31.919   8.819   2.799  1.00 20.00     0.210 HD
ENDBRANCH   1  10
TORSDOF 5
ENDMDL
MODEL 6
REMARK VINA RESULT:      -4.3      1.841      4.276
REMARK  5 active torsions:
REMARK  status: ('A' for Active; 'I' for Inactive)
REMARK    1  A    between atoms: C3_3  and  C8_8 
REMARK    2  A    between atoms: C6_6  and  C7_7 
REMARK    3  A    between atoms: C7_7  and  C9_9 
REMARK    4  A    between atoms: C8_8  and  C9_9 
REMARK    5  A    between atoms: C8_8  and  O10_10 
ROOT
HETATM    1  C8  UNL     1     -32.899   6.489   3.624  1.00 20.00     0.126 C 
ENDROOT
BRANCH   1   2
HETATM    2  C3  UNL     1     -33.260   7.904   3.972  1.00 20.00     0.015 A 
HETATM    3  C1  UNL     1     -32.325   8.746   4.794  1.00 20.00     0.007 A 
HETATM    4  C2  UNL     1     -32.525   9.051   3.336  1.00 20.00     0.007 A 
ENDBRANCH   1   2
BRANCH   1   5
HETATM    5  C9  UNL     1     -34.075   5.484   3.693  1.00 20.00     0.011 C 
HETATM    6  C5  UNL     1     -33.608   4.045   3.951  1.00 20.00     0.012 C 
BRANCH   5   7
HETATM    7  C7  UNL     1     -35.133   5.942   4.718  1.00 20.00     0.006 C 
BRANCH   7   8
HETATM    8  C6  UNL     1     -34.791   5.550   6.159  1.00 20.00    -0.004 C 
HETATM    9  C4  UNL     1     -34.390   6.764   6.983  1.00 20.00     0.005 C 
ENDBRANCH   7   8
ENDBRANCH   5   7
ENDBRANCH   1   5
BRANCH   1  10
HETATM   10  O10 UNL     1     -32.350   6.457   2.304  1.00 20.00    -0.395 OA
HETATM   11  H28 UNL     1     -31.530   5.947   2.363  1.00 20.00     0.210 HD
ENDBRANCH   1  10
TORSDOF 5
ENDMDL
MODEL 7
REMARK VINA RESULT:      -4.2      2.304      3.882
REMARK  5 active torsions:
REMARK  status: ('A' for Active; 'I' for Inactive)
REMARK    1  A    between atoms: C3_3  and  C8_8 
REMARK    2  A    between atoms: C6_6  and  C7_7 
REMARK    3  A    between atoms: C7_7  and  C9_9 
REMARK    4  A    between atoms: C8_8  and  C9_9 
REMARK    5  A    between atoms: C8_8  and  O10_10 
ROOT
HETATM    1  C8  UNL     1     -33.647   5.278   4.585  1.00 20.00     0.126 C 
ENDROOT
BRANCH   1   2
HETATM    2  C3  UNL     1     -33.641   5.779   3.170  1.00 20.00     0.015 A 
HETATM    3  C1  UNL     1     -32.383   6.346   2.572  1.00 20.00     0.007 A 
HETATM    4  C2  UNL     1     -32.908   5.019   2.101  1.00 20.00     0.007 A 
ENDBRANCH   1   2
BRANCH   1   5
HETATM    5  C9  UNL     1     -34.426   6.168   5.584  1.00 20.00     0.011 C 
HETATM    6  C5  UNL     1     -35.065   5.360   6.722  1.00 20.00     0.012 C 
BRANCH   5   7
HETATM    7  C7  UNL     1     -33.537   7.312   6.114  1.00 20.00     0.006 C 
BRANCH   7   8
HETATM    8  C6  UNL     1     -33.606   8.581   5.259  1.00 20.00    -0.004 C 
HETATM    9  C4  UNL     1     -32.224   9.007   4.787  1.00 20.00     0.005 C 
ENDBRANCH   7   8
ENDBRANCH   5   7
ENDBRANCH   1   5
BRANCH   1  10
HETATM   10  O10 UNL     1     -34.209   3.964   4.613  1.00 20.00    -0.395 OA
HETATM   11  H28 UNL     1     -35.170   4.079   4.588  1.00 20.00     0.210 HD
ENDBRANCH   1  10
TORSDOF 5
ENDMDL
MODEL 8
REMARK VINA RESULT:      -4.2      1.585      3.771
REMARK  5 active torsions:
REMARK  status: ('A' for Active; 'I' for Inactive)
REMARK    1  A    between atoms: C3_3  and  C8_8 
REMARK    2  A    between atoms: C6_6  and  C7_7 
REMARK    3  A    between atoms: C7_7  and  C9_9 
REMARK    4  A    between atoms: C8_8  and  C9_9 
REMARK    5  A    between atoms: C8_8  and  O10_10 
ROOT
HETATM    1  C8  UNL     1     -33.929   7.398   5.360  1.00 20.00     0.126 C 
ENDROOT
BRANCH   1   2
HETATM    2  C3  UNL     1     -32.617   7.832   4.775  1.00 20.00     0.015 A 
HETATM    3  C1  UNL     1     -32.581   8.629   3.501  1.00 20.00     0.007 A 
HETATM    4  C2  UNL     1     -32.217   9.281   4.806  1.00 20.00     0.007 A 
ENDBRANCH   1   2
BRANCH   1   5
HETATM    5  C9  UNL     1     -34.093   5.866   5.518  1.00 20.00     0.011 C 
HETATM    6  C5  UNL     1     -34.901   5.483   6.766  1.00 20.00     0.012 C 
BRANCH   5   7
HETATM    7  C7  UNL     1     -34.675   5.238   4.235  1.00 20.00     0.006 C 
BRANCH   7   8
HETATM    8  C6  UNL     1     -33.679   4.343   3.492  1.00 20.00    -0.004 C 
HETATM    9  C4  UNL     1     -32.896   5.130   2.452  1.00 20.00     0.005 C 
ENDBRANCH   7   8
ENDBRANCH   5   7
ENDBRANCH   1   5
BRANCH   1  10
HETATM   10  O10 UNL     1     -34.094   8.007   6.643  1.00 20.00    -0.395 OA
HETATM   11  H28 UNL     1     -33.657   7.424   7.279  1.00 20.00     0.210 HD
ENDBRANCH   1  10
TORSDOF 5
ENDMDL
MODEL 9
REMARK VINA RESULT:      -4.2      2.185      2.504
REMARK  5 active torsions:
REMARK  status: ('A' for Active; 'I' for Inactive)
REMARK    1  A    between atoms: C3_3  and  C8_8 
REMARK    2  A    between atoms: C6_6  and  C7_7 
REMARK    3  A    between atoms: C7_7  and  C9_9 
REMARK    4  A    between atoms: C8_8  and  C9_9 
REMARK    5  A    between atoms: C8_8  and  O10_10 
ROOT
HETATM    1  C8  UNL     1     -34.374   5.401   4.168  1.00 20.00     0.126 C 
ENDROOT
BRANCH   1   2
HETATM    2  C3  UNL     1     -34.736   6.224   5.370  1.00 20.00     0.015 A 
HETATM    3  C1  UNL     1     -34.951   5.565   6.703  1.00 20.00     0.007 A 
HETATM    4  C2  UNL     1     -33.740   6.425   6.477  1.00 20.00     0.007 A 
ENDBRANCH   1   2
BRANCH   1   5
HETATM    5  C9  UNL     1     -33.070   5.834   3.455  1.00 20.00     0.011 C 
HETATM    6  C5  UNL     1     -32.788   5.013   2.188  1.00 20.00     0.012 C 
BRANCH   5   7
HETATM    7  C7  UNL     1     -33.072   7.350   3.173  1.00 20.00     0.006 C 
BRANCH   7   8
HETATM    8  C6  UNL     1     -31.855   8.077   3.756  1.00 20.00    -0.004 C 
HETATM    9  C4  UNL     1     -32.266   9.068   4.834  1.00 20.00     0.005 C 
ENDBRANCH   7   8
ENDBRANCH   5   7
ENDBRANCH   1   5
BRANCH   1  10
HETATM   10  O10 UNL     1     -34.246   4.032   4.560  1.00 20.00    -0.395 OA
HETATM   11  H28 UNL     1     -33.378   3.951   4.981  1.00 20.00     0.210 HD
ENDBRANCH   1  10
TORSDOF 5
ENDMDL
