MODEL 1
REMARK VINA RESULT:      -4.4      0.000      0.000
REMARK  2 active torsions:
REMARK  status: ('A' for Active; 'I' for Inactive)
REMARK    1  A    between atoms: C1_1  and  C3_3 
REMARK    2  A    between atoms: C2_2  and  C7_7 
ROOT
HETATM    1  C1  UNL     1     -33.232   7.849   5.362  1.00 20.00     0.038 C 
HETATM    2  C2  UNL     1     -33.601   6.860   4.535  1.00 20.00    -0.015 C 
ENDROOT
BRANCH   2   3
HETATM    3  C7  UNL     1     -34.489   5.670   4.872  1.00 20.00    -0.034 C 
HETATM    4  C4  UNL     1     -35.887   5.932   4.286  1.00 20.00     0.018 C 
HETATM    5  C5  UNL     1     -33.974   4.324   4.327  1.00 20.00     0.018 C 
HETATM    6  C6  UNL     1     -34.596   5.567   6.404  1.00 20.00     0.018 C 
ENDBRANCH   2   3
BRANCH   1   7
HETATM    7  C3  UNL     1     -32.359   8.924   4.848  1.00 20.00     0.258 C 
HETATM    8  O8  UNL     1     -32.272   9.171   3.651  1.00 20.00    -0.302 OA
ENDBRANCH   1   7
TORSDOF 2
ENDMDL
MODEL 2
REMARK VINA RESULT:      -4.3      0.101      1.531
REMARK  2 active torsions:
REMARK  status: ('A' for Active; 'I' for Inactive)
REMARK    1  A    between atoms: C1_1  and  C3_3 
REMARK    2  A    between atoms: C2_2  and  C7_7 
ROOT
HETATM    1  C1  UNL     1     -33.247   7.882   5.258  1.00 20.00     0.038 C 
HETATM    2  C2  UNL     1     -33.561   6.807   4.521  1.00 20.00    -0.015 C 
ENDROOT
BRANCH   2   3
HETATM    3  C7  UNL     1     -34.497   5.671   4.911  1.00 20.00    -0.034 C 
HETATM    4  C4  UNL     1     -33.946   4.365   4.313  1.00 20.00     0.018 C 
HETATM    5  C5  UNL     1     -34.661   5.483   6.431  1.00 20.00     0.018 C 
HETATM    6  C6  UNL     1     -35.882   5.958   4.303  1.00 20.00     0.018 C 
ENDBRANCH   2   3
BRANCH   1   7
HETATM    7  C3  UNL     1     -32.312   8.882   4.703  1.00 20.00     0.258 C 
HETATM    8  O8  UNL     1     -32.338   9.208   3.522  1.00 20.00    -0.302 OA
ENDBRANCH   1   7
TORSDOF 2
ENDMDL
MODEL 3
REMARK VINA RESULT:      -4.3      0.084      1.535
REMARK  2 active torsions:
REMARK  status: ('A' for Active; 'I' for Inactive)
REMARK    1  A    between atoms: C1_1  and  C3_3 
REMARK    2  A    between atoms: C2_2  and  C7_7 
ROOT
HETATM    1  C1  UNL     1     -33.296   7.899   5.264  1.00 20.00     0.038 C 
HETATM    2  C2  UNL     1     -33.534   6.802   4.530  1.00 20.00    -0.015 C 
ENDROOT
BRANCH   2   3
HETATM    3  C7  UNL     1     -34.516   5.683   4.850  1.00 20.00    -0.034 C 
HETATM    4  C4  UNL     1     -34.623   5.559   6.380  1.00 20.00     0.018 C 
HETATM    5  C5  UNL     1     -35.929   5.899   4.276  1.00 20.00     0.018 C 
HETATM    6  C6  UNL     1     -33.953   4.370   4.277  1.00 20.00     0.018 C 
ENDBRANCH   2   3
BRANCH   1   7
HETATM    7  C3  UNL     1     -32.298   8.877   4.785  1.00 20.00     0.258 C 
HETATM    8  O8  UNL     1     -32.286   9.275   3.626  1.00 20.00    -0.302 OA
ENDBRANCH   1   7
TORSDOF 2
ENDMDL
MODEL 4
REMARK VINA RESULT:      -3.8     15.233     16.326
REMARK  2 active torsions:
REMARK  status: ('A' for Active; 'I' for Inactive)
REMARK    1  A    between atoms: C1_1  and  C3_3 
REMARK    2  A    between atoms: C2_2  and  C7_7 
ROOT
HETATM    1  C1  UNL     1     -22.504  18.420   9.043  1.00 20.00     0.038 C 
HETATM    2  C2  UNL     1     -22.895  17.442   9.873  1.00 20.00    -0.015 C 
ENDROOT
BRANCH   2   3
HETATM    3  C7  UNL     1     -23.720  17.596  11.144  1.00 20.00    -0.034 C 
HETATM    4  C4  UNL     1     -24.840  18.616  10.870  1.00 20.00     0.018 C 
HETATM    5  C5  UNL     1     -24.361  16.288  11.643  1.00 20.00     0.018 C 
HETATM    6  C6  UNL     1     -22.801  18.143  12.251  1.00 20.00     0.018 C 
ENDBRANCH   2   3
BRANCH   1   7
HETATM    7  C3  UNL     1     -21.702  18.070   7.853  1.00 20.00     0.258 C 
HETATM    8  O8  UNL     1     -21.690  16.935   7.390  1.00 20.00    -0.302 OA
ENDBRANCH   1   7
TORSDOF 2
ENDMDL
MODEL 5
REMARK VINA RESULT:      -3.6     12.049     13.032
REMARK  2 active torsions:
REMARK  status: ('A' for Active; 'I' for Inactive)
REMARK    1  A    between atoms: C1_1  and  C3_3 
REMARK    2  A    between atoms: C2_2  and  C7_7 
ROOT
HETATM    1  C1  UNL     1     -33.663  16.248  -3.704  1.00 20.00     0.038 C 
HETATM    2  C2  UNL     1     -33.386  16.577  -2.434  1.00 20.00    -0.015 C 
ENDROOT
BRANCH   2   3
HETATM    3  C7  UNL     1     -33.604  17.931  -1.771  1.00 20.00    -0.034 C 
HETATM    4  C4  UNL     1     -33.748  17.707  -0.255  1.00 20.00     0.018 C 
HETATM    5  C5  UNL     1     -32.467  18.942  -2.010  1.00 20.00     0.018 C 
HETATM    6  C6  UNL     1     -34.913  18.530  -2.318  1.00 20.00     0.018 C 
ENDBRANCH   2   3
BRANCH   1   7
HETATM    7  C3  UNL     1     -33.378  14.875  -4.166  1.00 20.00     0.258 C 
HETATM    8  O8  UNL     1     -34.188  13.965  -4.032  1.00 20.00    -0.302 OA
ENDBRANCH   1   7
TORSDOF 2
ENDMDL
MODEL 6
REMARK VINA RESULT:      -3.5      8.805      9.570
REMARK  2 active torsions:
REMARK  status: ('A' for Active; 'I' for Inactive)
REMARK    1  A    between atoms: C1_1  and  C3_3 
REMARK    2  A    between atoms: C2_2  and  C7_7 
ROOT
HETATM    1  C1  UNL     1     -39.548  12.091   5.329  1.00 20.00     0.038 C 
HETATM    2  C2  UNL     1     -40.628  12.873   5.193  1.00 20.00    -0.015 C 
ENDROOT
BRANCH   2   3
HETATM    3  C7  UNL     1     -41.479  13.460   6.311  1.00 20.00    -0.034 C 
HETATM    4  C4  UNL     1     -42.246  14.670   5.749  1.00 20.00     0.018 C 
HETATM    5  C5  UNL     1     -42.496  12.474   6.915  1.00 20.00     0.018 C 
HETATM    6  C6  UNL     1     -40.538  13.938   7.432  1.00 20.00     0.018 C 
ENDBRANCH   2   3
BRANCH   1   7
HETATM    7  C3  UNL     1     -38.852  11.616   4.116  1.00 20.00     0.258 C 
HETATM    8  O8  UNL     1     -39.181  11.983   2.994  1.00 20.00    -0.302 OA
ENDBRANCH   1   7
TORSDOF 2
ENDMDL
MODEL 7
REMARK VINA RESULT:      -3.5      8.800      9.617
REMARK  2 active torsions:
REMARK  status: ('A' for Active; 'I' for Inactive)
REMARK    1  A    between atoms: C1_1  and  C3_3 
REMARK    2  A    between atoms: C2_2  and  C7_7 
ROOT
HETATM    1  C1  UNL     1     -39.465  12.155   5.352  1.00 20.00     0.038 C 
HETATM    2  C2  UNL     1     -40.591  12.873   5.233  1.00 20.00    -0.015 C 
ENDROOT
BRANCH   2   3
HETATM    3  C7  UNL     1     -41.395  13.507   6.360  1.00 20.00    -0.034 C 
HETATM    4  C4  UNL     1     -42.408  12.468   6.871  1.00 20.00     0.018 C 
HETATM    5  C5  UNL     1     -40.544  13.988   7.550  1.00 20.00     0.018 C 
HETATM    6  C6  UNL     1     -42.159  14.715   5.787  1.00 20.00     0.018 C 
ENDBRANCH   2   3
BRANCH   1   7
HETATM    7  C3  UNL     1     -38.826  11.618   4.133  1.00 20.00     0.258 C 
HETATM    8  O8  UNL     1     -39.185  11.957   3.011  1.00 20.00    -0.302 OA
ENDBRANCH   1   7
TORSDOF 2
ENDMDL
MODEL 8
REMARK VINA RESULT:      -3.5      8.816      9.655
REMARK  2 active torsions:
REMARK  status: ('A' for Active; 'I' for Inactive)
REMARK    1  A    between atoms: C1_1  and  C3_3 
REMARK    2  A    between atoms: C2_2  and  C7_7 
ROOT
HETATM    1  C1  UNL     1     -39.464  12.217   5.362  1.00 20.00     0.038 C 
HETATM    2  C2  UNL     1     -40.636  12.854   5.231  1.00 20.00    -0.015 C 
ENDROOT
BRANCH   2   3
HETATM    3  C7  UNL     1     -41.447  13.515   6.337  1.00 20.00    -0.034 C 
HETATM    4  C4  UNL     1     -40.481  13.926   7.462  1.00 20.00     0.018 C 
HETATM    5  C5  UNL     1     -42.232  14.762   5.886  1.00 20.00     0.018 C 
HETATM    6  C6  UNL     1     -42.448  12.481   6.886  1.00 20.00     0.018 C 
ENDBRANCH   2   3
BRANCH   1   7
HETATM    7  C3  UNL     1     -38.827  11.635   4.163  1.00 20.00     0.258 C 
HETATM    8  O8  UNL     1     -39.179  11.941   3.030  1.00 20.00    -0.302 OA
ENDBRANCH   1   7
TORSDOF 2
ENDMDL
MODEL 9
REMARK VINA RESULT:      -3.4     12.563     13.258
REMARK  2 active torsions:
REMARK  status: ('A' for Active; 'I' for Inactive)
REMARK    1  A    between atoms: C1_1  and  C3_3 
REMARK    2  A    between atoms: C2_2  and  C7_7 
ROOT
HETATM    1  C1  UNL     1     -31.481  18.668  -0.377  1.00 20.00     0.038 C 
HETATM    2  C2  UNL     1     -32.715  18.202  -0.613  1.00 20.00    -0.015 C 
ENDROOT
BRANCH   2   3
HETATM    3  C7  UNL     1     -33.407  18.089  -1.965  1.00 20.00    -0.034 C 
HETATM    4  C4  UNL     1     -32.694  19.031  -2.951  1.00 20.00     0.018 C 
HETATM    5  C5  UNL     1     -33.406  16.667  -2.558  1.00 20.00     0.018 C 
HETATM    6  C6  UNL     1     -34.868  18.546  -1.799  1.00 20.00     0.018 C 
ENDBRANCH   2   3
BRANCH   1   7
HETATM    7  C3  UNL     1     -30.982  18.701   1.013  1.00 20.00     0.258 C 
HETATM    8  O8  UNL     1     -29.935  19.263   1.312  1.00 20.00    -0.302 OA
ENDBRANCH   1   7
TORSDOF 2
ENDMDL
