MODEL 1
REMARK VINA RESULT:      -4.4      0.000      0.000
REMARK  3 active torsions:
REMARK  status: ('A' for Active; 'I' for Inactive)
REMARK    1  A    between atoms: C2_2  and  C5_5 
REMARK    2  A    between atoms: C2_2  and  C8_8 
REMARK    3  A    between atoms: C7_7  and  C8_8 
ROOT
HETATM    1  C1  UNL     1     -32.646   6.222   2.911  1.00 20.00     0.071 C 
HETATM    2  C8  UNL     1     -32.417   7.516   3.579  1.00 20.00     0.162 C 
HETATM    3  N9  UNL     1     -32.822   5.202   2.384  1.00 20.00    -0.196 NA
ENDROOT
BRANCH   2   4
HETATM    4  C2  UNL     1     -33.252   7.639   4.843  1.00 20.00     0.148 C 
HETATM    5  O10 UNL     1     -33.626   8.702   5.325  1.00 20.00    -0.296 OA
BRANCH   4   6
HETATM    6  C5  UNL     1     -33.612   6.356   5.518  1.00 20.00     0.057 A 
HETATM    7  C3  UNL     1     -34.609   6.390   6.627  1.00 20.00     0.013 A 
HETATM    8  C4  UNL     1     -34.980   5.799   5.300  1.00 20.00     0.013 A 
ENDBRANCH   4   6
ENDBRANCH   2   4
BRANCH   2   9
HETATM    9  C7  UNL     1     -32.661   8.697   2.627  1.00 20.00     0.022 C 
HETATM   10  C6  UNL     1     -32.174   8.475   1.198  1.00 20.00     0.007 C 
ENDBRANCH   2   9
TORSDOF 3
ENDMDL
MODEL 2
REMARK VINA RESULT:      -4.4      2.068      2.584
REMARK  3 active torsions:
REMARK  status: ('A' for Active; 'I' for Inactive)
REMARK    1  A    between atoms: C2_2  and  C5_5 
REMARK    2  A    between atoms: C2_2  and  C8_8 
REMARK    3  A    between atoms: C7_7  and  C8_8 
ROOT
HETATM    1  C1  UNL     1     -32.198   7.884   1.815  1.00 20.00     0.071 C 
HETATM    2  C8  UNL     1     -32.312   7.512   3.238  1.00 20.00     0.162 C 
HETATM    3  N9  UNL     1     -32.103   8.178   0.696  1.00 20.00    -0.196 NA
ENDROOT
BRANCH   2   4
HETATM    4  C2  UNL     1     -33.076   6.208   3.405  1.00 20.00     0.148 C 
HETATM    5  O10 UNL     1     -33.018   5.267   2.622  1.00 20.00    -0.296 OA
BRANCH   4   6
HETATM    6  C5  UNL     1     -33.952   6.111   4.611  1.00 20.00     0.057 A 
HETATM    7  C3  UNL     1     -35.408   5.856   4.416  1.00 20.00     0.013 A 
HETATM    8  C4  UNL     1     -34.523   4.779   4.968  1.00 20.00     0.013 A 
ENDBRANCH   4   6
ENDBRANCH   2   4
BRANCH   2   9
HETATM    9  C7  UNL     1     -32.938   8.640   4.071  1.00 20.00     0.022 C 
HETATM   10  C6  UNL     1     -32.037   9.194   5.171  1.00 20.00     0.007 C 
ENDBRANCH   2   9
TORSDOF 3
ENDMDL
MODEL 3
REMARK VINA RESULT:      -4.4      9.616     10.442
REMARK  3 active torsions:
REMARK  status: ('A' for Active; 'I' for Inactive)
REMARK    1  A    between atoms: C2_2  and  C5_5 
REMARK    2  A    between atoms: C2_2  and  C8_8 
REMARK    3  A    between atoms: C7_7  and  C8_8 
ROOT
HETATM    1  C1  UNL     1     -42.533  12.532   7.154  1.00 20.00     0.071 C 
HETATM    2  C8  UNL     1     -41.650  13.576   6.601  1.00 20.00     0.162 C 
HETATM    3  N9  UNL     1     -43.232  11.714   7.590  1.00 20.00    -0.196 NA
ENDROOT
BRANCH   2   4
HETATM    4  C2  UNL     1     -40.958  13.096   5.334  1.00 20.00     0.148 C 
HETATM    5  O10 UNL     1     -41.115  13.600   4.229  1.00 20.00    -0.296 OA
BRANCH   4   6
HETATM    6  C5  UNL     1     -40.043  11.926   5.489  1.00 20.00     0.057 A 
HETATM    7  C3  UNL     1     -39.240  11.489   4.311  1.00 20.00     0.013 A 
HETATM    8  C4  UNL     1     -38.571  12.169   5.469  1.00 20.00     0.013 A 
ENDBRANCH   4   6
ENDBRANCH   2   4
BRANCH   2   9
HETATM    9  C7  UNL     1     -40.635  14.071   7.642  1.00 20.00     0.022 C 
HETATM   10  C6  UNL     1     -40.376  15.575   7.614  1.00 20.00     0.007 C 
ENDBRANCH   2   9
TORSDOF 3
ENDMDL
MODEL 4
REMARK VINA RESULT:      -4.3      2.182      2.413
REMARK  3 active torsions:
REMARK  status: ('A' for Active; 'I' for Inactive)
REMARK    1  A    between atoms: C2_2  and  C5_5 
REMARK    2  A    between atoms: C2_2  and  C8_8 
REMARK    3  A    between atoms: C7_7  and  C8_8 
ROOT
HETATM    1  C1  UNL     1     -32.516   8.498   4.339  1.00 20.00     0.071 C 
HETATM    2  C8  UNL     1     -33.091   7.634   3.291  1.00 20.00     0.162 C 
HETATM    3  N9  UNL     1     -32.065   9.182   5.162  1.00 20.00    -0.196 NA
ENDROOT
BRANCH   2   4
HETATM    4  C2  UNL     1     -33.614   6.332   3.878  1.00 20.00     0.148 C 
HETATM    5  O10 UNL     1     -33.299   5.218   3.478  1.00 20.00    -0.296 OA
BRANCH   4   6
HETATM    6  C5  UNL     1     -34.581   6.464   5.008  1.00 20.00     0.057 A 
HETATM    7  C3  UNL     1     -34.835   5.274   5.871  1.00 20.00     0.013 A 
HETATM    8  C4  UNL     1     -34.051   6.436   6.403  1.00 20.00     0.013 A 
ENDBRANCH   4   6
ENDBRANCH   2   4
BRANCH   2   9
HETATM    9  C7  UNL     1     -32.091   7.377   2.155  1.00 20.00     0.022 C 
HETATM   10  C6  UNL     1     -32.144   8.392   1.017  1.00 20.00     0.007 C 
ENDBRANCH   2   9
TORSDOF 3
ENDMDL
MODEL 5
REMARK VINA RESULT:      -4.3      9.703     10.415
REMARK  3 active torsions:
REMARK  status: ('A' for Active; 'I' for Inactive)
REMARK    1  A    between atoms: C2_2  and  C5_5 
REMARK    2  A    between atoms: C2_2  and  C8_8 
REMARK    3  A    between atoms: C7_7  and  C8_8 
ROOT
HETATM    1  C1  UNL     1     -41.896  14.169   4.597  1.00 20.00     0.071 C 
HETATM    2  C8  UNL     1     -41.015  13.905   5.750  1.00 20.00     0.162 C 
HETATM    3  N9  UNL     1     -42.585  14.379   3.686  1.00 20.00    -0.196 NA
ENDROOT
BRANCH   2   4
HETATM    4  C2  UNL     1     -41.106  12.452   6.190  1.00 20.00     0.148 C 
HETATM    5  O10 UNL     1     -42.051  11.974   6.806  1.00 20.00    -0.296 OA
BRANCH   4   6
HETATM    6  C5  UNL     1     -39.941  11.586   5.839  1.00 20.00     0.057 A 
HETATM    7  C3  UNL     1     -39.325  11.735   4.489  1.00 20.00     0.013 A 
HETATM    8  C4  UNL     1     -38.598  12.223   5.706  1.00 20.00     0.013 A 
ENDBRANCH   4   6
ENDBRANCH   2   4
BRANCH   2   9
HETATM    9  C7  UNL     1     -41.303  14.864   6.914  1.00 20.00     0.022 C 
HETATM   10  C6  UNL     1     -40.339  14.743   8.092  1.00 20.00     0.007 C 
ENDBRANCH   2   9
TORSDOF 3
ENDMDL
MODEL 6
REMARK VINA RESULT:      -4.3      1.163      3.552
REMARK  3 active torsions:
REMARK  status: ('A' for Active; 'I' for Inactive)
REMARK    1  A    between atoms: C2_2  and  C5_5 
REMARK    2  A    between atoms: C2_2  and  C8_8 
REMARK    3  A    between atoms: C7_7  and  C8_8 
ROOT
HETATM    1  C1  UNL     1     -33.553   5.535   3.334  1.00 20.00     0.071 C 
HETATM    2  C8  UNL     1     -34.477   6.177   4.287  1.00 20.00     0.162 C 
HETATM    3  N9  UNL     1     -32.829   5.030   2.580  1.00 20.00    -0.196 NA
ENDROOT
BRANCH   2   4
HETATM    4  C2  UNL     1     -33.836   7.391   4.942  1.00 20.00     0.148 C 
HETATM    5  O10 UNL     1     -34.317   7.999   5.891  1.00 20.00    -0.296 OA
BRANCH   4   6
HETATM    6  C5  UNL     1     -32.540   7.845   4.355  1.00 20.00     0.057 A 
HETATM    7  C3  UNL     1     -32.556   8.979   3.386  1.00 20.00     0.013 A 
HETATM    8  C4  UNL     1     -32.003   9.176   4.766  1.00 20.00     0.013 A 
ENDBRANCH   4   6
ENDBRANCH   2   4
BRANCH   2   9
HETATM    9  C7  UNL     1     -34.994   5.181   5.335  1.00 20.00     0.022 C 
HETATM   10  C6  UNL     1     -34.154   5.100   6.607  1.00 20.00     0.007 C 
ENDBRANCH   2   9
TORSDOF 3
ENDMDL
MODEL 7
REMARK VINA RESULT:      -4.2     11.828     12.825
REMARK  3 active torsions:
REMARK  status: ('A' for Active; 'I' for Inactive)
REMARK    1  A    between atoms: C2_2  and  C5_5 
REMARK    2  A    between atoms: C2_2  and  C8_8 
REMARK    3  A    between atoms: C7_7  and  C8_8 
ROOT
HETATM    1  C1  UNL     1     -34.120  15.412  -6.818  1.00 20.00     0.071 C 
HETATM    2  C8  UNL     1     -34.619  15.924  -5.529  1.00 20.00     0.162 C 
HETATM    3  N9  UNL     1     -33.727  15.013  -7.835  1.00 20.00    -0.196 NA
ENDROOT
BRANCH   2   4
HETATM    4  C2  UNL     1     -33.982  15.188  -4.360  1.00 20.00     0.148 C 
HETATM    5  O10 UNL     1     -34.196  14.014  -4.084  1.00 20.00    -0.296 OA
BRANCH   4   6
HETATM    6  C5  UNL     1     -33.047  15.987  -3.513  1.00 20.00     0.057 A 
HETATM    7  C3  UNL     1     -33.219  17.468  -3.464  1.00 20.00     0.013 A 
HETATM    8  C4  UNL     1     -33.582  16.628  -2.276  1.00 20.00     0.013 A 
ENDBRANCH   4   6
ENDBRANCH   2   4
BRANCH   2   9
HETATM    9  C7  UNL     1     -36.152  15.877  -5.454  1.00 20.00     0.022 C 
HETATM   10  C6  UNL     1     -36.815  17.207  -5.107  1.00 20.00     0.007 C 
ENDBRANCH   2   9
TORSDOF 3
ENDMDL
MODEL 8
REMARK VINA RESULT:      -4.2      9.730     10.692
REMARK  3 active torsions:
REMARK  status: ('A' for Active; 'I' for Inactive)
REMARK    1  A    between atoms: C2_2  and  C5_5 
REMARK    2  A    between atoms: C2_2  and  C8_8 
REMARK    3  A    between atoms: C7_7  and  C8_8 
ROOT
HETATM    1  C1  UNL     1     -40.692  14.868   7.345  1.00 20.00     0.071 C 
HETATM    2  C8  UNL     1     -41.171  13.502   7.064  1.00 20.00     0.162 C 
HETATM    3  N9  UNL     1     -40.312  15.942   7.570  1.00 20.00    -0.196 NA
ENDROOT
BRANCH   2   4
HETATM    4  C2  UNL     1     -40.824  13.078   5.646  1.00 20.00     0.148 C 
HETATM    5  O10 UNL     1     -41.224  13.646   4.637  1.00 20.00    -0.296 OA
BRANCH   4   6
HETATM    6  C5  UNL     1     -39.944  11.878   5.517  1.00 20.00     0.057 A 
HETATM    7  C3  UNL     1     -39.153  11.706   4.264  1.00 20.00     0.013 A 
HETATM    8  C4  UNL     1     -38.465  12.077   5.544  1.00 20.00     0.013 A 
ENDBRANCH   4   6
ENDBRANCH   2   4
BRANCH   2   9
HETATM    9  C7  UNL     1     -42.675  13.360   7.342  1.00 20.00     0.022 C 
HETATM   10  C6  UNL     1     -43.217  11.940   7.200  1.00 20.00     0.007 C 
ENDBRANCH   2   9
TORSDOF 3
ENDMDL
MODEL 9
REMARK VINA RESULT:      -4.2     12.051     12.636
REMARK  3 active torsions:
REMARK  status: ('A' for Active; 'I' for Inactive)
REMARK    1  A    between atoms: C2_2  and  C5_5 
REMARK    2  A    between atoms: C2_2  and  C8_8 
REMARK    3  A    between atoms: C7_7  and  C8_8 
ROOT
HETATM    1  C1  UNL     1     -31.809  18.319  -0.765  1.00 20.00     0.071 C 
HETATM    2  C8  UNL     1     -33.106  17.727  -1.141  1.00 20.00     0.162 C 
HETATM    3  N9  UNL     1     -30.787  18.782  -0.465  1.00 20.00    -0.196 NA
ENDROOT
BRANCH   2   4
HETATM    4  C2  UNL     1     -33.184  17.479  -2.640  1.00 20.00     0.148 C 
HETATM    5  O10 UNL     1     -32.883  18.305  -3.493  1.00 20.00    -0.296 OA
BRANCH   4   6
HETATM    6  C5  UNL     1     -33.672  16.131  -3.057  1.00 20.00     0.057 A 
HETATM    7  C3  UNL     1     -34.177  15.956  -4.449  1.00 20.00     0.013 A 
HETATM    8  C4  UNL     1     -32.863  15.358  -4.044  1.00 20.00     0.013 A 
ENDBRANCH   4   6
ENDBRANCH   2   4
BRANCH   2   9
HETATM    9  C7  UNL     1     -34.284  18.582  -0.651  1.00 20.00     0.022 C 
HETATM   10  C6  UNL     1     -34.327  18.802   0.858  1.00 20.00     0.007 C 
ENDBRANCH   2   9
TORSDOF 3
ENDMDL
