MODEL 1
REMARK VINA RESULT:      -4.4      0.000      0.000
REMARK  3 active torsions:
REMARK  status: ('A' for Active; 'I' for Inactive)
REMARK    1  A    between atoms: C4_4  and  C8_8 
REMARK    2  A    between atoms: C7_7  and  N10_10 
REMARK    3  A    between atoms: C8_8  and  N10_10 
ROOT
HETATM    1  C1  UNL     1     -32.468   8.700   1.326  1.00 20.00     0.089 C 
HETATM    2  C7  UNL     1     -32.109   7.633   2.259  1.00 20.00     0.395 C 
HETATM    3  N9  UNL     1     -32.750   9.547   0.584  1.00 20.00    -0.195 NA
ENDROOT
BRANCH   2   4
HETATM    4  N10 UNL     1     -32.878   7.740   3.490  1.00 20.00     0.101 N 
HETATM    5  C6  UNL     1     -32.198   8.579   4.465  1.00 20.00     0.311 C 
BRANCH   4   6
HETATM    6  C8  UNL     1     -33.099   6.389   4.059  1.00 20.00     0.223 C 
HETATM    7  C5  UNL     1     -33.154   5.379   2.923  1.00 20.00     0.043 C 
BRANCH   6   8
HETATM    8  C4  UNL     1     -34.386   6.394   4.871  1.00 20.00     0.018 A 
HETATM    9  C2  UNL     1     -34.680   5.277   5.834  1.00 20.00     0.007 A 
HETATM   10  C3  UNL     1     -34.346   6.648   6.353  1.00 20.00     0.007 A 
ENDBRANCH   6   8
ENDBRANCH   4   6
ENDBRANCH   2   4
TORSDOF 3
ENDMDL
MODEL 2
REMARK VINA RESULT:      -4.1     15.062     16.345
REMARK  3 active torsions:
REMARK  status: ('A' for Active; 'I' for Inactive)
REMARK    1  A    between atoms: C4_4  and  C8_8 
REMARK    2  A    between atoms: C7_7  and  N10_10 
REMARK    3  A    between atoms: C8_8  and  N10_10 
ROOT
HETATM    1  C1  UNL     1     -21.648  17.470   8.358  1.00 20.00     0.089 C 
HETATM    2  C7  UNL     1     -21.696  18.012   9.714  1.00 20.00     0.395 C 
HETATM    3  N9  UNL     1     -21.606  17.041   7.280  1.00 20.00    -0.195 NA
ENDROOT
BRANCH   2   4
HETATM    4  N10 UNL     1     -23.072  18.175  10.160  1.00 20.00     0.101 N 
HETATM    5  C6  UNL     1     -23.744  19.231   9.419  1.00 20.00     0.311 C 
BRANCH   4   6
HETATM    6  C8  UNL     1     -23.094  18.488  11.609  1.00 20.00     0.223 C 
HETATM    7  C5  UNL     1     -21.663  18.518  12.127  1.00 20.00     0.043 C 
BRANCH   6   8
HETATM    8  C4  UNL     1     -23.933  17.444  12.332  1.00 20.00     0.018 A 
HETATM    9  C2  UNL     1     -25.435  17.520  12.293  1.00 20.00     0.007 A 
HETATM   10  C3  UNL     1     -24.717  16.429  11.549  1.00 20.00     0.007 A 
ENDBRANCH   6   8
ENDBRANCH   4   6
ENDBRANCH   2   4
TORSDOF 3
ENDMDL
MODEL 3
REMARK VINA RESULT:      -3.8     11.553     12.510
REMARK  3 active torsions:
REMARK  status: ('A' for Active; 'I' for Inactive)
REMARK    1  A    between atoms: C4_4  and  C8_8 
REMARK    2  A    between atoms: C7_7  and  N10_10 
REMARK    3  A    between atoms: C8_8  and  N10_10 
ROOT
HETATM    1  C1  UNL     1     -36.474  15.841  -5.583  1.00 20.00     0.089 C 
HETATM    2  C7  UNL     1     -35.044  15.744  -5.294  1.00 20.00     0.395 C 
HETATM    3  N9  UNL     1     -37.608  15.916  -5.815  1.00 20.00    -0.195 NA
ENDROOT
BRANCH   2   4
HETATM    4  N10 UNL     1     -34.600  16.873  -4.490  1.00 20.00     0.101 N 
HETATM    5  C6  UNL     1     -34.395  18.057  -5.310  1.00 20.00     0.311 C 
BRANCH   4   6
HETATM    6  C8  UNL     1     -33.339  16.523  -3.792  1.00 20.00     0.223 C 
HETATM    7  C5  UNL     1     -32.963  15.091  -4.144  1.00 20.00     0.043 C 
BRANCH   6   8
HETATM    8  C4  UNL     1     -33.532  16.703  -2.293  1.00 20.00     0.018 A 
HETATM    9  C2  UNL     1     -32.719  17.720  -1.541  1.00 20.00     0.007 A 
HETATM   10  C3  UNL     1     -34.189  17.944  -1.758  1.00 20.00     0.007 A 
ENDBRANCH   6   8
ENDBRANCH   4   6
ENDBRANCH   2   4
TORSDOF 3
ENDMDL
MODEL 4
REMARK VINA RESULT:      -3.7     10.210     11.352
REMARK  3 active torsions:
REMARK  status: ('A' for Active; 'I' for Inactive)
REMARK    1  A    between atoms: C4_4  and  C8_8 
REMARK    2  A    between atoms: C7_7  and  N10_10 
REMARK    3  A    between atoms: C8_8  and  N10_10 
ROOT
HETATM    1  C1  UNL     1     -42.802  13.329   8.913  1.00 20.00     0.089 C 
HETATM    2  C7  UNL     1     -42.523  14.111   7.710  1.00 20.00     0.395 C 
HETATM    3  N9  UNL     1     -43.026  12.709   9.868  1.00 20.00    -0.195 NA
ENDROOT
BRANCH   2   4
HETATM    4  N10 UNL     1     -41.108  14.055   7.372  1.00 20.00     0.101 N 
HETATM    5  C6  UNL     1     -40.442  15.310   7.683  1.00 20.00     0.311 C 
BRANCH   4   6
HETATM    6  C8  UNL     1     -40.952  13.751   5.929  1.00 20.00     0.223 C 
HETATM    7  C5  UNL     1     -42.270  14.030   5.222  1.00 20.00     0.043 C 
BRANCH   6   8
HETATM    8  C4  UNL     1     -40.522  12.300   5.769  1.00 20.00     0.018 A 
HETATM    9  C2  UNL     1     -39.490  11.923   4.742  1.00 20.00     0.007 A 
HETATM   10  C3  UNL     1     -39.151  11.864   6.206  1.00 20.00     0.007 A 
ENDBRANCH   6   8
ENDBRANCH   4   6
ENDBRANCH   2   4
TORSDOF 3
ENDMDL
MODEL 5
REMARK VINA RESULT:      -3.6     11.584     13.234
REMARK  3 active torsions:
REMARK  status: ('A' for Active; 'I' for Inactive)
REMARK    1  A    between atoms: C4_4  and  C8_8 
REMARK    2  A    between atoms: C7_7  and  N10_10 
REMARK    3  A    between atoms: C8_8  and  N10_10 
ROOT
HETATM    1  C1  UNL     1     -35.441  15.364  -6.771  1.00 20.00     0.089 C 
HETATM    2  C7  UNL     1     -34.839  16.594  -6.260  1.00 20.00     0.395 C 
HETATM    3  N9  UNL     1     -35.917  14.388  -7.179  1.00 20.00    -0.195 NA
ENDROOT
BRANCH   2   4
HETATM    4  N10 UNL     1     -35.355  16.914  -4.937  1.00 20.00     0.101 N 
HETATM    5  C6  UNL     1     -36.727  17.393  -5.008  1.00 20.00     0.311 C 
BRANCH   4   6
HETATM    6  C8  UNL     1     -34.498  17.944  -4.302  1.00 20.00     0.223 C 
HETATM    7  C5  UNL     1     -34.049  18.935  -5.367  1.00 20.00     0.043 C 
BRANCH   6   8
HETATM    8  C4  UNL     1     -33.314  17.263  -3.631  1.00 20.00     0.018 A 
HETATM    9  C2  UNL     1     -33.292  17.077  -2.139  1.00 20.00     0.007 A 
HETATM   10  C3  UNL     1     -33.466  15.888  -3.043  1.00 20.00     0.007 A 
ENDBRANCH   6   8
ENDBRANCH   4   6
ENDBRANCH   2   4
TORSDOF 3
ENDMDL
MODEL 6
REMARK VINA RESULT:      -3.6      9.964     10.850
REMARK  3 active torsions:
REMARK  status: ('A' for Active; 'I' for Inactive)
REMARK    1  A    between atoms: C4_4  and  C8_8 
REMARK    2  A    between atoms: C7_7  and  N10_10 
REMARK    3  A    between atoms: C8_8  and  N10_10 
ROOT
HETATM    1  C1  UNL     1     -42.438  14.577   4.290  1.00 20.00     0.089 C 
HETATM    2  C7  UNL     1     -42.561  14.472   5.743  1.00 20.00     0.395 C 
HETATM    3  N9  UNL     1     -42.341  14.663   3.137  1.00 20.00    -0.195 NA
ENDROOT
BRANCH   2   4
HETATM    4  N10 UNL     1     -42.151  13.155   6.205  1.00 20.00     0.101 N 
HETATM    5  C6  UNL     1     -43.151  12.569   7.084  1.00 20.00     0.311 C 
BRANCH   4   6
HETATM    6  C8  UNL     1     -40.855  13.257   6.918  1.00 20.00     0.223 C 
HETATM    7  C5  UNL     1     -40.781  14.610   7.612  1.00 20.00     0.043 C 
BRANCH   6   8
HETATM    8  C4  UNL     1     -39.720  13.072   5.921  1.00 20.00     0.018 A 
HETATM    9  C2  UNL     1     -38.823  11.869   6.010  1.00 20.00     0.007 A 
HETATM   10  C3  UNL     1     -39.800  11.995   4.875  1.00 20.00     0.007 A 
ENDBRANCH   6   8
ENDBRANCH   4   6
ENDBRANCH   2   4
TORSDOF 3
ENDMDL
MODEL 7
REMARK VINA RESULT:      -3.5     10.007     10.982
REMARK  3 active torsions:
REMARK  status: ('A' for Active; 'I' for Inactive)
REMARK    1  A    between atoms: C4_4  and  C8_8 
REMARK    2  A    between atoms: C7_7  and  N10_10 
REMARK    3  A    between atoms: C8_8  and  N10_10 
ROOT
HETATM    1  C1  UNL     1     -40.829  15.457   7.965  1.00 20.00     0.089 C 
HETATM    2  C7  UNL     1     -41.352  14.099   8.109  1.00 20.00     0.395 C 
HETATM    3  N9  UNL     1     -40.414  16.535   7.855  1.00 20.00    -0.195 NA
ENDROOT
BRANCH   2   4
HETATM    4  N10 UNL     1     -42.045  13.680   6.900  1.00 20.00     0.101 N 
HETATM    5  C6  UNL     1     -42.668  12.376   7.075  1.00 20.00     0.311 C 
BRANCH   4   6
HETATM    6  C8  UNL     1     -41.090  13.630   5.767  1.00 20.00     0.223 C 
HETATM    7  C5  UNL     1     -41.815  14.043   4.495  1.00 20.00     0.043 C 
BRANCH   6   8
HETATM    8  C4  UNL     1     -40.517  12.224   5.659  1.00 20.00     0.018 A 
HETATM    9  C2  UNL     1     -39.413  11.929   4.681  1.00 20.00     0.007 A 
HETATM   10  C3  UNL     1     -39.129  11.932   6.157  1.00 20.00     0.007 A 
ENDBRANCH   6   8
ENDBRANCH   4   6
ENDBRANCH   2   4
TORSDOF 3
ENDMDL
MODEL 8
REMARK VINA RESULT:      -3.3     11.160     12.419
REMARK  3 active torsions:
REMARK  status: ('A' for Active; 'I' for Inactive)
REMARK    1  A    between atoms: C4_4  and  C8_8 
REMARK    2  A    between atoms: C7_7  and  N10_10 
REMARK    3  A    between atoms: C8_8  and  N10_10 
ROOT
HETATM    1  C1  UNL     1     -36.004  14.386  -5.324  1.00 20.00     0.089 C 
HETATM    2  C7  UNL     1     -34.970  15.040  -6.125  1.00 20.00     0.395 C 
HETATM    3  N9  UNL     1     -36.826  13.868  -4.690  1.00 20.00    -0.195 NA
ENDROOT
BRANCH   2   4
HETATM    4  N10 UNL     1     -33.883  15.514  -5.282  1.00 20.00     0.101 N 
HETATM    5  C6  UNL     1     -33.387  14.455  -4.416  1.00 20.00     0.311 C 
BRANCH   4   6
HETATM    6  C8  UNL     1     -34.349  16.656  -4.459  1.00 20.00     0.223 C 
HETATM    7  C5  UNL     1     -34.682  17.821  -5.379  1.00 20.00     0.043 C 
BRANCH   6   8
HETATM    8  C4  UNL     1     -33.267  17.022  -3.454  1.00 20.00     0.018 A 
HETATM    9  C2  UNL     1     -33.424  18.234  -2.578  1.00 20.00     0.007 A 
HETATM   10  C3  UNL     1     -33.515  16.858  -1.981  1.00 20.00     0.007 A 
ENDBRANCH   6   8
ENDBRANCH   4   6
ENDBRANCH   2   4
TORSDOF 3
ENDMDL
MODEL 9
REMARK VINA RESULT:      -3.2     11.183     12.903
REMARK  3 active torsions:
REMARK  status: ('A' for Active; 'I' for Inactive)
REMARK    1  A    between atoms: C4_4  and  C8_8 
REMARK    2  A    between atoms: C7_7  and  N10_10 
REMARK    3  A    between atoms: C8_8  and  N10_10 
ROOT
HETATM    1  C1  UNL     1     -32.970  17.388  -2.213  1.00 20.00     0.089 C 
HETATM    2  C7  UNL     1     -33.368  16.268  -3.063  1.00 20.00     0.395 C 
HETATM    3  N9  UNL     1     -32.654  18.276  -1.535  1.00 20.00    -0.195 NA
ENDROOT
BRANCH   2   4
HETATM    4  N10 UNL     1     -34.010  16.742  -4.280  1.00 20.00     0.101 N 
HETATM    5  C6  UNL     1     -34.983  17.784  -3.992  1.00 20.00     0.311 C 
BRANCH   4   6
HETATM    6  C8  UNL     1     -34.677  15.610  -4.967  1.00 20.00     0.223 C 
HETATM    7  C5  UNL     1     -34.331  14.320  -4.238  1.00 20.00     0.043 C 
BRANCH   6   8
HETATM    8  C4  UNL     1     -34.229  15.574  -6.421  1.00 20.00     0.018 A 
HETATM    9  C2  UNL     1     -35.244  15.452  -7.524  1.00 20.00     0.007 A 
HETATM   10  C3  UNL     1     -34.501  16.743  -7.326  1.00 20.00     0.007 A 
ENDBRANCH   6   8
ENDBRANCH   4   6
ENDBRANCH   2   4
TORSDOF 3
ENDMDL
