MODEL 1
REMARK VINA RESULT:      -4.4      0.000      0.000
REMARK  3 active torsions:
REMARK  status: ('A' for Active; 'I' for Inactive)
REMARK    1  A    between atoms: C5_5  and  C9_9 
REMARK    2  A    between atoms: C8_8  and  N10_10 
REMARK    3  A    between atoms: C9_9  and  N10_10 
ROOT
HETATM    1  C1  UNL     1     -32.569   9.127   0.734  1.00 20.00     0.013 C 
HETATM    2  C2  UNL     1     -32.400   8.430   1.697  1.00 20.00    -0.087 C 
HETATM    3  C8  UNL     1     -32.190   7.577   2.869  1.00 20.00     0.364 C 
ENDROOT
BRANCH   3   4
HETATM    4  N10 UNL     1     -32.918   8.094   4.018  1.00 20.00     0.099 N 
HETATM    5  C7  UNL     1     -32.147   9.108   4.719  1.00 20.00     0.311 C 
BRANCH   4   6
HETATM    6  C9  UNL     1     -33.243   6.982   4.946  1.00 20.00     0.223 C 
HETATM    7  C6  UNL     1     -33.982   7.545   6.150  1.00 20.00     0.043 C 
BRANCH   6   8
HETATM    8  C5  UNL     1     -34.076   5.944   4.208  1.00 20.00     0.018 A 
HETATM    9  C3  UNL     1     -34.500   4.679   4.902  1.00 20.00     0.007 A 
HETATM   10  C4  UNL     1     -35.519   5.735   4.572  1.00 20.00     0.007 A 
ENDBRANCH   6   8
ENDBRANCH   4   6
ENDBRANCH   3   4
TORSDOF 3
ENDMDL
MODEL 2
REMARK VINA RESULT:      -4.1      1.016      1.697
REMARK  3 active torsions:
REMARK  status: ('A' for Active; 'I' for Inactive)
REMARK    1  A    between atoms: C5_5  and  C9_9 
REMARK    2  A    between atoms: C8_8  and  N10_10 
REMARK    3  A    between atoms: C9_9  and  N10_10 
ROOT
HETATM    1  C1  UNL     1     -32.561   9.142   0.535  1.00 20.00     0.013 C 
HETATM    2  C2  UNL     1     -32.395   8.419   1.480  1.00 20.00    -0.087 C 
HETATM    3  C8  UNL     1     -32.188   7.535   2.629  1.00 20.00     0.364 C 
ENDROOT
BRANCH   3   4
HETATM    4  N10 UNL     1     -33.060   7.913   3.731  1.00 20.00     0.099 N 
HETATM    5  C7  UNL     1     -32.298   8.457   4.844  1.00 20.00     0.311 C 
BRANCH   4   6
HETATM    6  C9  UNL     1     -33.833   6.731   4.185  1.00 20.00     0.223 C 
HETATM    7  C6  UNL     1     -33.410   5.521   3.367  1.00 20.00     0.043 C 
BRANCH   6   8
HETATM    8  C5  UNL     1     -33.590   6.518   5.673  1.00 20.00     0.018 A 
HETATM    9  C3  UNL     1     -34.734   6.593   6.646  1.00 20.00     0.007 A 
HETATM   10  C4  UNL     1     -34.084   5.270   6.349  1.00 20.00     0.007 A 
ENDBRANCH   6   8
ENDBRANCH   4   6
ENDBRANCH   3   4
TORSDOF 3
ENDMDL
MODEL 3
REMARK VINA RESULT:      -3.8      1.303      2.388
REMARK  3 active torsions:
REMARK  status: ('A' for Active; 'I' for Inactive)
REMARK    1  A    between atoms: C5_5  and  C9_9 
REMARK    2  A    between atoms: C8_8  and  N10_10 
REMARK    3  A    between atoms: C9_9  and  N10_10 
ROOT
HETATM    1  C1  UNL     1     -33.081   4.585   2.578  1.00 20.00     0.013 C 
HETATM    2  C2  UNL     1     -32.633   5.698   2.627  1.00 20.00    -0.087 C 
HETATM    3  C8  UNL     1     -32.082   7.054   2.682  1.00 20.00     0.364 C 
ENDROOT
BRANCH   3   4
HETATM    4  N10 UNL     1     -32.993   7.950   3.378  1.00 20.00     0.099 N 
HETATM    5  C7  UNL     1     -32.803   9.329   2.955  1.00 20.00     0.311 C 
BRANCH   4   6
HETATM    6  C9  UNL     1     -32.779   7.844   4.843  1.00 20.00     0.223 C 
HETATM    7  C6  UNL     1     -32.199   9.154   5.353  1.00 20.00     0.043 C 
BRANCH   6   8
HETATM    8  C5  UNL     1     -34.102   7.512   5.517  1.00 20.00     0.018 A 
HETATM    9  C3  UNL     1     -34.862   6.274   5.129  1.00 20.00     0.007 A 
HETATM   10  C4  UNL     1     -34.195   6.357   6.474  1.00 20.00     0.007 A 
ENDBRANCH   6   8
ENDBRANCH   4   6
ENDBRANCH   3   4
TORSDOF 3
ENDMDL
MODEL 4
REMARK VINA RESULT:      -3.7      9.583     10.377
REMARK  3 active torsions:
REMARK  status: ('A' for Active; 'I' for Inactive)
REMARK    1  A    between atoms: C5_5  and  C9_9 
REMARK    2  A    between atoms: C8_8  and  N10_10 
REMARK    3  A    between atoms: C9_9  and  N10_10 
ROOT
HETATM    1  C1  UNL     1     -42.270  15.084   3.077  1.00 20.00     0.013 C 
HETATM    2  C2  UNL     1     -42.569  14.718   4.180  1.00 20.00    -0.087 C 
HETATM    3  C8  UNL     1     -42.938  14.276   5.526  1.00 20.00     0.364 C 
ENDROOT
BRANCH   3   4
HETATM    4  N10 UNL     1     -42.224  13.059   5.881  1.00 20.00     0.099 N 
HETATM    5  C7  UNL     1     -42.697  12.519   7.147  1.00 20.00     0.311 C 
BRANCH   4   6
HETATM    6  C9  UNL     1     -40.770  13.339   5.970  1.00 20.00     0.223 C 
HETATM    7  C6  UNL     1     -40.463  13.926   7.339  1.00 20.00     0.043 C 
BRANCH   6   8
HETATM    8  C5  UNL     1     -39.998  12.051   5.723  1.00 20.00     0.018 A 
HETATM    9  C3  UNL     1     -39.357  11.796   4.386  1.00 20.00     0.007 A 
HETATM   10  C4  UNL     1     -38.501  12.081   5.589  1.00 20.00     0.007 A 
ENDBRANCH   6   8
ENDBRANCH   4   6
ENDBRANCH   3   4
TORSDOF 3
ENDMDL
MODEL 5
REMARK VINA RESULT:      -3.7      1.411      3.621
REMARK  3 active torsions:
REMARK  status: ('A' for Active; 'I' for Inactive)
REMARK    1  A    between atoms: C5_5  and  C9_9 
REMARK    2  A    between atoms: C8_8  and  N10_10 
REMARK    3  A    between atoms: C9_9  and  N10_10 
ROOT
HETATM    1  C1  UNL     1     -34.587   5.457   6.685  1.00 20.00     0.013 C 
HETATM    2  C2  UNL     1     -34.332   6.512   6.172  1.00 20.00    -0.087 C 
HETATM    3  C8  UNL     1     -34.027   7.801   5.549  1.00 20.00     0.364 C 
ENDROOT
BRANCH   3   4
HETATM    4  N10 UNL     1     -32.759   7.740   4.837  1.00 20.00     0.099 N 
HETATM    5  C7  UNL     1     -32.081   9.027   4.853  1.00 20.00     0.311 C 
BRANCH   4   6
HETATM    6  C9  UNL     1     -32.993   7.317   3.434  1.00 20.00     0.223 C 
HETATM    7  C6  UNL     1     -32.170   8.199   2.509  1.00 20.00     0.043 C 
BRANCH   6   8
HETATM    8  C5  UNL     1     -32.624   5.848   3.288  1.00 20.00     0.018 A 
HETATM    9  C3  UNL     1     -33.697   4.794   3.275  1.00 20.00     0.007 A 
HETATM   10  C4  UNL     1     -32.938   5.111   2.016  1.00 20.00     0.007 A 
ENDBRANCH   6   8
ENDBRANCH   4   6
ENDBRANCH   3   4
TORSDOF 3
ENDMDL
MODEL 6
REMARK VINA RESULT:      -3.7      1.574      3.600
REMARK  3 active torsions:
REMARK  status: ('A' for Active; 'I' for Inactive)
REMARK    1  A    between atoms: C5_5  and  C9_9 
REMARK    2  A    between atoms: C8_8  and  N10_10 
REMARK    3  A    between atoms: C9_9  and  N10_10 
ROOT
HETATM    1  C1  UNL     1     -32.808   4.927   2.177  1.00 20.00     0.013 C 
HETATM    2  C2  UNL     1     -33.591   5.081   3.073  1.00 20.00    -0.087 C 
HETATM    3  C8  UNL     1     -34.552   5.266   4.163  1.00 20.00     0.364 C 
ENDROOT
BRANCH   3   4
HETATM    4  N10 UNL     1     -33.890   5.794   5.347  1.00 20.00     0.099 N 
HETATM    5  C7  UNL     1     -34.540   5.335   6.565  1.00 20.00     0.311 C 
BRANCH   4   6
HETATM    6  C9  UNL     1     -33.897   7.277   5.306  1.00 20.00     0.223 C 
HETATM    7  C6  UNL     1     -34.090   7.809   6.717  1.00 20.00     0.043 C 
BRANCH   6   8
HETATM    8  C5  UNL     1     -32.591   7.765   4.693  1.00 20.00     0.018 A 
HETATM    9  C3  UNL     1     -32.608   8.647   3.475  1.00 20.00     0.007 A 
HETATM   10  C4  UNL     1     -32.196   9.210   4.807  1.00 20.00     0.007 A 
ENDBRANCH   6   8
ENDBRANCH   4   6
ENDBRANCH   3   4
TORSDOF 3
ENDMDL
MODEL 7
REMARK VINA RESULT:      -3.6     11.432     12.396
REMARK  3 active torsions:
REMARK  status: ('A' for Active; 'I' for Inactive)
REMARK    1  A    between atoms: C5_5  and  C9_9 
REMARK    2  A    between atoms: C8_8  and  N10_10 
REMARK    3  A    between atoms: C9_9  and  N10_10 
ROOT
HETATM    1  C1  UNL     1     -33.991  14.738  -4.414  1.00 20.00     0.013 C 
HETATM    2  C2  UNL     1     -33.645  15.564  -3.614  1.00 20.00    -0.087 C 
HETATM    3  C8  UNL     1     -33.218  16.568  -2.637  1.00 20.00     0.364 C 
ENDROOT
BRANCH   3   4
HETATM    4  N10 UNL     1     -33.894  17.835  -2.873  1.00 20.00     0.099 N 
HETATM    5  C7  UNL     1     -33.465  18.436  -4.126  1.00 20.00     0.311 C 
BRANCH   4   6
HETATM    6  C9  UNL     1     -33.618  18.766  -1.751  1.00 20.00     0.223 C 
HETATM    7  C6  UNL     1     -34.936  19.174  -1.113  1.00 20.00     0.043 C 
BRANCH   6   8
HETATM    8  C5  UNL     1     -32.695  18.083  -0.752  1.00 20.00     0.018 A 
HETATM    9  C3  UNL     1     -31.372  18.702  -0.395  1.00 20.00     0.007 A 
HETATM   10  C4  UNL     1     -32.487  18.676   0.613  1.00 20.00     0.007 A 
ENDBRANCH   6   8
ENDBRANCH   4   6
ENDBRANCH   3   4
TORSDOF 3
ENDMDL
MODEL 8
REMARK VINA RESULT:      -3.6     11.096     12.484
REMARK  3 active torsions:
REMARK  status: ('A' for Active; 'I' for Inactive)
REMARK    1  A    between atoms: C5_5  and  C9_9 
REMARK    2  A    between atoms: C8_8  and  N10_10 
REMARK    3  A    between atoms: C9_9  and  N10_10 
ROOT
HETATM    1  C1  UNL     1     -31.228  18.620  -0.162  1.00 20.00     0.013 C 
HETATM    2  C2  UNL     1     -32.160  18.218  -0.804  1.00 20.00    -0.087 C 
HETATM    3  C8  UNL     1     -33.300  17.727  -1.581  1.00 20.00     0.364 C 
ENDROOT
BRANCH   3   4
HETATM    4  N10 UNL     1     -33.012  17.785  -3.007  1.00 20.00     0.099 N 
HETATM    5  C7  UNL     1     -33.036  19.155  -3.496  1.00 20.00     0.311 C 
BRANCH   4   6
HETATM    6  C9  UNL     1     -34.005  16.972  -3.751  1.00 20.00     0.223 C 
HETATM    7  C6  UNL     1     -34.392  17.709  -5.024  1.00 20.00     0.043 C 
BRANCH   6   8
HETATM    8  C5  UNL     1     -33.405  15.606  -4.052  1.00 20.00     0.018 A 
HETATM    9  C3  UNL     1     -34.278  14.381  -4.069  1.00 20.00     0.007 A 
HETATM   10  C4  UNL     1     -33.707  14.917  -5.353  1.00 20.00     0.007 A 
ENDBRANCH   6   8
ENDBRANCH   4   6
ENDBRANCH   3   4
TORSDOF 3
ENDMDL
MODEL 9
REMARK VINA RESULT:      -3.6     11.277     12.389
REMARK  3 active torsions:
REMARK  status: ('A' for Active; 'I' for Inactive)
REMARK    1  A    between atoms: C5_5  and  C9_9 
REMARK    2  A    between atoms: C8_8  and  N10_10 
REMARK    3  A    between atoms: C9_9  and  N10_10 
ROOT
HETATM    1  C1  UNL     1     -32.270  18.256  -1.156  1.00 20.00     0.013 C 
HETATM    2  C2  UNL     1     -32.853  17.450  -1.828  1.00 20.00    -0.087 C 
HETATM    3  C8  UNL     1     -33.564  16.462  -2.642  1.00 20.00     0.364 C 
ENDROOT
BRANCH   3   4
HETATM    4  N10 UNL     1     -33.773  16.965  -3.992  1.00 20.00     0.099 N 
HETATM    5  C7  UNL     1     -34.957  17.807  -4.064  1.00 20.00     0.311 C 
BRANCH   4   6
HETATM    6  C9  UNL     1     -33.912  15.827  -4.934  1.00 20.00     0.223 C 
HETATM    7  C6  UNL     1     -33.423  14.559  -4.251  1.00 20.00     0.043 C 
BRANCH   6   8
HETATM    8  C5  UNL     1     -35.367  15.711  -5.365  1.00 20.00     0.018 A 
HETATM    9  C3  UNL     1     -35.722  15.032  -6.659  1.00 20.00     0.007 A 
HETATM   10  C4  UNL     1     -36.056  14.375  -5.347  1.00 20.00     0.007 A 
ENDBRANCH   6   8
ENDBRANCH   4   6
ENDBRANCH   3   4
TORSDOF 3
ENDMDL
