MODEL 1
REMARK VINA RESULT:      -4.8      0.000      0.000
REMARK  2 active torsions:
REMARK  status: ('A' for Active; 'I' for Inactive)
REMARK    1  A    between atoms: C1_1  and  C3_3 
REMARK    2  A    between atoms: C1_1  and  C8_8 
ROOT
HETATM    1  C2  UNL     1     -32.178   8.898   4.836  1.00 20.00     0.022 A 
HETATM    2  C3  UNL     1     -33.575   8.343   4.741  1.00 20.00     0.064 A 
HETATM    3  C4  UNL     1     -32.666   8.329   3.525  1.00 20.00    -0.037 A 
HETATM    4  C5  UNL     1     -32.984   9.294   2.413  1.00 20.00     0.015 C 
HETATM    5  C6  UNL     1     -32.060   7.032   3.057  1.00 20.00     0.015 C 
ENDROOT
BRANCH   2   6
HETATM    6  C1  UNL     1     -33.908   7.101   5.450  1.00 20.00     0.131 C 
HETATM    7  O9  UNL     1     -33.366   6.816   6.517  1.00 20.00    -0.298 OA
BRANCH   6   8
HETATM    8  C8  UNL     1     -34.945   6.212   4.790  1.00 20.00     0.074 C 
HETATM    9  C7  UNL     1     -34.521   4.756   4.740  1.00 20.00     0.013 C 
ENDBRANCH   6   8
ENDBRANCH   2   6
TORSDOF 2
ENDMDL
MODEL 2
REMARK VINA RESULT:      -4.8      1.130      3.503
REMARK  2 active torsions:
REMARK  status: ('A' for Active; 'I' for Inactive)
REMARK    1  A    between atoms: C1_1  and  C3_3 
REMARK    2  A    between atoms: C1_1  and  C8_8 
ROOT
HETATM    1  C2  UNL     1     -34.409   6.060   6.470  1.00 20.00     0.022 A 
HETATM    2  C3  UNL     1     -33.417   6.625   5.487  1.00 20.00     0.064 A 
HETATM    3  C4  UNL     1     -34.508   5.682   5.011  1.00 20.00    -0.037 A 
HETATM    4  C5  UNL     1     -34.095   4.289   4.615  1.00 20.00     0.015 C 
HETATM    5  C6  UNL     1     -35.676   6.221   4.227  1.00 20.00     0.015 C 
ENDROOT
BRANCH   2   6
HETATM    6  C1  UNL     1     -33.459   8.056   5.160  1.00 20.00     0.131 C 
HETATM    7  O9  UNL     1     -34.140   8.837   5.823  1.00 20.00    -0.298 OA
BRANCH   6   8
HETATM    8  C8  UNL     1     -32.623   8.494   3.973  1.00 20.00     0.074 C 
HETATM    9  C7  UNL     1     -32.189   7.331   3.101  1.00 20.00     0.013 C 
ENDBRANCH   6   8
ENDBRANCH   2   6
TORSDOF 2
ENDMDL
MODEL 3
REMARK VINA RESULT:      -4.5      1.713      3.437
REMARK  2 active torsions:
REMARK  status: ('A' for Active; 'I' for Inactive)
REMARK    1  A    between atoms: C1_1  and  C3_3 
REMARK    2  A    between atoms: C1_1  and  C8_8 
ROOT
HETATM    1  C2  UNL     1     -34.120   7.573   6.163  1.00 20.00     0.022 A 
HETATM    2  C3  UNL     1     -33.136   6.957   5.204  1.00 20.00     0.064 A 
HETATM    3  C4  UNL     1     -34.447   6.253   5.507  1.00 20.00    -0.037 A 
HETATM    4  C5  UNL     1     -34.384   5.010   6.356  1.00 20.00     0.015 C 
HETATM    5  C6  UNL     1     -35.545   6.236   4.476  1.00 20.00     0.015 C 
ENDROOT
BRANCH   2   6
HETATM    6  C1  UNL     1     -32.903   7.592   3.901  1.00 20.00     0.131 C 
HETATM    7  O9  UNL     1     -33.278   8.743   3.681  1.00 20.00    -0.298 OA
BRANCH   6   8
HETATM    8  C8  UNL     1     -32.183   6.748   2.866  1.00 20.00     0.074 C 
HETATM    9  C7  UNL     1     -32.847   5.402   2.644  1.00 20.00     0.013 C 
ENDBRANCH   6   8
ENDBRANCH   2   6
TORSDOF 2
ENDMDL
MODEL 4
REMARK VINA RESULT:      -4.3      1.621      3.794
REMARK  2 active torsions:
REMARK  status: ('A' for Active; 'I' for Inactive)
REMARK    1  A    between atoms: C1_1  and  C3_3 
REMARK    2  A    between atoms: C1_1  and  C8_8 
ROOT
HETATM    1  C2  UNL     1     -34.137   7.803   5.819  1.00 20.00     0.022 A 
HETATM    2  C3  UNL     1     -33.059   7.029   5.105  1.00 20.00     0.064 A 
HETATM    3  C4  UNL     1     -34.386   6.366   5.427  1.00 20.00    -0.037 A 
HETATM    4  C5  UNL     1     -34.394   5.329   6.519  1.00 20.00     0.015 C 
HETATM    5  C6  UNL     1     -35.380   6.103   4.326  1.00 20.00     0.015 C 
ENDROOT
BRANCH   2   6
HETATM    6  C1  UNL     1     -32.708   7.387   3.724  1.00 20.00     0.131 C 
HETATM    7  O9  UNL     1     -32.433   6.520   2.896  1.00 20.00    -0.298 OA
BRANCH   6   8
HETATM    8  C8  UNL     1     -32.708   8.868   3.397  1.00 20.00     0.074 C 
HETATM    9  C7  UNL     1     -32.745   9.137   1.904  1.00 20.00     0.013 C 
ENDBRANCH   6   8
ENDBRANCH   2   6
TORSDOF 2
ENDMDL
MODEL 5
REMARK VINA RESULT:      -4.2      1.713      3.973
REMARK  2 active torsions:
REMARK  status: ('A' for Active; 'I' for Inactive)
REMARK    1  A    between atoms: C1_1  and  C3_3 
REMARK    2  A    between atoms: C1_1  and  C8_8 
ROOT
HETATM    1  C2  UNL     1     -35.378   6.079   4.236  1.00 20.00     0.022 A 
HETATM    2  C3  UNL     1     -34.046   6.707   4.557  1.00 20.00     0.064 A 
HETATM    3  C4  UNL     1     -34.443   5.390   5.201  1.00 20.00    -0.037 A 
HETATM    4  C5  UNL     1     -34.797   5.414   6.665  1.00 20.00     0.015 C 
HETATM    5  C6  UNL     1     -33.792   4.108   4.749  1.00 20.00     0.015 C 
ENDROOT
BRANCH   2   6
HETATM    6  C1  UNL     1     -33.005   6.759   3.523  1.00 20.00     0.131 C 
HETATM    7  O9  UNL     1     -32.973   5.931   2.614  1.00 20.00    -0.298 OA
BRANCH   6   8
HETATM    8  C8  UNL     1     -31.992   7.881   3.652  1.00 20.00     0.074 C 
HETATM    9  C7  UNL     1     -32.320   8.839   4.781  1.00 20.00     0.013 C 
ENDBRANCH   6   8
ENDBRANCH   2   6
TORSDOF 2
ENDMDL
MODEL 6
REMARK VINA RESULT:      -3.8      8.516      9.394
REMARK  2 active torsions:
REMARK  status: ('A' for Active; 'I' for Inactive)
REMARK    1  A    between atoms: C1_1  and  C3_3 
REMARK    2  A    between atoms: C1_1  and  C8_8 
ROOT
HETATM    1  C2  UNL     1     -41.871  12.522   6.744  1.00 20.00     0.022 A 
HETATM    2  C3  UNL     1     -40.756  12.464   5.731  1.00 20.00     0.064 A 
HETATM    3  C4  UNL     1     -41.420  13.790   6.059  1.00 20.00    -0.037 A 
HETATM    4  C5  UNL     1     -42.326  14.386   5.014  1.00 20.00     0.015 C 
HETATM    5  C6  UNL     1     -40.687  14.811   6.889  1.00 20.00     0.015 C 
ENDROOT
BRANCH   2   6
HETATM    6  C1  UNL     1     -39.389  12.173   6.179  1.00 20.00     0.131 C 
HETATM    7  O9  UNL     1     -39.114  12.114   7.377  1.00 20.00    -0.298 OA
BRANCH   6   8
HETATM    8  C8  UNL     1     -38.360  11.953   5.086  1.00 20.00     0.074 C 
HETATM    9  C7  UNL     1     -38.993  11.660   3.739  1.00 20.00     0.013 C 
ENDBRANCH   6   8
ENDBRANCH   2   6
TORSDOF 2
ENDMDL
MODEL 7
REMARK VINA RESULT:      -3.6      9.147     10.082
REMARK  2 active torsions:
REMARK  status: ('A' for Active; 'I' for Inactive)
REMARK    1  A    between atoms: C1_1  and  C3_3 
REMARK    2  A    between atoms: C1_1  and  C8_8 
ROOT
HETATM    1  C2  UNL     1     -41.900  14.315   6.004  1.00 20.00     0.022 A 
HETATM    2  C3  UNL     1     -40.753  13.741   6.794  1.00 20.00     0.064 A 
HETATM    3  C4  UNL     1     -42.183  13.507   7.247  1.00 20.00    -0.037 A 
HETATM    4  C5  UNL     1     -42.649  14.243   8.475  1.00 20.00     0.015 C 
HETATM    5  C6  UNL     1     -42.814  12.150   7.071  1.00 20.00     0.015 C 
ENDROOT
BRANCH   2   6
HETATM    6  C1  UNL     1     -39.955  12.650   6.219  1.00 20.00     0.131 C 
HETATM    7  O9  UNL     1     -39.265  11.925   6.934  1.00 20.00    -0.298 OA
BRANCH   6   8
HETATM    8  C8  UNL     1     -40.040  12.483   4.714  1.00 20.00     0.074 C 
HETATM    9  C7  UNL     1     -38.942  11.592   4.162  1.00 20.00     0.013 C 
ENDBRANCH   6   8
ENDBRANCH   2   6
TORSDOF 2
ENDMDL
MODEL 8
REMARK VINA RESULT:      -3.5     11.576     13.052
REMARK  2 active torsions:
REMARK  status: ('A' for Active; 'I' for Inactive)
REMARK    1  A    between atoms: C1_1  and  C3_3 
REMARK    2  A    between atoms: C1_1  and  C8_8 
ROOT
HETATM    1  C2  UNL     1     -35.566  14.821  -6.624  1.00 20.00     0.022 A 
HETATM    2  C3  UNL     1     -34.241  15.155  -5.990  1.00 20.00     0.064 A 
HETATM    3  C4  UNL     1     -35.228  16.261  -6.320  1.00 20.00    -0.037 A 
HETATM    4  C5  UNL     1     -34.893  17.165  -7.477  1.00 20.00     0.015 C 
HETATM    5  C6  UNL     1     -35.991  16.939  -5.213  1.00 20.00     0.015 C 
ENDROOT
BRANCH   2   6
HETATM    6  C1  UNL     1     -33.986  14.760  -4.599  1.00 20.00     0.131 C 
HETATM    7  O9  UNL     1     -34.625  13.852  -4.071  1.00 20.00    -0.298 OA
BRANCH   6   8
HETATM    8  C8  UNL     1     -32.901  15.534  -3.874  1.00 20.00     0.074 C 
HETATM    9  C7  UNL     1     -33.448  16.392  -2.748  1.00 20.00     0.013 C 
ENDBRANCH   6   8
ENDBRANCH   2   6
TORSDOF 2
ENDMDL
MODEL 9
REMARK VINA RESULT:      -3.5     11.739     12.618
REMARK  2 active torsions:
REMARK  status: ('A' for Active; 'I' for Inactive)
REMARK    1  A    between atoms: C1_1  and  C3_3 
REMARK    2  A    between atoms: C1_1  and  C8_8 
ROOT
HETATM    1  C2  UNL     1     -32.554  15.292  -4.163  1.00 20.00     0.022 A 
HETATM    2  C3  UNL     1     -34.021  14.949  -4.150  1.00 20.00     0.064 A 
HETATM    3  C4  UNL     1     -33.552  16.305  -3.653  1.00 20.00    -0.037 A 
HETATM    4  C5  UNL     1     -33.606  16.554  -2.169  1.00 20.00     0.015 C 
HETATM    5  C6  UNL     1     -33.790  17.534  -4.490  1.00 20.00     0.015 C 
ENDROOT
BRANCH   2   6
HETATM    6  C1  UNL     1     -34.743  14.819  -5.422  1.00 20.00     0.131 C 
HETATM    7  O9  UNL     1     -34.142  14.819  -6.495  1.00 20.00    -0.298 OA
BRANCH   6   8
HETATM    8  C8  UNL     1     -36.251  14.688  -5.324  1.00 20.00     0.074 C 
HETATM    9  C7  UNL     1     -36.973  15.990  -5.617  1.00 20.00     0.013 C 
ENDBRANCH   6   8
ENDBRANCH   2   6
TORSDOF 2
ENDMDL
