MODEL 1
REMARK VINA RESULT:      -5.2      0.000      0.000
REMARK  1 active torsions:
REMARK  status: ('A' for Active; 'I' for Inactive)
REMARK    1  A    between atoms: C4_4  and  C8_8 
ROOT
HETATM    1  C1  UNL     1     -33.132   6.289   3.322  1.00 20.00    -0.057 C 
HETATM    2  C2  UNL     1     -32.928   5.066   2.807  1.00 20.00     0.017 C 
HETATM    3  C5  UNL     1     -32.374   7.484   2.794  1.00 20.00     0.038 C 
HETATM    4  C6  UNL     1     -31.749   8.260   3.950  1.00 20.00     0.030 C 
HETATM    5  C7  UNL     1     -32.780   8.543   5.037  1.00 20.00     0.169 C 
HETATM    6  C8  UNL     1     -34.088   6.636   4.449  1.00 20.00     0.171 C 
HETATM    7  O9  UNL     1     -33.372   7.322   5.487  1.00 20.00    -0.378 OA
ENDROOT
BRANCH   6   8
HETATM    8  C4  UNL     1     -34.772   5.470   5.085  1.00 20.00    -0.001 C 
HETATM    9  C3  UNL     1     -34.603   5.108   6.360  1.00 20.00     0.010 C 
ENDBRANCH   6   8
TORSDOF 1
ENDMDL
MODEL 2
REMARK VINA RESULT:      -5.1      1.240      3.545
REMARK  1 active torsions:
REMARK  status: ('A' for Active; 'I' for Inactive)
REMARK    1  A    between atoms: C4_4  and  C8_8 
ROOT
HETATM    1  C1  UNL     1     -34.355   6.283   5.362  1.00 20.00    -0.057 C 
HETATM    2  C2  UNL     1     -34.472   6.431   6.691  1.00 20.00     0.017 C 
HETATM    3  C5  UNL     1     -34.773   4.996   4.690  1.00 20.00     0.038 C 
HETATM    4  C6  UNL     1     -33.656   4.493   3.779  1.00 20.00     0.030 C 
HETATM    5  C7  UNL     1     -33.163   5.605   2.859  1.00 20.00     0.169 C 
HETATM    6  C8  UNL     1     -33.810   7.314   4.392  1.00 20.00     0.171 C 
HETATM    7  O9  UNL     1     -32.742   6.734   3.627  1.00 20.00    -0.378 OA
ENDROOT
BRANCH   6   8
HETATM    8  C4  UNL     1     -33.272   8.558   5.021  1.00 20.00    -0.001 C 
HETATM    9  C3  UNL     1     -32.064   9.068   4.759  1.00 20.00     0.010 C 
ENDBRANCH   6   8
TORSDOF 1
ENDMDL
MODEL 3
REMARK VINA RESULT:      -4.8      1.258      3.248
REMARK  1 active torsions:
REMARK  status: ('A' for Active; 'I' for Inactive)
REMARK    1  A    between atoms: C4_4  and  C8_8 
ROOT
HETATM    1  C1  UNL     1     -33.259   7.551   4.637  1.00 20.00    -0.057 C 
HETATM    2  C2  UNL     1     -32.169   8.277   4.340  1.00 20.00     0.017 C 
HETATM    3  C5  UNL     1     -34.099   7.883   5.849  1.00 20.00     0.038 C 
HETATM    4  C6  UNL     1     -34.334   6.626   6.683  1.00 20.00     0.030 C 
HETATM    5  C7  UNL     1     -34.832   5.479   5.811  1.00 20.00     0.169 C 
HETATM    6  C8  UNL     1     -33.777   6.356   3.859  1.00 20.00     0.171 C 
HETATM    7  O9  UNL     1     -33.914   5.233   4.744  1.00 20.00    -0.378 OA
ENDROOT
BRANCH   6   8
HETATM    8  C4  UNL     1     -32.915   5.914   2.722  1.00 20.00    -0.001 C 
HETATM    9  C3  UNL     1     -32.833   4.651   2.291  1.00 20.00     0.010 C 
ENDBRANCH   6   8
TORSDOF 1
ENDMDL
MODEL 4
REMARK VINA RESULT:      -4.5      1.233      2.732
REMARK  1 active torsions:
REMARK  status: ('A' for Active; 'I' for Inactive)
REMARK    1  A    between atoms: C4_4  and  C8_8 
ROOT
HETATM    1  C1  UNL     1     -34.152   6.432   4.853  1.00 20.00    -0.057 C 
HETATM    2  C2  UNL     1     -35.267   5.712   4.646  1.00 20.00     0.017 C 
HETATM    3  C5  UNL     1     -33.994   7.266   6.103  1.00 20.00     0.038 C 
HETATM    4  C6  UNL     1     -33.572   8.686   5.735  1.00 20.00     0.030 C 
HETATM    5  C7  UNL     1     -32.383   8.670   4.779  1.00 20.00     0.169 C 
HETATM    6  C8  UNL     1     -32.960   6.522   3.919  1.00 20.00     0.171 C 
HETATM    7  O9  UNL     1     -32.692   7.900   3.617  1.00 20.00    -0.378 OA
ENDROOT
BRANCH   6   8
HETATM    8  C4  UNL     1     -33.118   5.810   2.614  1.00 20.00    -0.001 C 
HETATM    9  C3  UNL     1     -32.798   4.527   2.419  1.00 20.00     0.010 C 
ENDBRANCH   6   8
TORSDOF 1
ENDMDL
MODEL 5
REMARK VINA RESULT:      -4.4      1.147      2.367
REMARK  1 active torsions:
REMARK  status: ('A' for Active; 'I' for Inactive)
REMARK    1  A    between atoms: C4_4  and  C8_8 
ROOT
HETATM    1  C1  UNL     1     -33.202   7.626   4.681  1.00 20.00    -0.057 C 
HETATM    2  C2  UNL     1     -33.805   8.613   5.364  1.00 20.00     0.017 C 
HETATM    3  C5  UNL     1     -32.031   7.921   3.774  1.00 20.00     0.038 C 
HETATM    4  C6  UNL     1     -32.261   7.295   2.401  1.00 20.00     0.030 C 
HETATM    5  C7  UNL     1     -32.661   5.829   2.531  1.00 20.00     0.169 C 
HETATM    6  C8  UNL     1     -33.586   6.158   4.705  1.00 20.00     0.171 C 
HETATM    7  O9  UNL     1     -33.816   5.703   3.363  1.00 20.00    -0.378 OA
ENDROOT
BRANCH   6   8
HETATM    8  C4  UNL     1     -34.813   5.834   5.494  1.00 20.00    -0.001 C 
HETATM    9  C3  UNL     1     -34.796   5.285   6.712  1.00 20.00     0.010 C 
ENDBRANCH   6   8
TORSDOF 1
ENDMDL
MODEL 6
REMARK VINA RESULT:      -4.2      1.044      3.178
REMARK  1 active torsions:
REMARK  status: ('A' for Active; 'I' for Inactive)
REMARK    1  A    between atoms: C4_4  and  C8_8 
ROOT
HETATM    1  C1  UNL     1     -33.338   5.486   3.628  1.00 20.00    -0.057 C 
HETATM    2  C2  UNL     1     -33.229   5.124   2.340  1.00 20.00     0.017 C 
HETATM    3  C5  UNL     1     -34.031   4.587   4.625  1.00 20.00     0.038 C 
HETATM    4  C6  UNL     1     -35.069   5.382   5.414  1.00 20.00     0.030 C 
HETATM    5  C7  UNL     1     -34.463   6.667   5.970  1.00 20.00     0.169 C 
HETATM    6  C8  UNL     1     -32.824   6.775   4.241  1.00 20.00     0.171 C 
HETATM    7  O9  UNL     1     -33.900   7.447   4.914  1.00 20.00    -0.378 OA
ENDROOT
BRANCH   6   8
HETATM    8  C4  UNL     1     -32.236   7.750   3.273  1.00 20.00    -0.001 C 
HETATM    9  C3  UNL     1     -32.628   9.023   3.162  1.00 20.00     0.010 C 
ENDBRANCH   6   8
TORSDOF 1
ENDMDL
MODEL 7
REMARK VINA RESULT:      -3.8     16.150     16.988
REMARK  1 active torsions:
REMARK  status: ('A' for Active; 'I' for Inactive)
REMARK    1  A    between atoms: C4_4  and  C8_8 
ROOT
HETATM    1  C1  UNL     1     -23.991  18.577   9.843  1.00 20.00    -0.057 C 
HETATM    2  C2  UNL     1     -24.613  19.254   8.865  1.00 20.00     0.017 C 
HETATM    3  C5  UNL     1     -24.737  18.164  11.090  1.00 20.00     0.038 C 
HETATM    4  C6  UNL     1     -23.955  18.585  12.332  1.00 20.00     0.030 C 
HETATM    5  C7  UNL     1     -22.500  18.138  12.237  1.00 20.00     0.169 C 
HETATM    6  C8  UNL     1     -22.532  18.159   9.852  1.00 20.00     0.171 C 
HETATM    7  O9  UNL     1     -21.902  18.650  11.045  1.00 20.00    -0.378 OA
ENDROOT
BRANCH   6   8
HETATM    8  C4  UNL     1     -21.722  18.648   8.695  1.00 20.00    -0.001 C 
HETATM    9  C3  UNL     1     -21.305  17.870   7.692  1.00 20.00     0.010 C 
ENDBRANCH   6   8
TORSDOF 1
ENDMDL
MODEL 8
REMARK VINA RESULT:      -3.6      9.106     10.115
REMARK  1 active torsions:
REMARK  status: ('A' for Active; 'I' for Inactive)
REMARK    1  A    between atoms: C4_4  and  C8_8 
ROOT
HETATM    1  C1  UNL     1     -40.233  13.156   6.536  1.00 20.00    -0.057 C 
HETATM    2  C2  UNL     1     -40.332  14.126   7.459  1.00 20.00     0.017 C 
HETATM    3  C5  UNL     1     -39.164  12.094   6.646  1.00 20.00     0.038 C 
HETATM    4  C6  UNL     1     -38.413  11.968   5.323  1.00 20.00     0.030 C 
HETATM    5  C7  UNL     1     -39.385  11.829   4.156  1.00 20.00     0.169 C 
HETATM    6  C8  UNL     1     -41.116  12.992   5.313  1.00 20.00     0.171 C 
HETATM    7  O9  UNL     1     -40.296  12.930   4.137  1.00 20.00    -0.378 OA
ENDROOT
BRANCH   6   8
HETATM    8  C4  UNL     1     -42.112  14.085   5.096  1.00 20.00    -0.001 C 
HETATM    9  C3  UNL     1     -42.341  14.664   3.913  1.00 20.00     0.010 C 
ENDBRANCH   6   8
TORSDOF 1
ENDMDL
MODEL 9
REMARK VINA RESULT:      -3.5      1.035      3.111
REMARK  1 active torsions:
REMARK  status: ('A' for Active; 'I' for Inactive)
REMARK    1  A    between atoms: C4_4  and  C8_8 
ROOT
HETATM    1  C1  UNL     1     -32.681   6.718   3.158  1.00 20.00    -0.057 C 
HETATM    2  C2  UNL     1     -32.298   7.545   2.172  1.00 20.00     0.017 C 
HETATM    3  C5  UNL     1     -32.754   5.227   2.929  1.00 20.00     0.038 C 
HETATM    4  C6  UNL     1     -34.107   4.691   3.391  1.00 20.00     0.030 C 
HETATM    5  C7  UNL     1     -34.430   5.173   4.802  1.00 20.00     0.169 C 
HETATM    6  C8  UNL     1     -33.083   7.128   4.563  1.00 20.00     0.171 C 
HETATM    7  O9  UNL     1     -34.385   6.600   4.860  1.00 20.00    -0.378 OA
ENDROOT
BRANCH   6   8
HETATM    8  C4  UNL     1     -33.143   8.602   4.804  1.00 20.00    -0.001 C 
HETATM    9  C3  UNL     1     -32.078   9.355   5.098  1.00 20.00     0.010 C 
ENDBRANCH   6   8
TORSDOF 1
ENDMDL
