MODEL 1
REMARK VINA RESULT:      -4.3      0.000      0.000
REMARK  3 active torsions:
REMARK  status: ('A' for Active; 'I' for Inactive)
REMARK    1  A    between atoms: C4_4  and  C6_6 
REMARK    2  A    between atoms: C5_5  and  C7_7 
REMARK    3  A    between atoms: C6_6  and  C7_7 
ROOT
HETATM    1  C1  UNL     1     -32.967   8.379   4.972  1.00 20.00     0.064 C 
HETATM    2  C7  UNL     1     -34.110   7.458   5.136  1.00 20.00     0.092 C 
HETATM    3  N8  UNL     1     -32.070   9.104   4.842  1.00 20.00    -0.197 NA
ENDROOT
BRANCH   2   4
HETATM    4  C5  UNL     1     -34.005   6.701   6.474  1.00 20.00     0.014 C 
HETATM    5  C3  UNL     1     -34.528   5.269   6.453  1.00 20.00     0.006 C 
ENDBRANCH   2   4
BRANCH   2   6
HETATM    6  C6  UNL     1     -34.234   6.503   3.934  1.00 20.00     0.019 C 
BRANCH   6   7
HETATM    7  C4  UNL     1     -32.900   6.292   3.207  1.00 20.00    -0.003 C 
HETATM    8  C2  UNL     1     -32.854   4.937   2.516  1.00 20.00     0.005 C 
ENDBRANCH   6   7
ENDBRANCH   2   6
TORSDOF 3
ENDMDL
MODEL 2
REMARK VINA RESULT:      -4.3      0.788      2.820
REMARK  3 active torsions:
REMARK  status: ('A' for Active; 'I' for Inactive)
REMARK    1  A    between atoms: C4_4  and  C6_6 
REMARK    2  A    between atoms: C5_5  and  C7_7 
REMARK    3  A    between atoms: C6_6  and  C7_7 
ROOT
HETATM    1  C1  UNL     1     -32.553   8.268   4.678  1.00 20.00     0.064 C 
HETATM    2  C7  UNL     1     -33.078   6.939   4.305  1.00 20.00     0.092 C 
HETATM    3  N8  UNL     1     -32.141   9.312   4.973  1.00 20.00    -0.197 NA
ENDROOT
BRANCH   2   4
HETATM    4  C5  UNL     1     -32.600   6.547   2.893  1.00 20.00     0.014 C 
HETATM    5  C3  UNL     1     -32.896   5.108   2.484  1.00 20.00     0.006 C 
ENDBRANCH   2   4
BRANCH   2   6
HETATM    6  C6  UNL     1     -34.611   6.887   4.437  1.00 20.00     0.019 C 
BRANCH   6   7
HETATM    7  C4  UNL     1     -35.098   5.632   5.173  1.00 20.00    -0.003 C 
HETATM    8  C2  UNL     1     -34.361   5.440   6.490  1.00 20.00     0.005 C 
ENDBRANCH   6   7
ENDBRANCH   2   6
TORSDOF 3
ENDMDL
MODEL 3
REMARK VINA RESULT:      -4.0      1.955      3.495
REMARK  3 active torsions:
REMARK  status: ('A' for Active; 'I' for Inactive)
REMARK    1  A    between atoms: C4_4  and  C6_6 
REMARK    2  A    between atoms: C5_5  and  C7_7 
REMARK    3  A    between atoms: C6_6  and  C7_7 
ROOT
HETATM    1  C1  UNL     1     -33.042   5.949   3.062  1.00 20.00     0.064 C 
HETATM    2  C7  UNL     1     -33.342   7.269   3.651  1.00 20.00     0.092 C 
HETATM    3  N8  UNL     1     -32.807   4.912   2.597  1.00 20.00    -0.197 NA
ENDROOT
BRANCH   2   4
HETATM    4  C5  UNL     1     -32.047   8.079   3.850  1.00 20.00     0.014 C 
HETATM    5  C3  UNL     1     -32.102   9.134   4.951  1.00 20.00     0.006 C 
ENDBRANCH   2   4
BRANCH   2   6
HETATM    6  C6  UNL     1     -34.148   7.127   4.956  1.00 20.00     0.019 C 
BRANCH   6   7
HETATM    7  C4  UNL     1     -34.920   5.804   5.032  1.00 20.00    -0.003 C 
HETATM    8  C2  UNL     1     -34.590   5.042   6.307  1.00 20.00     0.005 C 
ENDBRANCH   6   7
ENDBRANCH   2   6
TORSDOF 3
ENDMDL
MODEL 4
REMARK VINA RESULT:      -3.9      2.452      3.026
REMARK  3 active torsions:
REMARK  status: ('A' for Active; 'I' for Inactive)
REMARK    1  A    between atoms: C4_4  and  C6_6 
REMARK    2  A    between atoms: C5_5  and  C7_7 
REMARK    3  A    between atoms: C6_6  and  C7_7 
ROOT
HETATM    1  C1  UNL     1     -32.955   6.369   3.459  1.00 20.00     0.064 C 
HETATM    2  C7  UNL     1     -32.625   7.679   4.056  1.00 20.00     0.092 C 
HETATM    3  N8  UNL     1     -33.212   5.339   2.990  1.00 20.00    -0.197 NA
ENDROOT
BRANCH   2   4
HETATM    4  C5  UNL     1     -33.607   8.016   5.194  1.00 20.00     0.014 C 
HETATM    5  C3  UNL     1     -33.856   6.891   6.192  1.00 20.00     0.006 C 
ENDBRANCH   2   4
BRANCH   2   6
HETATM    6  C6  UNL     1     -32.573   8.784   2.983  1.00 20.00     0.019 C 
BRANCH   6   7
HETATM    7  C4  UNL     1     -32.192   8.245   1.599  1.00 20.00    -0.003 C 
HETATM    8  C2  UNL     1     -32.652   9.183   0.493  1.00 20.00     0.005 C 
ENDBRANCH   6   7
ENDBRANCH   2   6
TORSDOF 3
ENDMDL
MODEL 5
REMARK VINA RESULT:      -3.9      2.035      3.533
REMARK  3 active torsions:
REMARK  status: ('A' for Active; 'I' for Inactive)
REMARK    1  A    between atoms: C4_4  and  C6_6 
REMARK    2  A    between atoms: C5_5  and  C7_7 
REMARK    3  A    between atoms: C6_6  and  C7_7 
ROOT
HETATM    1  C1  UNL     1     -34.698   5.482   5.831  1.00 20.00     0.064 C 
HETATM    2  C7  UNL     1     -34.621   5.804   4.392  1.00 20.00     0.092 C 
HETATM    3  N8  UNL     1     -34.761   5.230   6.963  1.00 20.00    -0.197 NA
ENDROOT
BRANCH   2   4
HETATM    4  C5  UNL     1     -33.726   4.785   3.659  1.00 20.00     0.014 C 
HETATM    5  C3  UNL     1     -32.864   5.364   2.542  1.00 20.00     0.006 C 
ENDBRANCH   2   4
BRANCH   2   6
HETATM    6  C6  UNL     1     -34.156   7.255   4.168  1.00 20.00     0.019 C 
BRANCH   6   7
HETATM    7  C4  UNL     1     -33.255   7.767   5.299  1.00 20.00    -0.003 C 
HETATM    8  C2  UNL     1     -32.252   8.791   4.787  1.00 20.00     0.005 C 
ENDBRANCH   6   7
ENDBRANCH   2   6
TORSDOF 3
ENDMDL
MODEL 6
REMARK VINA RESULT:      -3.8      1.704      3.477
REMARK  3 active torsions:
REMARK  status: ('A' for Active; 'I' for Inactive)
REMARK    1  A    between atoms: C4_4  and  C6_6 
REMARK    2  A    between atoms: C5_5  and  C7_7 
REMARK    3  A    between atoms: C6_6  and  C7_7 
ROOT
HETATM    1  C1  UNL     1     -32.244   7.985   1.977  1.00 20.00     0.064 C 
HETATM    2  C7  UNL     1     -32.239   7.290   3.280  1.00 20.00     0.092 C 
HETATM    3  N8  UNL     1     -32.245   8.531   0.953  1.00 20.00    -0.197 NA
ENDROOT
BRANCH   2   4
HETATM    4  C5  UNL     1     -33.263   6.138   3.281  1.00 20.00     0.014 C 
HETATM    5  C3  UNL     1     -32.868   4.919   2.455  1.00 20.00     0.006 C 
ENDBRANCH   2   4
BRANCH   2   6
HETATM    6  C6  UNL     1     -32.472   8.277   4.440  1.00 20.00     0.019 C 
BRANCH   6   7
HETATM    7  C4  UNL     1     -33.825   8.068   5.131  1.00 20.00    -0.003 C 
HETATM    8  C2  UNL     1     -33.689   7.176   6.356  1.00 20.00     0.005 C 
ENDBRANCH   6   7
ENDBRANCH   2   6
TORSDOF 3
ENDMDL
MODEL 7
REMARK VINA RESULT:      -3.8      1.328      1.884
REMARK  3 active torsions:
REMARK  status: ('A' for Active; 'I' for Inactive)
REMARK    1  A    between atoms: C4_4  and  C6_6 
REMARK    2  A    between atoms: C5_5  and  C7_7 
REMARK    3  A    between atoms: C6_6  and  C7_7 
ROOT
HETATM    1  C1  UNL     1     -33.860   7.426   4.882  1.00 20.00     0.064 C 
HETATM    2  C7  UNL     1     -34.126   6.269   4.004  1.00 20.00     0.092 C 
HETATM    3  N8  UNL     1     -33.652   8.337   5.571  1.00 20.00    -0.197 NA
ENDROOT
BRANCH   2   4
HETATM    4  C5  UNL     1     -34.486   5.027   4.842  1.00 20.00     0.014 C 
HETATM    5  C3  UNL     1     -34.577   5.262   6.346  1.00 20.00     0.006 C 
ENDBRANCH   2   4
BRANCH   2   6
HETATM    6  C6  UNL     1     -32.943   6.008   3.052  1.00 20.00     0.019 C 
BRANCH   6   7
HETATM    7  C4  UNL     1     -32.019   7.224   2.911  1.00 20.00    -0.003 C 
HETATM    8  C2  UNL     1     -32.235   7.933   1.583  1.00 20.00     0.005 C 
ENDBRANCH   6   7
ENDBRANCH   2   6
TORSDOF 3
ENDMDL
MODEL 8
REMARK VINA RESULT:      -3.7      2.446      4.370
REMARK  3 active torsions:
REMARK  status: ('A' for Active; 'I' for Inactive)
REMARK    1  A    between atoms: C4_4  and  C6_6 
REMARK    2  A    between atoms: C5_5  and  C7_7 
REMARK    3  A    between atoms: C6_6  and  C7_7 
ROOT
HETATM    1  C1  UNL     1     -32.797   6.105   2.735  1.00 20.00     0.064 C 
HETATM    2  C7  UNL     1     -32.783   7.580   2.824  1.00 20.00     0.092 C 
HETATM    3  N8  UNL     1     -32.811   4.947   2.666  1.00 20.00    -0.197 NA
ENDROOT
BRANCH   2   4
HETATM    4  C5  UNL     1     -31.992   8.183   1.648  1.00 20.00     0.014 C 
HETATM    5  C3  UNL     1     -32.712   9.286   0.878  1.00 20.00     0.006 C 
ENDBRANCH   2   4
BRANCH   2   6
HETATM    6  C6  UNL     1     -32.248   8.051   4.189  1.00 20.00     0.019 C 
BRANCH   6   7
HETATM    7  C4  UNL     1     -33.370   8.377   5.183  1.00 20.00    -0.003 C 
HETATM    8  C2  UNL     1     -33.753   7.157   6.007  1.00 20.00     0.005 C 
ENDBRANCH   6   7
ENDBRANCH   2   6
TORSDOF 3
ENDMDL
MODEL 9
REMARK VINA RESULT:      -3.7      2.009      3.045
REMARK  3 active torsions:
REMARK  status: ('A' for Active; 'I' for Inactive)
REMARK    1  A    between atoms: C4_4  and  C6_6 
REMARK    2  A    between atoms: C5_5  and  C7_7 
REMARK    3  A    between atoms: C6_6  and  C7_7 
ROOT
HETATM    1  C1  UNL     1     -33.205   5.508   3.153  1.00 20.00     0.064 C 
HETATM    2  C7  UNL     1     -33.603   6.176   4.409  1.00 20.00     0.092 C 
HETATM    3  N8  UNL     1     -32.890   4.984   2.167  1.00 20.00    -0.197 NA
ENDROOT
BRANCH   2   4
HETATM    4  C5  UNL     1     -34.774   5.426   5.072  1.00 20.00     0.014 C 
HETATM    5  C3  UNL     1     -34.762   5.418   6.597  1.00 20.00     0.006 C 
ENDBRANCH   2   4
BRANCH   2   6
HETATM    6  C6  UNL     1     -33.923   7.664   4.172  1.00 20.00     0.019 C 
BRANCH   6   7
HETATM    7  C4  UNL     1     -32.686   8.478   3.775  1.00 20.00    -0.003 C 
HETATM    8  C2  UNL     1     -32.044   9.139   4.986  1.00 20.00     0.005 C 
ENDBRANCH   6   7
ENDBRANCH   2   6
TORSDOF 3
ENDMDL
