MODEL 1
REMARK VINA RESULT:      -5.9      0.000      0.000
REMARK  0 active torsions:
REMARK  status: ('A' for Active; 'I' for Inactive)
ROOT
HETATM    1  C1  UNL     1     -34.021   4.560   4.614  1.00 20.00    -0.030 C 
HETATM    2  C2  UNL     1     -33.720   5.461   3.666  1.00 20.00    -0.020 C 
HETATM    3  C3  UNL     1     -33.908   7.239   6.271  1.00 20.00    -0.021 C 
HETATM    4  C4  UNL     1     -33.339   7.566   5.104  1.00 20.00    -0.050 C 
HETATM    5  C5  UNL     1     -34.393   4.779   6.052  1.00 20.00     0.030 C 
HETATM    6  C6  UNL     1     -34.932   6.161   6.413  1.00 20.00     0.031 C 
HETATM    7  C7  UNL     1     -32.317   8.646   4.957  1.00 20.00     0.202 C 
HETATM    8  C8  UNL     1     -32.365   7.452   3.001  1.00 20.00     0.180 C 
HETATM    9  C9  UNL     1     -33.596   6.954   3.760  1.00 20.00     0.062 C 
HETATM   10  O10 UNL     1     -32.065   8.742   3.549  1.00 20.00    -0.386 OA
ENDROOT
TORSDOF 0
ENDMDL
MODEL 2
REMARK VINA RESULT:      -5.8      1.880      4.042
REMARK  0 active torsions:
REMARK  status: ('A' for Active; 'I' for Inactive)
ROOT
HETATM    1  C1  UNL     1     -32.442   8.520   4.848  1.00 20.00    -0.030 C 
HETATM    2  C2  UNL     1     -33.558   7.953   5.330  1.00 20.00    -0.020 C 
HETATM    3  C3  UNL     1     -32.806   6.053   2.920  1.00 20.00    -0.021 C 
HETATM    4  C4  UNL     1     -33.645   5.790   3.930  1.00 20.00    -0.050 C 
HETATM    5  C5  UNL     1     -31.665   8.189   3.607  1.00 20.00     0.030 C 
HETATM    6  C6  UNL     1     -32.418   7.437   2.512  1.00 20.00     0.031 C 
HETATM    7  C7  UNL     1     -34.039   4.408   4.339  1.00 20.00     0.202 C 
HETATM    8  C8  UNL     1     -34.754   5.854   5.967  1.00 20.00     0.180 C 
HETATM    9  C9  UNL     1     -34.339   6.776   4.820  1.00 20.00     0.062 C 
HETATM   10  O10 UNL     1     -35.024   4.582   5.366  1.00 20.00    -0.386 OA
ENDROOT
TORSDOF 0
ENDMDL
MODEL 3
REMARK VINA RESULT:      -5.5      1.025      1.565
REMARK  0 active torsions:
REMARK  status: ('A' for Active; 'I' for Inactive)
ROOT
HETATM    1  C1  UNL     1     -34.457   4.871   5.825  1.00 20.00    -0.030 C 
HETATM    2  C2  UNL     1     -34.333   4.931   4.490  1.00 20.00    -0.020 C 
HETATM    3  C3  UNL     1     -33.278   7.764   5.405  1.00 20.00    -0.021 C 
HETATM    4  C4  UNL     1     -33.092   7.173   4.218  1.00 20.00    -0.050 C 
HETATM    5  C5  UNL     1     -34.266   5.954   6.848  1.00 20.00     0.030 C 
HETATM    6  C6  UNL     1     -34.376   7.392   6.346  1.00 20.00     0.031 C 
HETATM    7  C7  UNL     1     -31.997   7.545   3.272  1.00 20.00     0.202 C 
HETATM    8  C8  UNL     1     -32.937   5.592   2.528  1.00 20.00     0.180 C 
HETATM    9  C9  UNL     1     -33.904   6.069   3.611  1.00 20.00     0.062 C 
HETATM   10  O10 UNL     1     -32.229   6.760   2.095  1.00 20.00    -0.386 OA
ENDROOT
TORSDOF 0
ENDMDL
MODEL 4
REMARK VINA RESULT:      -5.4      0.692      2.270
REMARK  0 active torsions:
REMARK  status: ('A' for Active; 'I' for Inactive)
ROOT
HETATM    1  C1  UNL     1     -34.862   5.953   6.092  1.00 20.00    -0.030 C 
HETATM    2  C2  UNL     1     -33.979   6.952   6.234  1.00 20.00    -0.020 C 
HETATM    3  C3  UNL     1     -33.358   5.894   3.323  1.00 20.00    -0.021 C 
HETATM    4  C4  UNL     1     -32.990   7.066   3.856  1.00 20.00    -0.050 C 
HETATM    5  C5  UNL     1     -34.988   4.943   4.988  1.00 20.00     0.030 C 
HETATM    6  C6  UNL     1     -33.742   4.704   4.138  1.00 20.00     0.031 C 
HETATM    7  C7  UNL     1     -32.601   8.258   3.044  1.00 20.00     0.202 C 
HETATM    8  C8  UNL     1     -32.860   8.941   5.217  1.00 20.00     0.180 C 
HETATM    9  C9  UNL     1     -32.889   7.416   5.310  1.00 20.00     0.062 C 
HETATM   10  O10 UNL     1     -32.175   9.243   3.995  1.00 20.00    -0.386 OA
ENDROOT
TORSDOF 0
ENDMDL
MODEL 5
REMARK VINA RESULT:      -5.2      1.854      3.857
REMARK  0 active torsions:
REMARK  status: ('A' for Active; 'I' for Inactive)
ROOT
HETATM    1  C1  UNL     1     -32.165   8.037   3.652  1.00 20.00    -0.030 C 
HETATM    2  C2  UNL     1     -33.108   8.121   4.604  1.00 20.00    -0.020 C 
HETATM    3  C3  UNL     1     -33.557   5.216   3.446  1.00 20.00    -0.021 C 
HETATM    4  C4  UNL     1     -34.009   5.706   4.607  1.00 20.00    -0.050 C 
HETATM    5  C5  UNL     1     -31.942   6.964   2.626  1.00 20.00     0.030 C 
HETATM    6  C6  UNL     1     -33.139   6.075   2.298  1.00 20.00     0.031 C 
HETATM    7  C7  UNL     1     -34.431   4.850   5.756  1.00 20.00     0.202 C 
HETATM    8  C8  UNL     1     -34.294   7.013   6.502  1.00 20.00     0.180 C 
HETATM    9  C9  UNL     1     -34.185   7.146   4.984  1.00 20.00     0.062 C 
HETATM   10  O10 UNL     1     -34.947   5.759   6.737  1.00 20.00    -0.386 OA
ENDROOT
TORSDOF 0
ENDMDL
MODEL 6
REMARK VINA RESULT:      -5.1      1.871      3.492
REMARK  0 active torsions:
REMARK  status: ('A' for Active; 'I' for Inactive)
ROOT
HETATM    1  C1  UNL     1     -32.345   7.768   2.446  1.00 20.00    -0.030 C 
HETATM    2  C2  UNL     1     -32.544   6.474   2.741  1.00 20.00    -0.020 C 
HETATM    3  C3  UNL     1     -33.600   7.939   5.332  1.00 20.00    -0.021 C 
HETATM    4  C4  UNL     1     -33.841   6.676   4.959  1.00 20.00    -0.050 C 
HETATM    5  C5  UNL     1     -32.499   8.978   3.321  1.00 20.00     0.030 C 
HETATM    6  C6  UNL     1     -32.445   8.740   4.829  1.00 20.00     0.031 C 
HETATM    7  C7  UNL     1     -34.993   5.871   5.464  1.00 20.00     0.202 C 
HETATM    8  C8  UNL     1     -34.059   4.737   3.704  1.00 20.00     0.180 C 
HETATM    9  C9  UNL     1     -33.043   5.838   4.007  1.00 20.00     0.062 C 
HETATM   10  O10 UNL     1     -34.812   4.561   4.910  1.00 20.00    -0.386 OA
ENDROOT
TORSDOF 0
ENDMDL
MODEL 7
REMARK VINA RESULT:      -4.0     12.495     13.720
REMARK  0 active torsions:
REMARK  status: ('A' for Active; 'I' for Inactive)
ROOT
HETATM    1  C1  UNL     1     -34.307  17.725  -3.242  1.00 20.00    -0.030 C 
HETATM    2  C2  UNL     1     -35.020  17.734  -4.379  1.00 20.00    -0.020 C 
HETATM    3  C3  UNL     1     -33.923  14.773  -4.280  1.00 20.00    -0.021 C 
HETATM    4  C4  UNL     1     -34.931  15.241  -5.027  1.00 20.00    -0.050 C 
HETATM    5  C5  UNL     1     -33.407  16.657  -2.693  1.00 20.00     0.030 C 
HETATM    6  C6  UNL     1     -32.860  15.644  -3.696  1.00 20.00     0.031 C 
HETATM    7  C7  UNL     1     -35.995  14.373  -5.617  1.00 20.00     0.202 C 
HETATM    8  C8  UNL     1     -36.655  16.555  -5.855  1.00 20.00     0.180 C 
HETATM    9  C9  UNL     1     -35.194  16.664  -5.418  1.00 20.00     0.062 C 
HETATM   10  O10 UNL     1     -36.794  15.248  -6.424  1.00 20.00    -0.386 OA
ENDROOT
TORSDOF 0
ENDMDL
MODEL 8
REMARK VINA RESULT:      -3.9     12.294     13.587
REMARK  0 active torsions:
REMARK  status: ('A' for Active; 'I' for Inactive)
ROOT
HETATM    1  C1  UNL     1     -35.498  18.627  -3.164  1.00 20.00    -0.030 C 
HETATM    2  C2  UNL     1     -35.304  18.073  -4.372  1.00 20.00    -0.020 C 
HETATM    3  C3  UNL     1     -33.258  16.495  -2.555  1.00 20.00    -0.021 C 
HETATM    4  C4  UNL     1     -33.702  16.146  -3.769  1.00 20.00    -0.050 C 
HETATM    5  C5  UNL     1     -34.729  18.426  -1.891  1.00 20.00     0.030 C 
HETATM    6  C6  UNL     1     -33.305  17.892  -2.032  1.00 20.00     0.031 C 
HETATM    7  C7  UNL     1     -33.653  14.750  -4.298  1.00 20.00     0.202 C 
HETATM    8  C8  UNL     1     -34.965  15.991  -5.709  1.00 20.00     0.180 C 
HETATM    9  C9  UNL     1     -34.308  17.038  -4.810  1.00 20.00     0.062 C 
HETATM   10  O10 UNL     1     -34.113  14.840  -5.653  1.00 20.00    -0.386 OA
ENDROOT
TORSDOF 0
ENDMDL
MODEL 9
REMARK VINA RESULT:      -3.8     12.358     13.568
REMARK  0 active torsions:
REMARK  status: ('A' for Active; 'I' for Inactive)
ROOT
HETATM    1  C1  UNL     1     -33.794  14.721  -4.786  1.00 20.00    -0.030 C 
HETATM    2  C2  UNL     1     -33.218  15.414  -3.791  1.00 20.00    -0.020 C 
HETATM    3  C3  UNL     1     -35.158  17.547  -5.082  1.00 20.00    -0.021 C 
HETATM    4  C4  UNL     1     -34.575  17.604  -3.878  1.00 20.00    -0.050 C 
HETATM    5  C5  UNL     1     -34.707  15.202  -5.876  1.00 20.00     0.030 C 
HETATM    6  C6  UNL     1     -34.656  16.693  -6.200  1.00 20.00     0.031 C 
HETATM    7  C7  UNL     1     -35.071  18.460  -2.759  1.00 20.00     0.202 C 
HETATM    8  C8  UNL     1     -33.499  17.027  -1.905  1.00 20.00     0.180 C 
HETATM    9  C9  UNL     1     -33.357  16.861  -3.418  1.00 20.00     0.062 C 
HETATM   10  O10 UNL     1     -34.106  18.310  -1.709  1.00 20.00    -0.386 OA
ENDROOT
TORSDOF 0
ENDMDL
