MODEL 1
REMARK VINA RESULT:      -5.7      0.000      0.000
REMARK  1 active torsions:
REMARK  status: ('A' for Active; 'I' for Inactive)
REMARK    1  A    between atoms: C7_7  and  O11_11 
ROOT
HETATM    1  C1  UNL     1     -34.377   6.820   6.866  1.00 20.00    -0.027 C 
HETATM    2  C2  UNL     1     -33.894   7.943   6.306  1.00 20.00     0.001 C 
HETATM    3  C3  UNL     1     -34.465   5.492   6.146  1.00 20.00     0.036 C 
HETATM    4  C4  UNL     1     -33.147   4.948   2.607  1.00 20.00     0.001 C 
HETATM    5  C5  UNL     1     -32.808   6.422   2.887  1.00 20.00     0.008 C 
HETATM    6  C6  UNL     1     -33.848   4.406   3.868  1.00 20.00     0.010 C 
HETATM    7  C7  UNL     1     -33.349   8.002   4.897  1.00 20.00     0.145 C 
HETATM    8  C8  UNL     1     -33.108   6.589   4.371  1.00 20.00     0.026 C 
HETATM    9  C9  UNL     1     -34.308   5.660   4.622  1.00 20.00    -0.035 C 
HETATM   10  C10 UNL     1     -35.640   6.162   4.014  1.00 20.00     0.016 C 
ENDROOT
BRANCH   7  11
HETATM   11  O11 UNL     1     -32.118   8.718   4.917  1.00 20.00    -0.391 OA
HETATM   12  H27 UNL     1     -32.098   9.214   5.750  1.00 20.00     0.210 HD
ENDBRANCH   7  11
TORSDOF 1
ENDMDL
MODEL 2
REMARK VINA RESULT:      -5.2      1.736      3.386
REMARK  1 active torsions:
REMARK  status: ('A' for Active; 'I' for Inactive)
REMARK    1  A    between atoms: C7_7  and  O11_11 
ROOT
HETATM    1  C1  UNL     1     -31.899   8.042   3.474  1.00 20.00    -0.027 C 
HETATM    2  C2  UNL     1     -32.258   7.101   2.583  1.00 20.00     0.001 C 
HETATM    3  C3  UNL     1     -32.449   8.118   4.882  1.00 20.00     0.036 C 
HETATM    4  C4  UNL     1     -34.851   5.531   6.327  1.00 20.00     0.001 C 
HETATM    5  C5  UNL     1     -34.578   5.005   4.908  1.00 20.00     0.008 C 
HETATM    6  C6  UNL     1     -34.039   6.831   6.483  1.00 20.00     0.010 C 
HETATM    7  C7  UNL     1     -33.230   5.985   2.896  1.00 20.00     0.145 C 
HETATM    8  C8  UNL     1     -33.444   5.888   4.404  1.00 20.00     0.026 C 
HETATM    9  C9  UNL     1     -33.717   7.259   5.046  1.00 20.00    -0.035 C 
HETATM   10  C10 UNL     1     -34.934   8.008   4.450  1.00 20.00     0.016 C 
ENDROOT
BRANCH   7  11
HETATM   11  O11 UNL     1     -32.685   4.761   2.413  1.00 20.00    -0.391 OA
HETATM   12  H27 UNL     1     -33.199   4.048   2.821  1.00 20.00     0.210 HD
ENDBRANCH   7  11
TORSDOF 1
ENDMDL
MODEL 3
REMARK VINA RESULT:      -4.2     12.811     14.241
REMARK  1 active torsions:
REMARK  status: ('A' for Active; 'I' for Inactive)
REMARK    1  A    between atoms: C7_7  and  O11_11 
ROOT
HETATM    1  C1  UNL     1     -34.590  16.310  -6.888  1.00 20.00    -0.027 C 
HETATM    2  C2  UNL     1     -34.633  15.131  -6.242  1.00 20.00     0.001 C 
HETATM    3  C3  UNL     1     -34.234  17.620  -6.221  1.00 20.00     0.036 C 
HETATM    4  C4  UNL     1     -33.171  17.879  -2.566  1.00 20.00     0.001 C 
HETATM    5  C5  UNL     1     -33.396  16.370  -2.762  1.00 20.00     0.008 C 
HETATM    6  C6  UNL     1     -33.480  18.553  -3.916  1.00 20.00     0.010 C 
HETATM    7  C7  UNL     1     -34.297  14.971  -4.777  1.00 20.00     0.145 C 
HETATM    8  C8  UNL     1     -33.587  16.223  -4.266  1.00 20.00     0.026 C 
HETATM    9  C9  UNL     1     -34.307  17.516  -4.685  1.00 20.00    -0.035 C 
HETATM   10  C10 UNL     1     -35.784  17.598  -4.228  1.00 20.00     0.016 C 
ENDROOT
BRANCH   7  11
HETATM   11  O11 UNL     1     -33.439  13.844  -4.630  1.00 20.00    -0.391 OA
HETATM   12  H27 UNL     1     -32.540  14.151  -4.828  1.00 20.00     0.210 HD
ENDBRANCH   7  11
TORSDOF 1
ENDMDL
MODEL 4
REMARK VINA RESULT:      -4.1     15.861     16.788
REMARK  1 active torsions:
REMARK  status: ('A' for Active; 'I' for Inactive)
REMARK    1  A    between atoms: C7_7  and  O11_11 
ROOT
HETATM    1  C1  UNL     1     -22.619  18.110  12.242  1.00 20.00    -0.027 C 
HETATM    2  C2  UNL     1     -23.943  17.885  12.331  1.00 20.00     0.001 C 
HETATM    3  C3  UNL     1     -21.924  18.532  10.966  1.00 20.00     0.036 C 
HETATM    4  C4  UNL     1     -23.786  19.263   7.717  1.00 20.00     0.001 C 
HETATM    5  C5  UNL     1     -24.915  18.905   8.699  1.00 20.00     0.008 C 
HETATM    6  C6  UNL     1     -22.465  19.155   8.502  1.00 20.00     0.010 C 
HETATM    7  C7  UNL     1     -24.898  18.063  11.172  1.00 20.00     0.145 C 
HETATM    8  C8  UNL     1     -24.217  18.844  10.051  1.00 20.00     0.026 C 
HETATM    9  C9  UNL     1     -22.814  18.303   9.729  1.00 20.00    -0.035 C 
HETATM   10  C10 UNL     1     -22.784  16.806   9.337  1.00 20.00     0.016 C 
ENDROOT
BRANCH   7  11
HETATM   11  O11 UNL     1     -26.037  18.783  11.631  1.00 20.00    -0.391 OA
HETATM   12  H27 UNL     1     -26.338  19.329  10.888  1.00 20.00     0.210 HD
ENDBRANCH   7  11
TORSDOF 1
ENDMDL
MODEL 5
REMARK VINA RESULT:      -4.1      1.772      3.252
REMARK  1 active torsions:
REMARK  status: ('A' for Active; 'I' for Inactive)
REMARK    1  A    between atoms: C7_7  and  O11_11 
ROOT
HETATM    1  C1  UNL     1     -35.253   5.111   4.742  1.00 20.00    -0.027 C 
HETATM    2  C2  UNL     1     -34.222   4.541   4.092  1.00 20.00     0.001 C 
HETATM    3  C3  UNL     1     -35.272   6.560   5.178  1.00 20.00     0.036 C 
HETATM    4  C4  UNL     1     -32.473   9.021   4.365  1.00 20.00     0.001 C 
HETATM    5  C5  UNL     1     -32.002   7.718   3.697  1.00 20.00     0.008 C 
HETATM    6  C6  UNL     1     -33.826   8.714   5.034  1.00 20.00     0.010 C 
HETATM    7  C7  UNL     1     -32.973   5.292   3.690  1.00 20.00     0.145 C 
HETATM    8  C8  UNL     1     -33.209   6.796   3.806  1.00 20.00     0.026 C 
HETATM    9  C9  UNL     1     -33.864   7.184   5.143  1.00 20.00    -0.035 C 
HETATM   10  C10 UNL     1     -33.066   6.741   6.393  1.00 20.00     0.016 C 
ENDROOT
BRANCH   7  11
HETATM   11  O11 UNL     1     -32.661   4.962   2.340  1.00 20.00    -0.391 OA
HETATM   12  H27 UNL     1     -33.337   4.333   2.044  1.00 20.00     0.210 HD
ENDBRANCH   7  11
TORSDOF 1
ENDMDL
MODEL 6
REMARK VINA RESULT:      -4.0      1.821      3.842
REMARK  1 active torsions:
REMARK  status: ('A' for Active; 'I' for Inactive)
REMARK    1  A    between atoms: C7_7  and  O11_11 
ROOT
HETATM    1  C1  UNL     1     -32.295   6.608   2.682  1.00 20.00    -0.027 C 
HETATM    2  C2  UNL     1     -33.060   5.503   2.632  1.00 20.00     0.001 C 
HETATM    3  C3  UNL     1     -32.306   7.585   3.836  1.00 20.00     0.036 C 
HETATM    4  C4  UNL     1     -34.371   7.056   7.000  1.00 20.00     0.001 C 
HETATM    5  C5  UNL     1     -34.679   5.802   6.163  1.00 20.00     0.008 C 
HETATM    6  C6  UNL     1     -33.394   7.913   6.173  1.00 20.00     0.010 C 
HETATM    7  C7  UNL     1     -33.999   5.090   3.743  1.00 20.00     0.145 C 
HETATM    8  C8  UNL     1     -33.686   5.880   5.011  1.00 20.00     0.026 C 
HETATM    9  C9  UNL     1     -33.538   7.387   4.739  1.00 20.00    -0.035 C 
HETATM   10  C10 UNL     1     -34.778   8.039   4.079  1.00 20.00     0.016 C 
ENDROOT
BRANCH   7  11
HETATM   11  O11 UNL     1     -33.821   3.699   3.994  1.00 20.00    -0.391 OA
HETATM   12  H27 UNL     1     -34.063   3.550   4.921  1.00 20.00     0.210 HD
ENDBRANCH   7  11
TORSDOF 1
ENDMDL
MODEL 7
REMARK VINA RESULT:      -4.0     12.855     14.028
REMARK  1 active torsions:
REMARK  status: ('A' for Active; 'I' for Inactive)
REMARK    1  A    between atoms: C7_7  and  O11_11 
ROOT
HETATM    1  C1  UNL     1     -33.556  16.867  -3.143  1.00 20.00    -0.027 C 
HETATM    2  C2  UNL     1     -33.006  15.792  -3.736  1.00 20.00     0.001 C 
HETATM    3  C3  UNL     1     -34.833  17.525  -3.619  1.00 20.00     0.036 C 
HETATM    4  C4  UNL     1     -36.924  16.178  -6.512  1.00 20.00     0.001 C 
HETATM    5  C5  UNL     1     -35.770  15.166  -6.409  1.00 20.00     0.008 C 
HETATM    6  C6  UNL     1     -36.686  17.236  -5.417  1.00 20.00     0.010 C 
HETATM    7  C7  UNL     1     -33.617  15.094  -4.930  1.00 20.00     0.145 C 
HETATM    8  C8  UNL     1     -35.062  15.551  -5.117  1.00 20.00     0.026 C 
HETATM    9  C9  UNL     1     -35.206  17.081  -5.046  1.00 20.00    -0.035 C 
HETATM   10  C10 UNL     1     -34.339  17.849  -6.074  1.00 20.00     0.016 C 
ENDROOT
BRANCH   7  11
HETATM   11  O11 UNL     1     -33.589  13.690  -4.697  1.00 20.00    -0.391 OA
HETATM   12  H27 UNL     1     -33.400  13.270  -5.551  1.00 20.00     0.210 HD
ENDBRANCH   7  11
TORSDOF 1
ENDMDL
MODEL 8
REMARK VINA RESULT:      -3.9     15.602     16.991
REMARK  1 active torsions:
REMARK  status: ('A' for Active; 'I' for Inactive)
REMARK    1  A    between atoms: C7_7  and  O11_11 
ROOT
HETATM    1  C1  UNL     1     -25.501  19.263   8.988  1.00 20.00    -0.027 C 
HETATM    2  C2  UNL     1     -24.519  18.905   8.142  1.00 20.00     0.001 C 
HETATM    3  C3  UNL     1     -25.356  19.258  10.494  1.00 20.00     0.036 C 
HETATM    4  C4  UNL     1     -22.087  18.416  12.271  1.00 20.00     0.001 C 
HETATM    5  C5  UNL     1     -21.717  18.306  10.782  1.00 20.00     0.008 C 
HETATM    6  C6  UNL     1     -23.577  18.805  12.332  1.00 20.00     0.010 C 
HETATM    7  C7  UNL     1     -23.138  18.488   8.597  1.00 20.00     0.145 C 
HETATM    8  C8  UNL     1     -22.936  18.868  10.062  1.00 20.00     0.026 C 
HETATM    9  C9  UNL     1     -24.125  18.449  10.944  1.00 20.00    -0.035 C 
HETATM   10  C10 UNL     1     -24.450  16.936  10.896  1.00 20.00     0.016 C 
ENDROOT
BRANCH   7  11
HETATM   11  O11 UNL     1     -22.174  19.161   7.794  1.00 20.00    -0.391 OA
HETATM   12  H27 UNL     1     -22.080  18.642   6.980  1.00 20.00     0.210 HD
ENDBRANCH   7  11
TORSDOF 1
ENDMDL
MODEL 9
REMARK VINA RESULT:      -3.8     12.990     14.262
REMARK  1 active torsions:
REMARK  status: ('A' for Active; 'I' for Inactive)
REMARK    1  A    between atoms: C7_7  and  O11_11 
ROOT
HETATM    1  C1  UNL     1     -34.019  14.451  -4.149  1.00 20.00    -0.027 C 
HETATM    2  C2  UNL     1     -35.185  13.826  -4.396  1.00 20.00     0.001 C 
HETATM    3  C3  UNL     1     -33.657  15.806  -4.715  1.00 20.00     0.036 C 
HETATM    4  C4  UNL     1     -36.051  17.893  -6.829  1.00 20.00     0.001 C 
HETATM    5  C5  UNL     1     -36.879  16.642  -6.489  1.00 20.00     0.008 C 
HETATM    6  C6  UNL     1     -34.672  17.707  -6.166  1.00 20.00     0.010 C 
HETATM    7  C7  UNL     1     -36.287  14.424  -5.241  1.00 20.00     0.145 C 
HETATM    8  C8  UNL     1     -36.031  15.914  -5.455  1.00 20.00     0.026 C 
HETATM    9  C9  UNL     1     -34.581  16.202  -5.882  1.00 20.00    -0.035 C 
HETATM   10  C10 UNL     1     -34.139  15.465  -7.169  1.00 20.00     0.016 C 
ENDROOT
BRANCH   7  11
HETATM   11  O11 UNL     1     -37.526  14.247  -4.561  1.00 20.00    -0.391 OA
HETATM   12  H27 UNL     1     -37.631  13.294  -4.419  1.00 20.00     0.210 HD
ENDBRANCH   7  11
TORSDOF 1
ENDMDL
