MODEL 1
REMARK VINA RESULT:      -4.5      0.000      0.000
REMARK  1 active torsions:
REMARK  status: ('A' for Active; 'I' for Inactive)
REMARK    1  A    between atoms: C1_1  and  C3_3 
ROOT
HETATM    1  C2  UNL     1     -34.521   5.036   5.629  1.00 20.00     0.054 A 
HETATM    2  C3  UNL     1     -34.534   6.238   4.718  1.00 20.00     0.109 A 
HETATM    3  C4  UNL     1     -34.463   6.414   6.205  1.00 20.00     0.183 A 
HETATM    4  F6  UNL     1     -33.264   6.823   6.761  1.00 20.00    -0.249 F 
ENDROOT
BRANCH   2   5
HETATM    5  C1  UNL     1     -33.355   6.529   3.897  1.00 20.00     0.225 C 
HETATM    6  O5  UNL     1     -32.703   7.558   4.045  1.00 20.00    -0.279 OA
HETATM    7 CL7  UNL     1     -33.034   5.269   2.744  1.00 20.00    -0.043 Cl
ENDBRANCH   2   5
TORSDOF 1
ENDMDL
MODEL 2
REMARK VINA RESULT:      -4.5      1.223      1.275
REMARK  1 active torsions:
REMARK  status: ('A' for Active; 'I' for Inactive)
REMARK    1  A    between atoms: C1_1  and  C3_3 
ROOT
HETATM    1  C2  UNL     1     -34.365   4.793   4.586  1.00 20.00     0.054 A 
HETATM    2  C3  UNL     1     -34.597   6.281   4.679  1.00 20.00     0.109 A 
HETATM    3  C4  UNL     1     -34.778   5.407   5.884  1.00 20.00     0.183 A 
HETATM    4  F6  UNL     1     -33.831   5.471   6.890  1.00 20.00    -0.249 F 
ENDROOT
BRANCH   2   5
HETATM    5  C1  UNL     1     -33.450   7.191   4.612  1.00 20.00     0.225 C 
HETATM    6  O5  UNL     1     -33.226   8.016   5.492  1.00 20.00    -0.279 OA
HETATM    7 CL7  UNL     1     -32.502   6.943   3.176  1.00 20.00    -0.043 Cl
ENDBRANCH   2   5
TORSDOF 1
ENDMDL
MODEL 3
REMARK VINA RESULT:      -4.4      1.836      1.939
REMARK  1 active torsions:
REMARK  status: ('A' for Active; 'I' for Inactive)
REMARK    1  A    between atoms: C1_1  and  C3_3 
ROOT
HETATM    1  C2  UNL     1     -34.387   6.486   6.352  1.00 20.00     0.054 A 
HETATM    2  C3  UNL     1     -34.690   6.255   4.892  1.00 20.00     0.109 A 
HETATM    3  C4  UNL     1     -33.896   7.452   5.323  1.00 20.00     0.183 A 
HETATM    4  F6  UNL     1     -32.538   7.468   5.059  1.00 20.00    -0.249 F 
ENDROOT
BRANCH   2   5
HETATM    5  C1  UNL     1     -34.021   5.159   4.185  1.00 20.00     0.225 C 
HETATM    6  O5  UNL     1     -34.126   3.993   4.553  1.00 20.00    -0.279 OA
HETATM    7 CL7  UNL     1     -33.106   5.725   2.820  1.00 20.00    -0.043 Cl
ENDBRANCH   2   5
TORSDOF 1
ENDMDL
MODEL 4
REMARK VINA RESULT:      -4.4      2.689      3.228
REMARK  1 active torsions:
REMARK  status: ('A' for Active; 'I' for Inactive)
REMARK    1  A    between atoms: C1_1  and  C3_3 
ROOT
HETATM    1  C2  UNL     1     -32.550   8.599   5.099  1.00 20.00     0.054 A 
HETATM    2  C3  UNL     1     -33.768   7.930   4.510  1.00 20.00     0.109 A 
HETATM    3  C4  UNL     1     -32.590   8.263   3.643  1.00 20.00     0.183 A 
HETATM    4  F6  UNL     1     -31.784   7.227   3.206  1.00 20.00    -0.249 F 
ENDROOT
BRANCH   2   5
HETATM    5  C1  UNL     1     -34.048   6.530   4.844  1.00 20.00     0.225 C 
HETATM    6  O5  UNL     1     -34.034   5.647   3.992  1.00 20.00    -0.279 OA
HETATM    7 CL7  UNL     1     -34.386   6.317   6.536  1.00 20.00    -0.043 Cl
ENDBRANCH   2   5
TORSDOF 1
ENDMDL
MODEL 5
REMARK VINA RESULT:      -4.2      2.161      2.398
REMARK  1 active torsions:
REMARK  status: ('A' for Active; 'I' for Inactive)
REMARK    1  A    between atoms: C1_1  and  C3_3 
ROOT
HETATM    1  C2  UNL     1     -33.755   5.404   3.758  1.00 20.00     0.054 A 
HETATM    2  C3  UNL     1     -34.505   6.464   4.526  1.00 20.00     0.109 A 
HETATM    3  C4  UNL     1     -34.718   5.011   4.830  1.00 20.00     0.183 A 
HETATM    4  F6  UNL     1     -34.193   4.502   6.005  1.00 20.00    -0.249 F 
ENDROOT
BRANCH   2   5
HETATM    5  C1  UNL     1     -33.779   7.305   5.483  1.00 20.00     0.225 C 
HETATM    6  O5  UNL     1     -34.046   7.298   6.681  1.00 20.00    -0.279 OA
HETATM    7 CL7  UNL     1     -32.551   8.262   4.712  1.00 20.00    -0.043 Cl
ENDBRANCH   2   5
TORSDOF 1
ENDMDL
MODEL 6
REMARK VINA RESULT:      -4.1      1.979      2.076
REMARK  1 active torsions:
REMARK  status: ('A' for Active; 'I' for Inactive)
REMARK    1  A    between atoms: C1_1  and  C3_3 
ROOT
HETATM    1  C2  UNL     1     -34.715   5.800   6.294  1.00 20.00     0.054 A 
HETATM    2  C3  UNL     1     -33.689   6.037   5.213  1.00 20.00     0.109 A 
HETATM    3  C4  UNL     1     -35.005   5.397   4.884  1.00 20.00     0.183 A 
HETATM    4  F6  UNL     1     -35.941   6.141   4.188  1.00 20.00    -0.249 F 
ENDROOT
BRANCH   2   5
HETATM    5  C1  UNL     1     -33.420   7.408   4.768  1.00 20.00     0.225 C 
HETATM    6  O5  UNL     1     -33.867   8.381   5.367  1.00 20.00    -0.279 OA
HETATM    7 CL7  UNL     1     -32.426   7.448   3.343  1.00 20.00    -0.043 Cl
ENDBRANCH   2   5
TORSDOF 1
ENDMDL
MODEL 7
REMARK VINA RESULT:      -3.8      1.687      1.969
REMARK  1 active torsions:
REMARK  status: ('A' for Active; 'I' for Inactive)
REMARK    1  A    between atoms: C1_1  and  C3_3 
ROOT
HETATM    1  C2  UNL     1     -33.871   8.190   5.204  1.00 20.00     0.054 A 
HETATM    2  C3  UNL     1     -33.243   6.863   4.852  1.00 20.00     0.109 A 
HETATM    3  C4  UNL     1     -33.626   7.171   6.269  1.00 20.00     0.183 A 
HETATM    4  F6  UNL     1     -34.729   6.530   6.805  1.00 20.00    -0.249 F 
ENDROOT
BRANCH   2   5
HETATM    5  C1  UNL     1     -34.021   5.882   4.090  1.00 20.00     0.225 C 
HETATM    6  O5  UNL     1     -35.172   5.588   4.398  1.00 20.00    -0.279 OA
HETATM    7 CL7  UNL     1     -33.119   5.230   2.754  1.00 20.00    -0.043 Cl
ENDBRANCH   2   5
TORSDOF 1
ENDMDL
MODEL 8
REMARK VINA RESULT:      -3.7      2.237      2.698
REMARK  1 active torsions:
REMARK  status: ('A' for Active; 'I' for Inactive)
REMARK    1  A    between atoms: C1_1  and  C3_3 
ROOT
HETATM    1  C2  UNL     1     -32.535   9.057   4.439  1.00 20.00     0.054 A 
HETATM    2  C3  UNL     1     -32.001   7.707   4.025  1.00 20.00     0.109 A 
HETATM    3  C4  UNL     1     -33.100   7.811   5.040  1.00 20.00     0.183 A 
HETATM    4  F6  UNL     1     -34.380   7.443   4.661  1.00 20.00    -0.249 F 
ENDROOT
BRANCH   2   5
HETATM    5  C1  UNL     1     -32.299   7.198   2.684  1.00 20.00     0.225 C 
HETATM    6  O5  UNL     1     -32.153   7.892   1.682  1.00 20.00    -0.279 OA
HETATM    7 CL7  UNL     1     -32.861   5.554   2.719  1.00 20.00    -0.043 Cl
ENDBRANCH   2   5
TORSDOF 1
ENDMDL
MODEL 9
REMARK VINA RESULT:      -3.6      2.231      2.940
REMARK  1 active torsions:
REMARK  status: ('A' for Active; 'I' for Inactive)
REMARK    1  A    between atoms: C1_1  and  C3_3 
ROOT
HETATM    1  C2  UNL     1     -33.064   8.234   3.303  1.00 20.00     0.054 A 
HETATM    2  C3  UNL     1     -32.930   7.148   4.341  1.00 20.00     0.109 A 
HETATM    3  C4  UNL     1     -32.162   8.429   4.478  1.00 20.00     0.183 A 
HETATM    4  F6  UNL     1     -32.561   9.333   5.447  1.00 20.00    -0.249 F 
ENDROOT
BRANCH   2   5
HETATM    5  C1  UNL     1     -34.052   6.877   5.245  1.00 20.00     0.225 C 
HETATM    6  O5  UNL     1     -34.080   7.316   6.390  1.00 20.00    -0.279 OA
HETATM    7 CL7  UNL     1     -35.272   5.894   4.493  1.00 20.00    -0.043 Cl
ENDBRANCH   2   5
TORSDOF 1
ENDMDL
