MODEL 1
REMARK VINA RESULT:      -4.1      0.000      0.000
REMARK  1 active torsions:
REMARK  status: ('A' for Active; 'I' for Inactive)
REMARK    1  A    between atoms: C6_6  and  N7_7 
ROOT
HETATM    1  C1  UNL     1     -34.492   6.027   6.635  1.00 20.00     0.003 C 
HETATM    2  C2  UNL     1     -33.521   7.171   6.364  1.00 20.00     0.030 C 
HETATM    3  C3  UNL     1     -34.580   5.092   5.433  1.00 20.00     0.030 C 
HETATM    4  C4  UNL     1     -33.847   7.876   5.045  1.00 20.00     0.274 C 
HETATM    5  C5  UNL     1     -34.869   5.870   4.146  1.00 20.00     0.274 C 
HETATM    6  N7  UNL     1     -33.938   6.976   3.888  1.00 20.00     0.101 N 
ENDROOT
BRANCH   6   7
HETATM    7  C6  UNL     1     -32.627   6.504   3.449  1.00 20.00     0.386 C 
HETATM    8 CL8  UNL     1     -32.860   5.067   2.455  1.00 20.00    -0.098 Cl
ENDBRANCH   6   7
TORSDOF 1
ENDMDL
MODEL 2
REMARK VINA RESULT:      -4.0      1.852      3.341
REMARK  1 active torsions:
REMARK  status: ('A' for Active; 'I' for Inactive)
REMARK    1  A    between atoms: C6_6  and  N7_7 
ROOT
HETATM    1  C1  UNL     1     -32.518   6.506   2.725  1.00 20.00     0.003 C 
HETATM    2  C2  UNL     1     -33.372   5.459   3.432  1.00 20.00     0.030 C 
HETATM    3  C3  UNL     1     -32.177   7.657   3.665  1.00 20.00     0.030 C 
HETATM    4  C4  UNL     1     -34.589   6.098   4.107  1.00 20.00     0.274 C 
HETATM    5  C5  UNL     1     -33.435   8.219   4.332  1.00 20.00     0.274 C 
HETATM    6  N7  UNL     1     -34.261   7.210   5.008  1.00 20.00     0.101 N 
ENDROOT
BRANCH   6   7
HETATM    7  C6  UNL     1     -33.661   6.751   6.258  1.00 20.00     0.386 C 
HETATM    8 CL8  UNL     1     -34.387   5.202   6.684  1.00 20.00    -0.098 Cl
ENDBRANCH   6   7
TORSDOF 1
ENDMDL
MODEL 3
REMARK VINA RESULT:      -3.9      1.698      1.718
REMARK  1 active torsions:
REMARK  status: ('A' for Active; 'I' for Inactive)
REMARK    1  A    between atoms: C6_6  and  N7_7 
ROOT
HETATM    1  C1  UNL     1     -34.492   5.042   6.341  1.00 20.00     0.003 C 
HETATM    2  C2  UNL     1     -33.719   6.300   6.722  1.00 20.00     0.030 C 
HETATM    3  C3  UNL     1     -34.489   4.838   4.830  1.00 20.00     0.030 C 
HETATM    4  C4  UNL     1     -34.206   7.513   5.925  1.00 20.00     0.274 C 
HETATM    5  C5  UNL     1     -34.949   6.102   4.098  1.00 20.00     0.274 C 
HETATM    6  N7  UNL     1     -34.209   7.315   4.469  1.00 20.00     0.101 N 
ENDROOT
BRANCH   6   7
HETATM    7  C6  UNL     1     -32.862   7.336   3.905  1.00 20.00     0.386 C 
HETATM    8 CL8  UNL     1     -32.012   8.737   4.555  1.00 20.00    -0.098 Cl
ENDBRANCH   6   7
TORSDOF 1
ENDMDL
MODEL 4
REMARK VINA RESULT:      -3.5      1.962      2.861
REMARK  1 active torsions:
REMARK  status: ('A' for Active; 'I' for Inactive)
REMARK    1  A    between atoms: C6_6  and  N7_7 
ROOT
HETATM    1  C1  UNL     1     -34.080   6.686   5.273  1.00 20.00     0.003 C 
HETATM    2  C2  UNL     1     -33.978   6.189   3.835  1.00 20.00     0.030 C 
HETATM    3  C3  UNL     1     -33.638   8.141   5.378  1.00 20.00     0.030 C 
HETATM    4  C4  UNL     1     -32.592   6.467   3.247  1.00 20.00     0.274 C 
HETATM    5  C5  UNL     1     -32.264   8.352   4.737  1.00 20.00     0.274 C 
HETATM    6  N7  UNL     1     -32.164   7.868   3.354  1.00 20.00     0.101 N 
ENDROOT
BRANCH   6   7
HETATM    7  C6  UNL     1     -32.868   8.735   2.412  1.00 20.00     0.386 C 
HETATM    8 CL8  UNL     1     -32.181   8.482   0.808  1.00 20.00    -0.098 Cl
ENDBRANCH   6   7
TORSDOF 1
ENDMDL
MODEL 5
REMARK VINA RESULT:      -3.4      1.631      2.547
REMARK  1 active torsions:
REMARK  status: ('A' for Active; 'I' for Inactive)
REMARK    1  A    between atoms: C6_6  and  N7_7 
ROOT
HETATM    1  C1  UNL     1     -34.807   5.141   5.407  1.00 20.00     0.003 C 
HETATM    2  C2  UNL     1     -34.426   5.549   3.988  1.00 20.00     0.030 C 
HETATM    3  C3  UNL     1     -34.659   6.315   6.369  1.00 20.00     0.030 C 
HETATM    4  C4  UNL     1     -33.050   6.219   3.953  1.00 20.00     0.274 C 
HETATM    5  C5  UNL     1     -33.274   6.959   6.251  1.00 20.00     0.274 C 
HETATM    6  N7  UNL     1     -32.905   7.345   4.883  1.00 20.00     0.101 N 
ENDROOT
BRANCH   6   7
HETATM    7  C6  UNL     1     -33.626   8.533   4.430  1.00 20.00     0.386 C 
HETATM    8 CL8  UNL     1     -32.814   9.159   2.996  1.00 20.00    -0.098 Cl
ENDBRANCH   6   7
TORSDOF 1
ENDMDL
MODEL 6
REMARK VINA RESULT:      -3.2      9.100      9.930
REMARK  1 active torsions:
REMARK  status: ('A' for Active; 'I' for Inactive)
REMARK    1  A    between atoms: C6_6  and  N7_7 
ROOT
HETATM    1  C1  UNL     1     -40.729   7.114  -0.291  1.00 20.00     0.003 C 
HETATM    2  C2  UNL     1     -41.174   5.706  -0.672  1.00 20.00     0.030 C 
HETATM    3  C3  UNL     1     -41.341   7.536   1.041  1.00 20.00     0.030 C 
HETATM    4  C4  UNL     1     -42.698   5.569  -0.610  1.00 20.00     0.274 C 
HETATM    5  C5  UNL     1     -42.859   7.335   1.043  1.00 20.00     0.274 C 
HETATM    6  N7  UNL     1     -43.287   5.981   0.670  1.00 20.00     0.101 N 
ENDROOT
BRANCH   6   7
HETATM    7  C6  UNL     1     -43.038   5.009   1.733  1.00 20.00     0.386 C 
HETATM    8 CL8  UNL     1     -43.417   3.403   1.113  1.00 20.00    -0.098 Cl
ENDBRANCH   6   7
TORSDOF 1
ENDMDL
MODEL 7
REMARK VINA RESULT:      -3.2      2.060      3.233
REMARK  1 active torsions:
REMARK  status: ('A' for Active; 'I' for Inactive)
REMARK    1  A    between atoms: C6_6  and  N7_7 
ROOT
HETATM    1  C1  UNL     1     -32.292   7.607   3.493  1.00 20.00     0.003 C 
HETATM    2  C2  UNL     1     -32.359   6.191   2.930  1.00 20.00     0.030 C 
HETATM    3  C3  UNL     1     -33.028   7.699   4.825  1.00 20.00     0.030 C 
HETATM    4  C4  UNL     1     -33.801   5.678   2.887  1.00 20.00     0.274 C 
HETATM    5  C5  UNL     1     -34.446   7.133   4.717  1.00 20.00     0.274 C 
HETATM    6  N7  UNL     1     -34.511   5.772   4.169  1.00 20.00     0.101 N 
ENDROOT
BRANCH   6   7
HETATM    7  C6  UNL     1     -34.057   4.767   5.128  1.00 20.00     0.386 C 
HETATM    8 CL8  UNL     1     -34.607   5.246   6.734  1.00 20.00    -0.098 Cl
ENDBRANCH   6   7
TORSDOF 1
ENDMDL
MODEL 8
REMARK VINA RESULT:      -3.1      9.080      9.612
REMARK  1 active torsions:
REMARK  status: ('A' for Active; 'I' for Inactive)
REMARK    1  A    between atoms: C6_6  and  N7_7 
ROOT
HETATM    1  C1  UNL     1     -43.417   5.566   2.042  1.00 20.00     0.003 C 
HETATM    2  C2  UNL     1     -43.155   7.032   1.713  1.00 20.00     0.030 C 
HETATM    3  C3  UNL     1     -42.487   4.655   1.248  1.00 20.00     0.030 C 
HETATM    4  C4  UNL     1     -43.178   7.275   0.202  1.00 20.00     0.274 C 
HETATM    5  C5  UNL     1     -42.533   4.981  -0.247  1.00 20.00     0.274 C 
HETATM    6  N7  UNL     1     -42.286   6.394  -0.563  1.00 20.00     0.101 N 
ENDROOT
BRANCH   6   7
HETATM    7  C6  UNL     1     -40.880   6.759  -0.406  1.00 20.00     0.386 C 
HETATM    8 CL8  UNL     1     -40.793   8.485  -0.058  1.00 20.00    -0.098 Cl
ENDBRANCH   6   7
TORSDOF 1
ENDMDL
MODEL 9
REMARK VINA RESULT:      -3.1     12.705     13.293
REMARK  1 active torsions:
REMARK  status: ('A' for Active; 'I' for Inactive)
REMARK    1  A    between atoms: C6_6  and  N7_7 
ROOT
HETATM    1  C1  UNL     1     -31.898  19.064   0.954  1.00 20.00     0.003 C 
HETATM    2  C2  UNL     1     -31.274  18.536  -0.334  1.00 20.00     0.030 C 
HETATM    3  C3  UNL     1     -33.355  18.632   1.069  1.00 20.00     0.030 C 
HETATM    4  C4  UNL     1     -32.131  18.890  -1.552  1.00 20.00     0.274 C 
HETATM    5  C5  UNL     1     -34.140  18.982  -0.198  1.00 20.00     0.274 C 
HETATM    6  N7  UNL     1     -33.536  18.480  -1.439  1.00 20.00     0.101 N 
ENDROOT
BRANCH   6   7
HETATM    7  C6  UNL     1     -33.705  17.036  -1.592  1.00 20.00     0.386 C 
HETATM    8 CL8  UNL     1     -33.108  16.575  -3.185  1.00 20.00    -0.098 Cl
ENDBRANCH   6   7
TORSDOF 1
ENDMDL
