MODEL 1
REMARK VINA RESULT:      -5.6      0.000      0.000
REMARK  0 active torsions:
REMARK  status: ('A' for Active; 'I' for Inactive)
ROOT
HETATM    1  C1  UNL     1     -32.561   8.759   2.155  1.00 20.00    -0.071 C 
HETATM    2  C2  UNL     1     -33.158   5.294   2.959  1.00 20.00     0.220 C 
HETATM    3  C3  UNL     1     -32.778   9.372   0.982  1.00 20.00     0.016 C 
HETATM    4  C4  UNL     1     -32.893   9.438   3.459  1.00 20.00     0.037 C 
HETATM    5  C5  UNL     1     -31.999   7.366   2.231  1.00 20.00     0.159 C 
HETATM    6  C6  UNL     1     -33.946   4.672   4.091  1.00 20.00     0.103 C 
HETATM    7  C7  UNL     1     -32.408   8.621   4.659  1.00 20.00     0.030 C 
HETATM    8  C8  UNL     1     -34.972   5.675   4.599  1.00 20.00     0.015 C 
HETATM    9  C9  UNL     1     -34.313   6.962   5.136  1.00 20.00     0.005 C 
HETATM   10  C10 UNL     1     -32.874   7.154   4.591  1.00 20.00     0.091 C 
HETATM   11  C11 UNL     1     -34.315   6.947   6.671  1.00 20.00     0.012 C 
HETATM   12  N12 UNL     1     -32.743   6.600   3.229  1.00 20.00    -0.343 N 
HETATM   13  O13 UNL     1     -32.926   4.669   1.926  1.00 20.00    -0.273 OA
ENDROOT
TORSDOF 0
ENDMDL
MODEL 2
REMARK VINA RESULT:      -4.1     11.524     13.228
REMARK  0 active torsions:
REMARK  status: ('A' for Active; 'I' for Inactive)
ROOT
HETATM    1  C1  UNL     1     -37.344  16.658  -5.346  1.00 20.00    -0.071 C 
HETATM    2  C2  UNL     1     -34.251  15.113  -4.317  1.00 20.00     0.220 C 
HETATM    3  C3  UNL     1     -38.590  16.267  -5.041  1.00 20.00     0.016 C 
HETATM    4  C4  UNL     1     -36.968  18.118  -5.357  1.00 20.00     0.037 C 
HETATM    5  C5  UNL     1     -36.259  15.668  -5.670  1.00 20.00     0.159 C 
HETATM    6  C6  UNL     1     -33.037  15.708  -3.637  1.00 20.00     0.103 C 
HETATM    7  C7  UNL     1     -35.551  18.331  -5.893  1.00 20.00     0.030 C 
HETATM    8  C8  UNL     1     -33.446  16.973  -2.896  1.00 20.00     0.015 C 
HETATM    9  C9  UNL     1     -34.026  18.043  -3.843  1.00 20.00     0.005 C 
HETATM   10  C10 UNL     1     -34.519  17.434  -5.182  1.00 20.00     0.091 C 
HETATM   11  C11 UNL     1     -32.979  19.137  -4.097  1.00 20.00     0.012 C 
HETATM   12  N12 UNL     1     -35.028  16.062  -4.985  1.00 20.00    -0.343 N 
HETATM   13  O13 UNL     1     -34.484  13.908  -4.263  1.00 20.00    -0.273 OA
ENDROOT
TORSDOF 0
ENDMDL
MODEL 3
REMARK VINA RESULT:      -4.0     11.636     12.988
REMARK  0 active torsions:
REMARK  status: ('A' for Active; 'I' for Inactive)
ROOT
HETATM    1  C1  UNL     1     -36.021  18.543  -3.326  1.00 20.00    -0.071 C 
HETATM    2  C2  UNL     1     -36.476  15.856  -5.688  1.00 20.00     0.220 C 
HETATM    3  C3  UNL     1     -36.949  19.095  -2.530  1.00 20.00     0.016 C 
HETATM    4  C4  UNL     1     -34.626  18.275  -2.821  1.00 20.00     0.037 C 
HETATM    5  C5  UNL     1     -36.324  18.149  -4.745  1.00 20.00     0.159 C 
HETATM    6  C6  UNL     1     -35.728  14.550  -5.843  1.00 20.00     0.103 C 
HETATM    7  C7  UNL     1     -33.701  17.802  -3.945  1.00 20.00     0.030 C 
HETATM    8  C8  UNL     1     -35.069  14.189  -4.519  1.00 20.00     0.015 C 
HETATM    9  C9  UNL     1     -34.057  15.258  -4.060  1.00 20.00     0.005 C 
HETATM   10  C10 UNL     1     -34.306  16.629  -4.742  1.00 20.00     0.091 C 
HETATM   11  C11 UNL     1     -32.626  14.770  -4.326  1.00 20.00     0.012 C 
HETATM   12  N12 UNL     1     -35.742  16.834  -5.014  1.00 20.00    -0.343 N 
HETATM   13  O13 UNL     1     -37.613  15.996  -6.134  1.00 20.00    -0.273 OA
ENDROOT
TORSDOF 0
ENDMDL
MODEL 4
REMARK VINA RESULT:      -4.0     11.635     13.606
REMARK  0 active torsions:
REMARK  status: ('A' for Active; 'I' for Inactive)
ROOT
HETATM    1  C1  UNL     1     -34.431  18.344  -7.086  1.00 20.00    -0.071 C 
HETATM    2  C2  UNL     1     -33.626  17.299  -3.729  1.00 20.00     0.220 C 
HETATM    3  C3  UNL     1     -33.669  19.071  -7.918  1.00 20.00     0.016 C 
HETATM    4  C4  UNL     1     -35.228  17.169  -7.591  1.00 20.00     0.037 C 
HETATM    5  C5  UNL     1     -34.513  18.649  -5.616  1.00 20.00     0.159 C 
HETATM    6  C6  UNL     1     -33.646  15.924  -3.100  1.00 20.00     0.103 C 
HETATM    7  C7  UNL     1     -36.144  16.601  -6.504  1.00 20.00     0.030 C 
HETATM    8  C8  UNL     1     -33.515  14.870  -4.191  1.00 20.00     0.015 C 
HETATM    9  C9  UNL     1     -34.671  14.938  -5.209  1.00 20.00     0.005 C 
HETATM   10  C10 UNL     1     -35.384  16.315  -5.194  1.00 20.00     0.091 C 
HETATM   11  C11 UNL     1     -35.671  13.805  -4.939  1.00 20.00     0.012 C 
HETATM   12  N12 UNL     1     -34.439  17.399  -4.861  1.00 20.00    -0.343 N 
HETATM   13  O13 UNL     1     -32.950  18.208  -3.252  1.00 20.00    -0.273 OA
ENDROOT
TORSDOF 0
ENDMDL
MODEL 5
REMARK VINA RESULT:      -3.9     11.721     13.337
REMARK  0 active torsions:
REMARK  status: ('A' for Active; 'I' for Inactive)
ROOT
HETATM    1  C1  UNL     1     -37.946  17.306  -4.924  1.00 20.00    -0.071 C 
HETATM    2  C2  UNL     1     -35.294  15.132  -6.043  1.00 20.00     0.220 C 
HETATM    3  C3  UNL     1     -39.223  16.975  -4.682  1.00 20.00     0.016 C 
HETATM    4  C4  UNL     1     -37.204  18.253  -4.016  1.00 20.00     0.037 C 
HETATM    5  C5  UNL     1     -37.187  16.739  -6.092  1.00 20.00     0.159 C 
HETATM    6  C6  UNL     1     -33.918  14.888  -5.465  1.00 20.00     0.103 C 
HETATM    7  C7  UNL     1     -35.827  18.610  -4.579  1.00 20.00     0.030 C 
HETATM    8  C8  UNL     1     -33.921  15.252  -3.987  1.00 20.00     0.015 C 
HETATM    9  C9  UNL     1     -34.273  16.735  -3.753  1.00 20.00     0.005 C 
HETATM   10  C10 UNL     1     -35.013  17.359  -4.965  1.00 20.00     0.091 C 
HETATM   11  C11 UNL     1     -33.000  17.528  -3.426  1.00 20.00     0.012 C 
HETATM   12  N12 UNL     1     -35.846  16.355  -5.654  1.00 20.00    -0.343 N 
HETATM   13  O13 UNL     1     -35.830  14.308  -6.781  1.00 20.00    -0.273 OA
ENDROOT
TORSDOF 0
ENDMDL
MODEL 6
REMARK VINA RESULT:      -3.8     11.445     13.103
REMARK  0 active torsions:
REMARK  status: ('A' for Active; 'I' for Inactive)
ROOT
HETATM    1  C1  UNL     1     -32.987  18.141  -1.473  1.00 20.00    -0.071 C 
HETATM    2  C2  UNL     1     -33.701  15.987  -4.277  1.00 20.00     0.220 C 
HETATM    3  C3  UNL     1     -31.794  18.368  -0.903  1.00 20.00     0.016 C 
HETATM    4  C4  UNL     1     -33.970  19.263  -1.690  1.00 20.00     0.037 C 
HETATM    5  C5  UNL     1     -33.396  16.771  -1.940  1.00 20.00     0.159 C 
HETATM    6  C6  UNL     1     -34.426  16.274  -5.573  1.00 20.00     0.103 C 
HETATM    7  C7  UNL     1     -35.317  18.742  -2.197  1.00 20.00     0.030 C 
HETATM    8  C8  UNL     1     -34.371  17.768  -5.860  1.00 20.00     0.015 C 
HETATM    9  C9  UNL     1     -35.046  18.600  -4.750  1.00 20.00     0.005 C 
HETATM   10  C10 UNL     1     -35.160  17.814  -3.417  1.00 20.00     0.091 C 
HETATM   11  C11 UNL     1     -36.428  19.074  -5.221  1.00 20.00     0.012 C 
HETATM   12  N12 UNL     1     -34.030  16.879  -3.254  1.00 20.00    -0.343 N 
HETATM   13  O13 UNL     1     -32.916  15.046  -4.181  1.00 20.00    -0.273 OA
ENDROOT
TORSDOF 0
ENDMDL
MODEL 7
REMARK VINA RESULT:      -3.7     11.981     13.394
REMARK  0 active torsions:
REMARK  status: ('A' for Active; 'I' for Inactive)
ROOT
HETATM    1  C1  UNL     1     -33.800  17.267  -2.494  1.00 20.00    -0.071 C 
HETATM    2  C2  UNL     1     -36.649  18.259  -4.471  1.00 20.00     0.220 C 
HETATM    3  C3  UNL     1     -33.650  17.382  -1.166  1.00 20.00     0.016 C 
HETATM    4  C4  UNL     1     -33.335  16.033  -3.224  1.00 20.00     0.037 C 
HETATM    5  C5  UNL     1     -34.453  18.345  -3.316  1.00 20.00     0.159 C 
HETATM    6  C6  UNL     1     -37.472  17.472  -5.468  1.00 20.00     0.103 C 
HETATM    7  C7  UNL     1     -33.455  16.197  -4.741  1.00 20.00     0.030 C 
HETATM    8  C8  UNL     1     -37.332  15.985  -5.174  1.00 20.00     0.015 C 
HETATM    9  C9  UNL     1     -35.871  15.504  -5.285  1.00 20.00     0.005 C 
HETATM   10  C10 UNL     1     -34.859  16.673  -5.165  1.00 20.00     0.091 C 
HETATM   11  C11 UNL     1     -35.671  14.745  -6.604  1.00 20.00     0.012 C 
HETATM   12  N12 UNL     1     -35.372  17.730  -4.273  1.00 20.00    -0.343 N 
HETATM   13  O13 UNL     1     -37.103  19.260  -3.921  1.00 20.00    -0.273 OA
ENDROOT
TORSDOF 0
ENDMDL
MODEL 8
REMARK VINA RESULT:      -3.6     13.026     14.325
REMARK  0 active torsions:
REMARK  status: ('A' for Active; 'I' for Inactive)
ROOT
HETATM    1  C1  UNL     1     -24.275  -3.778  10.318  1.00 20.00    -0.071 C 
HETATM    2  C2  UNL     1     -27.864  -3.595  10.628  1.00 20.00     0.220 C 
HETATM    3  C3  UNL     1     -23.571  -4.315   9.310  1.00 20.00     0.016 C 
HETATM    4  C4  UNL     1     -23.845  -2.487  10.964  1.00 20.00     0.037 C 
HETATM    5  C5  UNL     1     -25.531  -4.421  10.838  1.00 20.00     0.159 C 
HETATM    6  C6  UNL     1     -28.765  -2.409  10.893  1.00 20.00     0.103 C 
HETATM    7  C7  UNL     1     -24.698  -2.160  12.192  1.00 20.00     0.030 C 
HETATM    8  C8  UNL     1     -28.052  -1.131  10.472  1.00 20.00     0.015 C 
HETATM    9  C9  UNL     1     -26.741  -0.910  11.255  1.00 20.00     0.005 C 
HETATM   10  C10 UNL     1     -26.208  -2.224  11.885  1.00 20.00     0.091 C 
HETATM   11  C11 UNL     1     -26.952   0.163  12.332  1.00 20.00     0.012 C 
HETATM   12  N12 UNL     1     -26.547  -3.391  11.048  1.00 20.00    -0.343 N 
HETATM   13  O13 UNL     1     -28.295  -4.616  10.098  1.00 20.00    -0.273 OA
ENDROOT
TORSDOF 0
ENDMDL
MODEL 9
REMARK VINA RESULT:      -3.6     11.366     12.577
REMARK  0 active torsions:
REMARK  status: ('A' for Active; 'I' for Inactive)
ROOT
HETATM    1  C1  UNL     1     -40.882  15.318   9.839  1.00 20.00    -0.071 C 
HETATM    2  C2  UNL     1     -43.059  12.695   8.659  1.00 20.00     0.220 C 
HETATM    3  C3  UNL     1     -40.044  15.272  10.885  1.00 20.00     0.016 C 
HETATM    4  C4  UNL     1     -40.479  15.985   8.549  1.00 20.00     0.037 C 
HETATM    5  C5  UNL     1     -42.250  14.695   9.890  1.00 20.00     0.159 C 
HETATM    6  C6  UNL     1     -43.206  12.090   7.281  1.00 20.00     0.103 C 
HETATM    7  C7  UNL     1     -41.649  16.062   7.565  1.00 20.00     0.030 C 
HETATM    8  C8  UNL     1     -41.923  12.316   6.493  1.00 20.00     0.015 C 
HETATM    9  C9  UNL     1     -41.603  13.814   6.317  1.00 20.00     0.005 C 
HETATM   10  C10 UNL     1     -42.332  14.695   7.365  1.00 20.00     0.091 C 
HETATM   11  C11 UNL     1     -41.959  14.259   4.891  1.00 20.00     0.012 C 
HETATM   12  N12 UNL     1     -42.497  13.973   8.642  1.00 20.00    -0.343 N 
HETATM   13  O13 UNL     1     -43.417  12.084   9.664  1.00 20.00    -0.273 OA
ENDROOT
TORSDOF 0
ENDMDL
