MODEL 1
REMARK VINA RESULT:      -4.0      0.000      0.000
REMARK  4 active torsions:
REMARK  status: ('A' for Active; 'I' for Inactive)
REMARK    1  A    between atoms: C2_2  and  C5_5 
REMARK    2  A    between atoms: C2_2  and  C6_6 
REMARK    3  A    between atoms: C5_5  and  C7_7 
REMARK    4  A    between atoms: C6_6  and  C8_8 
ROOT
HETATM    1  C1  UNL     1     -35.139   5.454   6.880  1.00 20.00     0.207 A 
HETATM    2  C2  UNL     1     -34.388   6.115   5.748  1.00 20.00     0.082 A 
HETATM    3  O9  UNL     1     -33.830   5.018   6.485  1.00 20.00    -0.375 OA
ENDROOT
BRANCH   2   4
HETATM    4  C5  UNL     1     -34.743   5.770   4.311  1.00 20.00     0.040 C 
BRANCH   4   5
HETATM    5  C7  UNL     1     -33.822   4.688   3.752  1.00 20.00    -0.002 C 
HETATM    6  C3  UNL     1     -32.942   5.226   2.635  1.00 20.00     0.005 C 
ENDBRANCH   4   5
ENDBRANCH   2   4
BRANCH   2   7
HETATM    7  C6  UNL     1     -33.692   7.416   5.986  1.00 20.00     0.040 C 
BRANCH   7   8
HETATM    8  C8  UNL     1     -33.581   8.262   4.709  1.00 20.00    -0.002 C 
HETATM    9  C4  UNL     1     -32.139   8.457   4.266  1.00 20.00     0.005 C 
ENDBRANCH   7   8
ENDBRANCH   2   7
TORSDOF 4
ENDMDL
MODEL 2
REMARK VINA RESULT:      -3.8      1.771      3.723
REMARK  4 active torsions:
REMARK  status: ('A' for Active; 'I' for Inactive)
REMARK    1  A    between atoms: C2_2  and  C5_5 
REMARK    2  A    between atoms: C2_2  and  C6_6 
REMARK    3  A    between atoms: C5_5  and  C7_7 
REMARK    4  A    between atoms: C6_6  and  C8_8 
ROOT
HETATM    1  C1  UNL     1     -32.584   9.419   4.022  1.00 20.00     0.207 A 
HETATM    2  C2  UNL     1     -32.868   7.944   4.174  1.00 20.00     0.082 A 
HETATM    3  O9  UNL     1     -31.966   8.633   5.052  1.00 20.00    -0.375 OA
ENDROOT
BRANCH   2   4
HETATM    4  C5  UNL     1     -34.153   7.493   4.848  1.00 20.00     0.040 C 
BRANCH   4   5
HETATM    5  C7  UNL     1     -33.874   6.806   6.183  1.00 20.00    -0.002 C 
HETATM    6  C3  UNL     1     -34.582   5.464   6.279  1.00 20.00     0.005 C 
ENDBRANCH   4   5
ENDBRANCH   2   4
BRANCH   2   7
HETATM    7  C6  UNL     1     -32.194   6.966   3.267  1.00 20.00     0.040 C 
BRANCH   7   8
HETATM    8  C8  UNL     1     -33.196   6.060   2.535  1.00 20.00    -0.002 C 
HETATM    9  C4  UNL     1     -32.864   4.584   2.692  1.00 20.00     0.005 C 
ENDBRANCH   7   8
ENDBRANCH   2   7
TORSDOF 4
ENDMDL
MODEL 3
REMARK VINA RESULT:      -3.7      0.684      2.838
REMARK  4 active torsions:
REMARK  status: ('A' for Active; 'I' for Inactive)
REMARK    1  A    between atoms: C2_2  and  C5_5 
REMARK    2  A    between atoms: C2_2  and  C6_6 
REMARK    3  A    between atoms: C5_5  and  C7_7 
REMARK    4  A    between atoms: C6_6  and  C8_8 
ROOT
HETATM    1  C1  UNL     1     -34.024   5.063   6.665  1.00 20.00     0.207 A 
HETATM    2  C2  UNL     1     -34.318   6.173   5.683  1.00 20.00     0.082 A 
HETATM    3  O9  UNL     1     -35.261   5.790   6.694  1.00 20.00    -0.375 OA
ENDROOT
BRANCH   2   4
HETATM    4  C5  UNL     1     -33.711   7.549   5.903  1.00 20.00     0.040 C 
BRANCH   4   5
HETATM    5  C7  UNL     1     -33.569   8.314   4.590  1.00 20.00    -0.002 C 
HETATM    6  C3  UNL     1     -32.109   8.528   4.222  1.00 20.00     0.005 C 
ENDBRANCH   4   5
ENDBRANCH   2   4
BRANCH   2   7
HETATM    7  C6  UNL     1     -34.752   5.832   4.295  1.00 20.00     0.040 C 
BRANCH   7   8
HETATM    8  C8  UNL     1     -33.889   4.728   3.665  1.00 20.00    -0.002 C 
HETATM    9  C4  UNL     1     -32.911   5.273   2.635  1.00 20.00     0.005 C 
ENDBRANCH   7   8
ENDBRANCH   2   7
TORSDOF 4
ENDMDL
MODEL 4
REMARK VINA RESULT:      -3.7      2.012      3.359
REMARK  4 active torsions:
REMARK  status: ('A' for Active; 'I' for Inactive)
REMARK    1  A    between atoms: C2_2  and  C5_5 
REMARK    2  A    between atoms: C2_2  and  C6_6 
REMARK    3  A    between atoms: C5_5  and  C7_7 
REMARK    4  A    between atoms: C6_6  and  C8_8 
ROOT
HETATM    1  C1  UNL     1     -32.044   9.162   4.857  1.00 20.00     0.207 A 
HETATM    2  C2  UNL     1     -32.821   8.014   4.257  1.00 20.00     0.082 A 
HETATM    3  O9  UNL     1     -32.850   9.326   3.680  1.00 20.00    -0.375 OA
ENDROOT
BRANCH   2   4
HETATM    4  C5  UNL     1     -32.098   6.985   3.402  1.00 20.00     0.040 C 
BRANCH   4   5
HETATM    5  C7  UNL     1     -33.074   6.196   2.532  1.00 20.00    -0.002 C 
HETATM    6  C3  UNL     1     -32.886   4.697   2.701  1.00 20.00     0.005 C 
ENDBRANCH   4   5
ENDBRANCH   2   4
BRANCH   2   7
HETATM    7  C6  UNL     1     -34.117   7.599   4.874  1.00 20.00     0.040 C 
BRANCH   7   8
HETATM    8  C8  UNL     1     -33.919   6.794   6.168  1.00 20.00    -0.002 C 
HETATM    9  C4  UNL     1     -34.626   5.448   6.127  1.00 20.00     0.005 C 
ENDBRANCH   7   8
ENDBRANCH   2   7
TORSDOF 4
ENDMDL
MODEL 5
REMARK VINA RESULT:      -3.6      1.034      1.334
REMARK  4 active torsions:
REMARK  status: ('A' for Active; 'I' for Inactive)
REMARK    1  A    between atoms: C2_2  and  C5_5 
REMARK    2  A    between atoms: C2_2  and  C6_6 
REMARK    3  A    between atoms: C5_5  and  C7_7 
REMARK    4  A    between atoms: C6_6  and  C8_8 
ROOT
HETATM    1  C1  UNL     1     -34.432   7.194   6.869  1.00 20.00     0.207 A 
HETATM    2  C2  UNL     1     -34.251   7.060   5.376  1.00 20.00     0.082 A 
HETATM    3  O9  UNL     1     -33.308   6.504   6.303  1.00 20.00    -0.375 OA
ENDROOT
BRANCH   2   4
HETATM    4  C5  UNL     1     -35.049   6.015   4.614  1.00 20.00     0.040 C 
BRANCH   4   5
HETATM    5  C7  UNL     1     -34.230   4.747   4.379  1.00 20.00    -0.002 C 
HETATM    6  C3  UNL     1     -33.521   4.782   3.035  1.00 20.00     0.005 C 
ENDBRANCH   4   5
ENDBRANCH   2   4
BRANCH   2   7
HETATM    7  C6  UNL     1     -33.715   8.214   4.592  1.00 20.00     0.040 C 
BRANCH   7   8
HETATM    8  C8  UNL     1     -32.232   8.038   4.230  1.00 20.00    -0.002 C 
HETATM    9  C4  UNL     1     -32.021   7.838   2.737  1.00 20.00     0.005 C 
ENDBRANCH   7   8
ENDBRANCH   2   7
TORSDOF 4
ENDMDL
MODEL 6
REMARK VINA RESULT:      -3.4      1.517      3.705
REMARK  4 active torsions:
REMARK  status: ('A' for Active; 'I' for Inactive)
REMARK    1  A    between atoms: C2_2  and  C5_5 
REMARK    2  A    between atoms: C2_2  and  C6_6 
REMARK    3  A    between atoms: C5_5  and  C7_7 
REMARK    4  A    between atoms: C6_6  and  C8_8 
ROOT
HETATM    1  C1  UNL     1     -33.135   4.957   2.029  1.00 20.00     0.207 A 
HETATM    2  C2  UNL     1     -33.268   5.896   3.205  1.00 20.00     0.082 A 
HETATM    3  O9  UNL     1     -32.601   4.631   3.322  1.00 20.00    -0.375 OA
ENDROOT
BRANCH   2   4
HETATM    4  C5  UNL     1     -32.336   7.091   3.319  1.00 20.00     0.040 C 
BRANCH   4   5
HETATM    5  C7  UNL     1     -33.070   8.326   3.837  1.00 20.00    -0.002 C 
HETATM    6  C3  UNL     1     -32.408   8.887   5.085  1.00 20.00     0.005 C 
ENDBRANCH   4   5
ENDBRANCH   2   4
BRANCH   2   7
HETATM    7  C6  UNL     1     -34.561   5.965   3.951  1.00 20.00     0.040 C 
BRANCH   7   8
HETATM    8  C8  UNL     1     -34.539   5.128   5.239  1.00 20.00    -0.002 C 
HETATM    9  C4  UNL     1     -34.433   5.989   6.488  1.00 20.00     0.005 C 
ENDBRANCH   7   8
ENDBRANCH   2   7
TORSDOF 4
ENDMDL
MODEL 7
REMARK VINA RESULT:      -3.4      2.275      3.814
REMARK  4 active torsions:
REMARK  status: ('A' for Active; 'I' for Inactive)
REMARK    1  A    between atoms: C2_2  and  C5_5 
REMARK    2  A    between atoms: C2_2  and  C6_6 
REMARK    3  A    between atoms: C5_5  and  C7_7 
REMARK    4  A    between atoms: C6_6  and  C8_8 
ROOT
HETATM    1  C1  UNL     1     -32.501   8.227   5.120  1.00 20.00     0.207 A 
HETATM    2  C2  UNL     1     -32.877   7.465   3.870  1.00 20.00     0.082 A 
HETATM    3  O9  UNL     1     -33.724   8.487   4.415  1.00 20.00    -0.375 OA
ENDROOT
BRANCH   2   4
HETATM    4  C5  UNL     1     -32.240   7.842   2.543  1.00 20.00     0.040 C 
BRANCH   4   5
HETATM    5  C7  UNL     1     -32.844   9.126   1.977  1.00 20.00    -0.002 C 
HETATM    6  C3  UNL     1     -32.664   9.210   0.470  1.00 20.00     0.005 C 
ENDBRANCH   4   5
ENDBRANCH   2   4
BRANCH   2   7
HETATM    7  C6  UNL     1     -33.443   6.088   3.989  1.00 20.00     0.040 C 
BRANCH   7   8
HETATM    8  C8  UNL     1     -34.786   6.069   4.735  1.00 20.00    -0.002 C 
HETATM    9  C4  UNL     1     -34.678   5.424   6.108  1.00 20.00     0.005 C 
ENDBRANCH   7   8
ENDBRANCH   2   7
TORSDOF 4
ENDMDL
MODEL 8
REMARK VINA RESULT:      -3.3     12.783     13.436
REMARK  4 active torsions:
REMARK  status: ('A' for Active; 'I' for Inactive)
REMARK    1  A    between atoms: C2_2  and  C5_5 
REMARK    2  A    between atoms: C2_2  and  C6_6 
REMARK    3  A    between atoms: C5_5  and  C7_7 
REMARK    4  A    between atoms: C6_6  and  C8_8 
ROOT
HETATM    1  C1  UNL     1     -34.704  19.242  -0.599  1.00 20.00     0.207 A 
HETATM    2  C2  UNL     1     -33.478  18.413  -0.899  1.00 20.00     0.082 A 
HETATM    3  O9  UNL     1     -34.049  18.467   0.416  1.00 20.00    -0.375 OA
ENDROOT
BRANCH   2   4
HETATM    4  C5  UNL     1     -33.633  17.063  -1.579  1.00 20.00     0.040 C 
BRANCH   4   5
HETATM    5  C7  UNL     1     -33.242  17.130  -3.054  1.00 20.00    -0.002 C 
HETATM    6  C3  UNL     1     -33.225  15.750  -3.690  1.00 20.00     0.005 C 
ENDBRANCH   4   5
ENDBRANCH   2   4
BRANCH   2   7
HETATM    7  C6  UNL     1     -32.145  19.081  -1.003  1.00 20.00     0.040 C 
BRANCH   7   8
HETATM    8  C8  UNL     1     -31.083  18.408  -0.120  1.00 20.00    -0.002 C 
HETATM    9  C4  UNL     1     -30.709  19.257   1.085  1.00 20.00     0.005 C 
ENDBRANCH   7   8
ENDBRANCH   2   7
TORSDOF 4
ENDMDL
MODEL 9
REMARK VINA RESULT:      -3.2      9.687     10.431
REMARK  4 active torsions:
REMARK  status: ('A' for Active; 'I' for Inactive)
REMARK    1  A    between atoms: C2_2  and  C5_5 
REMARK    2  A    between atoms: C2_2  and  C6_6 
REMARK    3  A    between atoms: C5_5  and  C7_7 
REMARK    4  A    between atoms: C6_6  and  C8_8 
ROOT
HETATM    1  C1  UNL     1     -43.162  13.167   6.666  1.00 20.00     0.207 A 
HETATM    2  C2  UNL     1     -41.660  13.279   6.775  1.00 20.00     0.082 A 
HETATM    3  O9  UNL     1     -42.356  12.080   7.147  1.00 20.00    -0.375 OA
ENDROOT
BRANCH   2   4
HETATM    4  C5  UNL     1     -40.805  13.127   5.528  1.00 20.00     0.040 C 
BRANCH   4   5
HETATM    5  C7  UNL     1     -39.861  11.932   5.639  1.00 20.00    -0.002 C 
HETATM    6  C3  UNL     1     -39.103  11.697   4.342  1.00 20.00     0.005 C 
ENDBRANCH   4   5
ENDBRANCH   2   4
BRANCH   2   7
HETATM    7  C6  UNL     1     -41.057  14.007   7.932  1.00 20.00     0.040 C 
BRANCH   7   8
HETATM    8  C8  UNL     1     -40.352  15.304   7.504  1.00 20.00    -0.002 C 
HETATM    9  C4  UNL     1     -40.702  16.478   8.406  1.00 20.00     0.005 C 
ENDBRANCH   7   8
ENDBRANCH   2   7
TORSDOF 4
ENDMDL
