MODEL 1
REMARK VINA RESULT:      -5.2      0.000      0.000
REMARK  2 active torsions:
REMARK  status: ('A' for Active; 'I' for Inactive)
REMARK    1  A    between atoms: C1_1  and  C3_3 
REMARK    2  A    between atoms: C3_3  and  C4_4 
ROOT
HETATM    1  C2  UNL     1     -33.716   7.570   4.459  1.00 20.00     0.069 C 
HETATM    2  C3  UNL     1     -34.448   6.268   4.819  1.00 20.00     0.264 C 
HETATM    3  O5  UNL     1     -35.714   6.349   4.460  1.00 20.00    -0.210 OA
ENDROOT
BRANCH   2   4
HETATM    4  C1  UNL     1     -33.854   5.045   4.089  1.00 20.00     0.265 C 
HETATM    5  O6  UNL     1     -34.056   3.896   4.479  1.00 20.00    -0.276 OA
HETATM    6 CL10 UNL     1     -32.856   5.422   2.694  1.00 20.00    -0.040 Cl
ENDBRANCH   2   4
BRANCH   2   7
HETATM    7  C4  UNL     1     -34.380   6.063   6.341  1.00 20.00     0.429 C 
HETATM    8  F7  UNL     1     -34.569   7.221   7.018  1.00 20.00    -0.167 F 
HETATM    9  F8  UNL     1     -33.193   5.553   6.744  1.00 20.00    -0.167 F 
HETATM   10  F9  UNL     1     -35.345   5.205   6.752  1.00 20.00    -0.167 F 
ENDBRANCH   2   7
TORSDOF 2
ENDMDL
MODEL 2
REMARK VINA RESULT:      -4.8      1.226      1.706
REMARK  2 active torsions:
REMARK  status: ('A' for Active; 'I' for Inactive)
REMARK    1  A    between atoms: C1_1  and  C3_3 
REMARK    2  A    between atoms: C3_3  and  C4_4 
ROOT
HETATM    1  C2  UNL     1     -35.872   6.115   4.220  1.00 20.00     0.069 C 
HETATM    2  C3  UNL     1     -34.493   5.677   4.737  1.00 20.00     0.264 C 
HETATM    3  O5  UNL     1     -34.391   4.364   4.690  1.00 20.00    -0.210 OA
ENDROOT
BRANCH   2   4
HETATM    4  C1  UNL     1     -33.343   6.246   3.880  1.00 20.00     0.265 C 
HETATM    5  O6  UNL     1     -32.866   7.360   4.092  1.00 20.00    -0.276 OA
HETATM    6 CL10 UNL     1     -32.796   5.202   2.579  1.00 20.00    -0.040 Cl
ENDBRANCH   2   4
BRANCH   2   7
HETATM    7  C4  UNL     1     -34.341   6.131   6.197  1.00 20.00     0.429 C 
HETATM    8  F7  UNL     1     -34.489   7.472   6.329  1.00 20.00    -0.167 F 
HETATM    9  F8  UNL     1     -33.134   5.809   6.719  1.00 20.00    -0.167 F 
HETATM   10  F9  UNL     1     -35.283   5.553   6.980  1.00 20.00    -0.167 F 
ENDBRANCH   2   7
TORSDOF 2
ENDMDL
MODEL 3
REMARK VINA RESULT:      -4.7      1.749      2.102
REMARK  2 active torsions:
REMARK  status: ('A' for Active; 'I' for Inactive)
REMARK    1  A    between atoms: C1_1  and  C3_3 
REMARK    2  A    between atoms: C3_3  and  C4_4 
ROOT
HETATM    1  C2  UNL     1     -35.741   6.097   4.374  1.00 20.00     0.069 C 
HETATM    2  C3  UNL     1     -34.267   5.841   4.720  1.00 20.00     0.264 C 
HETATM    3  O5  UNL     1     -33.925   4.620   4.360  1.00 20.00    -0.210 OA
ENDROOT
BRANCH   2   4
HETATM    4  C1  UNL     1     -33.318   6.808   3.980  1.00 20.00     0.265 C 
HETATM    5  O6  UNL     1     -32.528   6.412   3.124  1.00 20.00    -0.276 OA
HETATM    6 CL10 UNL     1     -33.437   8.490   4.470  1.00 20.00    -0.040 Cl
ENDBRANCH   2   4
BRANCH   2   7
HETATM    7  C4  UNL     1     -34.081   5.977   6.240  1.00 20.00     0.429 C 
HETATM    8  F7  UNL     1     -35.161   6.540   6.835  1.00 20.00    -0.167 F 
HETATM    9  F8  UNL     1     -33.006   6.731   6.567  1.00 20.00    -0.167 F 
HETATM   10  F9  UNL     1     -33.906   4.761   6.812  1.00 20.00    -0.167 F 
ENDBRANCH   2   7
TORSDOF 2
ENDMDL
MODEL 4
REMARK VINA RESULT:      -4.4      1.990      2.453
REMARK  2 active torsions:
REMARK  status: ('A' for Active; 'I' for Inactive)
REMARK    1  A    between atoms: C1_1  and  C3_3 
REMARK    2  A    between atoms: C3_3  and  C4_4 
ROOT
HETATM    1  C2  UNL     1     -33.291   7.266   6.238  1.00 20.00     0.069 C 
HETATM    2  C3  UNL     1     -33.921   6.974   4.868  1.00 20.00     0.264 C 
HETATM    3  O5  UNL     1     -34.687   7.981   4.500  1.00 20.00    -0.210 OA
ENDROOT
BRANCH   2   4
HETATM    4  C1  UNL     1     -32.857   6.793   3.764  1.00 20.00     0.265 C 
HETATM    5  O6  UNL     1     -31.920   7.579   3.633  1.00 20.00    -0.276 OA
HETATM    6 CL10 UNL     1     -33.105   5.411   2.710  1.00 20.00    -0.040 Cl
ENDBRANCH   2   4
BRANCH   2   7
HETATM    7  C4  UNL     1     -34.789   5.710   4.979  1.00 20.00     0.429 C 
HETATM    8  F7  UNL     1     -34.106   4.593   4.628  1.00 20.00    -0.167 F 
HETATM    9  F8  UNL     1     -35.892   5.767   4.196  1.00 20.00    -0.167 F 
HETATM   10  F9  UNL     1     -35.212   5.528   6.253  1.00 20.00    -0.167 F 
ENDBRANCH   2   7
TORSDOF 2
ENDMDL
MODEL 5
REMARK VINA RESULT:      -4.3      1.990      2.357
REMARK  2 active torsions:
REMARK  status: ('A' for Active; 'I' for Inactive)
REMARK    1  A    between atoms: C1_1  and  C3_3 
REMARK    2  A    between atoms: C3_3  and  C4_4 
ROOT
HETATM    1  C2  UNL     1     -33.256   7.267   6.228  1.00 20.00     0.069 C 
HETATM    2  C3  UNL     1     -33.907   6.970   4.869  1.00 20.00     0.264 C 
HETATM    3  O5  UNL     1     -34.673   7.979   4.506  1.00 20.00    -0.210 OA
ENDROOT
BRANCH   2   4
HETATM    4  C1  UNL     1     -32.859   6.780   3.751  1.00 20.00     0.265 C 
HETATM    5  O6  UNL     1     -31.923   7.563   3.601  1.00 20.00    -0.276 OA
HETATM    6 CL10 UNL     1     -33.124   5.392   2.709  1.00 20.00    -0.040 Cl
ENDBRANCH   2   4
BRANCH   2   7
HETATM    7  C4  UNL     1     -34.779   5.711   4.997  1.00 20.00     0.429 C 
HETATM    8  F7  UNL     1     -35.871   5.766   4.197  1.00 20.00    -0.167 F 
HETATM    9  F8  UNL     1     -35.219   5.510   6.261  1.00 20.00    -0.167 F 
HETATM   10  F9  UNL     1     -34.082   4.607   4.635  1.00 20.00    -0.167 F 
ENDBRANCH   2   7
TORSDOF 2
ENDMDL
MODEL 6
REMARK VINA RESULT:      -4.1      9.098      9.566
REMARK  2 active torsions:
REMARK  status: ('A' for Active; 'I' for Inactive)
REMARK    1  A    between atoms: C1_1  and  C3_3 
REMARK    2  A    between atoms: C3_3  and  C4_4 
ROOT
HETATM    1  C2  UNL     1     -43.390   8.167  -0.080  1.00 20.00     0.069 C 
HETATM    2  C3  UNL     1     -42.544   7.061   0.569  1.00 20.00     0.264 C 
HETATM    3  O5  UNL     1     -42.793   7.003   1.862  1.00 20.00    -0.210 OA
ENDROOT
BRANCH   2   4
HETATM    4  C1  UNL     1     -42.865   5.667  -0.011  1.00 20.00     0.265 C 
HETATM    5  O6  UNL     1     -43.049   5.492  -1.214  1.00 20.00    -0.276 OA
HETATM    6 CL10 UNL     1     -42.971   4.374   1.173  1.00 20.00    -0.040 Cl
ENDBRANCH   2   4
BRANCH   2   7
HETATM    7  C4  UNL     1     -41.056   7.389   0.368  1.00 20.00     0.429 C 
HETATM    8  F7  UNL     1     -40.868   8.324  -0.595  1.00 20.00    -0.167 F 
HETATM    9  F8  UNL     1     -40.327   6.303   0.018  1.00 20.00    -0.167 F 
HETATM   10  F9  UNL     1     -40.515   7.884   1.507  1.00 20.00    -0.167 F 
ENDBRANCH   2   7
TORSDOF 2
ENDMDL
MODEL 7
REMARK VINA RESULT:      -4.0      2.118      2.417
REMARK  2 active torsions:
REMARK  status: ('A' for Active; 'I' for Inactive)
REMARK    1  A    between atoms: C1_1  and  C3_3 
REMARK    2  A    between atoms: C3_3  and  C4_4 
ROOT
HETATM    1  C2  UNL     1     -32.893   6.398   3.241  1.00 20.00     0.069 C 
HETATM    2  C3  UNL     1     -33.885   6.611   4.394  1.00 20.00     0.264 C 
HETATM    3  O5  UNL     1     -34.995   7.154   3.939  1.00 20.00    -0.210 OA
ENDROOT
BRANCH   2   4
HETATM    4  C1  UNL     1     -34.282   5.282   5.073  1.00 20.00     0.265 C 
HETATM    5  O6  UNL     1     -34.137   4.198   4.510  1.00 20.00    -0.276 OA
HETATM    6 CL10 UNL     1     -34.974   5.443   6.679  1.00 20.00    -0.040 Cl
ENDBRANCH   2   4
BRANCH   2   7
HETATM    7  C4  UNL     1     -33.256   7.564   5.423  1.00 20.00     0.429 C 
HETATM    8  F7  UNL     1     -32.141   8.166   4.942  1.00 20.00    -0.167 F 
HETATM    9  F8  UNL     1     -32.907   6.934   6.570  1.00 20.00    -0.167 F 
HETATM   10  F9  UNL     1     -34.123   8.550   5.756  1.00 20.00    -0.167 F 
ENDBRANCH   2   7
TORSDOF 2
ENDMDL
MODEL 8
REMARK VINA RESULT:      -3.9     13.215     13.986
REMARK  2 active torsions:
REMARK  status: ('A' for Active; 'I' for Inactive)
REMARK    1  A    between atoms: C1_1  and  C3_3 
REMARK    2  A    between atoms: C3_3  and  C4_4 
ROOT
HETATM    1  C2  UNL     1     -34.705  16.825  -5.567  1.00 20.00     0.069 C 
HETATM    2  C3  UNL     1     -34.440  15.312  -5.517  1.00 20.00     0.264 C 
HETATM    3  O5  UNL     1     -33.803  14.931  -6.605  1.00 20.00    -0.210 OA
ENDROOT
BRANCH   2   4
HETATM    4  C1  UNL     1     -33.552  14.917  -4.317  1.00 20.00     0.265 C 
HETATM    5  O6  UNL     1     -32.933  13.854  -4.291  1.00 20.00    -0.276 OA
HETATM    6 CL10 UNL     1     -33.520  16.077  -3.000  1.00 20.00    -0.040 Cl
ENDBRANCH   2   4
BRANCH   2   7
HETATM    7  C4  UNL     1     -35.785  14.572  -5.447  1.00 20.00     0.429 C 
HETATM    8  F7  UNL     1     -36.815  15.414  -5.189  1.00 20.00    -0.167 F 
HETATM    9  F8  UNL     1     -35.802  13.614  -4.491  1.00 20.00    -0.167 F 
HETATM   10  F9  UNL     1     -36.059  13.965  -6.627  1.00 20.00    -0.167 F 
ENDBRANCH   2   7
TORSDOF 2
ENDMDL
MODEL 9
REMARK VINA RESULT:      -3.9      2.825      3.367
REMARK  2 active torsions:
REMARK  status: ('A' for Active; 'I' for Inactive)
REMARK    1  A    between atoms: C1_1  and  C3_3 
REMARK    2  A    between atoms: C3_3  and  C4_4 
ROOT
HETATM    1  C2  UNL     1     -34.348   8.741   5.365  1.00 20.00     0.069 C 
HETATM    2  C3  UNL     1     -33.601   7.414   5.163  1.00 20.00     0.264 C 
HETATM    3  O5  UNL     1     -32.857   7.151   6.218  1.00 20.00    -0.210 OA
ENDROOT
BRANCH   2   4
HETATM    4  C1  UNL     1     -34.567   6.223   4.988  1.00 20.00     0.265 C 
HETATM    5  O6  UNL     1     -35.400   6.190   4.083  1.00 20.00    -0.276 OA
HETATM    6 CL10 UNL     1     -34.403   4.949   6.186  1.00 20.00    -0.040 Cl
ENDBRANCH   2   4
BRANCH   2   7
HETATM    7  C4  UNL     1     -32.687   7.539   3.933  1.00 20.00     0.429 C 
HETATM    8  F7  UNL     1     -33.123   8.490   3.071  1.00 20.00    -0.167 F 
HETATM    9  F8  UNL     1     -32.591   6.382   3.237  1.00 20.00    -0.167 F 
HETATM   10  F9  UNL     1     -31.432   7.890   4.303  1.00 20.00    -0.167 F 
ENDBRANCH   2   7
TORSDOF 2
ENDMDL
