MODEL 1
REMARK VINA RESULT:      -5.9      0.000      0.000
REMARK  1 active torsions:
REMARK  status: ('A' for Active; 'I' for Inactive)
REMARK    1  A    between atoms: C5_5  and  C6_6 
ROOT
HETATM    1  C1  UNL     1     -33.414   6.355   3.868  1.00 20.00     0.139 C 
HETATM    2  C2  UNL     1     -32.303   7.093   3.164  1.00 20.00     0.079 C 
HETATM    3  C3  UNL     1     -32.486   8.513   3.684  1.00 20.00     0.008 C 
HETATM    4  C4  UNL     1     -33.043   8.332   5.090  1.00 20.00     0.021 C 
HETATM    5  C5  UNL     1     -34.062   7.200   4.945  1.00 20.00     0.163 C 
HETATM    6  O7  UNL     1     -33.744   5.208   3.594  1.00 20.00    -0.297 OA
ENDROOT
BRANCH   5   7
HETATM    7  C6  UNL     1     -34.291   6.441   6.236  1.00 20.00     0.398 C 
HETATM    8  F8  UNL     1     -33.171   5.793   6.608  1.00 20.00    -0.170 F 
HETATM    9  F9  UNL     1     -34.642   7.284   7.223  1.00 20.00    -0.170 F 
HETATM   10  F10 UNL     1     -35.274   5.534   6.081  1.00 20.00    -0.170 F 
ENDBRANCH   5   7
TORSDOF 1
ENDMDL
MODEL 2
REMARK VINA RESULT:      -5.9      0.005      1.196
REMARK  1 active torsions:
REMARK  status: ('A' for Active; 'I' for Inactive)
REMARK    1  A    between atoms: C5_5  and  C6_6 
ROOT
HETATM    1  C1  UNL     1     -33.413   6.357   3.865  1.00 20.00     0.139 C 
HETATM    2  C2  UNL     1     -32.300   7.093   3.162  1.00 20.00     0.079 C 
HETATM    3  C3  UNL     1     -32.480   8.514   3.683  1.00 20.00     0.008 C 
HETATM    4  C4  UNL     1     -33.040   8.333   5.088  1.00 20.00     0.021 C 
HETATM    5  C5  UNL     1     -34.060   7.203   4.942  1.00 20.00     0.163 C 
HETATM    6  O7  UNL     1     -33.745   5.211   3.591  1.00 20.00    -0.297 OA
ENDROOT
BRANCH   5   7
HETATM    7  C6  UNL     1     -34.292   6.444   6.233  1.00 20.00     0.398 C 
HETATM    8  F8  UNL     1     -35.277   5.538   6.078  1.00 20.00    -0.170 F 
HETATM    9  F9  UNL     1     -33.174   5.795   6.605  1.00 20.00    -0.170 F 
HETATM   10  F10 UNL     1     -34.644   7.288   7.220  1.00 20.00    -0.170 F 
ENDBRANCH   5   7
TORSDOF 1
ENDMDL
MODEL 3
REMARK VINA RESULT:      -5.8      2.271      3.196
REMARK  1 active torsions:
REMARK  status: ('A' for Active; 'I' for Inactive)
REMARK    1  A    between atoms: C5_5  and  C6_6 
ROOT
HETATM    1  C1  UNL     1     -33.748   5.896   4.241  1.00 20.00     0.139 C 
HETATM    2  C2  UNL     1     -34.941   5.269   4.917  1.00 20.00     0.079 C 
HETATM    3  C3  UNL     1     -34.788   5.763   6.351  1.00 20.00     0.008 C 
HETATM    4  C4  UNL     1     -34.122   7.126   6.212  1.00 20.00     0.021 C 
HETATM    5  C5  UNL     1     -33.064   6.916   5.128  1.00 20.00     0.163 C 
HETATM    6  O7  UNL     1     -33.384   5.608   3.107  1.00 20.00    -0.297 OA
ENDROOT
BRANCH   5   7
HETATM    7  C6  UNL     1     -32.706   8.193   4.394  1.00 20.00     0.398 C 
HETATM    8  F8  UNL     1     -31.678   7.980   3.551  1.00 20.00    -0.170 F 
HETATM    9  F9  UNL     1     -33.756   8.636   3.680  1.00 20.00    -0.170 F 
HETATM   10  F10 UNL     1     -32.347   9.153   5.267  1.00 20.00    -0.170 F 
ENDBRANCH   5   7
TORSDOF 1
ENDMDL
MODEL 4
REMARK VINA RESULT:      -5.8      2.269      3.212
REMARK  1 active torsions:
REMARK  status: ('A' for Active; 'I' for Inactive)
REMARK    1  A    between atoms: C5_5  and  C6_6 
ROOT
HETATM    1  C1  UNL     1     -33.753   5.896   4.243  1.00 20.00     0.139 C 
HETATM    2  C2  UNL     1     -34.948   5.273   4.920  1.00 20.00     0.079 C 
HETATM    3  C3  UNL     1     -34.792   5.765   6.355  1.00 20.00     0.008 C 
HETATM    4  C4  UNL     1     -34.120   7.125   6.217  1.00 20.00     0.021 C 
HETATM    5  C5  UNL     1     -33.064   6.912   5.131  1.00 20.00     0.163 C 
HETATM    6  O7  UNL     1     -33.392   5.608   3.109  1.00 20.00    -0.297 OA
ENDROOT
BRANCH   5   7
HETATM    7  C6  UNL     1     -32.701   8.188   4.399  1.00 20.00     0.398 C 
HETATM    8  F8  UNL     1     -33.750   8.638   3.685  1.00 20.00    -0.170 F 
HETATM    9  F9  UNL     1     -32.341   9.146   5.273  1.00 20.00    -0.170 F 
HETATM   10  F10 UNL     1     -31.674   7.973   3.556  1.00 20.00    -0.170 F 
ENDBRANCH   5   7
TORSDOF 1
ENDMDL
MODEL 5
REMARK VINA RESULT:      -5.6      1.648      2.496
REMARK  1 active torsions:
REMARK  status: ('A' for Active; 'I' for Inactive)
REMARK    1  A    between atoms: C5_5  and  C6_6 
ROOT
HETATM    1  C1  UNL     1     -33.487   7.762   4.873  1.00 20.00     0.139 C 
HETATM    2  C2  UNL     1     -32.805   8.478   3.734  1.00 20.00     0.079 C 
HETATM    3  C3  UNL     1     -32.123   7.329   3.000  1.00 20.00     0.008 C 
HETATM    4  C4  UNL     1     -33.040   6.135   3.232  1.00 20.00     0.021 C 
HETATM    5  C5  UNL     1     -33.449   6.257   4.701  1.00 20.00     0.163 C 
HETATM    6  O7  UNL     1     -34.006   8.339   5.820  1.00 20.00    -0.297 OA
ENDROOT
BRANCH   5   7
HETATM    7  C6  UNL     1     -34.777   5.594   5.003  1.00 20.00     0.398 C 
HETATM    8  F8  UNL     1     -35.777   6.222   4.356  1.00 20.00    -0.170 F 
HETATM    9  F9  UNL     1     -34.761   4.307   4.611  1.00 20.00    -0.170 F 
HETATM   10  F10 UNL     1     -35.035   5.634   6.324  1.00 20.00    -0.170 F 
ENDBRANCH   5   7
TORSDOF 1
ENDMDL
MODEL 6
REMARK VINA RESULT:      -5.6      1.647      2.292
REMARK  1 active torsions:
REMARK  status: ('A' for Active; 'I' for Inactive)
REMARK    1  A    between atoms: C5_5  and  C6_6 
ROOT
HETATM    1  C1  UNL     1     -33.485   7.763   4.870  1.00 20.00     0.139 C 
HETATM    2  C2  UNL     1     -32.804   8.477   3.730  1.00 20.00     0.079 C 
HETATM    3  C3  UNL     1     -32.123   7.327   2.997  1.00 20.00     0.008 C 
HETATM    4  C4  UNL     1     -33.040   6.134   3.230  1.00 20.00     0.021 C 
HETATM    5  C5  UNL     1     -33.448   6.258   4.699  1.00 20.00     0.163 C 
HETATM    6  O7  UNL     1     -34.004   8.340   5.817  1.00 20.00    -0.297 OA
ENDROOT
BRANCH   5   7
HETATM    7  C6  UNL     1     -34.777   5.595   5.003  1.00 20.00     0.398 C 
HETATM    8  F8  UNL     1     -35.034   5.635   6.324  1.00 20.00    -0.170 F 
HETATM    9  F9  UNL     1     -35.776   6.224   4.357  1.00 20.00    -0.170 F 
HETATM   10  F10 UNL     1     -34.761   4.307   4.612  1.00 20.00    -0.170 F 
ENDBRANCH   5   7
TORSDOF 1
ENDMDL
MODEL 7
REMARK VINA RESULT:      -5.6      1.647      2.247
REMARK  1 active torsions:
REMARK  status: ('A' for Active; 'I' for Inactive)
REMARK    1  A    between atoms: C5_5  and  C6_6 
ROOT
HETATM    1  C1  UNL     1     -33.484   7.764   4.869  1.00 20.00     0.139 C 
HETATM    2  C2  UNL     1     -32.803   8.477   3.727  1.00 20.00     0.079 C 
HETATM    3  C3  UNL     1     -32.123   7.326   2.995  1.00 20.00     0.008 C 
HETATM    4  C4  UNL     1     -33.041   6.133   3.231  1.00 20.00     0.021 C 
HETATM    5  C5  UNL     1     -33.448   6.259   4.700  1.00 20.00     0.163 C 
HETATM    6  O7  UNL     1     -34.002   8.343   5.816  1.00 20.00    -0.297 OA
ENDROOT
BRANCH   5   7
HETATM    7  C6  UNL     1     -34.777   5.598   5.005  1.00 20.00     0.398 C 
HETATM    8  F8  UNL     1     -34.763   4.308   4.617  1.00 20.00    -0.170 F 
HETATM    9  F9  UNL     1     -35.033   5.641   6.325  1.00 20.00    -0.170 F 
HETATM   10  F10 UNL     1     -35.776   6.225   4.357  1.00 20.00    -0.170 F 
ENDBRANCH   5   7
TORSDOF 1
ENDMDL
MODEL 8
REMARK VINA RESULT:      -5.6      2.617      3.629
REMARK  1 active torsions:
REMARK  status: ('A' for Active; 'I' for Inactive)
REMARK    1  A    between atoms: C5_5  and  C6_6 
ROOT
HETATM    1  C1  UNL     1     -34.123   6.859   5.853  1.00 20.00     0.139 C 
HETATM    2  C2  UNL     1     -34.472   5.435   6.205  1.00 20.00     0.079 C 
HETATM    3  C3  UNL     1     -34.716   4.820   4.832  1.00 20.00     0.008 C 
HETATM    4  C4  UNL     1     -33.782   5.586   3.904  1.00 20.00     0.021 C 
HETATM    5  C5  UNL     1     -33.906   7.039   4.365  1.00 20.00     0.163 C 
HETATM    6  O7  UNL     1     -34.028   7.757   6.681  1.00 20.00    -0.297 OA
ENDROOT
BRANCH   5   7
HETATM    7  C6  UNL     1     -32.680   7.869   4.041  1.00 20.00     0.398 C 
HETATM    8  F8  UNL     1     -33.024   8.965   3.338  1.00 20.00    -0.170 F 
HETATM    9  F9  UNL     1     -32.067   8.266   5.171  1.00 20.00    -0.170 F 
HETATM   10  F10 UNL     1     -31.806   7.154   3.310  1.00 20.00    -0.170 F 
ENDBRANCH   5   7
TORSDOF 1
ENDMDL
MODEL 9
REMARK VINA RESULT:      -5.6      2.616      3.609
REMARK  1 active torsions:
REMARK  status: ('A' for Active; 'I' for Inactive)
REMARK    1  A    between atoms: C5_5  and  C6_6 
ROOT
HETATM    1  C1  UNL     1     -34.126   6.847   5.848  1.00 20.00     0.139 C 
HETATM    2  C2  UNL     1     -34.466   5.419   6.194  1.00 20.00     0.079 C 
HETATM    3  C3  UNL     1     -34.699   4.806   4.819  1.00 20.00     0.008 C 
HETATM    4  C4  UNL     1     -33.767   5.581   3.896  1.00 20.00     0.021 C 
HETATM    5  C5  UNL     1     -33.903   7.032   4.360  1.00 20.00     0.163 C 
HETATM    6  O7  UNL     1     -34.041   7.743   6.678  1.00 20.00    -0.297 OA
ENDROOT
BRANCH   5   7
HETATM    7  C6  UNL     1     -32.682   7.872   4.044  1.00 20.00     0.398 C 
HETATM    8  F8  UNL     1     -31.797   7.163   3.318  1.00 20.00    -0.170 F 
HETATM    9  F9  UNL     1     -33.031   8.964   3.340  1.00 20.00    -0.170 F 
HETATM   10  F10 UNL     1     -32.078   8.271   5.178  1.00 20.00    -0.170 F 
ENDBRANCH   5   7
TORSDOF 1
ENDMDL
