MODEL 1
REMARK VINA RESULT:      -4.2      0.000      0.000
REMARK  1 active torsions:
REMARK  status: ('A' for Active; 'I' for Inactive)
REMARK    1  A    between atoms: C2_2  and  C3_3 
ROOT
HETATM    1  C1  UNL     1     -32.856   7.651   4.257  1.00 20.00     0.112 C 
HETATM    2  C2  UNL     1     -33.633   6.743   4.859  1.00 20.00     0.090 C 
HETATM    3 CL6  UNL     1     -32.368   9.150   4.939  1.00 20.00    -0.095 Cl
HETATM    4 CL7  UNL     1     -34.264   6.972   6.455  1.00 20.00    -0.080 Cl
ENDROOT
BRANCH   2   5
HETATM    5  C3  UNL     1     -34.011   5.458   4.188  1.00 20.00     0.167 C 
HETATM    6  C4  UNL     1     -33.353   5.084   2.883  1.00 20.00     0.097 C 
HETATM    7  O5  UNL     1     -34.851   4.711   4.692  1.00 20.00    -0.292 OA
ENDBRANCH   2   5
TORSDOF 1
ENDMDL
MODEL 2
REMARK VINA RESULT:      -4.2      1.900      2.274
REMARK  1 active torsions:
REMARK  status: ('A' for Active; 'I' for Inactive)
REMARK    1  A    between atoms: C2_2  and  C3_3 
ROOT
HETATM    1  C1  UNL     1     -33.317   7.632   4.567  1.00 20.00     0.112 C 
HETATM    2  C2  UNL     1     -33.516   6.360   4.201  1.00 20.00     0.090 C 
HETATM    3 CL6  UNL     1     -32.436   8.798   3.666  1.00 20.00    -0.095 Cl
HETATM    4 CL7  UNL     1     -32.891   5.710   2.723  1.00 20.00    -0.080 Cl
ENDROOT
BRANCH   2   5
HETATM    5  C3  UNL     1     -34.300   5.407   5.050  1.00 20.00     0.167 C 
HETATM    6  C4  UNL     1     -34.740   5.835   6.429  1.00 20.00     0.097 C 
HETATM    7  O5  UNL     1     -34.586   4.284   4.633  1.00 20.00    -0.292 OA
ENDBRANCH   2   5
TORSDOF 1
ENDMDL
MODEL 3
REMARK VINA RESULT:      -4.1      1.841      2.143
REMARK  1 active torsions:
REMARK  status: ('A' for Active; 'I' for Inactive)
REMARK    1  A    between atoms: C2_2  and  C3_3 
ROOT
HETATM    1  C1  UNL     1     -33.367   8.066   5.156  1.00 20.00     0.112 C 
HETATM    2  C2  UNL     1     -33.638   6.912   4.536  1.00 20.00     0.090 C 
HETATM    3 CL6  UNL     1     -32.146   9.181   4.692  1.00 20.00    -0.095 Cl
HETATM    4 CL7  UNL     1     -32.764   6.380   3.139  1.00 20.00    -0.080 Cl
ENDROOT
BRANCH   2   5
HETATM    5  C3  UNL     1     -34.725   5.996   5.010  1.00 20.00     0.167 C 
HETATM    6  C4  UNL     1     -34.572   5.295   6.337  1.00 20.00     0.097 C 
HETATM    7  O5  UNL     1     -35.734   5.814   4.328  1.00 20.00    -0.292 OA
ENDBRANCH   2   5
TORSDOF 1
ENDMDL
MODEL 4
REMARK VINA RESULT:      -4.0      2.645      3.515
REMARK  1 active torsions:
REMARK  status: ('A' for Active; 'I' for Inactive)
REMARK    1  A    between atoms: C2_2  and  C3_3 
ROOT
HETATM    1  C1  UNL     1     -33.951   6.725   5.650  1.00 20.00     0.112 C 
HETATM    2  C2  UNL     1     -33.414   6.671   4.426  1.00 20.00     0.090 C 
HETATM    3 CL6  UNL     1     -34.896   5.489   6.377  1.00 20.00    -0.095 Cl
HETATM    4 CL7  UNL     1     -33.609   5.300   3.386  1.00 20.00    -0.080 Cl
ENDROOT
BRANCH   2   5
HETATM    5  C3  UNL     1     -32.601   7.799   3.869  1.00 20.00     0.167 C 
HETATM    6  C4  UNL     1     -32.286   8.986   4.745  1.00 20.00     0.097 C 
HETATM    7  O5  UNL     1     -32.191   7.763   2.707  1.00 20.00    -0.292 OA
ENDBRANCH   2   5
TORSDOF 1
ENDMDL
MODEL 5
REMARK VINA RESULT:      -3.9      1.902      2.736
REMARK  1 active torsions:
REMARK  status: ('A' for Active; 'I' for Inactive)
REMARK    1  A    between atoms: C2_2  and  C3_3 
ROOT
HETATM    1  C1  UNL     1     -33.881   6.577   5.102  1.00 20.00     0.112 C 
HETATM    2  C2  UNL     1     -33.042   7.268   4.323  1.00 20.00     0.090 C 
HETATM    3 CL6  UNL     1     -34.395   7.047   6.672  1.00 20.00    -0.095 Cl
HETATM    4 CL7  UNL     1     -32.346   8.775   4.814  1.00 20.00    -0.080 Cl
ENDROOT
BRANCH   2   5
HETATM    5  C3  UNL     1     -32.646   6.782   2.962  1.00 20.00     0.167 C 
HETATM    6  C4  UNL     1     -32.878   5.336   2.597  1.00 20.00     0.097 C 
HETATM    7  O5  UNL     1     -32.136   7.551   2.145  1.00 20.00    -0.292 OA
ENDBRANCH   2   5
TORSDOF 1
ENDMDL
MODEL 6
REMARK VINA RESULT:      -3.9      1.711      2.171
REMARK  1 active torsions:
REMARK  status: ('A' for Active; 'I' for Inactive)
REMARK    1  A    between atoms: C2_2  and  C3_3 
ROOT
HETATM    1  C1  UNL     1     -32.955   6.390   3.174  1.00 20.00     0.112 C 
HETATM    2  C2  UNL     1     -33.573   6.607   4.341  1.00 20.00     0.090 C 
HETATM    3 CL6  UNL     1     -32.112   7.576   2.261  1.00 20.00    -0.095 Cl
HETATM    4 CL7  UNL     1     -33.601   8.162   5.103  1.00 20.00    -0.080 Cl
ENDROOT
BRANCH   2   5
HETATM    5  C3  UNL     1     -34.286   5.512   5.073  1.00 20.00     0.167 C 
HETATM    6  C4  UNL     1     -34.778   5.760   6.477  1.00 20.00     0.097 C 
HETATM    7  O5  UNL     1     -34.473   4.418   4.538  1.00 20.00    -0.292 OA
ENDBRANCH   2   5
TORSDOF 1
ENDMDL
MODEL 7
REMARK VINA RESULT:      -3.9      2.355      3.269
REMARK  1 active torsions:
REMARK  status: ('A' for Active; 'I' for Inactive)
REMARK    1  A    between atoms: C2_2  and  C3_3 
ROOT
HETATM    1  C1  UNL     1     -33.921   6.020   4.282  1.00 20.00     0.112 C 
HETATM    2  C2  UNL     1     -33.532   7.114   4.947  1.00 20.00     0.090 C 
HETATM    3 CL6  UNL     1     -34.952   4.794   4.903  1.00 20.00    -0.095 Cl
HETATM    4 CL7  UNL     1     -34.035   7.443   6.570  1.00 20.00    -0.080 Cl
ENDROOT
BRANCH   2   5
HETATM    5  C3  UNL     1     -32.628   8.135   4.327  1.00 20.00     0.167 C 
HETATM    6  C4  UNL     1     -32.134   7.926   2.916  1.00 20.00     0.097 C 
HETATM    7  O5  UNL     1     -32.288   9.138   4.958  1.00 20.00    -0.292 OA
ENDBRANCH   2   5
TORSDOF 1
ENDMDL
MODEL 8
REMARK VINA RESULT:      -3.8      1.910      2.449
REMARK  1 active torsions:
REMARK  status: ('A' for Active; 'I' for Inactive)
REMARK    1  A    between atoms: C2_2  and  C3_3 
ROOT
HETATM    1  C1  UNL     1     -33.026   6.758   3.401  1.00 20.00     0.112 C 
HETATM    2  C2  UNL     1     -33.270   7.298   4.601  1.00 20.00     0.090 C 
HETATM    3 CL6  UNL     1     -32.065   7.469   2.168  1.00 20.00    -0.095 Cl
HETATM    4 CL7  UNL     1     -32.624   8.832   5.078  1.00 20.00    -0.080 Cl
ENDROOT
BRANCH   2   5
HETATM    5  C3  UNL     1     -34.123   6.606   5.620  1.00 20.00     0.167 C 
HETATM    6  C4  UNL     1     -34.719   5.259   5.293  1.00 20.00     0.097 C 
HETATM    7  O5  UNL     1     -34.338   7.127   6.715  1.00 20.00    -0.292 OA
ENDBRANCH   2   5
TORSDOF 1
ENDMDL
MODEL 9
REMARK VINA RESULT:      -3.8      2.351      2.630
REMARK  1 active torsions:
REMARK  status: ('A' for Active; 'I' for Inactive)
REMARK    1  A    between atoms: C2_2  and  C3_3 
ROOT
HETATM    1  C1  UNL     1     -32.891   7.847   4.048  1.00 20.00     0.112 C 
HETATM    2  C2  UNL     1     -33.504   6.722   4.436  1.00 20.00     0.090 C 
HETATM    3 CL6  UNL     1     -32.148   8.098   2.521  1.00 20.00    -0.095 Cl
HETATM    4 CL7  UNL     1     -33.629   5.332   3.410  1.00 20.00    -0.080 Cl
ENDROOT
BRANCH   2   5
HETATM    5  C3  UNL     1     -34.127   6.588   5.791  1.00 20.00     0.167 C 
HETATM    6  C4  UNL     1     -34.707   5.259   6.209  1.00 20.00     0.097 C 
HETATM    7  O5  UNL     1     -34.169   7.549   6.561  1.00 20.00    -0.292 OA
ENDBRANCH   2   5
TORSDOF 1
ENDMDL
