MODEL 1
REMARK VINA RESULT:      -5.0      0.000      0.000
REMARK  2 active torsions:
REMARK  status: ('A' for Active; 'I' for Inactive)
REMARK    1  A    between atoms: C1_1  and  C3_3 
REMARK    2  A    between atoms: C3_3  and  C4_4 
ROOT
HETATM    1  C2  UNL     1     -33.982   4.529   4.326  1.00 20.00     0.069 C 
HETATM    2  C3  UNL     1     -34.375   5.929   4.825  1.00 20.00     0.264 C 
HETATM    3  O5  UNL     1     -35.650   6.154   4.573  1.00 20.00    -0.210 OA
ENDROOT
BRANCH   2   4
HETATM    4  C1  UNL     1     -33.576   7.044   4.120  1.00 20.00     0.265 C 
HETATM    5  O6  UNL     1     -33.741   8.233   4.395  1.00 20.00    -0.276 OA
HETATM    6 CL10 UNL     1     -32.450   6.492   2.891  1.00 20.00    -0.040 Cl
ENDBRANCH   2   4
BRANCH   2   7
HETATM    7  C4  UNL     1     -34.152   5.997   6.344  1.00 20.00     0.429 C 
HETATM    8  F7  UNL     1     -35.234   6.489   6.994  1.00 20.00    -0.167 F 
HETATM    9  F8  UNL     1     -33.097   6.774   6.681  1.00 20.00    -0.167 F 
HETATM   10  F9  UNL     1     -33.917   4.763   6.851  1.00 20.00    -0.167 F 
ENDBRANCH   2   7
TORSDOF 2
ENDMDL
MODEL 2
REMARK VINA RESULT:      -5.0      0.022      1.190
REMARK  2 active torsions:
REMARK  status: ('A' for Active; 'I' for Inactive)
REMARK    1  A    between atoms: C1_1  and  C3_3 
REMARK    2  A    between atoms: C3_3  and  C4_4 
ROOT
HETATM    1  C2  UNL     1     -33.975   4.543   4.309  1.00 20.00     0.069 C 
HETATM    2  C3  UNL     1     -34.373   5.935   4.826  1.00 20.00     0.264 C 
HETATM    3  O5  UNL     1     -35.649   6.159   4.578  1.00 20.00    -0.210 OA
ENDROOT
BRANCH   2   4
HETATM    4  C1  UNL     1     -33.578   7.062   4.134  1.00 20.00     0.265 C 
HETATM    5  O6  UNL     1     -33.751   8.247   4.420  1.00 20.00    -0.276 OA
HETATM    6 CL10 UNL     1     -32.444   6.528   2.904  1.00 20.00    -0.040 Cl
ENDBRANCH   2   4
BRANCH   2   7
HETATM    7  C4  UNL     1     -34.149   5.984   6.346  1.00 20.00     0.429 C 
HETATM    8  F7  UNL     1     -33.105   6.782   6.679  1.00 20.00    -0.167 F 
HETATM    9  F8  UNL     1     -33.904   4.764   6.875  1.00 20.00    -0.167 F 
HETATM   10  F9  UNL     1     -35.240   6.482   6.977  1.00 20.00    -0.167 F 
ENDBRANCH   2   7
TORSDOF 2
ENDMDL
MODEL 3
REMARK VINA RESULT:      -5.0      0.042      1.184
REMARK  2 active torsions:
REMARK  status: ('A' for Active; 'I' for Inactive)
REMARK    1  A    between atoms: C1_1  and  C3_3 
REMARK    2  A    between atoms: C3_3  and  C4_4 
ROOT
HETATM    1  C2  UNL     1     -33.966   4.559   4.308  1.00 20.00     0.069 C 
HETATM    2  C3  UNL     1     -34.372   5.954   4.809  1.00 20.00     0.264 C 
HETATM    3  O5  UNL     1     -35.643   6.177   4.538  1.00 20.00    -0.210 OA
ENDROOT
BRANCH   2   4
HETATM    4  C1  UNL     1     -33.565   7.077   4.124  1.00 20.00     0.265 C 
HETATM    5  O6  UNL     1     -33.729   8.262   4.414  1.00 20.00    -0.276 OA
HETATM    6 CL10 UNL     1     -32.433   6.538   2.894  1.00 20.00    -0.040 Cl
ENDBRANCH   2   4
BRANCH   2   7
HETATM    7  C4  UNL     1     -34.173   6.013   6.332  1.00 20.00     0.429 C 
HETATM    8  F7  UNL     1     -33.961   4.784   6.863  1.00 20.00    -0.167 F 
HETATM    9  F8  UNL     1     -35.236   6.548   6.975  1.00 20.00    -0.167 F 
HETATM   10  F9  UNL     1     -33.094   6.768   6.647  1.00 20.00    -0.167 F 
ENDBRANCH   2   7
TORSDOF 2
ENDMDL
MODEL 4
REMARK VINA RESULT:      -4.8      1.076      1.307
REMARK  2 active torsions:
REMARK  status: ('A' for Active; 'I' for Inactive)
REMARK    1  A    between atoms: C1_1  and  C3_3 
REMARK    2  A    between atoms: C3_3  and  C4_4 
ROOT
HETATM    1  C2  UNL     1     -34.274   4.649   5.243  1.00 20.00     0.069 C 
HETATM    2  C3  UNL     1     -34.305   6.134   4.847  1.00 20.00     0.264 C 
HETATM    3  O5  UNL     1     -35.480   6.437   4.331  1.00 20.00    -0.210 OA
ENDROOT
BRANCH   2   4
HETATM    4  C1  UNL     1     -33.246   6.475   3.778  1.00 20.00     0.265 C 
HETATM    5  O6  UNL     1     -32.713   7.583   3.725  1.00 20.00    -0.276 OA
HETATM    6 CL10 UNL     1     -32.890   5.184   2.643  1.00 20.00    -0.040 Cl
ENDBRANCH   2   4
BRANCH   2   7
HETATM    7  C4  UNL     1     -34.082   6.989   6.106  1.00 20.00     0.429 C 
HETATM    8  F7  UNL     1     -34.243   8.311   5.855  1.00 20.00    -0.167 F 
HETATM    9  F8  UNL     1     -32.845   6.829   6.630  1.00 20.00    -0.167 F 
HETATM   10  F9  UNL     1     -34.972   6.661   7.073  1.00 20.00    -0.167 F 
ENDBRANCH   2   7
TORSDOF 2
ENDMDL
MODEL 5
REMARK VINA RESULT:      -4.8      1.706      2.481
REMARK  2 active torsions:
REMARK  status: ('A' for Active; 'I' for Inactive)
REMARK    1  A    between atoms: C1_1  and  C3_3 
REMARK    2  A    between atoms: C3_3  and  C4_4 
ROOT
HETATM    1  C2  UNL     1     -34.781   5.487   6.410  1.00 20.00     0.069 C 
HETATM    2  C3  UNL     1     -34.610   6.010   4.975  1.00 20.00     0.264 C 
HETATM    3  O5  UNL     1     -35.792   6.198   4.421  1.00 20.00    -0.210 OA
ENDROOT
BRANCH   2   4
HETATM    4  C1  UNL     1     -33.849   5.012   4.077  1.00 20.00     0.265 C 
HETATM    5  O6  UNL     1     -33.814   3.808   4.332  1.00 20.00    -0.276 OA
HETATM    6 CL10 UNL     1     -33.026   5.726   2.700  1.00 20.00    -0.040 Cl
ENDBRANCH   2   4
BRANCH   2   7
HETATM    7  C4  UNL     1     -33.867   7.355   5.021  1.00 20.00     0.429 C 
HETATM    8  F7  UNL     1     -34.283   8.198   4.045  1.00 20.00    -0.167 F 
HETATM    9  F8  UNL     1     -32.528   7.214   4.884  1.00 20.00    -0.167 F 
HETATM   10  F9  UNL     1     -34.084   7.984   6.201  1.00 20.00    -0.167 F 
ENDBRANCH   2   7
TORSDOF 2
ENDMDL
MODEL 6
REMARK VINA RESULT:      -4.6      1.351      2.082
REMARK  2 active torsions:
REMARK  status: ('A' for Active; 'I' for Inactive)
REMARK    1  A    between atoms: C1_1  and  C3_3 
REMARK    2  A    between atoms: C3_3  and  C4_4 
ROOT
HETATM    1  C2  UNL     1     -35.856   6.411   4.262  1.00 20.00     0.069 C 
HETATM    2  C3  UNL     1     -34.403   6.180   4.707  1.00 20.00     0.264 C 
HETATM    3  O5  UNL     1     -33.653   7.200   4.339  1.00 20.00    -0.210 OA
ENDROOT
BRANCH   2   4
HETATM    4  C1  UNL     1     -33.790   4.919   4.064  1.00 20.00     0.265 C 
HETATM    5  O6  UNL     1     -33.992   3.794   4.522  1.00 20.00    -0.276 OA
HETATM    6 CL10 UNL     1     -32.773   5.215   2.664  1.00 20.00    -0.040 Cl
ENDBRANCH   2   4
BRANCH   2   7
HETATM    7  C4  UNL     1     -34.364   6.066   6.240  1.00 20.00     0.429 C 
HETATM    8  F7  UNL     1     -34.543   7.266   6.842  1.00 20.00    -0.167 F 
HETATM    9  F8  UNL     1     -33.193   5.562   6.694  1.00 20.00    -0.167 F 
HETATM   10  F9  UNL     1     -35.350   5.252   6.687  1.00 20.00    -0.167 F 
ENDBRANCH   2   7
TORSDOF 2
ENDMDL
MODEL 7
REMARK VINA RESULT:      -4.4      9.373      9.991
REMARK  2 active torsions:
REMARK  status: ('A' for Active; 'I' for Inactive)
REMARK    1  A    between atoms: C1_1  and  C3_3 
REMARK    2  A    between atoms: C3_3  and  C4_4 
ROOT
HETATM    1  C2  UNL     1     -42.813   7.179   1.452  1.00 20.00     0.069 C 
HETATM    2  C3  UNL     1     -42.428   6.711   0.039  1.00 20.00     0.264 C 
HETATM    3  O5  UNL     1     -42.948   7.522  -0.861  1.00 20.00    -0.210 OA
ENDROOT
BRANCH   2   4
HETATM    4  C1  UNL     1     -42.962   5.297  -0.272  1.00 20.00     0.265 C 
HETATM    5  O6  UNL     1     -43.307   4.970  -1.408  1.00 20.00    -0.276 OA
HETATM    6 CL10 UNL     1     -43.063   4.218   1.109  1.00 20.00    -0.040 Cl
ENDBRANCH   2   4
BRANCH   2   7
HETATM    7  C4  UNL     1     -40.897   6.740  -0.095  1.00 20.00     0.429 C 
HETATM    8  F7  UNL     1     -40.470   7.819  -0.795  1.00 20.00    -0.167 F 
HETATM    9  F8  UNL     1     -40.408   5.642  -0.715  1.00 20.00    -0.167 F 
HETATM   10  F9  UNL     1     -40.309   6.806   1.124  1.00 20.00    -0.167 F 
ENDBRANCH   2   7
TORSDOF 2
ENDMDL
MODEL 8
REMARK VINA RESULT:      -4.3      2.747      3.399
REMARK  2 active torsions:
REMARK  status: ('A' for Active; 'I' for Inactive)
REMARK    1  A    between atoms: C1_1  and  C3_3 
REMARK    2  A    between atoms: C3_3  and  C4_4 
ROOT
HETATM    1  C2  UNL     1     -33.468   7.196   6.188  1.00 20.00     0.069 C 
HETATM    2  C3  UNL     1     -33.563   7.403   4.668  1.00 20.00     0.264 C 
HETATM    3  O5  UNL     1     -34.728   7.941   4.360  1.00 20.00    -0.210 OA
ENDROOT
BRANCH   2   4
HETATM    4  C1  UNL     1     -33.465   6.073   3.891  1.00 20.00     0.265 C 
HETATM    5  O6  UNL     1     -32.828   5.982   2.842  1.00 20.00    -0.276 OA
HETATM    6 CL10 UNL     1     -34.346   4.730   4.599  1.00 20.00    -0.040 Cl
ENDBRANCH   2   4
BRANCH   2   7
HETATM    7  C4  UNL     1     -32.445   8.360   4.224  1.00 20.00     0.429 C 
HETATM    8  F7  UNL     1     -32.726   8.955   3.040  1.00 20.00    -0.167 F 
HETATM    9  F8  UNL     1     -31.252   7.735   4.084  1.00 20.00    -0.167 F 
HETATM   10  F9  UNL     1     -32.272   9.351   5.131  1.00 20.00    -0.167 F 
ENDBRANCH   2   7
TORSDOF 2
ENDMDL
MODEL 9
REMARK VINA RESULT:      -4.1     13.155     13.845
REMARK  2 active torsions:
REMARK  status: ('A' for Active; 'I' for Inactive)
REMARK    1  A    between atoms: C1_1  and  C3_3 
REMARK    2  A    between atoms: C3_3  and  C4_4 
ROOT
HETATM    1  C2  UNL     1     -34.416  16.899  -5.228  1.00 20.00     0.069 C 
HETATM    2  C3  UNL     1     -34.487  15.403  -5.574  1.00 20.00     0.264 C 
HETATM    3  O5  UNL     1     -33.626  15.122  -6.533  1.00 20.00    -0.210 OA
ENDROOT
BRANCH   2   4
HETATM    4  C1  UNL     1     -35.881  14.990  -6.091  1.00 20.00     0.265 C 
HETATM    5  O6  UNL     1     -36.019  14.182  -7.009  1.00 20.00    -0.276 OA
HETATM    6 CL10 UNL     1     -37.234  15.777  -5.295  1.00 20.00    -0.040 Cl
ENDBRANCH   2   4
BRANCH   2   7
HETATM    7  C4  UNL     1     -34.121  14.585  -4.325  1.00 20.00     0.429 C 
HETATM    8  F7  UNL     1     -35.047  13.634  -4.053  1.00 20.00    -0.167 F 
HETATM    9  F8  UNL     1     -34.000  15.353  -3.218  1.00 20.00    -0.167 F 
HETATM   10  F9  UNL     1     -32.940  13.945  -4.499  1.00 20.00    -0.167 F 
ENDBRANCH   2   7
TORSDOF 2
ENDMDL
