MODEL 1
REMARK VINA RESULT:      -4.7      0.000      0.000
REMARK  0 active torsions:
REMARK  status: ('A' for Active; 'I' for Inactive)
ROOT
HETATM    1  C1  UNL     1     -33.184   5.956   3.226  1.00 20.00    -0.057 C 
HETATM    2  C2  UNL     1     -32.973   5.081   2.238  1.00 20.00     0.017 C 
HETATM    3  C3  UNL     1     -32.359   7.164   3.502  1.00 20.00     0.205 C 
HETATM    4  C4  UNL     1     -34.047   4.866   5.348  1.00 20.00     0.040 C 
HETATM    5  C5  UNL     1     -34.676   5.559   6.535  1.00 20.00     0.172 C 
HETATM    6  C6  UNL     1     -34.269   5.876   4.241  1.00 20.00     0.073 C 
HETATM    7  C7  UNL     1     -34.137   7.200   4.978  1.00 20.00     0.268 C 
HETATM    8  O8  UNL     1     -32.775   7.623   4.798  1.00 20.00    -0.356 OA
HETATM    9  O9  UNL     1     -34.438   6.961   6.358  1.00 20.00    -0.361 OA
ENDROOT
TORSDOF 0
ENDMDL
MODEL 2
REMARK VINA RESULT:      -4.5      1.558      2.802
REMARK  0 active torsions:
REMARK  status: ('A' for Active; 'I' for Inactive)
ROOT
HETATM    1  C1  UNL     1     -33.298   7.727   5.116  1.00 20.00    -0.057 C 
HETATM    2  C2  UNL     1     -32.550   8.756   4.707  1.00 20.00     0.017 C 
HETATM    3  C3  UNL     1     -33.576   7.369   6.534  1.00 20.00     0.205 C 
HETATM    4  C4  UNL     1     -33.070   5.684   3.628  1.00 20.00     0.040 C 
HETATM    5  C5  UNL     1     -33.975   4.474   3.601  1.00 20.00     0.172 C 
HETATM    6  C6  UNL     1     -33.975   6.739   4.232  1.00 20.00     0.073 C 
HETATM    7  C7  UNL     1     -34.809   5.928   5.212  1.00 20.00     0.268 C 
HETATM    8  O8  UNL     1     -34.163   6.059   6.490  1.00 20.00    -0.356 OA
HETATM    9  O9  UNL     1     -34.814   4.569   4.759  1.00 20.00    -0.361 OA
ENDROOT
TORSDOF 0
ENDMDL
MODEL 3
REMARK VINA RESULT:      -4.4      1.624      2.853
REMARK  0 active torsions:
REMARK  status: ('A' for Active; 'I' for Inactive)
ROOT
HETATM    1  C1  UNL     1     -34.181   5.822   4.373  1.00 20.00    -0.057 C 
HETATM    2  C2  UNL     1     -34.988   5.074   5.132  1.00 20.00     0.017 C 
HETATM    3  C3  UNL     1     -33.317   5.318   3.271  1.00 20.00     0.205 C 
HETATM    4  C4  UNL     1     -33.103   7.728   5.654  1.00 20.00     0.040 C 
HETATM    5  C5  UNL     1     -32.397   8.931   5.071  1.00 20.00     0.172 C 
HETATM    6  C6  UNL     1     -33.983   7.292   4.501  1.00 20.00     0.073 C 
HETATM    7  C7  UNL     1     -33.121   7.620   3.292  1.00 20.00     0.268 C 
HETATM    8  O8  UNL     1     -32.436   6.405   2.948  1.00 20.00    -0.356 OA
HETATM    9  O9  UNL     1     -32.206   8.652   3.678  1.00 20.00    -0.361 OA
ENDROOT
TORSDOF 0
ENDMDL
MODEL 4
REMARK VINA RESULT:      -4.2      1.701      3.581
REMARK  0 active torsions:
REMARK  status: ('A' for Active; 'I' for Inactive)
ROOT
HETATM    1  C1  UNL     1     -34.227   6.582   5.955  1.00 20.00    -0.057 C 
HETATM    2  C2  UNL     1     -34.213   7.574   6.851  1.00 20.00     0.017 C 
HETATM    3  C3  UNL     1     -34.381   5.135   6.268  1.00 20.00     0.205 C 
HETATM    4  C4  UNL     1     -32.659   6.991   4.002  1.00 20.00     0.040 C 
HETATM    5  C5  UNL     1     -32.643   6.257   2.681  1.00 20.00     0.172 C 
HETATM    6  C6  UNL     1     -34.074   6.739   4.483  1.00 20.00     0.073 C 
HETATM    7  C7  UNL     1     -34.349   5.336   3.966  1.00 20.00     0.268 C 
HETATM    8  O8  UNL     1     -34.051   4.444   5.053  1.00 20.00    -0.356 OA
HETATM    9  O9  UNL     1     -33.486   5.109   2.845  1.00 20.00    -0.361 OA
ENDROOT
TORSDOF 0
ENDMDL
MODEL 5
REMARK VINA RESULT:      -4.1     16.533     17.345
REMARK  0 active torsions:
REMARK  status: ('A' for Active; 'I' for Inactive)
ROOT
HETATM    1  C1  UNL     1     -23.032  18.564  11.113  1.00 20.00    -0.057 C 
HETATM    2  C2  UNL     1     -22.492  18.343  12.315  1.00 20.00     0.017 C 
HETATM    3  C3  UNL     1     -24.487  18.540  10.801  1.00 20.00     0.205 C 
HETATM    4  C4  UNL     1     -21.618  17.659   9.210  1.00 20.00     0.040 C 
HETATM    5  C5  UNL     1     -21.753  17.989   7.741  1.00 20.00     0.172 C 
HETATM    6  C6  UNL     1     -22.280  18.856   9.862  1.00 20.00     0.073 C 
HETATM    7  C7  UNL     1     -23.388  19.192   8.876  1.00 20.00     0.268 C 
HETATM    8  O8  UNL     1     -24.571  18.541   9.367  1.00 20.00    -0.356 OA
HETATM    9  O9  UNL     1     -22.998  18.683   7.595  1.00 20.00    -0.361 OA
ENDROOT
TORSDOF 0
ENDMDL
MODEL 6
REMARK VINA RESULT:      -3.7      1.765      2.575
REMARK  0 active torsions:
REMARK  status: ('A' for Active; 'I' for Inactive)
ROOT
HETATM    1  C1  UNL     1     -32.569   7.873   4.250  1.00 20.00    -0.057 C 
HETATM    2  C2  UNL     1     -32.326   9.083   4.763  1.00 20.00     0.017 C 
HETATM    3  C3  UNL     1     -32.199   7.424   2.880  1.00 20.00     0.205 C 
HETATM    4  C4  UNL     1     -34.775   6.892   5.029  1.00 20.00     0.040 C 
HETATM    5  C5  UNL     1     -35.224   5.453   4.907  1.00 20.00     0.172 C 
HETATM    6  C6  UNL     1     -33.268   6.758   4.945  1.00 20.00     0.073 C 
HETATM    7  C7  UNL     1     -33.098   5.599   3.976  1.00 20.00     0.268 C 
HETATM    8  O8  UNL     1     -32.902   6.188   2.679  1.00 20.00    -0.356 OA
HETATM    9  O9  UNL     1     -34.294   4.813   4.024  1.00 20.00    -0.361 OA
ENDROOT
TORSDOF 0
ENDMDL
MODEL 7
REMARK VINA RESULT:      -3.7      1.160      2.636
REMARK  0 active torsions:
REMARK  status: ('A' for Active; 'I' for Inactive)
ROOT
HETATM    1  C1  UNL     1     -33.362   5.743   3.497  1.00 20.00    -0.057 C 
HETATM    2  C2  UNL     1     -33.016   4.977   2.458  1.00 20.00     0.017 C 
HETATM    3  C3  UNL     1     -34.618   5.615   4.286  1.00 20.00     0.205 C 
HETATM    4  C4  UNL     1     -32.622   8.156   3.239  1.00 20.00     0.040 C 
HETATM    5  C5  UNL     1     -32.565   9.210   4.321  1.00 20.00     0.172 C 
HETATM    6  C6  UNL     1     -32.567   6.875   4.046  1.00 20.00     0.073 C 
HETATM    7  C7  UNL     1     -33.338   7.249   5.302  1.00 20.00     0.268 C 
HETATM    8  O8  UNL     1     -34.688   6.803   5.090  1.00 20.00    -0.356 OA
HETATM    9  O9  UNL     1     -33.269   8.672   5.448  1.00 20.00    -0.361 OA
ENDROOT
TORSDOF 0
ENDMDL
MODEL 8
REMARK VINA RESULT:      -3.6      9.444     10.123
REMARK  0 active torsions:
REMARK  status: ('A' for Active; 'I' for Inactive)
ROOT
HETATM    1  C1  UNL     1     -42.667   5.429   0.842  1.00 20.00    -0.057 C 
HETATM    2  C2  UNL     1     -42.417   4.449   1.715  1.00 20.00     0.017 C 
HETATM    3  C3  UNL     1     -43.417   5.280  -0.435  1.00 20.00     0.205 C 
HETATM    4  C4  UNL     1     -40.766   7.100   0.660  1.00 20.00     0.040 C 
HETATM    5  C5  UNL     1     -40.819   8.471   0.025  1.00 20.00     0.172 C 
HETATM    6  C6  UNL     1     -42.226   6.845   0.975  1.00 20.00     0.073 C 
HETATM    7  C7  UNL     1     -42.934   7.526  -0.186  1.00 20.00     0.268 C 
HETATM    8  O8  UNL     1     -43.186   6.499  -1.159  1.00 20.00    -0.356 OA
HETATM    9  O9  UNL     1     -42.055   8.535  -0.699  1.00 20.00    -0.361 OA
ENDROOT
TORSDOF 0
ENDMDL
MODEL 9
REMARK VINA RESULT:      -3.5      9.473     10.018
REMARK  0 active torsions:
REMARK  status: ('A' for Active; 'I' for Inactive)
ROOT
HETATM    1  C1  UNL     1     -41.445   7.235   0.485  1.00 20.00    -0.057 C 
HETATM    2  C2  UNL     1     -40.680   7.955   1.312  1.00 20.00     0.017 C 
HETATM    3  C3  UNL     1     -42.222   7.775  -0.664  1.00 20.00     0.205 C 
HETATM    4  C4  UNL     1     -42.642   5.327   1.652  1.00 20.00     0.040 C 
HETATM    5  C5  UNL     1     -43.326   4.147   0.999  1.00 20.00     0.172 C 
HETATM    6  C6  UNL     1     -41.677   5.768   0.571  1.00 20.00     0.073 C 
HETATM    7  C7  UNL     1     -42.458   5.477  -0.701  1.00 20.00     0.268 C 
HETATM    8  O8  UNL     1     -43.097   6.711  -1.068  1.00 20.00    -0.356 OA
HETATM    9  O9  UNL     1     -43.416   4.455  -0.399  1.00 20.00    -0.361 OA
ENDROOT
TORSDOF 0
ENDMDL
