MODEL 1
REMARK VINA RESULT:      -4.7      0.000      0.000
REMARK  1 active torsions:
REMARK  status: ('A' for Active; 'I' for Inactive)
REMARK    1  A    between atoms: C4_4  and  C6_6 
ROOT
HETATM    1  C1  UNL     1     -34.458  17.256  -4.217  1.00 20.00     0.089 A 
HETATM    2  C2  UNL     1     -33.421  16.618  -2.141  1.00 20.00     0.044 A 
HETATM    3  C3  UNL     1     -33.708  16.381  -3.534  1.00 20.00    -0.053 A 
HETATM    4  C4  UNL     1     -33.913  17.716  -1.558  1.00 20.00     0.080 A 
HETATM    5  C5  UNL     1     -34.999  18.468  -3.566  1.00 20.00     0.288 A 
HETATM    6  C8  UNL     1     -33.137  15.142  -4.150  1.00 20.00     0.048 C 
HETATM    7  O11 UNL     1     -35.685  19.263  -4.200  1.00 20.00    -0.260 OA
HETATM    8  O12 UNL     1     -34.703  18.657  -2.242  1.00 20.00    -0.276 OA
ENDROOT
BRANCH   4   9
HETATM    9  C6  UNL     1     -33.686  18.045  -0.178  1.00 20.00     0.039 C 
HETATM   10  C7  UNL     1     -32.530  18.537   0.342  1.00 20.00    -0.085 C 
HETATM   11  C9  UNL     1     -32.302  18.878   1.789  1.00 20.00     0.043 C 
HETATM   12  C10 UNL     1     -31.334  18.786  -0.541  1.00 20.00     0.043 C 
ENDBRANCH   4   9
TORSDOF 1
ENDMDL
MODEL 2
REMARK VINA RESULT:      -4.5      2.879      3.948
REMARK  1 active torsions:
REMARK  status: ('A' for Active; 'I' for Inactive)
REMARK    1  A    between atoms: C4_4  and  C6_6 
ROOT
HETATM    1  C1  UNL     1     -35.760  14.678  -5.845  1.00 20.00     0.089 A 
HETATM    2  C2  UNL     1     -34.356  16.540  -5.248  1.00 20.00     0.044 A 
HETATM    3  C3  UNL     1     -35.287  15.896  -6.141  1.00 20.00    -0.053 A 
HETATM    4  C4  UNL     1     -33.984  15.902  -4.134  1.00 20.00     0.080 A 
HETATM    5  C5  UNL     1     -35.344  13.979  -4.611  1.00 20.00     0.288 A 
HETATM    6  C8  UNL     1     -35.680  16.643  -7.378  1.00 20.00     0.048 C 
HETATM    7  O11 UNL     1     -35.782  12.864  -4.347  1.00 20.00    -0.260 OA
HETATM    8  O12 UNL     1     -34.459  14.625  -3.788  1.00 20.00    -0.276 OA
ENDROOT
BRANCH   4   9
HETATM    9  C6  UNL     1     -33.064  16.455  -3.179  1.00 20.00     0.039 C 
HETATM   10  C7  UNL     1     -33.330  17.473  -2.317  1.00 20.00    -0.085 C 
HETATM   11  C9  UNL     1     -32.359  18.046  -1.321  1.00 20.00     0.043 C 
HETATM   12  C10 UNL     1     -34.684  18.135  -2.301  1.00 20.00     0.043 C 
ENDBRANCH   4   9
TORSDOF 1
ENDMDL
MODEL 3
REMARK VINA RESULT:      -4.4      1.524      2.426
REMARK  1 active torsions:
REMARK  status: ('A' for Active; 'I' for Inactive)
REMARK    1  A    between atoms: C4_4  and  C6_6 
ROOT
HETATM    1  C1  UNL     1     -34.367  17.093  -4.286  1.00 20.00     0.089 A 
HETATM    2  C2  UNL     1     -34.743  18.498  -2.368  1.00 20.00     0.044 A 
HETATM    3  C3  UNL     1     -34.959  18.172  -3.756  1.00 20.00    -0.053 A 
HETATM    4  C4  UNL     1     -33.952  17.708  -1.635  1.00 20.00     0.080 A 
HETATM    5  C5  UNL     1     -33.494  16.225  -3.469  1.00 20.00     0.288 A 
HETATM    6  C8  UNL     1     -35.853  19.080  -4.543  1.00 20.00     0.048 C 
HETATM    7  O11 UNL     1     -32.957  15.239  -3.963  1.00 20.00    -0.260 OA
HETATM    8  O12 UNL     1     -33.316  16.568  -2.155  1.00 20.00    -0.276 OA
ENDROOT
BRANCH   4   9
HETATM    9  C6  UNL     1     -33.673  17.944  -0.245  1.00 20.00     0.039 C 
HETATM   10  C7  UNL     1     -32.519  18.456   0.258  1.00 20.00    -0.085 C 
HETATM   11  C9  UNL     1     -32.236  18.698   1.715  1.00 20.00     0.043 C 
HETATM   12  C10 UNL     1     -31.382  18.835  -0.656  1.00 20.00     0.043 C 
ENDBRANCH   4   9
TORSDOF 1
ENDMDL
MODEL 4
REMARK VINA RESULT:      -4.4     11.687     13.213
REMARK  1 active torsions:
REMARK  status: ('A' for Active; 'I' for Inactive)
REMARK    1  A    between atoms: C4_4  and  C6_6 
ROOT
HETATM    1  C1  UNL     1     -41.957  14.865   9.034  1.00 20.00     0.089 A 
HETATM    2  C2  UNL     1     -40.816  15.044   6.922  1.00 20.00     0.044 A 
HETATM    3  C3  UNL     1     -41.266  15.617   8.167  1.00 20.00    -0.053 A 
HETATM    4  C4  UNL     1     -41.101  13.765   6.660  1.00 20.00     0.080 A 
HETATM    5  C5  UNL     1     -42.269  13.451   8.737  1.00 20.00     0.288 A 
HETATM    6  C8  UNL     1     -40.925  17.052   8.424  1.00 20.00     0.048 C 
HETATM    7  O11 UNL     1     -42.902  12.771   9.538  1.00 20.00    -0.260 OA
HETATM    8  O12 UNL     1     -41.823  12.945   7.545  1.00 20.00    -0.276 OA
ENDROOT
BRANCH   4   9
HETATM    9  C6  UNL     1     -40.700  13.099   5.451  1.00 20.00     0.039 C 
HETATM   10  C7  UNL     1     -39.618  12.288   5.313  1.00 20.00    -0.085 C 
HETATM   11  C9  UNL     1     -39.206  11.596   4.043  1.00 20.00     0.043 C 
HETATM   12  C10 UNL     1     -38.707  12.013   6.482  1.00 20.00     0.043 C 
ENDBRANCH   4   9
TORSDOF 1
ENDMDL
MODEL 5
REMARK VINA RESULT:      -4.1     11.635     13.063
REMARK  1 active torsions:
REMARK  status: ('A' for Active; 'I' for Inactive)
REMARK    1  A    between atoms: C4_4  and  C6_6 
ROOT
HETATM    1  C1  UNL     1     -41.889  14.834   8.960  1.00 20.00     0.089 A 
HETATM    2  C2  UNL     1     -42.068  12.972   7.446  1.00 20.00     0.044 A 
HETATM    3  C3  UNL     1     -42.432  13.644   8.669  1.00 20.00    -0.053 A 
HETATM    4  C4  UNL     1     -41.192  13.556   6.623  1.00 20.00     0.080 A 
HETATM    5  C5  UNL     1     -40.921  15.474   8.045  1.00 20.00     0.288 A 
HETATM    6  C8  UNL     1     -43.417  12.958   9.563  1.00 20.00     0.048 C 
HETATM    7  O11 UNL     1     -40.429  16.564   8.321  1.00 20.00    -0.260 OA
HETATM    8  O12 UNL     1     -40.603  14.804   6.894  1.00 20.00    -0.276 OA
ENDROOT
BRANCH   4   9
HETATM    9  C6  UNL     1     -40.765  12.971   5.382  1.00 20.00     0.039 C 
HETATM   10  C7  UNL     1     -39.599  12.302   5.180  1.00 20.00    -0.085 C 
HETATM   11  C9  UNL     1     -39.160  11.694   3.876  1.00 20.00     0.043 C 
HETATM   12  C10 UNL     1     -38.613  12.114   6.304  1.00 20.00     0.043 C 
ENDBRANCH   4   9
TORSDOF 1
ENDMDL
MODEL 6
REMARK VINA RESULT:      -4.0      1.700      4.782
REMARK  1 active torsions:
REMARK  status: ('A' for Active; 'I' for Inactive)
REMARK    1  A    between atoms: C4_4  and  C6_6 
ROOT
HETATM    1  C1  UNL     1     -33.023  18.910   1.556  1.00 20.00     0.089 A 
HETATM    2  C2  UNL     1     -32.129  18.918  -0.679  1.00 20.00     0.044 A 
HETATM    3  C3  UNL     1     -31.951  18.938   0.752  1.00 20.00    -0.053 A 
HETATM    4  C4  UNL     1     -33.370  18.870  -1.175  1.00 20.00     0.080 A 
HETATM    5  C5  UNL     1     -34.391  18.857   1.001  1.00 20.00     0.288 A 
HETATM    6  C8  UNL     1     -30.547  18.989   1.268  1.00 20.00     0.048 C 
HETATM    7  O11 UNL     1     -35.366  18.832   1.745  1.00 20.00    -0.260 OA
HETATM    8  O12 UNL     1     -34.518  18.839  -0.363  1.00 20.00    -0.276 OA
ENDROOT
BRANCH   4   9
HETATM    9  C6  UNL     1     -33.656  18.847  -2.583  1.00 20.00     0.039 C 
HETATM   10  C7  UNL     1     -33.735  17.733  -3.358  1.00 20.00    -0.085 C 
HETATM   11  C9  UNL     1     -34.034  17.718  -4.832  1.00 20.00     0.043 C 
HETATM   12  C10 UNL     1     -33.515  16.364  -2.766  1.00 20.00     0.043 C 
ENDBRANCH   4   9
TORSDOF 1
ENDMDL
MODEL 7
REMARK VINA RESULT:      -4.0     11.969     12.987
REMARK  1 active torsions:
REMARK  status: ('A' for Active; 'I' for Inactive)
REMARK    1  A    between atoms: C4_4  and  C6_6 
ROOT
HETATM    1  C1  UNL     1     -41.111  13.147   5.518  1.00 20.00     0.089 A 
HETATM    2  C2  UNL     1     -41.377  15.013   7.014  1.00 20.00     0.044 A 
HETATM    3  C3  UNL     1     -41.686  14.327   5.783  1.00 20.00    -0.053 A 
HETATM    4  C4  UNL     1     -40.518  14.450   7.869  1.00 20.00     0.080 A 
HETATM    5  C5  UNL     1     -40.162  12.530   6.468  1.00 20.00     0.288 A 
HETATM    6  C8  UNL     1     -42.654  14.990   4.853  1.00 20.00     0.048 C 
HETATM    7  O11 UNL     1     -39.641  11.449   6.216  1.00 20.00    -0.260 OA
HETATM    8  O12 UNL     1     -39.896  13.213   7.625  1.00 20.00    -0.276 OA
ENDROOT
BRANCH   4   9
HETATM    9  C6  UNL     1     -40.144  15.050   9.120  1.00 20.00     0.039 C 
HETATM   10  C7  UNL     1     -40.733  14.813  10.322  1.00 20.00    -0.085 C 
HETATM   11  C9  UNL     1     -40.335  15.447  11.626  1.00 20.00     0.043 C 
HETATM   12  C10 UNL     1     -41.888  13.852  10.437  1.00 20.00     0.043 C 
ENDBRANCH   4   9
TORSDOF 1
ENDMDL
MODEL 8
REMARK VINA RESULT:      -3.9     11.778     12.861
REMARK  1 active torsions:
REMARK  status: ('A' for Active; 'I' for Inactive)
REMARK    1  A    between atoms: C4_4  and  C6_6 
ROOT
HETATM    1  C1  UNL     1     -40.818  13.083   4.947  1.00 20.00     0.089 A 
HETATM    2  C2  UNL     1     -42.271  14.335   6.401  1.00 20.00     0.044 A 
HETATM    3  C3  UNL     1     -41.785  13.999   5.085  1.00 20.00    -0.053 A 
HETATM    4  C4  UNL     1     -41.741  13.719   7.461  1.00 20.00     0.080 A 
HETATM    5  C5  UNL     1     -40.236  12.405   6.125  1.00 20.00     0.288 A 
HETATM    6  C8  UNL     1     -42.405  14.710   3.922  1.00 20.00     0.048 C 
HETATM    7  O11 UNL     1     -39.351  11.567   5.989  1.00 20.00    -0.260 OA
HETATM    8  O12 UNL     1     -40.726  12.752   7.356  1.00 20.00    -0.276 OA
ENDROOT
BRANCH   4   9
HETATM    9  C6  UNL     1     -42.154  13.981   8.813  1.00 20.00     0.039 C 
HETATM   10  C7  UNL     1     -41.473  14.730   9.720  1.00 20.00    -0.085 C 
HETATM   11  C9  UNL     1     -41.913  14.997  11.133  1.00 20.00     0.043 C 
HETATM   12  C10 UNL     1     -40.161  15.376   9.356  1.00 20.00     0.043 C 
ENDBRANCH   4   9
TORSDOF 1
ENDMDL
MODEL 9
REMARK VINA RESULT:      -3.9      2.185      3.337
REMARK  1 active torsions:
REMARK  status: ('A' for Active; 'I' for Inactive)
REMARK    1  A    between atoms: C4_4  and  C6_6 
ROOT
HETATM    1  C1  UNL     1     -34.316  18.240  -1.024  1.00 20.00     0.089 A 
HETATM    2  C2  UNL     1     -31.913  18.114  -1.105  1.00 20.00     0.044 A 
HETATM    3  C3  UNL     1     -33.211  17.861  -1.681  1.00 20.00    -0.053 A 
HETATM    4  C4  UNL     1     -31.841  18.728   0.080  1.00 20.00     0.080 A 
HETATM    5  C5  UNL     1     -34.228  18.919   0.286  1.00 20.00     0.288 A 
HETATM    6  C8  UNL     1     -33.250  17.172  -3.010  1.00 20.00     0.048 C 
HETATM    7  O11 UNL     1     -35.245  19.262   0.880  1.00 20.00    -0.260 OA
HETATM    8  O12 UNL     1     -32.977  19.142   0.798  1.00 20.00    -0.276 OA
ENDROOT
BRANCH   4   9
HETATM    9  C6  UNL     1     -30.600  19.027   0.738  1.00 20.00     0.039 C 
HETATM   10  C7  UNL     1     -30.371  18.947   2.076  1.00 20.00    -0.085 C 
HETATM   11  C9  UNL     1     -29.067  19.263   2.756  1.00 20.00     0.043 C 
HETATM   12  C10 UNL     1     -31.464  18.516   3.020  1.00 20.00     0.043 C 
ENDBRANCH   4   9
TORSDOF 1
ENDMDL
