MODEL 1
REMARK VINA RESULT:      -3.8      0.000      0.000
REMARK  1 active torsions:
REMARK  status: ('A' for Active; 'I' for Inactive)
REMARK    1  A    between atoms: C2_2  and  C4_4 
REMARK       I    between atoms: C2_2  and  N7_7 
ROOT
HETATM    1  C1  UNL     1     -32.246   7.966   3.375  1.00 20.00     0.166 C 
HETATM    2  C2  UNL     1     -33.276   7.927   5.306  1.00 20.00     0.249 C 
HETATM    3  N7  UNL     1     -32.129   7.918   4.542  1.00 20.00    -0.199 NA
HETATM    4  O8  UNL     1     -34.139   8.799   5.347  1.00 20.00    -0.271 OA
HETATM    5  S9  UNL     1     -32.366   8.030   1.787  1.00 20.00    -0.055 SA
ENDROOT
BRANCH   2   6
HETATM    6  C4  UNL     1     -33.434   6.736   6.147  1.00 20.00     0.084 A 
HETATM    7  C3  UNL     1     -34.754   6.480   6.829  1.00 20.00     0.019 A 
HETATM    8  C5  UNL     1     -34.309   5.586   5.708  1.00 20.00    -0.005 A 
HETATM    9  C6  UNL     1     -35.040   5.596   4.409  1.00 20.00     0.011 C 
ENDBRANCH   2   6
TORSDOF 1
ENDMDL
MODEL 2
REMARK VINA RESULT:      -3.7      1.149      1.629
REMARK  1 active torsions:
REMARK  status: ('A' for Active; 'I' for Inactive)
REMARK    1  A    between atoms: C2_2  and  C4_4 
REMARK       I    between atoms: C2_2  and  N7_7 
ROOT
HETATM    1  C1  UNL     1     -32.411   7.460   2.519  1.00 20.00     0.166 C 
HETATM    2  C2  UNL     1     -33.205   7.464   4.558  1.00 20.00     0.249 C 
HETATM    3  N7  UNL     1     -32.701   6.812   3.453  1.00 20.00    -0.199 NA
HETATM    4  O8  UNL     1     -32.654   8.332   5.230  1.00 20.00    -0.271 OA
HETATM    5  S9  UNL     1     -32.007   8.306   1.231  1.00 20.00    -0.055 SA
ENDROOT
BRANCH   2   6
HETATM    6  C4  UNL     1     -34.556   7.033   4.932  1.00 20.00     0.084 A 
HETATM    7  C3  UNL     1     -35.047   5.674   4.501  1.00 20.00     0.019 A 
HETATM    8  C5  UNL     1     -34.768   5.939   5.952  1.00 20.00    -0.005 A 
HETATM    9  C6  UNL     1     -33.631   5.256   6.631  1.00 20.00     0.011 C 
ENDBRANCH   2   6
TORSDOF 1
ENDMDL
MODEL 3
REMARK VINA RESULT:      -3.6     12.136     13.092
REMARK  1 active torsions:
REMARK  status: ('A' for Active; 'I' for Inactive)
REMARK    1  A    between atoms: C2_2  and  C4_4 
REMARK       I    between atoms: C2_2  and  N7_7 
ROOT
HETATM    1  C1  UNL     1     -33.213  16.263  -3.093  1.00 20.00     0.166 C 
HETATM    2  C2  UNL     1     -33.949  14.808  -4.553  1.00 20.00     0.249 C 
HETATM    3  N7  UNL     1     -32.956  15.611  -4.034  1.00 20.00    -0.199 NA
HETATM    4  O8  UNL     1     -34.547  13.898  -3.985  1.00 20.00    -0.271 OA
HETATM    5  S9  UNL     1     -33.525  17.164  -1.816  1.00 20.00    -0.055 SA
ENDROOT
BRANCH   2   6
HETATM    6  C4  UNL     1     -34.291  15.118  -5.945  1.00 20.00     0.084 A 
HETATM    7  C3  UNL     1     -35.637  14.708  -6.486  1.00 20.00     0.019 A 
HETATM    8  C5  UNL     1     -35.330  16.163  -6.275  1.00 20.00    -0.005 A 
HETATM    9  C6  UNL     1     -36.045  16.932  -5.219  1.00 20.00     0.011 C 
ENDBRANCH   2   6
TORSDOF 1
ENDMDL
MODEL 4
REMARK VINA RESULT:      -3.5     10.217     10.624
REMARK  1 active torsions:
REMARK  status: ('A' for Active; 'I' for Inactive)
REMARK    1  A    between atoms: C2_2  and  C4_4 
REMARK       I    between atoms: C2_2  and  N7_7 
ROOT
HETATM    1  C1  UNL     1     -40.683  16.234   7.895  1.00 20.00     0.166 C 
HETATM    2  C2  UNL     1     -40.573  14.049   7.804  1.00 20.00     0.249 C 
HETATM    3  N7  UNL     1     -40.264  15.302   7.318  1.00 20.00    -0.199 NA
HETATM    4  O8  UNL     1     -40.300  13.589   8.909  1.00 20.00    -0.271 OA
HETATM    5  S9  UNL     1     -41.235  17.522   8.653  1.00 20.00    -0.055 SA
ENDROOT
BRANCH   2   6
HETATM    6  C4  UNL     1     -41.312  13.212   6.852  1.00 20.00     0.084 A 
HETATM    7  C3  UNL     1     -41.174  13.473   5.374  1.00 20.00     0.019 A 
HETATM    8  C5  UNL     1     -40.592  12.222   5.968  1.00 20.00    -0.005 A 
HETATM    9  C6  UNL     1     -39.114  12.039   6.021  1.00 20.00     0.011 C 
ENDBRANCH   2   6
TORSDOF 1
ENDMDL
MODEL 5
REMARK VINA RESULT:      -3.5     12.816     13.462
REMARK  1 active torsions:
REMARK  status: ('A' for Active; 'I' for Inactive)
REMARK    1  A    between atoms: C2_2  and  C4_4 
REMARK       I    between atoms: C2_2  and  N7_7 
ROOT
HETATM    1  C1  UNL     1     -36.730  15.822  -5.961  1.00 20.00     0.166 C 
HETATM    2  C2  UNL     1     -34.820  14.787  -5.692  1.00 20.00     0.249 C 
HETATM    3  N7  UNL     1     -36.195  14.837  -5.612  1.00 20.00    -0.199 NA
HETATM    4  O8  UNL     1     -34.126  14.904  -6.698  1.00 20.00    -0.271 OA
HETATM    5  S9  UNL     1     -37.491  17.142  -6.425  1.00 20.00    -0.055 SA
ENDROOT
BRANCH   2   6
HETATM    6  C4  UNL     1     -34.161  14.567  -4.400  1.00 20.00     0.084 A 
HETATM    7  C3  UNL     1     -32.686  14.850  -4.263  1.00 20.00     0.019 A 
HETATM    8  C5  UNL     1     -33.683  15.730  -3.564  1.00 20.00    -0.005 A 
HETATM    9  C6  UNL     1     -33.862  17.144  -3.996  1.00 20.00     0.011 C 
ENDBRANCH   2   6
TORSDOF 1
ENDMDL
MODEL 6
REMARK VINA RESULT:      -3.3      2.271      3.393
REMARK  1 active torsions:
REMARK  status: ('A' for Active; 'I' for Inactive)
REMARK    1  A    between atoms: C2_2  and  C4_4 
REMARK       I    between atoms: C2_2  and  N7_7 
ROOT
HETATM    1  C1  UNL     1     -34.310   5.291   4.518  1.00 20.00     0.166 C 
HETATM    2  C2  UNL     1     -33.848   7.170   5.541  1.00 20.00     0.249 C 
HETATM    3  N7  UNL     1     -34.712   6.338   4.863  1.00 20.00    -0.199 NA
HETATM    4  O8  UNL     1     -33.278   6.948   6.606  1.00 20.00    -0.271 OA
HETATM    5  S9  UNL     1     -33.798   3.862   4.033  1.00 20.00    -0.055 SA
ENDROOT
BRANCH   2   6
HETATM    6  C4  UNL     1     -33.617   8.454   4.871  1.00 20.00     0.084 A 
HETATM    7  C3  UNL     1     -32.260   9.106   4.966  1.00 20.00     0.019 A 
HETATM    8  C5  UNL     1     -32.729   8.546   3.654  1.00 20.00    -0.005 A 
HETATM    9  C6  UNL     1     -32.057   7.351   3.070  1.00 20.00     0.011 C 
ENDBRANCH   2   6
TORSDOF 1
ENDMDL
MODEL 7
REMARK VINA RESULT:      -3.2     12.786     13.659
REMARK  1 active torsions:
REMARK  status: ('A' for Active; 'I' for Inactive)
REMARK    1  A    between atoms: C2_2  and  C4_4 
REMARK       I    between atoms: C2_2  and  N7_7 
ROOT
HETATM    1  C1  UNL     1     -35.089  16.944  -6.634  1.00 20.00     0.166 C 
HETATM    2  C2  UNL     1     -34.641  17.614  -4.599  1.00 20.00     0.249 C 
HETATM    3  N7  UNL     1     -34.454  17.668  -5.964  1.00 20.00    -0.199 NA
HETATM    4  O8  UNL     1     -35.680  17.821  -3.979  1.00 20.00    -0.271 OA
HETATM    5  S9  UNL     1     -35.933  15.975  -7.576  1.00 20.00    -0.055 SA
ENDROOT
BRANCH   2   6
HETATM    6  C4  UNL     1     -33.428  17.266  -3.850  1.00 20.00     0.084 A 
HETATM    7  C3  UNL     1     -33.554  16.699  -2.459  1.00 20.00     0.019 A 
HETATM    8  C5  UNL     1     -33.069  15.825  -3.580  1.00 20.00    -0.005 A 
HETATM    9  C6  UNL     1     -33.911  14.694  -4.062  1.00 20.00     0.011 C 
ENDBRANCH   2   6
TORSDOF 1
ENDMDL
MODEL 8
REMARK VINA RESULT:      -3.2     14.916     15.677
REMARK  1 active torsions:
REMARK  status: ('A' for Active; 'I' for Inactive)
REMARK    1  A    between atoms: C2_2  and  C4_4 
REMARK       I    between atoms: C2_2  and  N7_7 
ROOT
HETATM    1  C1  UNL     1     -22.247  18.367   9.364  1.00 20.00     0.166 C 
HETATM    2  C2  UNL     1     -24.163  18.866  10.297  1.00 20.00     0.249 C 
HETATM    3  N7  UNL     1     -22.833  19.124  10.044  1.00 20.00    -0.199 NA
HETATM    4  O8  UNL     1     -25.074  18.769   9.480  1.00 20.00    -0.271 OA
HETATM    5  S9  UNL     1     -21.419  17.362   8.446  1.00 20.00    -0.055 SA
ENDROOT
BRANCH   2   6
HETATM    6  C4  UNL     1     -24.470  18.697  11.721  1.00 20.00     0.084 A 
HETATM    7  C3  UNL     1     -25.824  18.173  12.130  1.00 20.00     0.019 A 
HETATM    8  C5  UNL     1     -24.604  17.321  12.329  1.00 20.00    -0.005 A 
HETATM    9  C6  UNL     1     -24.423  16.078  11.526  1.00 20.00     0.011 C 
ENDBRANCH   2   6
TORSDOF 1
ENDMDL
MODEL 9
REMARK VINA RESULT:      -3.1      9.618     10.160
REMARK  1 active torsions:
REMARK  status: ('A' for Active; 'I' for Inactive)
REMARK    1  A    between atoms: C2_2  and  C4_4 
REMARK       I    between atoms: C2_2  and  N7_7 
ROOT
HETATM    1  C1  UNL     1     -39.909  11.951   5.481  1.00 20.00     0.166 C 
HETATM    2  C2  UNL     1     -41.245  13.319   6.545  1.00 20.00     0.249 C 
HETATM    3  N7  UNL     1     -40.569  12.123   6.436  1.00 20.00    -0.199 NA
HETATM    4  O8  UNL     1     -40.765  14.449   6.575  1.00 20.00    -0.271 OA
HETATM    5  S9  UNL     1     -39.003  11.681   4.198  1.00 20.00    -0.055 SA
ENDROOT
BRANCH   2   6
HETATM    6  C4  UNL     1     -42.702  13.169   6.634  1.00 20.00     0.084 A 
HETATM    7  C3  UNL     1     -43.281  11.945   7.298  1.00 20.00     0.019 A 
HETATM    8  C5  UNL     1     -43.415  13.287   7.960  1.00 20.00    -0.005 A 
HETATM    9  C6  UNL     1     -42.688  13.569   9.229  1.00 20.00     0.011 C 
ENDBRANCH   2   6
TORSDOF 1
ENDMDL
