MODEL 1
REMARK VINA RESULT:      -4.7      0.000      0.000
REMARK  2 active torsions:
REMARK  status: ('A' for Active; 'I' for Inactive)
REMARK    1  A    between atoms: C1_1  and  C5_5 
REMARK    2  A    between atoms: C4_4  and  C5_5 
ROOT
HETATM    1  C5  UNL     1     -33.893   7.311   6.051  1.00 20.00     0.101 C 
ENDROOT
BRANCH   1   2
HETATM    2  C1  UNL     1     -34.477   5.926   5.829  1.00 20.00     0.219 C 
HETATM    3  O6  UNL     1     -34.198   4.967   6.542  1.00 20.00    -0.280 OA
HETATM    4 CL7  UNL     1     -35.564   5.892   4.468  1.00 20.00    -0.044 Cl
ENDBRANCH   1   2
BRANCH   1   5
HETATM    5  C4  UNL     1     -33.599   8.048   4.791  1.00 20.00    -0.006 A 
HETATM    6  C2  UNL     1     -32.319   8.825   4.649  1.00 20.00     0.005 A 
HETATM    7  C3  UNL     1     -32.521   7.559   3.863  1.00 20.00     0.005 A 
ENDBRANCH   1   5
TORSDOF 2
ENDMDL
MODEL 2
REMARK VINA RESULT:      -4.7      2.541      3.533
REMARK  2 active torsions:
REMARK  status: ('A' for Active; 'I' for Inactive)
REMARK    1  A    between atoms: C1_1  and  C5_5 
REMARK    2  A    between atoms: C4_4  and  C5_5 
ROOT
HETATM    1  C5  UNL     1     -33.660   7.644   5.501  1.00 20.00     0.101 C 
ENDROOT
BRANCH   1   2
HETATM    2  C1  UNL     1     -32.591   8.299   4.643  1.00 20.00     0.219 C 
HETATM    3  O6  UNL     1     -32.052   9.358   4.949  1.00 20.00    -0.280 OA
HETATM    4 CL7  UNL     1     -32.247   7.367   3.212  1.00 20.00    -0.044 Cl
ENDBRANCH   1   2
BRANCH   1   5
HETATM    5  C4  UNL     1     -33.922   6.220   5.151  1.00 20.00    -0.006 A 
HETATM    6  C2  UNL     1     -34.751   5.357   6.061  1.00 20.00     0.005 A 
HETATM    7  C3  UNL     1     -35.298   5.786   4.728  1.00 20.00     0.005 A 
ENDBRANCH   1   5
TORSDOF 2
ENDMDL
MODEL 3
REMARK VINA RESULT:      -4.4      1.434      1.434
REMARK  2 active torsions:
REMARK  status: ('A' for Active; 'I' for Inactive)
REMARK    1  A    between atoms: C1_1  and  C5_5 
REMARK    2  A    between atoms: C4_4  and  C5_5 
ROOT
HETATM    1  C5  UNL     1     -33.975   7.350   5.794  1.00 20.00     0.101 C 
ENDROOT
BRANCH   1   2
HETATM    2  C1  UNL     1     -34.707   6.073   5.416  1.00 20.00     0.219 C 
HETATM    3  O6  UNL     1     -35.515   6.020   4.494  1.00 20.00    -0.280 OA
HETATM    4 CL7  UNL     1     -34.252   4.740   6.440  1.00 20.00    -0.044 Cl
ENDBRANCH   1   2
BRANCH   1   5
HETATM    5  C4  UNL     1     -33.539   8.162   4.624  1.00 20.00    -0.006 A 
HETATM    6  C2  UNL     1     -32.199   8.845   4.633  1.00 20.00     0.005 A 
HETATM    7  C3  UNL     1     -32.436   7.667   3.729  1.00 20.00     0.005 A 
ENDBRANCH   1   5
TORSDOF 2
ENDMDL
MODEL 4
REMARK VINA RESULT:      -4.3      1.651      1.825
REMARK  2 active torsions:
REMARK  status: ('A' for Active; 'I' for Inactive)
REMARK    1  A    between atoms: C1_1  and  C5_5 
REMARK    2  A    between atoms: C4_4  and  C5_5 
ROOT
HETATM    1  C5  UNL     1     -34.055   6.880   4.675  1.00 20.00     0.101 C 
ENDROOT
BRANCH   1   2
HETATM    2  C1  UNL     1     -34.132   5.432   4.222  1.00 20.00     0.219 C 
HETATM    3  O6  UNL     1     -34.804   4.589   4.806  1.00 20.00    -0.280 OA
HETATM    4 CL7  UNL     1     -33.163   5.147   2.802  1.00 20.00    -0.044 Cl
ENDBRANCH   1   2
BRANCH   1   5
HETATM    5  C4  UNL     1     -32.740   7.525   4.408  1.00 20.00    -0.006 A 
HETATM    6  C2  UNL     1     -32.648   8.698   3.471  1.00 20.00     0.005 A 
HETATM    7  C3  UNL     1     -32.447   8.898   4.947  1.00 20.00     0.005 A 
ENDBRANCH   1   5
TORSDOF 2
ENDMDL
MODEL 5
REMARK VINA RESULT:      -4.3      2.848      3.783
REMARK  2 active torsions:
REMARK  status: ('A' for Active; 'I' for Inactive)
REMARK    1  A    between atoms: C1_1  and  C5_5 
REMARK    2  A    between atoms: C4_4  and  C5_5 
ROOT
HETATM    1  C5  UNL     1     -33.169   6.331   3.920  1.00 20.00     0.101 C 
ENDROOT
BRANCH   1   2
HETATM    2  C1  UNL     1     -32.480   7.593   3.429  1.00 20.00     0.219 C 
HETATM    3  O6  UNL     1     -32.113   7.738   2.268  1.00 20.00    -0.280 OA
HETATM    4 CL7  UNL     1     -32.292   8.765   4.704  1.00 20.00    -0.044 Cl
ENDBRANCH   1   2
BRANCH   1   5
HETATM    5  C4  UNL     1     -34.306   6.588   4.846  1.00 20.00    -0.006 A 
HETATM    6  C2  UNL     1     -35.025   5.441   5.501  1.00 20.00     0.005 A 
HETATM    7  C3  UNL     1     -34.150   6.346   6.322  1.00 20.00     0.005 A 
ENDBRANCH   1   5
TORSDOF 2
ENDMDL
MODEL 6
REMARK VINA RESULT:      -4.2      2.632      3.596
REMARK  2 active torsions:
REMARK  status: ('A' for Active; 'I' for Inactive)
REMARK    1  A    between atoms: C1_1  and  C5_5 
REMARK    2  A    between atoms: C4_4  and  C5_5 
ROOT
HETATM    1  C5  UNL     1     -33.244   6.412   3.946  1.00 20.00     0.101 C 
ENDROOT
BRANCH   1   2
HETATM    2  C1  UNL     1     -32.428   7.650   3.614  1.00 20.00     0.219 C 
HETATM    3  O6  UNL     1     -32.012   8.421   4.473  1.00 20.00    -0.280 OA
HETATM    4 CL7  UNL     1     -32.173   7.816   1.898  1.00 20.00    -0.044 Cl
ENDBRANCH   1   2
BRANCH   1   5
HETATM    5  C4  UNL     1     -34.336   6.658   4.928  1.00 20.00    -0.006 A 
HETATM    6  C2  UNL     1     -34.775   5.563   5.861  1.00 20.00     0.005 A 
HETATM    7  C3  UNL     1     -34.025   6.751   6.396  1.00 20.00     0.005 A 
ENDBRANCH   1   5
TORSDOF 2
ENDMDL
MODEL 7
REMARK VINA RESULT:      -4.2      1.590      1.728
REMARK  2 active torsions:
REMARK  status: ('A' for Active; 'I' for Inactive)
REMARK    1  A    between atoms: C1_1  and  C5_5 
REMARK    2  A    between atoms: C4_4  and  C5_5 
ROOT
HETATM    1  C5  UNL     1     -34.319   6.650   4.295  1.00 20.00     0.101 C 
ENDROOT
BRANCH   1   2
HETATM    2  C1  UNL     1     -34.423   5.305   4.992  1.00 20.00     0.219 C 
HETATM    3  O6  UNL     1     -34.295   4.238   4.399  1.00 20.00    -0.280 OA
HETATM    4 CL7  UNL     1     -34.739   5.482   6.696  1.00 20.00    -0.044 Cl
ENDBRANCH   1   2
BRANCH   1   5
HETATM    5  C4  UNL     1     -32.953   7.241   4.329  1.00 20.00    -0.006 A 
HETATM    6  C2  UNL     1     -32.635   8.463   3.512  1.00 20.00     0.005 A 
HETATM    7  C3  UNL     1     -32.716   8.561   5.009  1.00 20.00     0.005 A 
ENDBRANCH   1   5
TORSDOF 2
ENDMDL
MODEL 8
REMARK VINA RESULT:      -3.8      2.653      3.533
REMARK  2 active torsions:
REMARK  status: ('A' for Active; 'I' for Inactive)
REMARK    1  A    between atoms: C1_1  and  C5_5 
REMARK    2  A    between atoms: C4_4  and  C5_5 
ROOT
HETATM    1  C5  UNL     1     -32.618   7.910   4.621  1.00 20.00     0.101 C 
ENDROOT
BRANCH   1   2
HETATM    2  C1  UNL     1     -32.481   7.737   3.118  1.00 20.00     0.219 C 
HETATM    3  O6  UNL     1     -32.242   6.653   2.595  1.00 20.00    -0.280 OA
HETATM    4 CL7  UNL     1     -32.703   9.242   2.270  1.00 20.00    -0.044 Cl
ENDBRANCH   1   2
BRANCH   1   5
HETATM    5  C4  UNL     1     -33.976   7.591   5.142  1.00 20.00    -0.006 A 
HETATM    6  C2  UNL     1     -34.434   6.162   5.235  1.00 20.00     0.005 A 
HETATM    7  C3  UNL     1     -34.135   6.938   6.487  1.00 20.00     0.005 A 
ENDBRANCH   1   5
TORSDOF 2
ENDMDL
MODEL 9
REMARK VINA RESULT:      -3.6      2.014      2.566
REMARK  2 active torsions:
REMARK  status: ('A' for Active; 'I' for Inactive)
REMARK    1  A    between atoms: C1_1  and  C5_5 
REMARK    2  A    between atoms: C4_4  and  C5_5 
ROOT
HETATM    1  C5  UNL     1     -34.538   5.648   4.279  1.00 20.00     0.101 C 
ENDROOT
BRANCH   1   2
HETATM    2  C1  UNL     1     -34.525   6.064   5.740  1.00 20.00     0.219 C 
HETATM    3  O6  UNL     1     -34.908   5.327   6.643  1.00 20.00    -0.280 OA
HETATM    4 CL7  UNL     1     -33.911   7.681   5.946  1.00 20.00    -0.044 Cl
ENDBRANCH   1   2
BRANCH   1   5
HETATM    5  C4  UNL     1     -33.182   5.418   3.708  1.00 20.00    -0.006 A 
HETATM    6  C2  UNL     1     -33.020   5.086   2.250  1.00 20.00     0.005 A 
HETATM    7  C3  UNL     1     -32.576   6.425   2.769  1.00 20.00     0.005 A 
ENDBRANCH   1   5
TORSDOF 2
ENDMDL
