MODEL 1
REMARK VINA RESULT:      -4.8      0.000      0.000
REMARK  1 active torsions:
REMARK  status: ('A' for Active; 'I' for Inactive)
REMARK    1  A    between atoms: C4_4  and  C10_10 
ROOT
HETATM    1  C1  UNL     1     -33.797   7.953   5.228  1.00 20.00     0.008 C 
HETATM    2  C2  UNL     1     -32.647   8.956   5.119  1.00 20.00     0.035 C 
HETATM    3  C3  UNL     1     -33.004   6.577   3.263  1.00 20.00     0.039 C 
HETATM    4  C4  UNL     1     -33.364   6.557   4.756  1.00 20.00    -0.005 C 
HETATM    5  C5  UNL     1     -31.939   8.903   3.807  1.00 20.00     0.151 A 
HETATM    6  C6  UNL     1     -32.087   7.704   2.908  1.00 20.00     0.151 A 
HETATM    7  O11 UNL     1     -32.776   8.944   2.650  1.00 20.00    -0.375 OA
ENDROOT
BRANCH   4   8
HETATM    8  C10 UNL     1     -34.460   5.529   5.028  1.00 20.00    -0.048 C 
HETATM    9  C7  UNL     1     -34.701   5.413   6.542  1.00 20.00     0.015 C 
HETATM   10  C8  UNL     1     -34.034   4.158   4.477  1.00 20.00     0.015 C 
HETATM   11  C9  UNL     1     -35.764   5.966   4.341  1.00 20.00     0.015 C 
ENDBRANCH   4   8
TORSDOF 1
ENDMDL
MODEL 2
REMARK VINA RESULT:      -4.5      1.917      4.000
REMARK  1 active torsions:
REMARK  status: ('A' for Active; 'I' for Inactive)
REMARK    1  A    between atoms: C4_4  and  C10_10 
ROOT
HETATM    1  C1  UNL     1     -33.432   7.212   5.959  1.00 20.00     0.008 C 
HETATM    2  C2  UNL     1     -34.591   6.466   6.623  1.00 20.00     0.035 C 
HETATM    3  C3  UNL     1     -33.775   6.092   3.720  1.00 20.00     0.039 C 
HETATM    4  C4  UNL     1     -33.699   7.434   4.463  1.00 20.00    -0.005 C 
HETATM    5  C5  UNL     1     -35.040   5.267   5.856  1.00 20.00     0.151 A 
HETATM    6  C6  UNL     1     -34.667   5.106   4.406  1.00 20.00     0.151 A 
HETATM    7  O11 UNL     1     -34.006   4.368   5.453  1.00 20.00    -0.375 OA
ENDROOT
BRANCH   4   8
HETATM    8  C10 UNL     1     -32.621   8.324   3.847  1.00 20.00    -0.048 C 
HETATM    9  C7  UNL     1     -31.972   9.188   4.942  1.00 20.00     0.015 C 
HETATM   10  C8  UNL     1     -33.249   9.242   2.785  1.00 20.00     0.015 C 
HETATM   11  C9  UNL     1     -31.542   7.451   3.186  1.00 20.00     0.015 C 
ENDBRANCH   4   8
TORSDOF 1
ENDMDL
MODEL 3
REMARK VINA RESULT:      -4.1     11.884     13.281
REMARK  1 active torsions:
REMARK  status: ('A' for Active; 'I' for Inactive)
REMARK    1  A    between atoms: C4_4  and  C10_10 
ROOT
HETATM    1  C1  UNL     1     -35.015  17.257  -4.617  1.00 20.00     0.008 C 
HETATM    2  C2  UNL     1     -34.860  16.474  -5.923  1.00 20.00     0.035 C 
HETATM    3  C3  UNL     1     -33.383  15.800  -3.353  1.00 20.00     0.039 C 
HETATM    4  C4  UNL     1     -33.718  17.232  -3.796  1.00 20.00    -0.005 C 
HETATM    5  C5  UNL     1     -34.232  15.133  -5.735  1.00 20.00     0.151 A 
HETATM    6  C6  UNL     1     -33.467  14.817  -4.478  1.00 20.00     0.151 A 
HETATM    7  O11 UNL     1     -34.802  14.321  -4.707  1.00 20.00    -0.375 OA
ENDROOT
BRANCH   4   8
HETATM    8  C10 UNL     1     -33.828  18.154  -2.583  1.00 20.00    -0.048 C 
HETATM    9  C7  UNL     1     -35.225  18.795  -2.541  1.00 20.00     0.015 C 
HETATM   10  C8  UNL     1     -32.765  19.263  -2.676  1.00 20.00     0.015 C 
HETATM   11  C9  UNL     1     -33.603  17.346  -1.295  1.00 20.00     0.015 C 
ENDBRANCH   4   8
TORSDOF 1
ENDMDL
MODEL 4
REMARK VINA RESULT:      -4.0      0.880      1.779
REMARK  1 active torsions:
REMARK  status: ('A' for Active; 'I' for Inactive)
REMARK    1  A    between atoms: C4_4  and  C10_10 
ROOT
HETATM    1  C1  UNL     1     -32.787   6.503   3.430  1.00 20.00     0.008 C 
HETATM    2  C2  UNL     1     -32.262   7.763   2.738  1.00 20.00     0.035 C 
HETATM    3  C3  UNL     1     -33.646   7.766   5.444  1.00 20.00     0.039 C 
HETATM    4  C4  UNL     1     -34.016   6.815   4.295  1.00 20.00    -0.005 C 
HETATM    5  C5  UNL     1     -32.133   8.932   3.657  1.00 20.00     0.151 A 
HETATM    6  C6  UNL     1     -32.853   8.946   4.979  1.00 20.00     0.151 A 
HETATM    7  O11 UNL     1     -31.439   8.684   4.880  1.00 20.00    -0.375 OA
ENDROOT
BRANCH   4   8
HETATM    8  C10 UNL     1     -34.633   5.530   4.843  1.00 20.00    -0.048 C 
HETATM    9  C7  UNL     1     -34.542   5.523   6.378  1.00 20.00     0.015 C 
HETATM   10  C8  UNL     1     -33.877   4.312   4.286  1.00 20.00     0.015 C 
HETATM   11  C9  UNL     1     -36.110   5.443   4.424  1.00 20.00     0.015 C 
ENDBRANCH   4   8
TORSDOF 1
ENDMDL
MODEL 5
REMARK VINA RESULT:      -3.8     11.889     13.453
REMARK  1 active torsions:
REMARK  status: ('A' for Active; 'I' for Inactive)
REMARK    1  A    between atoms: C4_4  and  C10_10 
ROOT
HETATM    1  C1  UNL     1     -33.242  15.864  -3.609  1.00 20.00     0.008 C 
HETATM    2  C2  UNL     1     -33.844  14.594  -4.213  1.00 20.00     0.035 C 
HETATM    3  C3  UNL     1     -34.785  17.404  -4.887  1.00 20.00     0.039 C 
HETATM    4  C4  UNL     1     -34.292  16.978  -3.495  1.00 20.00    -0.005 C 
HETATM    5  C5  UNL     1     -34.657  14.850  -5.438  1.00 20.00     0.151 A 
HETATM    6  C6  UNL     1     -35.155  16.237  -5.747  1.00 20.00     0.151 A 
HETATM    7  O11 UNL     1     -34.031  15.656  -6.438  1.00 20.00    -0.375 OA
ENDROOT
BRANCH   4   8
HETATM    8  C10 UNL     1     -33.729  18.178  -2.737  1.00 20.00    -0.048 C 
HETATM    9  C7  UNL     1     -32.781  17.695  -1.628  1.00 20.00     0.015 C 
HETATM   10  C8  UNL     1     -34.880  18.981  -2.106  1.00 20.00     0.015 C 
HETATM   11  C9  UNL     1     -32.953  19.085  -3.706  1.00 20.00     0.015 C 
ENDBRANCH   4   8
TORSDOF 1
ENDMDL
MODEL 6
REMARK VINA RESULT:      -3.7     11.684     13.118
REMARK  1 active torsions:
REMARK  status: ('A' for Active; 'I' for Inactive)
REMARK    1  A    between atoms: C4_4  and  C10_10 
ROOT
HETATM    1  C1  UNL     1     -33.617  16.197  -2.999  1.00 20.00     0.008 C 
HETATM    2  C2  UNL     1     -32.913  17.352  -2.283  1.00 20.00     0.035 C 
HETATM    3  C3  UNL     1     -35.200  17.718  -4.252  1.00 20.00     0.039 C 
HETATM    4  C4  UNL     1     -34.124  16.628  -4.383  1.00 20.00    -0.005 C 
HETATM    5  C5  UNL     1     -33.682  18.631  -2.327  1.00 20.00     0.151 A 
HETATM    6  C6  UNL     1     -34.787  18.822  -3.331  1.00 20.00     0.151 A 
HETATM    7  O11 UNL     1     -35.055  18.540  -1.943  1.00 20.00    -0.375 OA
ENDROOT
BRANCH   4   8
HETATM    8  C10 UNL     1     -34.671  15.429  -5.156  1.00 20.00    -0.048 C 
HETATM    9  C7  UNL     1     -36.151  15.663  -5.499  1.00 20.00     0.015 C 
HETATM   10  C8  UNL     1     -34.543  14.157  -4.301  1.00 20.00     0.015 C 
HETATM   11  C9  UNL     1     -33.873  15.244  -6.458  1.00 20.00     0.015 C 
ENDBRANCH   4   8
TORSDOF 1
ENDMDL
MODEL 7
REMARK VINA RESULT:      -3.7     11.692     13.160
REMARK  1 active torsions:
REMARK  status: ('A' for Active; 'I' for Inactive)
REMARK    1  A    between atoms: C4_4  and  C10_10 
ROOT
HETATM    1  C1  UNL     1     -33.646  16.186  -3.012  1.00 20.00     0.008 C 
HETATM    2  C2  UNL     1     -32.942  17.340  -2.294  1.00 20.00     0.035 C 
HETATM    3  C3  UNL     1     -35.214  17.710  -4.279  1.00 20.00     0.039 C 
HETATM    4  C4  UNL     1     -34.142  16.616  -4.400  1.00 20.00    -0.005 C 
HETATM    5  C5  UNL     1     -33.706  18.621  -2.345  1.00 20.00     0.151 A 
HETATM    6  C6  UNL     1     -34.804  18.815  -3.356  1.00 20.00     0.151 A 
HETATM    7  O11 UNL     1     -35.082  18.536  -1.969  1.00 20.00    -0.375 OA
ENDROOT
BRANCH   4   8
HETATM    8  C10 UNL     1     -34.688  15.418  -5.175  1.00 20.00    -0.048 C 
HETATM    9  C7  UNL     1     -33.890  15.233  -6.476  1.00 20.00     0.015 C 
HETATM   10  C8  UNL     1     -36.169  15.653  -5.519  1.00 20.00     0.015 C 
HETATM   11  C9  UNL     1     -34.564  14.147  -4.320  1.00 20.00     0.015 C 
ENDBRANCH   4   8
TORSDOF 1
ENDMDL
MODEL 8
REMARK VINA RESULT:      -3.7     11.660     13.084
REMARK  1 active torsions:
REMARK  status: ('A' for Active; 'I' for Inactive)
REMARK    1  A    between atoms: C4_4  and  C10_10 
ROOT
HETATM    1  C1  UNL     1     -33.653  16.213  -2.957  1.00 20.00     0.008 C 
HETATM    2  C2  UNL     1     -32.964  17.377  -2.241  1.00 20.00     0.035 C 
HETATM    3  C3  UNL     1     -35.201  17.720  -4.270  1.00 20.00     0.039 C 
HETATM    4  C4  UNL     1     -34.126  16.625  -4.359  1.00 20.00    -0.005 C 
HETATM    5  C5  UNL     1     -33.728  18.656  -2.321  1.00 20.00     0.151 A 
HETATM    6  C6  UNL     1     -34.808  18.836  -3.355  1.00 20.00     0.151 A 
HETATM    7  O11 UNL     1     -35.110  18.575  -1.970  1.00 20.00    -0.375 OA
ENDROOT
BRANCH   4   8
HETATM    8  C10 UNL     1     -34.657  15.417  -5.128  1.00 20.00    -0.048 C 
HETATM    9  C7  UNL     1     -34.517  14.151  -4.268  1.00 20.00     0.015 C 
HETATM   10  C8  UNL     1     -33.856  15.237  -6.429  1.00 20.00     0.015 C 
HETATM   11  C9  UNL     1     -36.139  15.633  -5.474  1.00 20.00     0.015 C 
ENDBRANCH   4   8
TORSDOF 1
ENDMDL
MODEL 9
REMARK VINA RESULT:      -3.5     12.238     13.871
REMARK  1 active torsions:
REMARK  status: ('A' for Active; 'I' for Inactive)
REMARK    1  A    between atoms: C4_4  and  C10_10 
ROOT
HETATM    1  C1  UNL     1     -36.096  17.391  -4.922  1.00 20.00     0.008 C 
HETATM    2  C2  UNL     1     -36.607  16.939  -6.292  1.00 20.00     0.035 C 
HETATM    3  C3  UNL     1     -34.271  15.644  -4.841  1.00 20.00     0.039 C 
HETATM    4  C4  UNL     1     -34.587  17.147  -4.783  1.00 20.00    -0.005 C 
HETATM    5  C5  UNL     1     -36.127  15.581  -6.684  1.00 20.00     0.151 A 
HETATM    6  C6  UNL     1     -34.945  14.961  -5.989  1.00 20.00     0.151 A 
HETATM    7  O11 UNL     1     -36.299  14.558  -5.702  1.00 20.00    -0.375 OA
ENDROOT
BRANCH   4   8
HETATM    8  C10 UNL     1     -34.057  17.754  -3.485  1.00 20.00    -0.048 C 
HETATM    9  C7  UNL     1     -33.442  16.651  -2.608  1.00 20.00     0.015 C 
HETATM   10  C8  UNL     1     -35.209  18.427  -2.719  1.00 20.00     0.015 C 
HETATM   11  C9  UNL     1     -32.981  18.804  -3.805  1.00 20.00     0.015 C 
ENDBRANCH   4   8
TORSDOF 1
ENDMDL
