MODEL 1
REMARK VINA RESULT:      -3.7      0.000      0.000
REMARK  1 active torsions:
REMARK  status: ('A' for Active; 'I' for Inactive)
REMARK    1  A    between atoms: C2_2  and  C6_6 
REMARK       I    between atoms: C2_2  and  N7_7 
ROOT
HETATM    1  C1  UNL     1     -32.428   7.580   2.679  1.00 20.00     0.166 C 
HETATM    2  C2  UNL     1     -33.470   7.148   4.565  1.00 20.00     0.252 C 
HETATM    3  N7  UNL     1     -32.467   6.908   3.642  1.00 20.00    -0.199 NA
HETATM    4  O8  UNL     1     -33.653   8.206   5.168  1.00 20.00    -0.270 OA
HETATM    5  S9  UNL     1     -32.344   8.469   1.361  1.00 20.00    -0.055 SA
ENDROOT
BRANCH   2   6
HETATM    6  C6  UNL     1     -34.390   5.929   4.792  1.00 20.00     0.032 C 
HETATM    7  C3  UNL     1     -34.535   5.670   6.297  1.00 20.00     0.025 C 
HETATM    8  C4  UNL     1     -35.782   6.203   4.197  1.00 20.00     0.025 C 
HETATM    9  C5  UNL     1     -33.788   4.699   4.098  1.00 20.00     0.025 C 
ENDBRANCH   2   6
TORSDOF 1
ENDMDL
MODEL 2
REMARK VINA RESULT:      -3.6      0.094      1.470
REMARK  1 active torsions:
REMARK  status: ('A' for Active; 'I' for Inactive)
REMARK    1  A    between atoms: C2_2  and  C6_6 
REMARK       I    between atoms: C2_2  and  N7_7 
ROOT
HETATM    1  C1  UNL     1     -32.459   7.642   2.725  1.00 20.00     0.166 C 
HETATM    2  C2  UNL     1     -33.485   7.206   4.619  1.00 20.00     0.252 C 
HETATM    3  N7  UNL     1     -32.482   6.978   3.693  1.00 20.00    -0.199 NA
HETATM    4  O8  UNL     1     -33.684   8.266   5.214  1.00 20.00    -0.270 OA
HETATM    5  S9  UNL     1     -32.397   8.523   1.400  1.00 20.00    -0.055 SA
ENDROOT
BRANCH   2   6
HETATM    6  C6  UNL     1     -34.382   5.973   4.859  1.00 20.00     0.032 C 
HETATM    7  C3  UNL     1     -35.749   6.198   4.199  1.00 20.00     0.025 C 
HETATM    8  C4  UNL     1     -33.732   4.722   4.245  1.00 20.00     0.025 C 
HETATM    9  C5  UNL     1     -34.553   5.752   6.368  1.00 20.00     0.025 C 
ENDBRANCH   2   6
TORSDOF 1
ENDMDL
MODEL 3
REMARK VINA RESULT:      -3.5     15.916     16.717
REMARK  1 active torsions:
REMARK  status: ('A' for Active; 'I' for Inactive)
REMARK    1  A    between atoms: C2_2  and  C6_6 
REMARK       I    between atoms: C2_2  and  N7_7 
ROOT
HETATM    1  C1  UNL     1     -21.903  17.577   8.414  1.00 20.00     0.166 C 
HETATM    2  C2  UNL     1     -22.479  17.937  10.504  1.00 20.00     0.252 C 
HETATM    3  N7  UNL     1     -22.356  17.117   9.395  1.00 20.00    -0.199 NA
HETATM    4  O8  UNL     1     -21.553  18.513  11.076  1.00 20.00    -0.270 OA
HETATM    5  S9  UNL     1     -21.294  18.165   7.066  1.00 20.00    -0.055 SA
ENDROOT
BRANCH   2   6
HETATM    6  C6  UNL     1     -23.936  18.084  10.993  1.00 20.00     0.032 C 
HETATM    7  C3  UNL     1     -24.552  16.692  11.192  1.00 20.00     0.025 C 
HETATM    8  C4  UNL     1     -23.968  18.839  12.332  1.00 20.00     0.025 C 
HETATM    9  C5  UNL     1     -24.745  18.877   9.957  1.00 20.00     0.025 C 
ENDBRANCH   2   6
TORSDOF 1
ENDMDL
MODEL 4
REMARK VINA RESULT:      -3.4     12.054     12.789
REMARK  1 active torsions:
REMARK  status: ('A' for Active; 'I' for Inactive)
REMARK    1  A    between atoms: C2_2  and  C6_6 
REMARK       I    between atoms: C2_2  and  N7_7 
ROOT
HETATM    1  C1  UNL     1     -33.340  16.613  -2.936  1.00 20.00     0.166 C 
HETATM    2  C2  UNL     1     -33.994  15.103  -4.393  1.00 20.00     0.252 C 
HETATM    3  N7  UNL     1     -33.166  16.139  -3.997  1.00 20.00    -0.199 NA
HETATM    4  O8  UNL     1     -34.119  14.023  -3.814  1.00 20.00    -0.270 OA
HETATM    5  S9  UNL     1     -33.547  17.282  -1.506  1.00 20.00    -0.055 SA
ENDROOT
BRANCH   2   6
HETATM    6  C6  UNL     1     -34.790  15.419  -5.677  1.00 20.00     0.032 C 
HETATM    7  C3  UNL     1     -35.988  14.466  -5.784  1.00 20.00     0.025 C 
HETATM    8  C4  UNL     1     -35.307  16.867  -5.631  1.00 20.00     0.025 C 
HETATM    9  C5  UNL     1     -33.875  15.258  -6.898  1.00 20.00     0.025 C 
ENDBRANCH   2   6
TORSDOF 1
ENDMDL
MODEL 5
REMARK VINA RESULT:      -3.4     12.057     12.825
REMARK  1 active torsions:
REMARK  status: ('A' for Active; 'I' for Inactive)
REMARK    1  A    between atoms: C2_2  and  C6_6 
REMARK       I    between atoms: C2_2  and  N7_7 
ROOT
HETATM    1  C1  UNL     1     -33.337  16.609  -2.931  1.00 20.00     0.166 C 
HETATM    2  C2  UNL     1     -33.994  15.107  -4.395  1.00 20.00     0.252 C 
HETATM    3  N7  UNL     1     -33.158  16.135  -3.990  1.00 20.00    -0.199 NA
HETATM    4  O8  UNL     1     -34.134  14.028  -3.818  1.00 20.00    -0.270 OA
HETATM    5  S9  UNL     1     -33.550  17.278  -1.502  1.00 20.00    -0.055 SA
ENDROOT
BRANCH   2   6
HETATM    6  C6  UNL     1     -34.776  15.433  -5.686  1.00 20.00     0.032 C 
HETATM    7  C3  UNL     1     -35.266  16.886  -5.634  1.00 20.00     0.025 C 
HETATM    8  C4  UNL     1     -33.863  15.258  -6.911  1.00 20.00     0.025 C 
HETATM    9  C5  UNL     1     -35.969  14.476  -5.815  1.00 20.00     0.025 C 
ENDBRANCH   2   6
TORSDOF 1
ENDMDL
MODEL 6
REMARK VINA RESULT:      -3.3      9.668     10.473
REMARK  1 active torsions:
REMARK  status: ('A' for Active; 'I' for Inactive)
REMARK    1  A    between atoms: C2_2  and  C6_6 
REMARK       I    between atoms: C2_2  and  N7_7 
ROOT
HETATM    1  C1  UNL     1     -39.918  11.978   5.488  1.00 20.00     0.166 C 
HETATM    2  C2  UNL     1     -40.992  13.406   6.767  1.00 20.00     0.252 C 
HETATM    3  N7  UNL     1     -40.548  12.129   6.467  1.00 20.00    -0.199 NA
HETATM    4  O8  UNL     1     -40.273  14.390   6.951  1.00 20.00    -0.270 OA
HETATM    5  S9  UNL     1     -39.061  11.733   4.168  1.00 20.00    -0.055 SA
ENDROOT
BRANCH   2   6
HETATM    6  C6  UNL     1     -42.529  13.510   6.856  1.00 20.00     0.032 C 
HETATM    7  C3  UNL     1     -43.119  12.126   7.159  1.00 20.00     0.025 C 
HETATM    8  C4  UNL     1     -42.926  14.479   7.982  1.00 20.00     0.025 C 
HETATM    9  C5  UNL     1     -43.083  14.042   5.526  1.00 20.00     0.025 C 
ENDBRANCH   2   6
TORSDOF 1
ENDMDL
MODEL 7
REMARK VINA RESULT:      -3.2     10.566     11.212
REMARK  1 active torsions:
REMARK  status: ('A' for Active; 'I' for Inactive)
REMARK    1  A    between atoms: C2_2  and  C6_6 
REMARK       I    between atoms: C2_2  and  N7_7 
ROOT
HETATM    1  C1  UNL     1     -41.273  15.961   7.922  1.00 20.00     0.166 C 
HETATM    2  C2  UNL     1     -40.572  13.940   7.419  1.00 20.00     0.252 C 
HETATM    3  N7  UNL     1     -40.700  15.291   7.146  1.00 20.00    -0.199 NA
HETATM    4  O8  UNL     1     -40.015  13.458   8.406  1.00 20.00    -0.270 OA
HETATM    5  S9  UNL     1     -42.044  16.901   8.951  1.00 20.00    -0.055 SA
ENDROOT
BRANCH   2   6
HETATM    6  C6  UNL     1     -41.214  13.040   6.342  1.00 20.00     0.032 C 
HETATM    7  C3  UNL     1     -42.479  12.383   6.911  1.00 20.00     0.025 C 
HETATM    8  C4  UNL     1     -41.598  13.881   5.113  1.00 20.00     0.025 C 
HETATM    9  C5  UNL     1     -40.207  11.964   5.910  1.00 20.00     0.025 C 
ENDBRANCH   2   6
TORSDOF 1
ENDMDL
MODEL 8
REMARK VINA RESULT:      -3.1     10.204     10.950
REMARK  1 active torsions:
REMARK  status: ('A' for Active; 'I' for Inactive)
REMARK    1  A    between atoms: C2_2  and  C6_6 
REMARK       I    between atoms: C2_2  and  N7_7 
ROOT
HETATM    1  C1  UNL     1     -40.414  12.714   5.208  1.00 20.00     0.166 C 
HETATM    2  C2  UNL     1     -41.811  13.193   6.836  1.00 20.00     0.252 C 
HETATM    3  N7  UNL     1     -41.286  13.411   5.573  1.00 20.00    -0.199 NA
HETATM    4  O8  UNL     1     -42.340  12.150   7.222  1.00 20.00    -0.270 OA
HETATM    5  S9  UNL     1     -39.230  11.790   4.679  1.00 20.00    -0.055 SA
ENDROOT
BRANCH   2   6
HETATM    6  C6  UNL     1     -41.673  14.414   7.770  1.00 20.00     0.032 C 
HETATM    7  C3  UNL     1     -42.807  14.398   8.804  1.00 20.00     0.025 C 
HETATM    8  C4  UNL     1     -40.325  14.362   8.508  1.00 20.00     0.025 C 
HETATM    9  C5  UNL     1     -41.733  15.703   6.938  1.00 20.00     0.025 C 
ENDBRANCH   2   6
TORSDOF 1
ENDMDL
MODEL 9
REMARK VINA RESULT:      -3.0     10.823     11.558
REMARK  1 active torsions:
REMARK  status: ('A' for Active; 'I' for Inactive)
REMARK    1  A    between atoms: C2_2  and  C6_6 
REMARK       I    between atoms: C2_2  and  N7_7 
ROOT
HETATM    1  C1  UNL     1     -42.896  16.035   5.177  1.00 20.00     0.166 C 
HETATM    2  C2  UNL     1     -41.915  14.091   4.877  1.00 20.00     0.252 C 
HETATM    3  N7  UNL     1     -42.960  14.874   5.340  1.00 20.00    -0.199 NA
HETATM    4  O8  UNL     1     -41.543  14.013   3.706  1.00 20.00    -0.270 OA
HETATM    5  S9  UNL     1     -42.845  17.614   4.975  1.00 20.00    -0.055 SA
ENDROOT
BRANCH   2   6
HETATM    6  C6  UNL     1     -41.217  13.287   5.995  1.00 20.00     0.032 C 
HETATM    7  C3  UNL     1     -40.205  12.317   5.371  1.00 20.00     0.025 C 
HETATM    8  C4  UNL     1     -40.475  14.242   6.944  1.00 20.00     0.025 C 
HETATM    9  C5  UNL     1     -42.270  12.509   6.798  1.00 20.00     0.025 C 
ENDBRANCH   2   6
TORSDOF 1
ENDMDL
