MODEL 1
REMARK VINA RESULT:      -4.5      0.000      0.000
REMARK  2 active torsions:
REMARK  status: ('A' for Active; 'I' for Inactive)
REMARK    1  A    between atoms: C4_4  and  C11_11 
REMARK    2  A    between atoms: C10_10  and  C11_11 
ROOT
HETATM    1  C1  UNL     1     -33.411   7.239   5.930  1.00 20.00     0.008 C 
HETATM    2  C2  UNL     1     -34.549   6.502   6.639  1.00 20.00     0.035 C 
HETATM    3  C3  UNL     1     -33.835   6.105   3.711  1.00 20.00     0.040 C 
HETATM    4  C4  UNL     1     -33.728   7.453   4.442  1.00 20.00    -0.004 C 
HETATM    5  C5  UNL     1     -35.030   5.301   5.895  1.00 20.00     0.151 A 
HETATM    6  C6  UNL     1     -34.708   5.128   4.435  1.00 20.00     0.151 A 
HETATM    7  O12 UNL     1     -34.014   4.394   5.463  1.00 20.00    -0.375 OA
ENDROOT
BRANCH   4   8
HETATM    8  C11 UNL     1     -32.669   8.333   3.784  1.00 20.00    -0.044 C 
HETATM    9  C8  UNL     1     -31.933   9.135   4.876  1.00 20.00     0.015 C 
HETATM   10  C9  UNL     1     -31.648   7.432   3.057  1.00 20.00     0.015 C 
BRANCH   8  11
HETATM   11  C10 UNL     1     -33.371   9.289   2.778  1.00 20.00     0.004 C 
HETATM   12  C7  UNL     1     -32.768   9.358   1.380  1.00 20.00     0.006 C 
ENDBRANCH   8  11
ENDBRANCH   4   8
TORSDOF 2
ENDMDL
MODEL 2
REMARK VINA RESULT:      -4.3     11.740     12.992
REMARK  2 active torsions:
REMARK  status: ('A' for Active; 'I' for Inactive)
REMARK    1  A    between atoms: C4_4  and  C11_11 
REMARK    2  A    between atoms: C10_10  and  C11_11 
ROOT
HETATM    1  C1  UNL     1     -35.014  17.272  -4.622  1.00 20.00     0.008 C 
HETATM    2  C2  UNL     1     -34.851  16.487  -5.925  1.00 20.00     0.035 C 
HETATM    3  C3  UNL     1     -33.388  15.818  -3.346  1.00 20.00     0.040 C 
HETATM    4  C4  UNL     1     -33.721  17.251  -3.793  1.00 20.00    -0.004 C 
HETATM    5  C5  UNL     1     -34.222  15.147  -5.732  1.00 20.00     0.151 A 
HETATM    6  C6  UNL     1     -33.464  14.834  -4.470  1.00 20.00     0.151 A 
HETATM    7  O12 UNL     1     -34.796  14.336  -4.705  1.00 20.00    -0.375 OA
ENDROOT
BRANCH   4   8
HETATM    8  C11 UNL     1     -33.838  18.174  -2.583  1.00 20.00    -0.044 C 
HETATM    9  C8  UNL     1     -32.749  19.261  -2.674  1.00 20.00     0.015 C 
HETATM   10  C9  UNL     1     -35.222  18.855  -2.603  1.00 20.00     0.015 C 
BRANCH   8  11
HETATM   11  C10 UNL     1     -33.662  17.325  -1.292  1.00 20.00     0.004 C 
HETATM   12  C7  UNL     1     -33.720  18.086   0.028  1.00 20.00     0.006 C 
ENDBRANCH   8  11
ENDBRANCH   4   8
TORSDOF 2
ENDMDL
MODEL 3
REMARK VINA RESULT:      -4.1     11.767     13.218
REMARK  2 active torsions:
REMARK  status: ('A' for Active; 'I' for Inactive)
REMARK    1  A    between atoms: C4_4  and  C11_11 
REMARK    2  A    between atoms: C10_10  and  C11_11 
ROOT
HETATM    1  C1  UNL     1     -33.370  15.829  -3.625  1.00 20.00     0.008 C 
HETATM    2  C2  UNL     1     -33.982  14.548  -4.196  1.00 20.00     0.035 C 
HETATM    3  C3  UNL     1     -34.655  17.340  -5.192  1.00 20.00     0.040 C 
HETATM    4  C4  UNL     1     -34.352  17.006  -3.722  1.00 20.00    -0.004 C 
HETATM    5  C5  UNL     1     -34.635  14.745  -5.524  1.00 20.00     0.151 A 
HETATM    6  C6  UNL     1     -35.003  16.127  -5.995  1.00 20.00     0.151 A 
HETATM    7  O12 UNL     1     -33.850  15.427  -6.504  1.00 20.00    -0.375 OA
ENDROOT
BRANCH   4   8
HETATM    8  C11 UNL     1     -33.800  18.233  -3.000  1.00 20.00    -0.044 C 
HETATM    9  C8  UNL     1     -32.934  19.046  -3.983  1.00 20.00     0.015 C 
HETATM   10  C9  UNL     1     -34.978  19.113  -2.533  1.00 20.00     0.015 C 
BRANCH   8  11
HETATM   11  C10 UNL     1     -32.955  17.757  -1.786  1.00 20.00     0.004 C 
HETATM   12  C7  UNL     1     -33.642  17.802  -0.426  1.00 20.00     0.006 C 
ENDBRANCH   8  11
ENDBRANCH   4   8
TORSDOF 2
ENDMDL
MODEL 4
REMARK VINA RESULT:      -4.0     10.441     11.284
REMARK  2 active torsions:
REMARK  status: ('A' for Active; 'I' for Inactive)
REMARK    1  A    between atoms: C4_4  and  C11_11 
REMARK    2  A    between atoms: C10_10  and  C11_11 
ROOT
HETATM    1  C1  UNL     1     -40.526  14.013   8.426  1.00 20.00     0.008 C 
HETATM    2  C2  UNL     1     -40.050  15.196   9.270  1.00 20.00     0.035 C 
HETATM    3  C3  UNL     1     -41.736  15.477   6.757  1.00 20.00     0.040 C 
HETATM    4  C4  UNL     1     -40.653  14.402   6.944  1.00 20.00    -0.004 C 
HETATM    5  C5  UNL     1     -40.793  16.460   8.989  1.00 20.00     0.151 A 
HETATM    6  C6  UNL     1     -41.593  16.610   7.723  1.00 20.00     0.151 A 
HETATM    7  O12 UNL     1     -42.217  16.356   8.998  1.00 20.00    -0.375 OA
ENDROOT
BRANCH   4   8
HETATM    8  C11 UNL     1     -40.963  13.177   6.087  1.00 20.00    -0.044 C 
HETATM    9  C8  UNL     1     -42.151  12.417   6.710  1.00 20.00     0.015 C 
HETATM   10  C9  UNL     1     -41.360  13.643   4.671  1.00 20.00     0.015 C 
BRANCH   8  11
HETATM   11  C10 UNL     1     -39.699  12.275   6.034  1.00 20.00     0.004 C 
HETATM   12  C7  UNL     1     -39.292  11.763   4.656  1.00 20.00     0.006 C 
ENDBRANCH   8  11
ENDBRANCH   4   8
TORSDOF 2
ENDMDL
MODEL 5
REMARK VINA RESULT:      -3.8     11.714     13.335
REMARK  2 active torsions:
REMARK  status: ('A' for Active; 'I' for Inactive)
REMARK    1  A    between atoms: C4_4  and  C11_11 
REMARK    2  A    between atoms: C10_10  and  C11_11 
ROOT
HETATM    1  C1  UNL     1     -33.696  16.084  -3.062  1.00 20.00     0.008 C 
HETATM    2  C2  UNL     1     -32.971  17.207  -2.318  1.00 20.00     0.035 C 
HETATM    3  C3  UNL     1     -35.199  17.670  -4.333  1.00 20.00     0.040 C 
HETATM    4  C4  UNL     1     -34.157  16.546  -4.453  1.00 20.00    -0.004 C 
HETATM    5  C5  UNL     1     -33.696  18.511  -2.365  1.00 20.00     0.151 A 
HETATM    6  C6  UNL     1     -34.771  18.750  -3.391  1.00 20.00     0.151 A 
HETATM    7  O12 UNL     1     -35.080  18.462  -2.012  1.00 20.00    -0.375 OA
ENDROOT
BRANCH   4   8
HETATM    8  C11 UNL     1     -34.726  15.375  -5.252  1.00 20.00    -0.044 C 
HETATM    9  C8  UNL     1     -34.710  14.111  -4.370  1.00 20.00     0.015 C 
HETATM   10  C9  UNL     1     -36.185  15.693  -5.638  1.00 20.00     0.015 C 
BRANCH   8  11
HETATM   11  C10 UNL     1     -33.854  15.170  -6.522  1.00 20.00     0.004 C 
HETATM   12  C7  UNL     1     -34.243  15.989  -7.748  1.00 20.00     0.006 C 
ENDBRANCH   8  11
ENDBRANCH   4   8
TORSDOF 2
ENDMDL
MODEL 6
REMARK VINA RESULT:      -3.7     10.535     11.442
REMARK  2 active torsions:
REMARK  status: ('A' for Active; 'I' for Inactive)
REMARK    1  A    between atoms: C4_4  and  C11_11 
REMARK    2  A    between atoms: C10_10  and  C11_11 
ROOT
HETATM    1  C1  UNL     1     -40.249  14.340   8.469  1.00 20.00     0.008 C 
HETATM    2  C2  UNL     1     -40.144  15.199   9.730  1.00 20.00     0.035 C 
HETATM    3  C3  UNL     1     -42.607  13.585   8.978  1.00 20.00     0.040 C 
HETATM    4  C4  UNL     1     -41.696  14.281   7.955  1.00 20.00    -0.004 C 
HETATM    5  C5  UNL     1     -41.186  14.882  10.750  1.00 20.00     0.151 A 
HETATM    6  C6  UNL     1     -42.424  14.117  10.365  1.00 20.00     0.151 A 
HETATM    7  O12 UNL     1     -41.332  13.498  11.075  1.00 20.00    -0.375 OA
ENDROOT
BRANCH   4   8
HETATM    8  C11 UNL     1     -41.763  13.566   6.608  1.00 20.00    -0.044 C 
HETATM    9  C8  UNL     1     -42.562  12.257   6.774  1.00 20.00     0.015 C 
HETATM   10  C9  UNL     1     -42.498  14.469   5.595  1.00 20.00     0.015 C 
BRANCH   8  11
HETATM   11  C10 UNL     1     -40.314  13.269   6.129  1.00 20.00     0.004 C 
HETATM   12  C7  UNL     1     -39.998  11.815   5.797  1.00 20.00     0.006 C 
ENDBRANCH   8  11
ENDBRANCH   4   8
TORSDOF 2
ENDMDL
MODEL 7
REMARK VINA RESULT:      -3.6     11.697     13.269
REMARK  2 active torsions:
REMARK  status: ('A' for Active; 'I' for Inactive)
REMARK    1  A    between atoms: C4_4  and  C11_11 
REMARK    2  A    between atoms: C10_10  and  C11_11 
ROOT
HETATM    1  C1  UNL     1     -33.661  16.253  -3.116  1.00 20.00     0.008 C 
HETATM    2  C2  UNL     1     -32.892  17.281  -2.284  1.00 20.00     0.035 C 
HETATM    3  C3  UNL     1     -35.201  17.982  -4.132  1.00 20.00     0.040 C 
HETATM    4  C4  UNL     1     -34.178  16.872  -4.425  1.00 20.00    -0.004 C 
HETATM    5  C5  UNL     1     -33.603  18.586  -2.152  1.00 20.00     0.151 A 
HETATM    6  C6  UNL     1     -34.719  18.947  -3.095  1.00 20.00     0.151 A 
HETATM    7  O12 UNL     1     -34.970  18.507  -1.745  1.00 20.00    -0.375 OA
ENDROOT
BRANCH   4   8
HETATM    8  C11 UNL     1     -34.794  15.802  -5.323  1.00 20.00    -0.044 C 
HETATM    9  C8  UNL     1     -36.289  16.119  -5.527  1.00 20.00     0.015 C 
HETATM   10  C9  UNL     1     -34.089  15.832  -6.695  1.00 20.00     0.015 C 
BRANCH   8  11
HETATM   11  C10 UNL     1     -34.614  14.417  -4.642  1.00 20.00     0.004 C 
HETATM   12  C7  UNL     1     -35.860  13.544  -4.546  1.00 20.00     0.006 C 
ENDBRANCH   8  11
ENDBRANCH   4   8
TORSDOF 2
ENDMDL
MODEL 8
REMARK VINA RESULT:      -3.6     13.149     14.133
REMARK  2 active torsions:
REMARK  status: ('A' for Active; 'I' for Inactive)
REMARK    1  A    between atoms: C4_4  and  C11_11 
REMARK    2  A    between atoms: C10_10  and  C11_11 
ROOT
HETATM    1  C1  UNL     1     -25.682  -1.383  11.991  1.00 20.00     0.008 C 
HETATM    2  C2  UNL     1     -26.681  -0.247  11.763  1.00 20.00     0.035 C 
HETATM    3  C3  UNL     1     -26.731  -2.878  10.243  1.00 20.00     0.040 C 
HETATM    4  C4  UNL     1     -25.440  -2.178  10.698  1.00 20.00    -0.004 C 
HETATM    5  C5  UNL     1     -27.905  -0.675  11.023  1.00 20.00     0.151 A 
HETATM    6  C6  UNL     1     -27.911  -1.959  10.238  1.00 20.00     0.151 A 
HETATM    7  O12 UNL     1     -28.553  -1.845  11.524  1.00 20.00    -0.375 OA
ENDROOT
BRANCH   4   8
HETATM    8  C11 UNL     1     -24.320  -3.197  10.890  1.00 20.00    -0.044 C 
HETATM    9  C8  UNL     1     -23.784  -3.088  12.332  1.00 20.00     0.015 C 
HETATM   10  C9  UNL     1     -24.890  -4.615  10.680  1.00 20.00     0.015 C 
BRANCH   8  11
HETATM   11  C10 UNL     1     -23.194  -2.899   9.861  1.00 20.00     0.004 C 
HETATM   12  C7  UNL     1     -23.500  -3.244   8.407  1.00 20.00     0.006 C 
ENDBRANCH   8  11
ENDBRANCH   4   8
TORSDOF 2
ENDMDL
MODEL 9
REMARK VINA RESULT:      -3.5     12.162     14.049
REMARK  2 active torsions:
REMARK  status: ('A' for Active; 'I' for Inactive)
REMARK    1  A    between atoms: C4_4  and  C11_11 
REMARK    2  A    between atoms: C10_10  and  C11_11 
ROOT
HETATM    1  C1  UNL     1     -34.803  17.631  -6.445  1.00 20.00     0.008 C 
HETATM    2  C2  UNL     1     -34.810  16.845  -7.757  1.00 20.00     0.035 C 
HETATM    3  C3  UNL     1     -35.209  15.581  -5.022  1.00 20.00     0.040 C 
HETATM    4  C4  UNL     1     -34.274  16.772  -5.285  1.00 20.00    -0.004 C 
HETATM    5  C5  UNL     1     -35.408  15.483  -7.628  1.00 20.00     0.151 A 
HETATM    6  C6  UNL     1     -35.566  14.845  -6.274  1.00 20.00     0.151 A 
HETATM    7  O12 UNL     1     -36.680  15.425  -6.981  1.00 20.00    -0.375 OA
ENDROOT
BRANCH   4   8
HETATM    8  C11 UNL     1     -34.111  17.612  -4.020  1.00 20.00    -0.044 C 
HETATM    9  C8  UNL     1     -33.186  18.807  -4.327  1.00 20.00     0.015 C 
HETATM   10  C9  UNL     1     -35.492  18.150  -3.593  1.00 20.00     0.015 C 
BRANCH   8  11
HETATM   11  C10 UNL     1     -33.501  16.717  -2.905  1.00 20.00     0.004 C 
HETATM   12  C7  UNL     1     -33.616  17.244  -1.479  1.00 20.00     0.006 C 
ENDBRANCH   8  11
ENDBRANCH   4   8
TORSDOF 2
ENDMDL
