MODEL 1
REMARK VINA RESULT:      -4.1      0.000      0.000
REMARK  2 active torsions:
REMARK  status: ('A' for Active; 'I' for Inactive)
REMARK    1  A    between atoms: C3_3  and  C5_5 
REMARK    2  A    between atoms: C4_4  and  C8_8 
ROOT
HETATM    1  C1  UNL     1     -33.772  14.757  -4.891  1.00 20.00     0.023 A 
HETATM    2  C2  UNL     1     -33.289  15.452  -3.745  1.00 20.00     0.016 A 
HETATM    3  C3  UNL     1     -34.534  15.566  -5.704  1.00 20.00     0.043 A 
HETATM    4  C4  UNL     1     -33.700  16.768  -3.726  1.00 20.00    -0.013 A 
HETATM    5  S10 UNL     1     -34.664  17.158  -5.086  1.00 20.00    -0.091 SA
ENDROOT
BRANCH   4   6
HETATM    6  C8  UNL     1     -33.341  17.768  -2.622  1.00 20.00     0.026 A 
HETATM    7  C6  UNL     1     -33.585  17.378  -1.180  1.00 20.00     0.010 A 
HETATM    8  C7  UNL     1     -34.458  18.408  -1.826  1.00 20.00     0.010 A 
ENDBRANCH   4   6
BRANCH   3   9
HETATM    9  C5  UNL     1     -35.188  15.242  -6.931  1.00 20.00     0.277 C 
HETATM   10  O9  UNL     1     -36.020  14.319  -7.058  1.00 20.00    -0.301 OA
ENDBRANCH   3   9
TORSDOF 2
ENDMDL
MODEL 2
REMARK VINA RESULT:      -3.9     11.808     12.618
REMARK  2 active torsions:
REMARK  status: ('A' for Active; 'I' for Inactive)
REMARK    1  A    between atoms: C3_3  and  C5_5 
REMARK    2  A    between atoms: C4_4  and  C8_8 
ROOT
HETATM    1  C1  UNL     1     -32.402   9.044   3.747  1.00 20.00     0.023 A 
HETATM    2  C2  UNL     1     -32.894   8.670   5.031  1.00 20.00     0.016 A 
HETATM    3  C3  UNL     1     -32.434   7.995   2.856  1.00 20.00     0.043 A 
HETATM    4  C4  UNL     1     -33.283   7.348   5.071  1.00 20.00    -0.013 A 
HETATM    5  S10 UNL     1     -33.055   6.567   3.565  1.00 20.00    -0.091 SA
ENDROOT
BRANCH   4   6
HETATM    6  C8  UNL     1     -33.853   6.654   6.313  1.00 20.00     0.026 A 
HETATM    7  C6  UNL     1     -33.830   5.143   6.378  1.00 20.00     0.010 A 
HETATM    8  C7  UNL     1     -35.132   5.855   6.180  1.00 20.00     0.010 A 
ENDBRANCH   4   6
BRANCH   3   9
HETATM    9  C5  UNL     1     -32.030   7.972   1.486  1.00 20.00     0.277 C 
HETATM   10  O9  UNL     1     -32.391   8.811   0.635  1.00 20.00    -0.301 OA
ENDBRANCH   3   9
TORSDOF 2
ENDMDL
MODEL 3
REMARK VINA RESULT:      -3.7      1.152      1.585
REMARK  2 active torsions:
REMARK  status: ('A' for Active; 'I' for Inactive)
REMARK    1  A    between atoms: C3_3  and  C5_5 
REMARK    2  A    between atoms: C4_4  and  C8_8 
ROOT
HETATM    1  C1  UNL     1     -35.211  17.122  -5.311  1.00 20.00     0.023 A 
HETATM    2  C2  UNL     1     -34.753  17.571  -4.039  1.00 20.00     0.016 A 
HETATM    3  C3  UNL     1     -34.713  15.878  -5.629  1.00 20.00     0.043 A 
HETATM    4  C4  UNL     1     -33.923  16.652  -3.433  1.00 20.00    -0.013 A 
HETATM    5  S10 UNL     1     -33.700  15.256  -4.397  1.00 20.00    -0.091 SA
ENDROOT
BRANCH   4   6
HETATM    6  C8  UNL     1     -33.274  16.851  -2.059  1.00 20.00     0.026 A 
HETATM    7  C6  UNL     1     -33.876  17.864  -1.109  1.00 20.00     0.010 A 
HETATM    8  C7  UNL     1     -32.565  18.156  -1.769  1.00 20.00     0.010 A 
ENDBRANCH   4   6
BRANCH   3   9
HETATM    9  C5  UNL     1     -34.937  15.097  -6.804  1.00 20.00     0.277 C 
HETATM   10  O9  UNL     1     -35.929  14.357  -6.974  1.00 20.00    -0.301 OA
ENDBRANCH   3   9
TORSDOF 2
ENDMDL
MODEL 4
REMARK VINA RESULT:      -3.7      3.020      4.851
REMARK  2 active torsions:
REMARK  status: ('A' for Active; 'I' for Inactive)
REMARK    1  A    between atoms: C3_3  and  C5_5 
REMARK    2  A    between atoms: C4_4  and  C8_8 
ROOT
HETATM    1  C1  UNL     1     -33.182  16.783  -2.356  1.00 20.00     0.023 A 
HETATM    2  C2  UNL     1     -33.797  16.011  -3.383  1.00 20.00     0.016 A 
HETATM    3  C3  UNL     1     -33.095  18.116  -2.692  1.00 20.00     0.043 A 
HETATM    4  C4  UNL     1     -34.156  16.784  -4.467  1.00 20.00    -0.013 A 
HETATM    5  S10 UNL     1     -33.752  18.432  -4.241  1.00 20.00    -0.091 SA
ENDROOT
BRANCH   4   6
HETATM    6  C8  UNL     1     -34.835  16.239  -5.727  1.00 20.00     0.026 A 
HETATM    7  C6  UNL     1     -35.239  14.781  -5.764  1.00 20.00     0.010 A 
HETATM    8  C7  UNL     1     -34.083  15.250  -6.592  1.00 20.00     0.010 A 
ENDBRANCH   4   6
BRANCH   3   9
HETATM    9  C5  UNL     1     -32.550  19.196  -1.935  1.00 20.00     0.277 C 
HETATM   10  O9  UNL     1     -31.494  19.123  -1.271  1.00 20.00    -0.301 OA
ENDBRANCH   3   9
TORSDOF 2
ENDMDL
MODEL 5
REMARK VINA RESULT:      -3.6     12.498     13.863
REMARK  2 active torsions:
REMARK  status: ('A' for Active; 'I' for Inactive)
REMARK    1  A    between atoms: C3_3  and  C5_5 
REMARK    2  A    between atoms: C4_4  and  C8_8 
ROOT
HETATM    1  C1  UNL     1     -42.936  13.448   7.177  1.00 20.00     0.023 A 
HETATM    2  C2  UNL     1     -42.233  12.345   6.613  1.00 20.00     0.016 A 
HETATM    3  C3  UNL     1     -42.109  14.524   7.411  1.00 20.00     0.043 A 
HETATM    4  C4  UNL     1     -40.893  12.621   6.437  1.00 20.00    -0.013 A 
HETATM    5  S10 UNL     1     -40.491  14.203   6.952  1.00 20.00    -0.091 SA
ENDROOT
BRANCH   4   6
HETATM    6  C8  UNL     1     -39.879  11.632   5.852  1.00 20.00     0.026 A 
HETATM    7  C6  UNL     1     -38.475  12.116   5.561  1.00 20.00     0.010 A 
HETATM    8  C7  UNL     1     -39.408  11.827   4.427  1.00 20.00     0.010 A 
ENDBRANCH   4   6
BRANCH   3   9
HETATM    9  C5  UNL     1     -42.435  15.800   7.963  1.00 20.00     0.277 C 
HETATM   10  O9  UNL     1     -41.587  16.651   8.305  1.00 20.00    -0.301 OA
ENDBRANCH   3   9
TORSDOF 2
ENDMDL
MODEL 6
REMARK VINA RESULT:      -3.5     12.156     12.879
REMARK  2 active torsions:
REMARK  status: ('A' for Active; 'I' for Inactive)
REMARK    1  A    between atoms: C3_3  and  C5_5 
REMARK    2  A    between atoms: C4_4  and  C8_8 
ROOT
HETATM    1  C1  UNL     1     -32.747   5.847   2.276  1.00 20.00     0.023 A 
HETATM    2  C2  UNL     1     -33.542   5.243   3.293  1.00 20.00     0.016 A 
HETATM    3  C3  UNL     1     -32.544   7.189   2.507  1.00 20.00     0.043 A 
HETATM    4  C4  UNL     1     -33.917   6.148   4.263  1.00 20.00    -0.013 A 
HETATM    5  S10 UNL     1     -33.310   7.717   3.945  1.00 20.00    -0.091 SA
ENDROOT
BRANCH   4   6
HETATM    6  C8  UNL     1     -34.774   5.798   5.484  1.00 20.00     0.026 A 
HETATM    7  C6  UNL     1     -34.591   6.596   6.756  1.00 20.00     0.010 A 
HETATM    8  C7  UNL     1     -34.106   5.182   6.694  1.00 20.00     0.010 A 
ENDBRANCH   4   6
BRANCH   3   9
HETATM    9  C5  UNL     1     -31.810   8.131   1.726  1.00 20.00     0.277 C 
HETATM   10  O9  UNL     1     -32.211   8.604   0.642  1.00 20.00    -0.301 OA
ENDBRANCH   3   9
TORSDOF 2
ENDMDL
MODEL 7
REMARK VINA RESULT:      -3.5      5.197      7.282
REMARK  2 active torsions:
REMARK  status: ('A' for Active; 'I' for Inactive)
REMARK    1  A    between atoms: C3_3  and  C5_5 
REMARK    2  A    between atoms: C4_4  and  C8_8 
ROOT
HETATM    1  C1  UNL     1     -32.998  19.258   1.778  1.00 20.00     0.023 A 
HETATM    2  C2  UNL     1     -33.551  19.022   0.486  1.00 20.00     0.016 A 
HETATM    3  C3  UNL     1     -31.645  19.005   1.815  1.00 20.00     0.043 A 
HETATM    4  C4  UNL     1     -32.598  18.597  -0.415  1.00 20.00    -0.013 A 
HETATM    5  S10 UNL     1     -31.046  18.484   0.298  1.00 20.00    -0.091 SA
ENDROOT
BRANCH   4   6
HETATM    6  C8  UNL     1     -32.888  18.262  -1.882  1.00 20.00     0.026 A 
HETATM    7  C6  UNL     1     -34.319  18.007  -2.301  1.00 20.00     0.010 A 
HETATM    8  C7  UNL     1     -33.354  16.865  -2.233  1.00 20.00     0.010 A 
ENDBRANCH   4   6
BRANCH   3   9
HETATM    9  C5  UNL     1     -30.742  19.121   2.915  1.00 20.00     0.277 C 
HETATM   10  O9  UNL     1     -29.623  18.569   2.964  1.00 20.00    -0.301 OA
ENDBRANCH   3   9
TORSDOF 2
ENDMDL
MODEL 8
REMARK VINA RESULT:      -3.4      2.614      4.643
REMARK  2 active torsions:
REMARK  status: ('A' for Active; 'I' for Inactive)
REMARK    1  A    between atoms: C3_3  and  C5_5 
REMARK    2  A    between atoms: C4_4  and  C8_8 
ROOT
HETATM    1  C1  UNL     1     -33.401  16.723  -2.496  1.00 20.00     0.023 A 
HETATM    2  C2  UNL     1     -33.393  15.735  -3.523  1.00 20.00     0.016 A 
HETATM    3  C3  UNL     1     -34.160  17.819  -2.839  1.00 20.00     0.043 A 
HETATM    4  C4  UNL     1     -34.147  16.115  -4.612  1.00 20.00    -0.013 A 
HETATM    5  S10 UNL     1     -34.860  17.656  -4.393  1.00 20.00    -0.091 SA
ENDROOT
BRANCH   4   6
HETATM    6  C8  UNL     1     -34.330  15.264  -5.873  1.00 20.00     0.026 A 
HETATM    7  C6  UNL     1     -35.207  15.792  -6.988  1.00 20.00     0.010 A 
HETATM    8  C7  UNL     1     -35.686  14.649  -6.148  1.00 20.00     0.010 A 
ENDBRANCH   4   6
BRANCH   3   9
HETATM    9  C5  UNL     1     -34.412  19.006  -2.086  1.00 20.00     0.277 C 
HETATM   10  O9  UNL     1     -34.888  19.014  -0.931  1.00 20.00    -0.301 OA
ENDBRANCH   3   9
TORSDOF 2
ENDMDL
MODEL 9
REMARK VINA RESULT:      -3.4      3.699      5.106
REMARK  2 active torsions:
REMARK  status: ('A' for Active; 'I' for Inactive)
REMARK    1  A    between atoms: C3_3  and  C5_5 
REMARK    2  A    between atoms: C4_4  and  C8_8 
ROOT
HETATM    1  C1  UNL     1     -33.046  17.093  -1.941  1.00 20.00     0.023 A 
HETATM    2  C2  UNL     1     -33.718  16.805  -3.165  1.00 20.00     0.016 A 
HETATM    3  C3  UNL     1     -32.595  18.393  -1.893  1.00 20.00     0.043 A 
HETATM    4  C4  UNL     1     -33.753  17.897  -4.005  1.00 20.00    -0.013 A 
HETATM    5  S10 UNL     1     -32.980  19.261  -3.318  1.00 20.00    -0.091 SA
ENDROOT
BRANCH   4   6
HETATM    6  C8  UNL     1     -34.406  17.898  -5.391  1.00 20.00     0.026 A 
HETATM    7  C6  UNL     1     -34.893  19.210  -5.967  1.00 20.00     0.010 A 
HETATM    8  C7  UNL     1     -35.886  18.191  -5.501  1.00 20.00     0.010 A 
ENDBRANCH   4   6
BRANCH   3   9
HETATM    9  C5  UNL     1     -31.883  19.055  -0.847  1.00 20.00     0.277 C 
HETATM   10  O9  UNL     1     -30.732  18.742  -0.477  1.00 20.00    -0.301 OA
ENDBRANCH   3   9
TORSDOF 2
ENDMDL
