MODEL 1
REMARK VINA RESULT:      -4.2      0.000      0.000
REMARK  2 active torsions:
REMARK  status: ('A' for Active; 'I' for Inactive)
REMARK    1  A    between atoms: C4_4  and  C11_11 
REMARK    2  A    between atoms: C10_10  and  C11_11 
ROOT
HETATM    1  C1  UNL     1     -34.775  17.251  -4.676  1.00 20.00     0.008 C 
HETATM    2  C2  UNL     1     -35.295  16.015  -5.410  1.00 20.00     0.035 C 
HETATM    3  C3  UNL     1     -32.995  15.975  -3.423  1.00 20.00     0.040 C 
HETATM    4  C4  UNL     1     -34.223  16.891  -3.289  1.00 20.00    -0.004 C 
HETATM    5  C5  UNL     1     -34.318  14.882  -5.382  1.00 20.00     0.151 A 
HETATM    6  C6  UNL     1     -33.202  14.841  -4.375  1.00 20.00     0.151 A 
HETATM    7  O12 UNL     1     -34.399  14.085  -4.184  1.00 20.00    -0.375 OA
ENDROOT
BRANCH   4   8
HETATM    8  C11 UNL     1     -33.864  18.151  -2.504  1.00 20.00    -0.044 C 
HETATM    9  C8  UNL     1     -32.949  19.040  -3.372  1.00 20.00     0.015 C 
HETATM   10  C9  UNL     1     -35.156  18.930  -2.185  1.00 20.00     0.015 C 
BRANCH   8  11
HETATM   11  C10 UNL     1     -33.138  17.732  -1.193  1.00 20.00     0.004 C 
HETATM   12  C7  UNL     1     -31.871  18.505  -0.846  1.00 20.00     0.006 C 
ENDBRANCH   8  11
ENDBRANCH   4   8
TORSDOF 2
ENDMDL
MODEL 2
REMARK VINA RESULT:      -4.2      1.135      1.871
REMARK  2 active torsions:
REMARK  status: ('A' for Active; 'I' for Inactive)
REMARK    1  A    between atoms: C4_4  and  C11_11 
REMARK    2  A    between atoms: C10_10  and  C11_11 
ROOT
HETATM    1  C1  UNL     1     -33.656  15.692  -3.414  1.00 20.00     0.008 C 
HETATM    2  C2  UNL     1     -33.504  14.712  -4.578  1.00 20.00     0.035 C 
HETATM    3  C3  UNL     1     -35.149  17.265  -4.702  1.00 20.00     0.040 C 
HETATM    4  C4  UNL     1     -33.837  17.133  -3.912  1.00 20.00    -0.004 C 
HETATM    5  C5  UNL     1     -34.557  14.902  -5.623  1.00 20.00     0.151 A 
HETATM    6  C6  UNL     1     -35.346  16.179  -5.711  1.00 20.00     0.151 A 
HETATM    7  O12 UNL     1     -34.237  15.933  -6.578  1.00 20.00    -0.375 OA
ENDROOT
BRANCH   4   8
HETATM    8  C11 UNL     1     -33.818  18.118  -2.744  1.00 20.00    -0.044 C 
HETATM    9  C8  UNL     1     -32.829  19.258  -3.063  1.00 20.00     0.015 C 
HETATM   10  C9  UNL     1     -35.228  18.717  -2.569  1.00 20.00     0.015 C 
BRANCH   8  11
HETATM   11  C10 UNL     1     -33.381  17.357  -1.459  1.00 20.00     0.004 C 
HETATM   12  C7  UNL     1     -33.786  17.987  -0.132  1.00 20.00     0.006 C 
ENDBRANCH   8  11
ENDBRANCH   4   8
TORSDOF 2
ENDMDL
MODEL 3
REMARK VINA RESULT:      -3.8      1.932      4.681
REMARK  2 active torsions:
REMARK  status: ('A' for Active; 'I' for Inactive)
REMARK    1  A    between atoms: C4_4  and  C11_11 
REMARK    2  A    between atoms: C10_10  and  C11_11 
ROOT
HETATM    1  C1  UNL     1     -33.601  15.850  -3.741  1.00 20.00     0.008 C 
HETATM    2  C2  UNL     1     -33.285  16.643  -2.472  1.00 20.00     0.035 C 
HETATM    3  C3  UNL     1     -34.342  17.883  -5.037  1.00 20.00     0.040 C 
HETATM    4  C4  UNL     1     -34.751  16.490  -4.532  1.00 20.00    -0.004 C 
HETATM    5  C5  UNL     1     -33.145  18.108  -2.735  1.00 20.00     0.151 A 
HETATM    6  C6  UNL     1     -33.701  18.731  -3.986  1.00 20.00     0.151 A 
HETATM    7  O12 UNL     1     -34.402  18.812  -2.745  1.00 20.00    -0.375 OA
ENDROOT
BRANCH   4   8
HETATM    8  C11 UNL     1     -35.166  15.599  -5.702  1.00 20.00    -0.044 C 
HETATM    9  C8  UNL     1     -35.955  14.391  -5.158  1.00 20.00     0.015 C 
HETATM   10  C9  UNL     1     -36.080  16.405  -6.647  1.00 20.00     0.015 C 
BRANCH   8  11
HETATM   11  C10 UNL     1     -33.885  15.128  -6.448  1.00 20.00     0.004 C 
HETATM   12  C7  UNL     1     -33.778  15.516  -7.917  1.00 20.00     0.006 C 
ENDBRANCH   8  11
ENDBRANCH   4   8
TORSDOF 2
ENDMDL
MODEL 4
REMARK VINA RESULT:      -3.8     11.770     12.830
REMARK  2 active torsions:
REMARK  status: ('A' for Active; 'I' for Inactive)
REMARK    1  A    between atoms: C4_4  and  C11_11 
REMARK    2  A    between atoms: C10_10  and  C11_11 
ROOT
HETATM    1  C1  UNL     1     -33.372   5.930   3.783  1.00 20.00     0.008 C 
HETATM    2  C2  UNL     1     -34.406   4.933   4.304  1.00 20.00     0.035 C 
HETATM    3  C3  UNL     1     -33.332   7.273   5.918  1.00 20.00     0.040 C 
HETATM    4  C4  UNL     1     -33.571   7.322   4.400  1.00 20.00    -0.004 C 
HETATM    5  C5  UNL     1     -34.526   4.962   5.795  1.00 20.00     0.151 A 
HETATM    6  C6  UNL     1     -34.030   6.137   6.593  1.00 20.00     0.151 A 
HETATM    7  O12 UNL     1     -35.415   5.988   6.278  1.00 20.00    -0.375 OA
ENDROOT
BRANCH   4   8
HETATM    8  C11 UNL     1     -32.642   8.343   3.746  1.00 20.00    -0.044 C 
HETATM    9  C8  UNL     1     -31.993   9.208   4.846  1.00 20.00     0.015 C 
HETATM   10  C9  UNL     1     -31.531   7.595   2.982  1.00 20.00     0.015 C 
BRANCH   8  11
HETATM   11  C10 UNL     1     -33.477   9.227   2.776  1.00 20.00     0.004 C 
HETATM   12  C7  UNL     1     -32.857   9.502   1.411  1.00 20.00     0.006 C 
ENDBRANCH   8  11
ENDBRANCH   4   8
TORSDOF 2
ENDMDL
MODEL 5
REMARK VINA RESULT:      -3.7     12.453     13.840
REMARK  2 active torsions:
REMARK  status: ('A' for Active; 'I' for Inactive)
REMARK    1  A    between atoms: C4_4  and  C11_11 
REMARK    2  A    between atoms: C10_10  and  C11_11 
ROOT
HETATM    1  C1  UNL     1     -41.507  15.849   6.868  1.00 20.00     0.008 C 
HETATM    2  C2  UNL     1     -40.784  16.827   7.794  1.00 20.00     0.035 C 
HETATM    3  C3  UNL     1     -41.447  13.955   8.532  1.00 20.00     0.040 C 
HETATM    4  C4  UNL     1     -41.055  14.403   7.114  1.00 20.00    -0.004 C 
HETATM    5  C5  UNL     1     -40.806  16.383   9.222  1.00 20.00     0.151 A 
HETATM    6  C6  UNL     1     -41.096  14.953   9.588  1.00 20.00     0.151 A 
HETATM    7  O12 UNL     1     -39.758  15.450   9.549  1.00 20.00    -0.375 OA
ENDROOT
BRANCH   4   8
HETATM    8  C11 UNL     1     -41.657  13.461   6.072  1.00 20.00    -0.044 C 
HETATM    9  C8  UNL     1     -42.473  12.369   6.794  1.00 20.00     0.015 C 
HETATM   10  C9  UNL     1     -42.604  14.265   5.158  1.00 20.00     0.015 C 
BRANCH   8  11
HETATM   11  C10 UNL     1     -40.502  12.828   5.247  1.00 20.00     0.004 C 
HETATM   12  C7  UNL     1     -39.712  11.719   5.931  1.00 20.00     0.006 C 
ENDBRANCH   8  11
ENDBRANCH   4   8
TORSDOF 2
ENDMDL
MODEL 6
REMARK VINA RESULT:      -3.7     24.116     25.424
REMARK  2 active torsions:
REMARK  status: ('A' for Active; 'I' for Inactive)
REMARK    1  A    between atoms: C4_4  and  C11_11 
REMARK    2  A    between atoms: C10_10  and  C11_11 
ROOT
HETATM    1  C1  UNL     1     -26.913  -3.393  10.561  1.00 20.00     0.008 C 
HETATM    2  C2  UNL     1     -28.174  -2.676  10.075  1.00 20.00     0.035 C 
HETATM    3  C3  UNL     1     -25.911  -1.312  11.577  1.00 20.00     0.040 C 
HETATM    4  C4  UNL     1     -25.699  -2.453  10.566  1.00 20.00    -0.004 C 
HETATM    5  C5  UNL     1     -28.383  -1.363  10.759  1.00 20.00     0.151 A 
HETATM    6  C6  UNL     1     -27.255  -0.667  11.470  1.00 20.00     0.151 A 
HETATM    7  O12 UNL     1     -27.652  -0.279  10.154  1.00 20.00    -0.375 OA
ENDROOT
BRANCH   4   8
HETATM    8  C11 UNL     1     -24.420  -3.221  10.891  1.00 20.00    -0.044 C 
HETATM    9  C8  UNL     1     -23.983  -2.885  12.332  1.00 20.00     0.015 C 
HETATM   10  C9  UNL     1     -24.705  -4.734  10.799  1.00 20.00     0.015 C 
BRANCH   8  11
HETATM   11  C10 UNL     1     -23.319  -2.807   9.874  1.00 20.00     0.004 C 
HETATM   12  C7  UNL     1     -23.536  -3.241   8.429  1.00 20.00     0.006 C 
ENDBRANCH   8  11
ENDBRANCH   4   8
TORSDOF 2
ENDMDL
MODEL 7
REMARK VINA RESULT:      -3.7      1.966      4.667
REMARK  2 active torsions:
REMARK  status: ('A' for Active; 'I' for Inactive)
REMARK    1  A    between atoms: C4_4  and  C11_11 
REMARK    2  A    between atoms: C10_10  and  C11_11 
ROOT
HETATM    1  C1  UNL     1     -33.640  15.784  -3.690  1.00 20.00     0.008 C 
HETATM    2  C2  UNL     1     -33.280  16.677  -2.502  1.00 20.00     0.035 C 
HETATM    3  C3  UNL     1     -34.272  17.720  -5.178  1.00 20.00     0.040 C 
HETATM    4  C4  UNL     1     -34.755  16.406  -4.543  1.00 20.00    -0.004 C 
HETATM    5  C5  UNL     1     -33.062  18.100  -2.904  1.00 20.00     0.151 A 
HETATM    6  C6  UNL     1     -33.585  18.630  -4.211  1.00 20.00     0.151 A 
HETATM    7  O12 UNL     1     -34.280  18.867  -2.986  1.00 20.00    -0.375 OA
ENDROOT
BRANCH   4   8
HETATM    8  C11 UNL     1     -35.218  15.431  -5.624  1.00 20.00    -0.044 C 
HETATM    9  C8  UNL     1     -34.060  15.189  -6.613  1.00 20.00     0.015 C 
HETATM   10  C9  UNL     1     -35.595  14.090  -4.963  1.00 20.00     0.015 C 
BRANCH   8  11
HETATM   11  C10 UNL     1     -36.445  16.046  -6.356  1.00 20.00     0.004 C 
HETATM   12  C7  UNL     1     -37.666  16.343  -5.495  1.00 20.00     0.006 C 
ENDBRANCH   8  11
ENDBRANCH   4   8
TORSDOF 2
ENDMDL
MODEL 8
REMARK VINA RESULT:      -3.7      1.242      1.516
REMARK  2 active torsions:
REMARK  status: ('A' for Active; 'I' for Inactive)
REMARK    1  A    between atoms: C4_4  and  C11_11 
REMARK    2  A    between atoms: C10_10  and  C11_11 
ROOT
HETATM    1  C1  UNL     1     -34.875  17.671  -5.860  1.00 20.00     0.008 C 
HETATM    2  C2  UNL     1     -35.606  16.786  -6.869  1.00 20.00     0.035 C 
HETATM    3  C3  UNL     1     -33.848  15.721  -4.631  1.00 20.00     0.040 C 
HETATM    4  C4  UNL     1     -34.732  16.973  -4.499  1.00 20.00    -0.004 C 
HETATM    5  C5  UNL     1     -35.054  15.397  -6.916  1.00 20.00     0.151 A 
HETATM    6  C6  UNL     1     -34.215  14.854  -5.792  1.00 20.00     0.151 A 
HETATM    7  O12 UNL     1     -35.601  14.528  -5.905  1.00 20.00    -0.375 OA
ENDROOT
BRANCH   4   8
HETATM    8  C11 UNL     1     -34.152  17.928  -3.458  1.00 20.00    -0.044 C 
HETATM    9  C8  UNL     1     -33.179  18.900  -4.154  1.00 20.00     0.015 C 
HETATM   10  C9  UNL     1     -35.301  18.741  -2.828  1.00 20.00     0.015 C 
BRANCH   8  11
HETATM   11  C10 UNL     1     -33.412  17.093  -2.374  1.00 20.00     0.004 C 
HETATM   12  C7  UNL     1     -33.679  17.480  -0.925  1.00 20.00     0.006 C 
ENDBRANCH   8  11
ENDBRANCH   4   8
TORSDOF 2
ENDMDL
MODEL 9
REMARK VINA RESULT:      -3.6      1.867      4.405
REMARK  2 active torsions:
REMARK  status: ('A' for Active; 'I' for Inactive)
REMARK    1  A    between atoms: C4_4  and  C11_11 
REMARK    2  A    between atoms: C10_10  and  C11_11 
ROOT
HETATM    1  C1  UNL     1     -35.308  17.637  -4.306  1.00 20.00     0.008 C 
HETATM    2  C2  UNL     1     -34.829  18.979  -3.752  1.00 20.00     0.035 C 
HETATM    3  C3  UNL     1     -33.542  16.307  -3.092  1.00 20.00     0.040 C 
HETATM    4  C4  UNL     1     -34.145  16.646  -4.464  1.00 20.00    -0.004 C 
HETATM    5  C5  UNL     1     -33.953  18.821  -2.551  1.00 20.00     0.151 A 
HETATM    6  C6  UNL     1     -33.284  17.510  -2.242  1.00 20.00     0.151 A 
HETATM    7  O12 UNL     1     -32.572  18.573  -2.877  1.00 20.00    -0.375 OA
ENDROOT
BRANCH   4   8
HETATM    8  C11 UNL     1     -34.609  15.374  -5.172  1.00 20.00    -0.044 C 
HETATM    9  C8  UNL     1     -34.354  14.165  -4.250  1.00 20.00     0.015 C 
HETATM   10  C9  UNL     1     -36.122  15.477  -5.450  1.00 20.00     0.015 C 
BRANCH   8  11
HETATM   11  C10 UNL     1     -33.815  15.227  -6.502  1.00 20.00     0.004 C 
HETATM   12  C7  UNL     1     -34.257  16.121  -7.654  1.00 20.00     0.006 C 
ENDBRANCH   8  11
ENDBRANCH   4   8
TORSDOF 2
ENDMDL
