MODEL 1
REMARK VINA RESULT:      -5.5      0.000      0.000
REMARK  0 active torsions:
REMARK  status: ('A' for Active; 'I' for Inactive)
ROOT
HETATM    1  C1  UNL     1     -32.156   8.559   3.192  1.00 20.00    -0.027 C 
HETATM    2  C2  UNL     1     -34.764   5.945   6.608  1.00 20.00    -0.027 C 
HETATM    3  C3  UNL     1     -32.194   7.494   2.385  1.00 20.00    -0.001 C 
HETATM    4  C4  UNL     1     -34.777   4.906   5.766  1.00 20.00    -0.001 C 
HETATM    5  C5  UNL     1     -32.759   8.528   4.561  1.00 20.00     0.063 C 
HETATM    6  C6  UNL     1     -34.062   7.222   6.269  1.00 20.00     0.063 C 
HETATM    7  C7  UNL     1     -32.851   6.208   2.791  1.00 20.00     0.300 C 
HETATM    8  C8  UNL     1     -34.101   4.955   4.428  1.00 20.00     0.300 C 
HETATM    9  C9  UNL     1     -33.114   7.105   5.051  1.00 20.00     0.230 C 
HETATM   10  N10 UNL     1     -33.729   6.308   3.972  1.00 20.00     0.100 N 
ENDROOT
TORSDOF 0
ENDMDL
MODEL 2
REMARK VINA RESULT:      -5.5      0.312      3.540
REMARK  0 active torsions:
REMARK  status: ('A' for Active; 'I' for Inactive)
ROOT
HETATM    1  C1  UNL     1     -34.695   5.969   6.596  1.00 20.00    -0.027 C 
HETATM    2  C2  UNL     1     -31.983   8.437   3.153  1.00 20.00    -0.027 C 
HETATM    3  C3  UNL     1     -34.835   4.963   5.727  1.00 20.00    -0.001 C 
HETATM    4  C4  UNL     1     -32.150   7.405   2.318  1.00 20.00    -0.001 C 
HETATM    5  C5  UNL     1     -33.957   7.220   6.235  1.00 20.00     0.063 C 
HETATM    6  C6  UNL     1     -32.602   8.454   4.515  1.00 20.00     0.063 C 
HETATM    7  C7  UNL     1     -34.255   5.015   4.345  1.00 20.00     0.300 C 
HETATM    8  C8  UNL     1     -32.955   6.198   2.694  1.00 20.00     0.300 C 
HETATM    9  C9  UNL     1     -33.679   7.362   4.721  1.00 20.00     0.230 C 
HETATM   10  N10 UNL     1     -33.253   6.077   4.135  1.00 20.00     0.100 N 
ENDROOT
TORSDOF 0
ENDMDL
MODEL 3
REMARK VINA RESULT:      -5.5      0.669      2.140
REMARK  0 active torsions:
REMARK  status: ('A' for Active; 'I' for Inactive)
ROOT
HETATM    1  C1  UNL     1     -32.161   7.259   2.333  1.00 20.00    -0.027 C 
HETATM    2  C2  UNL     1     -34.785   4.963   5.958  1.00 20.00    -0.027 C 
HETATM    3  C3  UNL     1     -32.111   8.354   3.099  1.00 20.00    -0.001 C 
HETATM    4  C4  UNL     1     -34.707   6.081   6.688  1.00 20.00    -0.001 C 
HETATM    5  C5  UNL     1     -32.891   6.028   2.772  1.00 20.00     0.063 C 
HETATM    6  C6  UNL     1     -34.202   4.880   4.583  1.00 20.00     0.063 C 
HETATM    7  C7  UNL     1     -32.767   8.417   4.446  1.00 20.00     0.300 C 
HETATM    8  C8  UNL     1     -34.025   7.317   6.183  1.00 20.00     0.300 C 
HETATM    9  C9  UNL     1     -33.817   6.256   3.989  1.00 20.00     0.230 C 
HETATM   10  N10 UNL     1     -33.167   7.110   5.001  1.00 20.00     0.100 N 
ENDROOT
TORSDOF 0
ENDMDL
MODEL 4
REMARK VINA RESULT:      -5.3      0.625      4.111
REMARK  0 active torsions:
REMARK  status: ('A' for Active; 'I' for Inactive)
ROOT
HETATM    1  C1  UNL     1     -34.945   5.028   5.795  1.00 20.00    -0.027 C 
HETATM    2  C2  UNL     1     -32.200   7.290   2.239  1.00 20.00    -0.027 C 
HETATM    3  C3  UNL     1     -34.744   6.087   6.587  1.00 20.00    -0.001 C 
HETATM    4  C4  UNL     1     -32.028   8.327   3.066  1.00 20.00    -0.001 C 
HETATM    5  C5  UNL     1     -34.338   4.944   4.430  1.00 20.00     0.063 C 
HETATM    6  C6  UNL     1     -32.966   6.073   2.652  1.00 20.00     0.063 C 
HETATM    7  C7  UNL     1     -33.913   7.259   6.158  1.00 20.00     0.300 C 
HETATM    8  C8  UNL     1     -32.597   8.343   4.453  1.00 20.00     0.300 C 
HETATM    9  C9  UNL     1     -33.236   5.998   4.174  1.00 20.00     0.230 C 
HETATM   10  N10 UNL     1     -33.624   7.316   4.712  1.00 20.00     0.100 N 
ENDROOT
TORSDOF 0
ENDMDL
MODEL 5
REMARK VINA RESULT:      -4.5      0.915      2.446
REMARK  0 active torsions:
REMARK  status: ('A' for Active; 'I' for Inactive)
ROOT
HETATM    1  C1  UNL     1     -32.871   5.172   2.266  1.00 20.00    -0.027 C 
HETATM    2  C2  UNL     1     -34.720   6.361   6.790  1.00 20.00    -0.027 C 
HETATM    3  C3  UNL     1     -32.321   6.389   2.199  1.00 20.00    -0.001 C 
HETATM    4  C4  UNL     1     -34.150   7.566   6.679  1.00 20.00    -0.001 C 
HETATM    5  C5  UNL     1     -33.706   4.752   3.435  1.00 20.00     0.063 C 
HETATM    6  C6  UNL     1     -34.630   5.345   5.696  1.00 20.00     0.063 C 
HETATM    7  C7  UNL     1     -32.492   7.403   3.291  1.00 20.00     0.300 C 
HETATM    8  C8  UNL     1     -33.378   7.973   5.460  1.00 20.00     0.300 C 
HETATM    9  C9  UNL     1     -34.125   5.924   4.352  1.00 20.00     0.230 C 
HETATM   10  N10 UNL     1     -33.006   6.862   4.563  1.00 20.00     0.100 N 
ENDROOT
TORSDOF 0
ENDMDL
MODEL 6
REMARK VINA RESULT:      -3.9      0.998      2.497
REMARK  0 active torsions:
REMARK  status: ('A' for Active; 'I' for Inactive)
ROOT
HETATM    1  C1  UNL     1     -33.397   8.845   5.921  1.00 20.00    -0.027 C 
HETATM    2  C2  UNL     1     -34.162   4.321   3.859  1.00 20.00    -0.027 C 
HETATM    3  C3  UNL     1     -32.544   9.124   4.931  1.00 20.00    -0.001 C 
HETATM    4  C4  UNL     1     -33.302   4.647   2.888  1.00 20.00    -0.001 C 
HETATM    5  C5  UNL     1     -34.077   7.515   6.020  1.00 20.00     0.063 C 
HETATM    6  C6  UNL     1     -34.459   5.254   4.991  1.00 20.00     0.063 C 
HETATM    7  C7  UNL     1     -32.223   8.134   3.851  1.00 20.00     0.300 C 
HETATM    8  C8  UNL     1     -32.589   5.965   2.863  1.00 20.00     0.300 C 
HETATM    9  C9  UNL     1     -33.465   6.435   5.098  1.00 20.00     0.230 C 
HETATM   10  N10 UNL     1     -33.148   6.988   3.767  1.00 20.00     0.100 N 
ENDROOT
TORSDOF 0
ENDMDL
MODEL 7
REMARK VINA RESULT:      -3.9     15.997     16.872
REMARK  0 active torsions:
REMARK  status: ('A' for Active; 'I' for Inactive)
ROOT
HETATM    1  C1  UNL     1     -24.982  18.776  12.331  1.00 20.00    -0.027 C 
HETATM    2  C2  UNL     1     -21.393  18.182   8.857  1.00 20.00    -0.027 C 
HETATM    3  C3  UNL     1     -25.819  19.163  11.363  1.00 20.00    -0.001 C 
HETATM    4  C4  UNL     1     -22.267  18.574   7.924  1.00 20.00    -0.001 C 
HETATM    5  C5  UNL     1     -23.555  18.430  12.042  1.00 20.00     0.063 C 
HETATM    6  C6  UNL     1     -21.761  18.133  10.307  1.00 20.00     0.063 C 
HETATM    7  C7  UNL     1     -25.390  19.263   9.929  1.00 20.00     0.300 C 
HETATM    8  C8  UNL     1     -23.670  18.978   8.264  1.00 20.00     0.300 C 
HETATM    9  C9  UNL     1     -23.082  18.868  10.636  1.00 20.00     0.230 C 
HETATM   10  N10 UNL     1     -24.113  18.593   9.618  1.00 20.00     0.100 N 
ENDROOT
TORSDOF 0
ENDMDL
MODEL 8
REMARK VINA RESULT:      -3.9      0.927      2.732
REMARK  0 active torsions:
REMARK  status: ('A' for Active; 'I' for Inactive)
ROOT
HETATM    1  C1  UNL     1     -32.929   5.090   2.309  1.00 20.00    -0.027 C 
HETATM    2  C2  UNL     1     -33.406   8.789   5.684  1.00 20.00    -0.027 C 
HETATM    3  C3  UNL     1     -33.615   4.287   3.130  1.00 20.00    -0.001 C 
HETATM    4  C4  UNL     1     -34.088   7.949   6.471  1.00 20.00    -0.001 C 
HETATM    5  C5  UNL     1     -32.601   6.500   2.685  1.00 20.00     0.063 C 
HETATM    6  C6  UNL     1     -32.838   8.349   4.371  1.00 20.00     0.063 C 
HETATM    7  C7  UNL     1     -34.109   4.748   4.469  1.00 20.00     0.300 C 
HETATM    8  C8  UNL     1     -34.337   6.521   6.087  1.00 20.00     0.300 C 
HETATM    9  C9  UNL     1     -32.830   6.813   4.182  1.00 20.00     0.230 C 
HETATM   10  N10 UNL     1     -34.086   6.210   4.666  1.00 20.00     0.100 N 
ENDROOT
TORSDOF 0
ENDMDL
MODEL 9
REMARK VINA RESULT:      -3.8     12.220     13.618
REMARK  0 active torsions:
REMARK  status: ('A' for Active; 'I' for Inactive)
ROOT
HETATM    1  C1  UNL     1     -33.807  18.036  -1.482  1.00 20.00    -0.027 C 
HETATM    2  C2  UNL     1     -33.869  14.953  -5.456  1.00 20.00    -0.027 C 
HETATM    3  C3  UNL     1     -34.356  18.987  -2.244  1.00 20.00    -0.001 C 
HETATM    4  C4  UNL     1     -34.419  15.935  -6.178  1.00 20.00    -0.001 C 
HETATM    5  C5  UNL     1     -33.453  16.692  -2.038  1.00 20.00     0.063 C 
HETATM    6  C6  UNL     1     -33.484  15.151  -4.023  1.00 20.00     0.063 C 
HETATM    7  C7  UNL     1     -34.665  18.769  -3.695  1.00 20.00     0.300 C 
HETATM    8  C8  UNL     1     -34.694  17.291  -5.600  1.00 20.00     0.300 C 
HETATM    9  C9  UNL     1     -33.475  16.635  -3.583  1.00 20.00     0.230 C 
HETATM   10  N10 UNL     1     -34.640  17.358  -4.127  1.00 20.00     0.100 N 
ENDROOT
TORSDOF 0
ENDMDL
