MODEL 1
REMARK VINA RESULT:      -5.5      0.000      0.000
REMARK  0 active torsions:
REMARK  status: ('A' for Active; 'I' for Inactive)
ROOT
HETATM    1  C1  UNL     1     -34.880   4.991   5.341  1.00 20.00    -0.026 C 
HETATM    2  C2  UNL     1     -32.295   7.850   2.355  1.00 20.00    -0.027 C 
HETATM    3  C3  UNL     1     -34.676   5.818   6.377  1.00 20.00    -0.001 C 
HETATM    4  C4  UNL     1     -32.570   6.587   2.709  1.00 20.00     0.005 C 
HETATM    5  C5  UNL     1     -32.421   8.986   3.326  1.00 20.00     0.057 C 
HETATM    6  C6  UNL     1     -34.214   5.213   4.013  1.00 20.00     0.066 C 
HETATM    7  C7  UNL     1     -33.809   7.042   6.258  1.00 20.00     0.300 C 
HETATM    8  C8  UNL     1     -32.565   8.516   4.780  1.00 20.00     0.277 C 
HETATM    9  C9  UNL     1     -33.056   6.232   4.094  1.00 20.00     0.249 C 
HETATM   10  N10 UNL     1     -33.520   7.407   4.864  1.00 20.00     0.100 N 
ENDROOT
TORSDOF 0
ENDMDL
MODEL 2
REMARK VINA RESULT:      -5.4      0.865      2.211
REMARK  0 active torsions:
REMARK  status: ('A' for Active; 'I' for Inactive)
ROOT
HETATM    1  C1  UNL     1     -34.739   5.362   6.273  1.00 20.00    -0.026 C 
HETATM    2  C2  UNL     1     -32.108   9.031   4.435  1.00 20.00    -0.027 C 
HETATM    3  C3  UNL     1     -34.679   4.684   5.117  1.00 20.00    -0.001 C 
HETATM    4  C4  UNL     1     -33.151   8.702   5.208  1.00 20.00     0.005 C 
HETATM    5  C5  UNL     1     -31.643   8.145   3.318  1.00 20.00     0.057 C 
HETATM    6  C6  UNL     1     -34.192   6.755   6.399  1.00 20.00     0.066 C 
HETATM    7  C7  UNL     1     -34.018   5.258   3.894  1.00 20.00     0.300 C 
HETATM    8  C8  UNL     1     -32.654   7.044   2.968  1.00 20.00     0.277 C 
HETATM    9  C9  UNL     1     -33.902   7.404   5.028  1.00 20.00     0.249 C 
HETATM   10  N10 UNL     1     -33.174   6.425   4.191  1.00 20.00     0.100 N 
ENDROOT
TORSDOF 0
ENDMDL
MODEL 3
REMARK VINA RESULT:      -5.4      0.666      4.058
REMARK  0 active torsions:
REMARK  status: ('A' for Active; 'I' for Inactive)
ROOT
HETATM    1  C1  UNL     1     -32.321   8.766   3.352  1.00 20.00    -0.026 C 
HETATM    2  C2  UNL     1     -34.866   6.009   6.465  1.00 20.00    -0.027 C 
HETATM    3  C3  UNL     1     -32.179   7.744   2.497  1.00 20.00    -0.001 C 
HETATM    4  C4  UNL     1     -33.925   6.956   6.345  1.00 20.00     0.005 C 
HETATM    5  C5  UNL     1     -35.117   5.006   5.378  1.00 20.00     0.057 C 
HETATM    6  C6  UNL     1     -32.957   8.584   4.700  1.00 20.00     0.066 C 
HETATM    7  C7  UNL     1     -32.691   6.365   2.814  1.00 20.00     0.300 C 
HETATM    8  C8  UNL     1     -34.007   4.982   4.318  1.00 20.00     0.277 C 
HETATM    9  C9  UNL     1     -33.085   7.097   5.098  1.00 20.00     0.249 C 
HETATM   10  N10 UNL     1     -33.632   6.349   3.944  1.00 20.00     0.100 N 
ENDROOT
TORSDOF 0
ENDMDL
MODEL 4
REMARK VINA RESULT:      -5.4      0.712      3.489
REMARK  0 active torsions:
REMARK  status: ('A' for Active; 'I' for Inactive)
ROOT
HETATM    1  C1  UNL     1     -32.131   6.874   2.228  1.00 20.00    -0.026 C 
HETATM    2  C2  UNL     1     -34.689   5.020   5.941  1.00 20.00    -0.027 C 
HETATM    3  C3  UNL     1     -32.100   8.086   2.800  1.00 20.00    -0.001 C 
HETATM    4  C4  UNL     1     -34.532   5.039   4.611  1.00 20.00     0.005 C 
HETATM    5  C5  UNL     1     -34.302   6.189   6.797  1.00 20.00     0.057 C 
HETATM    6  C6  UNL     1     -32.924   5.743   2.819  1.00 20.00     0.066 C 
HETATM    7  C7  UNL     1     -32.816   8.374   4.091  1.00 20.00     0.300 C 
HETATM    8  C8  UNL     1     -34.039   7.464   5.984  1.00 20.00     0.277 C 
HETATM    9  C9  UNL     1     -33.926   6.222   3.893  1.00 20.00     0.249 C 
HETATM   10  N10 UNL     1     -33.227   7.155   4.803  1.00 20.00     0.100 N 
ENDROOT
TORSDOF 0
ENDMDL
MODEL 5
REMARK VINA RESULT:      -4.4      1.063      2.612
REMARK  0 active torsions:
REMARK  status: ('A' for Active; 'I' for Inactive)
ROOT
HETATM    1  C1  UNL     1     -34.021   4.280   4.119  1.00 20.00    -0.026 C 
HETATM    2  C2  UNL     1     -33.328   8.792   5.831  1.00 20.00    -0.027 C 
HETATM    3  C3  UNL     1     -33.371   4.567   2.983  1.00 20.00    -0.001 C 
HETATM    4  C4  UNL     1     -34.191   7.774   5.725  1.00 20.00     0.005 C 
HETATM    5  C5  UNL     1     -32.243   9.015   4.820  1.00 20.00     0.057 C 
HETATM    6  C6  UNL     1     -34.312   5.335   5.149  1.00 20.00     0.066 C 
HETATM    7  C7  UNL     1     -32.852   5.948   2.691  1.00 20.00     0.300 C 
HETATM    8  C8  UNL     1     -32.439   8.187   3.542  1.00 20.00     0.277 C 
HETATM    9  C9  UNL     1     -34.107   6.766   4.604  1.00 20.00     0.249 C 
HETATM   10  N10 UNL     1     -32.817   6.812   3.880  1.00 20.00     0.100 N 
ENDROOT
TORSDOF 0
ENDMDL
MODEL 6
REMARK VINA RESULT:      -4.3      1.037      3.200
REMARK  0 active torsions:
REMARK  status: ('A' for Active; 'I' for Inactive)
ROOT
HETATM    1  C1  UNL     1     -32.180   8.972   4.768  1.00 20.00    -0.026 C 
HETATM    2  C2  UNL     1     -33.241   4.568   2.967  1.00 20.00    -0.027 C 
HETATM    3  C3  UNL     1     -33.167   8.887   5.671  1.00 20.00    -0.001 C 
HETATM    4  C4  UNL     1     -32.880   5.823   2.669  1.00 20.00     0.005 C 
HETATM    5  C5  UNL     1     -34.026   4.246   4.204  1.00 20.00     0.057 C 
HETATM    6  C6  UNL     1     -31.986   7.923   3.711  1.00 20.00     0.066 C 
HETATM    7  C7  UNL     1     -34.108   7.714   5.711  1.00 20.00     0.300 C 
HETATM    8  C8  UNL     1     -34.623   5.491   4.874  1.00 20.00     0.277 C 
HETATM    9  C9  UNL     1     -33.207   6.987   3.575  1.00 20.00     0.249 C 
HETATM   10  N10 UNL     1     -33.627   6.565   4.930  1.00 20.00     0.100 N 
ENDROOT
TORSDOF 0
ENDMDL
MODEL 7
REMARK VINA RESULT:      -4.1     15.288     16.147
REMARK  0 active torsions:
REMARK  status: ('A' for Active; 'I' for Inactive)
ROOT
HETATM    1  C1  UNL     1     -23.320  18.916   8.003  1.00 20.00    -0.026 C 
HETATM    2  C2  UNL     1     -25.899  17.961  12.029  1.00 20.00    -0.027 C 
HETATM    3  C3  UNL     1     -22.340  18.084   8.383  1.00 20.00    -0.001 C 
HETATM    4  C4  UNL     1     -25.507  18.911  11.170  1.00 20.00     0.005 C 
HETATM    5  C5  UNL     1     -25.081  16.726  12.266  1.00 20.00     0.057 C 
HETATM    6  C6  UNL     1     -24.484  19.227   8.902  1.00 20.00     0.066 C 
HETATM    7  C7  UNL     1     -22.369  17.375   9.710  1.00 20.00     0.300 C 
HETATM    8  C8  UNL     1     -23.659  16.834  11.697  1.00 20.00     0.277 C 
HETATM    9  C9  UNL     1     -24.238  18.786  10.361  1.00 20.00     0.249 C 
HETATM   10  N10 UNL     1     -23.693  17.410  10.350  1.00 20.00     0.100 N 
ENDROOT
TORSDOF 0
ENDMDL
MODEL 8
REMARK VINA RESULT:      -3.9     11.871     13.370
REMARK  0 active torsions:
REMARK  status: ('A' for Active; 'I' for Inactive)
ROOT
HETATM    1  C1  UNL     1     -33.047  18.112  -2.137  1.00 20.00    -0.026 C 
HETATM    2  C2  UNL     1     -34.759  14.390  -4.779  1.00 20.00    -0.027 C 
HETATM    3  C3  UNL     1     -33.199  18.963  -3.161  1.00 20.00    -0.001 C 
HETATM    4  C4  UNL     1     -33.844  14.774  -3.880  1.00 20.00     0.005 C 
HETATM    5  C5  UNL     1     -35.351  15.354  -5.764  1.00 20.00     0.057 C 
HETATM    6  C6  UNL     1     -33.293  16.638  -2.294  1.00 20.00     0.066 C 
HETATM    7  C7  UNL     1     -33.669  18.503  -4.514  1.00 20.00     0.300 C 
HETATM    8  C8  UNL     1     -34.581  16.680  -5.838  1.00 20.00     0.277 C 
HETATM    9  C9  UNL     1     -33.377  16.207  -3.774  1.00 20.00     0.249 C 
HETATM   10  N10 UNL     1     -34.258  17.156  -4.489  1.00 20.00     0.100 N 
ENDROOT
TORSDOF 0
ENDMDL
MODEL 9
REMARK VINA RESULT:      -3.9     15.589     16.255
REMARK  0 active torsions:
REMARK  status: ('A' for Active; 'I' for Inactive)
ROOT
HETATM    1  C1  UNL     1     -22.029  18.068   8.355  1.00 20.00    -0.026 C 
HETATM    2  C2  UNL     1     -24.848  17.760  12.321  1.00 20.00    -0.027 C 
HETATM    3  C3  UNL     1     -22.897  18.892   7.751  1.00 20.00    -0.001 C 
HETATM    4  C4  UNL     1     -24.055  17.087  11.476  1.00 20.00     0.005 C 
HETATM    5  C5  UNL     1     -25.594  18.989  11.891  1.00 20.00     0.057 C 
HETATM    6  C6  UNL     1     -22.340  17.428   9.678  1.00 20.00     0.066 C 
HETATM    7  C7  UNL     1     -24.211  19.263   8.382  1.00 20.00     0.300 C 
HETATM    8  C8  UNL     1     -25.609  19.176  10.368  1.00 20.00     0.277 C 
HETATM    9  C9  UNL     1     -23.834  17.539  10.052  1.00 20.00     0.249 C 
HETATM   10  N10 UNL     1     -24.275  18.931   9.813  1.00 20.00     0.100 N 
ENDROOT
TORSDOF 0
ENDMDL
