MODEL 1
REMARK VINA RESULT:      -6.1      0.000      0.000
REMARK  0 active torsions:
REMARK  status: ('A' for Active; 'I' for Inactive)
ROOT
HETATM    1  C1  UNL     1     -34.464   6.402   6.258  1.00 20.00     0.030 A 
HETATM    2  C2  UNL     1     -34.855   5.114   5.959  1.00 20.00     0.141 A 
HETATM    3  C3  UNL     1     -33.702   7.097   5.325  1.00 20.00    -0.030 A 
HETATM    4  C4  UNL     1     -33.399   6.452   4.128  1.00 20.00     0.063 A 
HETATM    5  C5  UNL     1     -33.292   8.520   5.593  1.00 20.00     0.041 C 
HETATM    6  C6  UNL     1     -32.556   7.111   3.071  1.00 20.00     0.062 C 
HETATM    7  C7  UNL     1     -32.186   9.012   4.659  1.00 20.00     0.005 C 
HETATM    8  C8  UNL     1     -32.494   8.630   3.216  1.00 20.00     0.006 C 
HETATM    9  N9  UNL     1     -34.536   4.505   4.800  1.00 20.00    -0.162 NA
HETATM   10  N10 UNL     1     -33.797   5.182   3.877  1.00 20.00    -0.155 NA
ENDROOT
TORSDOF 0
ENDMDL
MODEL 2
REMARK VINA RESULT:      -5.9      1.328      3.396
REMARK  0 active torsions:
REMARK  status: ('A' for Active; 'I' for Inactive)
ROOT
HETATM    1  C1  UNL     1     -32.625   8.370   4.494  1.00 20.00     0.030 A 
HETATM    2  C2  UNL     1     -32.087   8.343   3.225  1.00 20.00     0.141 A 
HETATM    3  C3  UNL     1     -33.345   7.264   4.933  1.00 20.00    -0.030 A 
HETATM    4  C4  UNL     1     -33.458   6.180   4.065  1.00 20.00     0.063 A 
HETATM    5  C5  UNL     1     -33.912   7.235   6.327  1.00 20.00     0.041 C 
HETATM    6  C6  UNL     1     -34.242   4.952   4.438  1.00 20.00     0.062 C 
HETATM    7  C7  UNL     1     -34.953   6.134   6.529  1.00 20.00     0.005 C 
HETATM    8  C8  UNL     1     -34.460   4.816   5.944  1.00 20.00     0.006 C 
HETATM    9  N9  UNL     1     -32.224   7.289   2.397  1.00 20.00    -0.162 NA
HETATM   10  N10 UNL     1     -32.920   6.197   2.823  1.00 20.00    -0.155 NA
ENDROOT
TORSDOF 0
ENDMDL
MODEL 3
REMARK VINA RESULT:      -5.6      2.019      3.919
REMARK  0 active torsions:
REMARK  status: ('A' for Active; 'I' for Inactive)
ROOT
HETATM    1  C1  UNL     1     -32.891   6.263   2.766  1.00 20.00     0.030 A 
HETATM    2  C2  UNL     1     -32.244   7.433   2.430  1.00 20.00     0.141 A 
HETATM    3  C3  UNL     1     -33.455   6.158   4.033  1.00 20.00    -0.030 A 
HETATM    4  C4  UNL     1     -33.351   7.259   4.881  1.00 20.00     0.063 A 
HETATM    5  C5  UNL     1     -34.207   4.915   4.425  1.00 20.00     0.041 C 
HETATM    6  C6  UNL     1     -33.904   7.230   6.279  1.00 20.00     0.062 C 
HETATM    7  C7  UNL     1     -34.452   4.811   5.931  1.00 20.00     0.005 C 
HETATM    8  C8  UNL     1     -34.953   6.139   6.486  1.00 20.00     0.006 C 
HETATM    9  N9  UNL     1     -32.143   8.479   3.273  1.00 20.00    -0.162 NA
HETATM   10  N10 UNL     1     -32.701   8.388   4.513  1.00 20.00    -0.155 NA
ENDROOT
TORSDOF 0
ENDMDL
MODEL 4
REMARK VINA RESULT:      -5.5      1.492      2.278
REMARK  0 active torsions:
REMARK  status: ('A' for Active; 'I' for Inactive)
ROOT
HETATM    1  C1  UNL     1     -34.359   5.026   4.615  1.00 20.00     0.030 A 
HETATM    2  C2  UNL     1     -34.948   5.128   5.857  1.00 20.00     0.141 A 
HETATM    3  C3  UNL     1     -33.580   6.086   4.162  1.00 20.00    -0.030 A 
HETATM    4  C4  UNL     1     -33.425   7.182   5.007  1.00 20.00     0.063 A 
HETATM    5  C5  UNL     1     -32.884   5.996   2.830  1.00 20.00     0.041 C 
HETATM    6  C6  UNL     1     -32.628   8.388   4.592  1.00 20.00     0.062 C 
HETATM    7  C7  UNL     1     -32.375   7.347   2.328  1.00 20.00     0.005 C 
HETATM    8  C8  UNL     1     -31.661   8.101   3.444  1.00 20.00     0.006 C 
HETATM    9  N9  UNL     1     -34.796   6.206   6.651  1.00 20.00    -0.162 NA
HETATM   10  N10 UNL     1     -34.028   7.245   6.217  1.00 20.00    -0.155 NA
ENDROOT
TORSDOF 0
ENDMDL
MODEL 5
REMARK VINA RESULT:      -5.5      1.727      3.466
REMARK  0 active torsions:
REMARK  status: ('A' for Active; 'I' for Inactive)
ROOT
HETATM    1  C1  UNL     1     -33.232   8.450   5.712  1.00 20.00     0.030 A 
HETATM    2  C2  UNL     1     -32.411   9.206   4.903  1.00 20.00     0.141 A 
HETATM    3  C3  UNL     1     -33.637   7.198   5.260  1.00 20.00    -0.030 A 
HETATM    4  C4  UNL     1     -33.167   6.775   4.019  1.00 20.00     0.063 A 
HETATM    5  C5  UNL     1     -34.498   6.322   6.130  1.00 20.00     0.041 C 
HETATM    6  C6  UNL     1     -33.574   5.452   3.433  1.00 20.00     0.062 C 
HETATM    7  C7  UNL     1     -35.138   5.162   5.368  1.00 20.00     0.005 C 
HETATM    8  C8  UNL     1     -34.110   4.474   4.477  1.00 20.00     0.006 C 
HETATM    9  N9  UNL     1     -31.981   8.782   3.699  1.00 20.00    -0.162 NA
HETATM   10  N10 UNL     1     -32.367   7.554   3.252  1.00 20.00    -0.155 NA
ENDROOT
TORSDOF 0
ENDMDL
MODEL 6
REMARK VINA RESULT:      -5.5      1.960      4.042
REMARK  0 active torsions:
REMARK  status: ('A' for Active; 'I' for Inactive)
ROOT
HETATM    1  C1  UNL     1     -32.411   7.490   3.096  1.00 20.00     0.030 A 
HETATM    2  C2  UNL     1     -32.047   8.744   3.539  1.00 20.00     0.141 A 
HETATM    3  C3  UNL     1     -33.173   6.685   3.937  1.00 20.00    -0.030 A 
HETATM    4  C4  UNL     1     -33.541   7.209   5.174  1.00 20.00     0.063 A 
HETATM    5  C5  UNL     1     -33.628   5.327   3.475  1.00 20.00     0.041 C 
HETATM    6  C6  UNL     1     -34.337   6.404   6.164  1.00 20.00     0.062 C 
HETATM    7  C7  UNL     1     -34.136   4.445   4.616  1.00 20.00     0.005 C 
HETATM    8  C8  UNL     1     -35.076   5.230   5.523  1.00 20.00     0.006 C 
HETATM    9  N9  UNL     1     -32.402   9.223   4.747  1.00 20.00    -0.162 NA
HETATM   10  N10 UNL     1     -33.155   8.444   5.574  1.00 20.00    -0.155 NA
ENDROOT
TORSDOF 0
ENDMDL
MODEL 7
REMARK VINA RESULT:      -5.4      1.064      2.127
REMARK  0 active torsions:
REMARK  status: ('A' for Active; 'I' for Inactive)
ROOT
HETATM    1  C1  UNL     1     -33.753   5.241   3.835  1.00 20.00     0.030 A 
HETATM    2  C2  UNL     1     -34.520   4.617   4.796  1.00 20.00     0.141 A 
HETATM    3  C3  UNL     1     -33.344   6.551   4.061  1.00 20.00    -0.030 A 
HETATM    4  C4  UNL     1     -33.719   7.147   5.263  1.00 20.00     0.063 A 
HETATM    5  C5  UNL     1     -32.469   7.253   3.058  1.00 20.00     0.041 C 
HETATM    6  C6  UNL     1     -33.350   8.569   5.584  1.00 20.00     0.062 C 
HETATM    7  C7  UNL     1     -32.405   8.765   3.273  1.00 20.00     0.005 C 
HETATM    8  C8  UNL     1     -32.183   9.089   4.745  1.00 20.00     0.006 C 
HETATM    9  N9  UNL     1     -34.883   5.220   5.945  1.00 20.00    -0.162 NA
HETATM   10  N10 UNL     1     -34.480   6.501   6.178  1.00 20.00    -0.155 NA
ENDROOT
TORSDOF 0
ENDMDL
MODEL 8
REMARK VINA RESULT:      -4.5      1.102      2.737
REMARK  0 active torsions:
REMARK  status: ('A' for Active; 'I' for Inactive)
ROOT
HETATM    1  C1  UNL     1     -32.679   6.301   2.871  1.00 20.00     0.030 A 
HETATM    2  C2  UNL     1     -32.913   5.010   2.448  1.00 20.00     0.141 A 
HETATM    3  C3  UNL     1     -33.240   6.715   4.075  1.00 20.00    -0.030 A 
HETATM    4  C4  UNL     1     -33.988   5.786   4.794  1.00 20.00     0.063 A 
HETATM    5  C5  UNL     1     -32.974   8.103   4.594  1.00 20.00     0.041 C 
HETATM    6  C6  UNL     1     -34.658   6.149   6.091  1.00 20.00     0.062 C 
HETATM    7  C7  UNL     1     -33.925   8.516   5.718  1.00 20.00     0.005 C 
HETATM    8  C8  UNL     1     -34.062   7.396   6.743  1.00 20.00     0.006 C 
HETATM    9  N9  UNL     1     -33.654   4.133   3.154  1.00 20.00    -0.162 NA
HETATM   10  N10 UNL     1     -34.199   4.529   4.338  1.00 20.00    -0.155 NA
ENDROOT
TORSDOF 0
ENDMDL
MODEL 9
REMARK VINA RESULT:      -4.1     12.989     13.192
REMARK  0 active torsions:
REMARK  status: ('A' for Active; 'I' for Inactive)
ROOT
HETATM    1  C1  UNL     1     -32.526  19.263   1.668  1.00 20.00     0.030 A 
HETATM    2  C2  UNL     1     -31.163  19.253   1.877  1.00 20.00     0.141 A 
HETATM    3  C3  UNL     1     -33.006  18.912   0.410  1.00 20.00    -0.030 A 
HETATM    4  C4  UNL     1     -32.074  18.549  -0.559  1.00 20.00     0.063 A 
HETATM    5  C5  UNL     1     -34.488  18.868   0.153  1.00 20.00     0.041 C 
HETATM    6  C6  UNL     1     -32.495  18.183  -1.956  1.00 20.00     0.062 C 
HETATM    7  C7  UNL     1     -34.838  18.817  -1.334  1.00 20.00     0.005 C 
HETATM    8  C8  UNL     1     -33.969  17.792  -2.054  1.00 20.00     0.006 C 
HETATM    9  N9  UNL     1     -30.280  18.912   0.918  1.00 20.00    -0.162 NA
HETATM   10  N10 UNL     1     -30.743  18.559  -0.314  1.00 20.00    -0.155 NA
ENDROOT
TORSDOF 0
ENDMDL
