MODEL 1
REMARK VINA RESULT:      -4.8      0.000      0.000
REMARK  0 active torsions:
REMARK  status: ('A' for Active; 'I' for Inactive)
ROOT
HETATM    1  C1  UNL     1     -32.426   8.762   4.667  1.00 20.00     0.066 C 
HETATM    2  C2  UNL     1     -34.581   5.416   6.443  1.00 20.00     0.032 C 
HETATM    3  C3  UNL     1     -33.990   6.792   6.210  1.00 20.00     0.039 C 
HETATM    4  C4  UNL     1     -32.387   6.654   3.339  1.00 20.00     0.051 C 
HETATM    5  C5  UNL     1     -34.208   4.701   5.160  1.00 20.00     0.273 C 
HETATM    6  C6  UNL     1     -33.444   5.606   3.025  1.00 20.00     0.274 C 
HETATM    7  C7  UNL     1     -33.219   7.787   3.917  1.00 20.00     0.128 C 
HETATM    8  C8  UNL     1     -34.285   7.051   4.732  1.00 20.00     0.240 C 
HETATM    9  N9  UNL     1     -31.797   9.536   5.262  1.00 20.00    -0.197 NA
HETATM   10  N10 UNL     1     -34.431   5.706   4.110  1.00 20.00     0.094 N 
ENDROOT
TORSDOF 0
ENDMDL
MODEL 2
REMARK VINA RESULT:      -4.3      1.255      3.969
REMARK  0 active torsions:
REMARK  status: ('A' for Active; 'I' for Inactive)
ROOT
HETATM    1  C1  UNL     1     -34.244   4.725   4.631  1.00 20.00     0.066 C 
HETATM    2  C2  UNL     1     -31.997   8.300   3.553  1.00 20.00     0.032 C 
HETATM    3  C3  UNL     1     -32.698   6.958   3.478  1.00 20.00     0.039 C 
HETATM    4  C4  UNL     1     -33.953   6.385   6.467  1.00 20.00     0.051 C 
HETATM    5  C5  UNL     1     -32.330   8.742   4.964  1.00 20.00     0.273 C 
HETATM    6  C6  UNL     1     -34.022   7.904   6.511  1.00 20.00     0.274 C 
HETATM    7  C7  UNL     1     -34.549   6.077   5.102  1.00 20.00     0.128 C 
HETATM    8  C8  UNL     1     -34.008   7.208   4.226  1.00 20.00     0.240 C 
HETATM    9  N9  UNL     1     -34.003   3.652   4.258  1.00 20.00    -0.197 NA
HETATM   10  N10 UNL     1     -33.737   8.351   5.141  1.00 20.00     0.094 N 
ENDROOT
TORSDOF 0
ENDMDL
MODEL 3
REMARK VINA RESULT:      -4.0     15.764     16.685
REMARK  0 active torsions:
REMARK  status: ('A' for Active; 'I' for Inactive)
ROOT
HETATM    1  C1  UNL     1     -22.299  18.172   8.334  1.00 20.00     0.066 C 
HETATM    2  C2  UNL     1     -25.369  18.564  11.402  1.00 20.00     0.032 C 
HETATM    3  C3  UNL     1     -24.677  18.328  10.075  1.00 20.00     0.039 C 
HETATM    4  C4  UNL     1     -21.455  18.742  10.609  1.00 20.00     0.051 C 
HETATM    5  C5  UNL     1     -24.190  18.773  12.330  1.00 20.00     0.273 C 
HETATM    6  C6  UNL     1     -21.826  18.261  12.003  1.00 20.00     0.274 C 
HETATM    7  C7  UNL     1     -22.156  17.727   9.721  1.00 20.00     0.128 C 
HETATM    8  C8  UNL     1     -23.470  17.470  10.461  1.00 20.00     0.240 C 
HETATM    9  N9  UNL     1     -22.412  18.526   7.234  1.00 20.00    -0.197 NA
HETATM   10  N10 UNL     1     -23.207  17.770  11.895  1.00 20.00     0.094 N 
ENDROOT
TORSDOF 0
ENDMDL
MODEL 4
REMARK VINA RESULT:      -3.8     15.199     15.833
REMARK  0 active torsions:
REMARK  status: ('A' for Active; 'I' for Inactive)
ROOT
HETATM    1  C1  UNL     1     -22.798  18.313   8.726  1.00 20.00     0.066 C 
HETATM    2  C2  UNL     1     -24.493  16.085  12.066  1.00 20.00     0.032 C 
HETATM    3  C3  UNL     1     -23.551  16.563  10.980  1.00 20.00     0.039 C 
HETATM    4  C4  UNL     1     -25.052  19.073   9.470  1.00 20.00     0.051 C 
HETATM    5  C5  UNL     1     -25.618  17.095  11.962  1.00 20.00     0.273 C 
HETATM    6  C6  UNL     1     -25.682  19.263  10.842  1.00 20.00     0.274 C 
HETATM    7  C7  UNL     1     -23.581  18.904   9.813  1.00 20.00     0.128 C 
HETATM    8  C8  UNL     1     -23.619  18.086  11.105  1.00 20.00     0.240 C 
HETATM    9  N9  UNL     1     -22.178  17.845   7.864  1.00 20.00    -0.197 NA
HETATM   10  N10 UNL     1     -24.933  18.378  11.744  1.00 20.00     0.094 N 
ENDROOT
TORSDOF 0
ENDMDL
MODEL 5
REMARK VINA RESULT:      -3.8      1.563      3.435
REMARK  0 active torsions:
REMARK  status: ('A' for Active; 'I' for Inactive)
ROOT
HETATM    1  C1  UNL     1     -33.422   4.973   2.923  1.00 20.00     0.066 C 
HETATM    2  C2  UNL     1     -32.925   8.505   5.427  1.00 20.00     0.032 C 
HETATM    3  C3  UNL     1     -32.966   7.581   4.227  1.00 20.00     0.039 C 
HETATM    4  C4  UNL     1     -33.952   4.643   5.336  1.00 20.00     0.051 C 
HETATM    5  C5  UNL     1     -33.468   7.610   6.523  1.00 20.00     0.273 C 
HETATM    6  C6  UNL     1     -34.679   5.496   6.364  1.00 20.00     0.274 C 
HETATM    7  C7  UNL     1     -34.303   5.342   4.033  1.00 20.00     0.128 C 
HETATM    8  C8  UNL     1     -34.280   6.822   4.417  1.00 20.00     0.240 C 
HETATM    9  N9  UNL     1     -32.723   4.680   2.044  1.00 20.00    -0.197 NA
HETATM   10  N10 UNL     1     -34.568   6.878   5.877  1.00 20.00     0.094 N 
ENDROOT
TORSDOF 0
ENDMDL
MODEL 6
REMARK VINA RESULT:      -3.7     12.142     13.483
REMARK  0 active torsions:
REMARK  status: ('A' for Active; 'I' for Inactive)
ROOT
HETATM    1  C1  UNL     1     -33.496  16.918  -2.232  1.00 20.00     0.066 C 
HETATM    2  C2  UNL     1     -36.389  17.607  -5.418  1.00 20.00     0.032 C 
HETATM    3  C3  UNL     1     -35.513  17.802  -4.198  1.00 20.00     0.039 C 
HETATM    4  C4  UNL     1     -33.766  15.035  -3.842  1.00 20.00     0.051 C 
HETATM    5  C5  UNL     1     -35.927  16.252  -5.915  1.00 20.00     0.273 C 
HETATM    6  C6  UNL     1     -33.922  14.977  -5.354  1.00 20.00     0.274 C 
HETATM    7  C7  UNL     1     -33.335  16.475  -3.619  1.00 20.00     0.128 C 
HETATM    8  C8  UNL     1     -34.161  17.247  -4.649  1.00 20.00     0.240 C 
HETATM    9  N9  UNL     1     -33.625  17.269  -1.134  1.00 20.00    -0.197 NA
HETATM   10  N10 UNL     1     -34.466  16.285  -5.744  1.00 20.00     0.094 N 
ENDROOT
TORSDOF 0
ENDMDL
MODEL 7
REMARK VINA RESULT:      -3.7     12.126     13.615
REMARK  0 active torsions:
REMARK  status: ('A' for Active; 'I' for Inactive)
ROOT
HETATM    1  C1  UNL     1     -35.537  14.144  -4.871  1.00 20.00     0.066 C 
HETATM    2  C2  UNL     1     -33.224  17.140  -2.711  1.00 20.00     0.032 C 
HETATM    3  C3  UNL     1     -33.722  15.815  -3.252  1.00 20.00     0.039 C 
HETATM    4  C4  UNL     1     -36.257  16.502  -5.237  1.00 20.00     0.051 C 
HETATM    5  C5  UNL     1     -34.102  18.125  -3.457  1.00 20.00     0.273 C 
HETATM    6  C6  UNL     1     -35.491  17.800  -5.438  1.00 20.00     0.274 C 
HETATM    7  C7  UNL     1     -35.166  15.456  -5.403  1.00 20.00     0.128 C 
HETATM    8  C8  UNL     1     -33.956  16.110  -4.735  1.00 20.00     0.240 C 
HETATM    9  N9  UNL     1     -35.832  13.103  -4.450  1.00 20.00    -0.197 NA
HETATM   10  N10 UNL     1     -34.175  17.581  -4.822  1.00 20.00     0.094 N 
ENDROOT
TORSDOF 0
ENDMDL
MODEL 8
REMARK VINA RESULT:      -3.7     12.095     13.536
REMARK  0 active torsions:
REMARK  status: ('A' for Active; 'I' for Inactive)
ROOT
HETATM    1  C1  UNL     1     -33.929  15.232  -4.345  1.00 20.00     0.066 C 
HETATM    2  C2  UNL     1     -33.767  18.014  -0.993  1.00 20.00     0.032 C 
HETATM    3  C3  UNL     1     -33.518  16.817  -1.889  1.00 20.00     0.039 C 
HETATM    4  C4  UNL     1     -35.329  17.278  -4.599  1.00 20.00     0.051 C 
HETATM    5  C5  UNL     1     -34.659  18.871  -1.868  1.00 20.00     0.273 C 
HETATM    6  C6  UNL     1     -35.094  18.744  -4.266  1.00 20.00     0.274 C 
HETATM    7  C7  UNL     1     -33.933  16.691  -4.468  1.00 20.00     0.128 C 
HETATM    8  C8  UNL     1     -33.351  17.447  -3.273  1.00 20.00     0.240 C 
HETATM    9  N9  UNL     1     -33.925  14.076  -4.247  1.00 20.00    -0.197 NA
HETATM   10  N10 UNL     1     -34.072  18.749  -3.211  1.00 20.00     0.094 N 
ENDROOT
TORSDOF 0
ENDMDL
MODEL 9
REMARK VINA RESULT:      -3.6     12.703     14.124
REMARK  0 active torsions:
REMARK  status: ('A' for Active; 'I' for Inactive)
ROOT
HETATM    1  C1  UNL     1     -35.688  15.436  -6.152  1.00 20.00     0.066 C 
HETATM    2  C2  UNL     1     -33.310  16.566  -2.679  1.00 20.00     0.032 C 
HETATM    3  C3  UNL     1     -33.807  15.844  -3.915  1.00 20.00     0.039 C 
HETATM    4  C4  UNL     1     -36.506  17.439  -4.916  1.00 20.00     0.051 C 
HETATM    5  C5  UNL     1     -34.272  17.734  -2.599  1.00 20.00     0.273 C 
HETATM    6  C6  UNL     1     -35.798  18.627  -4.282  1.00 20.00     0.274 C 
HETATM    7  C7  UNL     1     -35.399  16.814  -5.749  1.00 20.00     0.128 C 
HETATM    8  C8  UNL     1     -34.162  16.987  -4.866  1.00 20.00     0.240 C 
HETATM    9  N9  UNL     1     -35.916  14.344  -6.471  1.00 20.00    -0.197 NA
HETATM   10  N10 UNL     1     -34.433  18.165  -3.996  1.00 20.00     0.094 N 
ENDROOT
TORSDOF 0
ENDMDL
