MODEL 1
REMARK VINA RESULT:      -5.4      0.000      0.000
REMARK  0 active torsions:
REMARK  status: ('A' for Active; 'I' for Inactive)
ROOT
HETATM    1  C1  UNL     1     -32.246   7.969   2.143  1.00 20.00     0.101 C 
HETATM    2  C2  UNL     1     -32.315   9.052   4.440  1.00 20.00     0.042 A 
HETATM    3  C3  UNL     1     -32.853   8.692   5.656  1.00 20.00     0.092 A 
HETATM    4  C4  UNL     1     -32.616   8.018   3.518  1.00 20.00     0.068 A 
HETATM    5  C5  UNL     1     -33.331   7.051   4.196  1.00 20.00     0.032 A 
HETATM    6  C6  UNL     1     -33.879   5.740   3.739  1.00 20.00     0.059 C 
HETATM    7  C7  UNL     1     -34.939   5.196   4.701  1.00 20.00     0.008 C 
HETATM    8  C8  UNL     1     -34.465   5.308   6.150  1.00 20.00     0.021 C 
HETATM    9  C9  UNL     1     -34.203   6.767   6.521  1.00 20.00     0.128 C 
HETATM   10  N10 UNL     1     -31.944   7.928   1.023  1.00 20.00    -0.191 NA
HETATM   11  N11 UNL     1     -33.464   7.479   5.495  1.00 20.00    -0.359 N 
ENDROOT
TORSDOF 0
ENDMDL
MODEL 2
REMARK VINA RESULT:      -4.7      1.507      2.664
REMARK  0 active torsions:
REMARK  status: ('A' for Active; 'I' for Inactive)
ROOT
HETATM    1  C1  UNL     1     -32.090   9.180   4.759  1.00 20.00     0.101 C 
HETATM    2  C2  UNL     1     -32.138   7.440   2.910  1.00 20.00     0.042 A 
HETATM    3  C3  UNL     1     -32.762   6.220   2.753  1.00 20.00     0.092 A 
HETATM    4  C4  UNL     1     -32.500   7.943   4.184  1.00 20.00     0.068 A 
HETATM    5  C5  UNL     1     -33.337   7.018   4.776  1.00 20.00     0.032 A 
HETATM    6  C6  UNL     1     -34.039   7.034   6.093  1.00 20.00     0.059 C 
HETATM    7  C7  UNL     1     -34.522   5.641   6.502  1.00 20.00     0.008 C 
HETATM    8  C8  UNL     1     -35.213   4.940   5.332  1.00 20.00     0.021 C 
HETATM    9  C9  UNL     1     -34.249   4.774   4.158  1.00 20.00     0.128 C 
HETATM   10  N10 UNL     1     -31.755  10.189   5.227  1.00 20.00    -0.191 NA
HETATM   11  N11 UNL     1     -33.485   5.978   3.889  1.00 20.00    -0.359 N 
ENDROOT
TORSDOF 0
ENDMDL
MODEL 3
REMARK VINA RESULT:      -4.4      1.280      2.589
REMARK  0 active torsions:
REMARK  status: ('A' for Active; 'I' for Inactive)
ROOT
HETATM    1  C1  UNL     1     -32.344   7.425   2.107  1.00 20.00     0.101 C 
HETATM    2  C2  UNL     1     -33.037   5.018   2.532  1.00 20.00     0.042 A 
HETATM    3  C3  UNL     1     -33.639   4.362   3.584  1.00 20.00     0.092 A 
HETATM    4  C4  UNL     1     -32.906   6.381   2.898  1.00 20.00     0.068 A 
HETATM    5  C5  UNL     1     -33.433   6.525   4.166  1.00 20.00     0.032 A 
HETATM    6  C6  UNL     1     -33.587   7.732   5.031  1.00 20.00     0.059 C 
HETATM    7  C7  UNL     1     -33.841   7.359   6.493  1.00 20.00     0.008 C 
HETATM    8  C8  UNL     1     -34.902   6.264   6.599  1.00 20.00     0.021 C 
HETATM    9  C9  UNL     1     -34.447   5.001   5.868  1.00 20.00     0.128 C 
HETATM   10  N10 UNL     1     -31.886   8.275   1.463  1.00 20.00    -0.191 NA
HETATM   11  N11 UNL     1     -33.874   5.286   4.565  1.00 20.00    -0.359 N 
ENDROOT
TORSDOF 0
ENDMDL
MODEL 4
REMARK VINA RESULT:      -3.9     12.048     13.519
REMARK  0 active torsions:
REMARK  status: ('A' for Active; 'I' for Inactive)
ROOT
HETATM    1  C1  UNL     1     -35.874  15.321  -6.423  1.00 20.00     0.101 C 
HETATM    2  C2  UNL     1     -36.678  17.593  -5.622  1.00 20.00     0.042 A 
HETATM    3  C3  UNL     1     -36.271  18.464  -4.634  1.00 20.00     0.092 A 
HETATM    4  C4  UNL     1     -35.822  16.465  -5.576  1.00 20.00     0.068 A 
HETATM    5  C5  UNL     1     -34.910  16.675  -4.560  1.00 20.00     0.032 A 
HETATM    6  C6  UNL     1     -33.767  15.842  -4.084  1.00 20.00     0.059 C 
HETATM    7  C7  UNL     1     -33.293  16.263  -2.691  1.00 20.00     0.008 C 
HETATM    8  C8  UNL     1     -33.156  17.783  -2.600  1.00 20.00     0.021 C 
HETATM    9  C9  UNL     1     -34.501  18.461  -2.861  1.00 20.00     0.128 C 
HETATM   10  N10 UNL     1     -35.918  14.388  -7.113  1.00 20.00    -0.191 NA
HETATM   11  N11 UNL     1     -35.200  17.896  -4.001  1.00 20.00    -0.359 N 
ENDROOT
TORSDOF 0
ENDMDL
MODEL 5
REMARK VINA RESULT:      -3.9     11.859     13.644
REMARK  0 active torsions:
REMARK  status: ('A' for Active; 'I' for Inactive)
ROOT
HETATM    1  C1  UNL     1     -35.350  14.840  -6.371  1.00 20.00     0.101 C 
HETATM    2  C2  UNL     1     -33.788  14.657  -4.376  1.00 20.00     0.042 A 
HETATM    3  C3  UNL     1     -33.188  15.571  -3.538  1.00 20.00     0.092 A 
HETATM    4  C4  UNL     1     -34.556  15.383  -5.320  1.00 20.00     0.068 A 
HETATM    5  C5  UNL     1     -34.406  16.726  -5.035  1.00 20.00     0.032 A 
HETATM    6  C6  UNL     1     -35.002  17.935  -5.676  1.00 20.00     0.059 C 
HETATM    7  C7  UNL     1     -34.247  19.213  -5.301  1.00 20.00     0.008 C 
HETATM    8  C8  UNL     1     -33.974  19.261  -3.797  1.00 20.00     0.021 C 
HETATM    9  C9  UNL     1     -33.120  18.070  -3.366  1.00 20.00     0.128 C 
HETATM   10  N10 UNL     1     -35.996  14.397  -7.228  1.00 20.00    -0.191 NA
HETATM   11  N11 UNL     1     -33.572  16.819  -3.947  1.00 20.00    -0.359 N 
ENDROOT
TORSDOF 0
ENDMDL
MODEL 6
REMARK VINA RESULT:      -3.8      1.606      2.199
REMARK  0 active torsions:
REMARK  status: ('A' for Active; 'I' for Inactive)
ROOT
HETATM    1  C1  UNL     1     -32.833   4.850   2.104  1.00 20.00     0.101 C 
HETATM    2  C2  UNL     1     -32.253   7.266   2.630  1.00 20.00     0.042 A 
HETATM    3  C3  UNL     1     -32.516   8.110   3.687  1.00 20.00     0.092 A 
HETATM    4  C4  UNL     1     -32.858   6.018   2.919  1.00 20.00     0.068 A 
HETATM    5  C5  UNL     1     -33.477   6.130   4.148  1.00 20.00     0.032 A 
HETATM    6  C6  UNL     1     -34.236   5.131   4.957  1.00 20.00     0.059 C 
HETATM    7  C7  UNL     1     -35.081   5.798   6.045  1.00 20.00     0.008 C 
HETATM    8  C8  UNL     1     -34.267   6.854   6.794  1.00 20.00     0.021 C 
HETATM    9  C9  UNL     1     -33.792   7.946   5.837  1.00 20.00     0.128 C 
HETATM   10  N10 UNL     1     -32.812   3.898   1.440  1.00 20.00    -0.191 NA
HETATM   11  N11 UNL     1     -33.257   7.410   4.599  1.00 20.00    -0.359 N 
ENDROOT
TORSDOF 0
ENDMDL
MODEL 7
REMARK VINA RESULT:      -3.8     12.101     12.398
REMARK  0 active torsions:
REMARK  status: ('A' for Active; 'I' for Inactive)
ROOT
HETATM    1  C1  UNL     1     -29.509  18.770   3.112  1.00 20.00     0.101 C 
HETATM    2  C2  UNL     1     -31.941  19.260   3.658  1.00 20.00     0.042 A 
HETATM    3  C3  UNL     1     -33.109  19.260   2.926  1.00 20.00     0.092 A 
HETATM    4  C4  UNL     1     -30.888  18.902   2.779  1.00 20.00     0.068 A 
HETATM    5  C5  UNL     1     -31.439  18.692   1.531  1.00 20.00     0.032 A 
HETATM    6  C6  UNL     1     -30.814  18.271   0.243  1.00 20.00     0.059 C 
HETATM    7  C7  UNL     1     -31.721  18.561  -0.956  1.00 20.00     0.008 C 
HETATM    8  C8  UNL     1     -33.154  18.108  -0.675  1.00 20.00     0.021 C 
HETATM    9  C9  UNL     1     -33.726  18.849   0.533  1.00 20.00     0.128 C 
HETATM   10  N10 UNL     1     -28.385  18.663   3.383  1.00 20.00    -0.191 NA
HETATM   11  N11 UNL     1     -32.791  18.914   1.642  1.00 20.00    -0.359 N 
ENDROOT
TORSDOF 0
ENDMDL
MODEL 8
REMARK VINA RESULT:      -3.8     11.849     13.562
REMARK  0 active torsions:
REMARK  status: ('A' for Active; 'I' for Inactive)
ROOT
HETATM    1  C1  UNL     1     -33.244  16.998  -2.401  1.00 20.00     0.101 C 
HETATM    2  C2  UNL     1     -33.147  15.123  -4.112  1.00 20.00     0.042 A 
HETATM    3  C3  UNL     1     -33.806  14.865  -5.294  1.00 20.00     0.092 A 
HETATM    4  C4  UNL     1     -33.649  16.346  -3.601  1.00 20.00     0.068 A 
HETATM    5  C5  UNL     1     -34.604  16.806  -4.485  1.00 20.00     0.032 A 
HETATM    6  C6  UNL     1     -35.432  18.048  -4.473  1.00 20.00     0.059 C 
HETATM    7  C7  UNL     1     -36.630  17.947  -5.419  1.00 20.00     0.008 C 
HETATM    8  C8  UNL     1     -36.206  17.385  -6.776  1.00 20.00     0.021 C 
HETATM    9  C9  UNL     1     -35.616  15.984  -6.617  1.00 20.00     0.128 C 
HETATM   10  N10 UNL     1     -32.914  17.529  -1.422  1.00 20.00    -0.191 NA
HETATM   11  N11 UNL     1     -34.684  15.892  -5.508  1.00 20.00    -0.359 N 
ENDROOT
TORSDOF 0
ENDMDL
MODEL 9
REMARK VINA RESULT:      -3.5     11.875     13.744
REMARK  0 active torsions:
REMARK  status: ('A' for Active; 'I' for Inactive)
ROOT
HETATM    1  C1  UNL     1     -37.116  16.651  -6.999  1.00 20.00     0.101 C 
HETATM    2  C2  UNL     1     -36.201  18.452  -5.459  1.00 20.00     0.042 A 
HETATM    3  C3  UNL     1     -35.220  18.482  -4.492  1.00 20.00     0.092 A 
HETATM    4  C4  UNL     1     -36.251  17.133  -5.975  1.00 20.00     0.068 A 
HETATM    5  C5  UNL     1     -35.297  16.388  -5.310  1.00 20.00     0.032 A 
HETATM    6  C6  UNL     1     -34.889  14.961  -5.461  1.00 20.00     0.059 C 
HETATM    7  C7  UNL     1     -34.091  14.463  -4.254  1.00 20.00     0.008 C 
HETATM    8  C8  UNL     1     -33.016  15.475  -3.858  1.00 20.00     0.021 C 
HETATM    9  C9  UNL     1     -33.650  16.813  -3.479  1.00 20.00     0.128 C 
HETATM   10  N10 UNL     1     -37.822  16.259  -7.834  1.00 20.00    -0.191 NA
HETATM   11  N11 UNL     1     -34.680  17.228  -4.413  1.00 20.00    -0.359 N 
ENDROOT
TORSDOF 0
ENDMDL
