MODEL 1
REMARK VINA RESULT:      -5.7      0.000      0.000
REMARK  1 active torsions:
REMARK  status: ('A' for Active; 'I' for Inactive)
REMARK    1  A    between atoms: C3_3  and  C5_5 
ROOT
HETATM    1  C1  UNL     1     -32.247   8.840   4.137  1.00 20.00     0.034 A 
HETATM    2  C2  UNL     1     -32.826   8.661   5.374  1.00 20.00     0.092 A 
HETATM    3  C3  UNL     1     -32.537   7.689   3.360  1.00 20.00     0.025 A 
HETATM    4  C4  UNL     1     -33.288   6.835   4.144  1.00 20.00     0.024 A 
HETATM    5  C6  UNL     1     -33.842   5.480   3.862  1.00 20.00     0.058 C 
HETATM    6  C7  UNL     1     -34.937   5.088   4.856  1.00 20.00     0.008 C 
HETATM    7  C8  UNL     1     -34.504   5.399   6.289  1.00 20.00     0.021 C 
HETATM    8  C9  UNL     1     -34.230   6.893   6.459  1.00 20.00     0.128 C 
HETATM    9  N10 UNL     1     -33.451   7.445   5.365  1.00 20.00    -0.359 N 
ENDROOT
BRANCH   3  10
HETATM   10  C5  UNL     1     -32.133   7.427   2.009  1.00 20.00     0.272 C 
HETATM   11  O11 UNL     1     -32.119   8.287   1.109  1.00 20.00    -0.301 OA
ENDBRANCH   3  10
TORSDOF 1
ENDMDL
MODEL 2
REMARK VINA RESULT:      -5.1      1.671      2.591
REMARK  1 active torsions:
REMARK  status: ('A' for Active; 'I' for Inactive)
REMARK    1  A    between atoms: C3_3  and  C5_5 
ROOT
HETATM    1  C1  UNL     1     -32.215   7.267   2.653  1.00 20.00     0.034 A 
HETATM    2  C2  UNL     1     -32.781   6.011   2.696  1.00 20.00     0.092 A 
HETATM    3  C3  UNL     1     -32.584   7.942   3.844  1.00 20.00     0.025 A 
HETATM    4  C4  UNL     1     -33.368   7.080   4.586  1.00 20.00     0.024 A 
HETATM    5  C6  UNL     1     -34.053   7.264   5.898  1.00 20.00     0.058 C 
HETATM    6  C7  UNL     1     -34.463   5.929   6.523  1.00 20.00     0.008 C 
HETATM    7  C8  UNL     1     -35.135   5.027   5.487  1.00 20.00     0.021 C 
HETATM    8  C9  UNL     1     -34.178   4.729   4.332  1.00 20.00     0.128 C 
HETATM    9  N10 UNL     1     -33.476   5.912   3.869  1.00 20.00    -0.359 N 
ENDROOT
BRANCH   3  10
HETATM   10  C5  UNL     1     -32.232   9.277   4.233  1.00 20.00     0.272 C 
HETATM   11  O11 UNL     1     -31.850   9.588   5.377  1.00 20.00    -0.301 OA
ENDBRANCH   3  10
TORSDOF 1
ENDMDL
MODEL 3
REMARK VINA RESULT:      -4.8      1.162      2.404
REMARK  1 active torsions:
REMARK  status: ('A' for Active; 'I' for Inactive)
REMARK    1  A    between atoms: C3_3  and  C5_5 
ROOT
HETATM    1  C1  UNL     1     -32.849   5.463   2.348  1.00 20.00     0.034 A 
HETATM    2  C2  UNL     1     -33.531   4.665   3.241  1.00 20.00     0.092 A 
HETATM    3  C3  UNL     1     -32.731   6.750   2.932  1.00 20.00     0.025 A 
HETATM    4  C4  UNL     1     -33.346   6.707   4.167  1.00 20.00     0.024 A 
HETATM    5  C6  UNL     1     -33.552   7.766   5.196  1.00 20.00     0.058 C 
HETATM    6  C7  UNL     1     -33.914   7.178   6.562  1.00 20.00     0.008 C 
HETATM    7  C8  UNL     1     -34.990   6.101   6.420  1.00 20.00     0.021 C 
HETATM    8  C9  UNL     1     -34.496   4.958   5.534  1.00 20.00     0.128 C 
HETATM    9  N10 UNL     1     -33.827   5.430   4.335  1.00 20.00    -0.359 N 
ENDROOT
BRANCH   3  10
HETATM   10  C5  UNL     1     -32.102   7.909   2.364  1.00 20.00     0.272 C 
HETATM   11  O11 UNL     1     -32.075   8.155   1.144  1.00 20.00    -0.301 OA
ENDBRANCH   3  10
TORSDOF 1
ENDMDL
MODEL 4
REMARK VINA RESULT:      -4.5      1.958      3.663
REMARK  1 active torsions:
REMARK  status: ('A' for Active; 'I' for Inactive)
REMARK    1  A    between atoms: C3_3  and  C5_5 
ROOT
HETATM    1  C1  UNL     1     -34.433   6.556   6.525  1.00 20.00     0.034 A 
HETATM    2  C2  UNL     1     -33.814   7.784   6.450  1.00 20.00     0.092 A 
HETATM    3  C3  UNL     1     -34.246   5.908   5.278  1.00 20.00     0.025 A 
HETATM    4  C4  UNL     1     -33.517   6.758   4.471  1.00 20.00     0.024 A 
HETATM    5  C6  UNL     1     -33.058   6.615   3.059  1.00 20.00     0.058 C 
HETATM    6  C7  UNL     1     -31.948   7.608   2.712  1.00 20.00     0.008 C 
HETATM    7  C8  UNL     1     -32.299   9.011   3.210  1.00 20.00     0.021 C 
HETATM    8  C9  UNL     1     -32.474   9.016   4.728  1.00 20.00     0.128 C 
HETATM    9  N10 UNL     1     -33.265   7.894   5.202  1.00 20.00    -0.359 N 
ENDROOT
BRANCH   3  10
HETATM   10  C5  UNL     1     -34.723   4.611   4.891  1.00 20.00     0.272 C 
HETATM   11  O11 UNL     1     -33.995   3.716   4.424  1.00 20.00    -0.301 OA
ENDBRANCH   3  10
TORSDOF 1
ENDMDL
MODEL 5
REMARK VINA RESULT:      -4.1      1.363      2.465
REMARK  1 active torsions:
REMARK  status: ('A' for Active; 'I' for Inactive)
REMARK    1  A    between atoms: C3_3  and  C5_5 
ROOT
HETATM    1  C1  UNL     1     -33.843   7.923   6.355  1.00 20.00     0.034 A 
HETATM    2  C2  UNL     1     -34.460   6.691   6.367  1.00 20.00     0.092 A 
HETATM    3  C3  UNL     1     -33.067   7.999   5.170  1.00 20.00     0.025 A 
HETATM    4  C4  UNL     1     -33.231   6.810   4.487  1.00 20.00     0.024 A 
HETATM    5  C6  UNL     1     -32.635   6.325   3.208  1.00 20.00     0.058 C 
HETATM    6  C7  UNL     1     -33.403   5.134   2.632  1.00 20.00     0.008 C 
HETATM    7  C8  UNL     1     -33.697   4.100   3.720  1.00 20.00     0.021 C 
HETATM    8  C9  UNL     1     -34.550   4.714   4.831  1.00 20.00     0.128 C 
HETATM    9  N10 UNL     1     -34.081   6.028   5.232  1.00 20.00    -0.359 N 
ENDROOT
BRANCH   3  10
HETATM   10  C5  UNL     1     -32.246   9.093   4.735  1.00 20.00     0.272 C 
HETATM   11  O11 UNL     1     -32.357   9.645   3.625  1.00 20.00    -0.301 OA
ENDBRANCH   3  10
TORSDOF 1
ENDMDL
MODEL 6
REMARK VINA RESULT:      -4.1      2.297      3.667
REMARK  1 active torsions:
REMARK  status: ('A' for Active; 'I' for Inactive)
REMARK    1  A    between atoms: C3_3  and  C5_5 
ROOT
HETATM    1  C1  UNL     1     -33.327   8.358   5.933  1.00 20.00     0.034 A 
HETATM    2  C2  UNL     1     -32.590   8.682   4.814  1.00 20.00     0.092 A 
HETATM    3  C3  UNL     1     -33.902   7.080   5.708  1.00 20.00     0.025 A 
HETATM    4  C4  UNL     1     -33.501   6.657   4.456  1.00 20.00     0.024 A 
HETATM    5  C6  UNL     1     -33.823   5.416   3.693  1.00 20.00     0.058 C 
HETATM    6  C7  UNL     1     -32.846   5.183   2.539  1.00 20.00     0.008 C 
HETATM    7  C8  UNL     1     -32.625   6.472   1.746  1.00 20.00     0.021 C 
HETATM    8  C9  UNL     1     -32.037   7.562   2.643  1.00 20.00     0.128 C 
HETATM    9  N10 UNL     1     -32.705   7.645   3.929  1.00 20.00    -0.359 N 
ENDROOT
BRANCH   3  10
HETATM   10  C5  UNL     1     -34.754   6.341   6.595  1.00 20.00     0.272 C 
HETATM   11  O11 UNL     1     -34.721   5.103   6.716  1.00 20.00    -0.301 OA
ENDBRANCH   3  10
TORSDOF 1
ENDMDL
MODEL 7
REMARK VINA RESULT:      -4.0      2.303      3.993
REMARK  1 active torsions:
REMARK  status: ('A' for Active; 'I' for Inactive)
REMARK    1  A    between atoms: C3_3  and  C5_5 
ROOT
HETATM    1  C1  UNL     1     -33.285   5.160   2.881  1.00 20.00     0.034 A 
HETATM    2  C2  UNL     1     -32.515   6.244   2.521  1.00 20.00     0.092 A 
HETATM    3  C3  UNL     1     -33.906   5.472   4.117  1.00 20.00     0.025 A 
HETATM    4  C4  UNL     1     -33.499   6.740   4.481  1.00 20.00     0.024 A 
HETATM    5  C6  UNL     1     -33.808   7.559   5.689  1.00 20.00     0.058 C 
HETATM    6  C7  UNL     1     -33.474   9.037   5.481  1.00 20.00     0.008 C 
HETATM    7  C8  UNL     1     -32.093   9.198   4.844  1.00 20.00     0.021 C 
HETATM    8  C9  UNL     1     -32.046   8.511   3.479  1.00 20.00     0.128 C 
HETATM    9  N10 UNL     1     -32.652   7.191   3.498  1.00 20.00    -0.359 N 
ENDROOT
BRANCH   3  10
HETATM   10  C5  UNL     1     -34.794   4.641   4.879  1.00 20.00     0.272 C 
HETATM   11  O11 UNL     1     -34.827   4.620   6.123  1.00 20.00    -0.301 OA
ENDBRANCH   3  10
TORSDOF 1
ENDMDL
MODEL 8
REMARK VINA RESULT:      -4.0      1.684      1.923
REMARK  1 active torsions:
REMARK  status: ('A' for Active; 'I' for Inactive)
REMARK    1  A    between atoms: C3_3  and  C5_5 
ROOT
HETATM    1  C1  UNL     1     -32.207   7.456   2.726  1.00 20.00     0.034 A 
HETATM    2  C2  UNL     1     -32.434   8.148   3.895  1.00 20.00     0.092 A 
HETATM    3  C3  UNL     1     -32.884   6.213   2.828  1.00 20.00     0.025 A 
HETATM    4  C4  UNL     1     -33.507   6.178   4.059  1.00 20.00     0.024 A 
HETATM    5  C6  UNL     1     -34.326   5.115   4.711  1.00 20.00     0.058 C 
HETATM    6  C7  UNL     1     -35.144   5.660   5.885  1.00 20.00     0.008 C 
HETATM    7  C8  UNL     1     -34.281   6.548   6.782  1.00 20.00     0.021 C 
HETATM    8  C9  UNL     1     -33.737   7.741   5.996  1.00 20.00     0.128 C 
HETATM    9  N10 UNL     1     -33.221   7.363   4.693  1.00 20.00    -0.359 N 
ENDROOT
BRANCH   3  10
HETATM   10  C5  UNL     1     -32.924   5.162   1.852  1.00 20.00     0.272 C 
HETATM   11  O11 UNL     1     -32.536   3.999   2.069  1.00 20.00    -0.301 OA
ENDBRANCH   3  10
TORSDOF 1
ENDMDL
MODEL 9
REMARK VINA RESULT:      -3.9     12.230     13.605
REMARK  1 active torsions:
REMARK  status: ('A' for Active; 'I' for Inactive)
REMARK    1  A    between atoms: C3_3  and  C5_5 
ROOT
HETATM    1  C1  UNL     1     -35.680  17.258  -6.272  1.00 20.00     0.034 A 
HETATM    2  C2  UNL     1     -35.344  18.390  -5.561  1.00 20.00     0.092 A 
HETATM    3  C3  UNL     1     -35.087  16.150  -5.613  1.00 20.00     0.025 A 
HETATM    4  C4  UNL     1     -34.404  16.635  -4.515  1.00 20.00     0.024 A 
HETATM    5  C6  UNL     1     -33.578  15.935  -3.490  1.00 20.00     0.058 C 
HETATM    6  C7  UNL     1     -33.355  16.797  -2.245  1.00 20.00     0.008 C 
HETATM    7  C8  UNL     1     -32.954  18.220  -2.636  1.00 20.00     0.021 C 
HETATM    8  C9  UNL     1     -34.051  18.879  -3.473  1.00 20.00     0.128 C 
HETATM    9  N10 UNL     1     -34.572  17.998  -4.503  1.00 20.00    -0.359 N 
ENDROOT
BRANCH   3  10
HETATM   10  C5  UNL     1     -35.159  14.769  -5.996  1.00 20.00     0.272 C 
HETATM   11  O11 UNL     1     -35.961  14.324  -6.838  1.00 20.00    -0.301 OA
ENDBRANCH   3  10
TORSDOF 1
ENDMDL
