MODEL 1
REMARK VINA RESULT:      -6.1      0.000      0.000
REMARK  0 active torsions:
REMARK  status: ('A' for Active; 'I' for Inactive)
ROOT
HETATM    1  C1  UNL     1     -34.194   7.010   6.000  1.00 20.00     0.027 A 
HETATM    2  C2  UNL     1     -34.747   5.804   6.408  1.00 20.00     0.116 A 
HETATM    3  C3  UNL     1     -34.148   4.714   4.459  1.00 20.00     0.123 A 
HETATM    4  C4  UNL     1     -33.588   7.019   4.758  1.00 20.00    -0.045 A 
HETATM    5  C5  UNL     1     -33.563   5.863   3.977  1.00 20.00    -0.034 A 
HETATM    6  C6  UNL     1     -32.906   6.105   2.660  1.00 20.00     0.041 C 
HETATM    7  C7  UNL     1     -32.128   7.396   2.959  1.00 20.00     0.014 C 
HETATM    8  C8  UNL     1     -32.947   8.162   4.022  1.00 20.00     0.015 C 
HETATM    9  C9  UNL     1     -32.076   9.072   4.874  1.00 20.00     0.015 C 
HETATM   10  N10 UNL     1     -34.738   4.660   5.674  1.00 20.00    -0.273 NA
ENDROOT
TORSDOF 0
ENDMDL
MODEL 2
REMARK VINA RESULT:      -5.9      1.800      4.000
REMARK  0 active torsions:
REMARK  status: ('A' for Active; 'I' for Inactive)
ROOT
HETATM    1  C1  UNL     1     -32.916   6.745   3.187  1.00 20.00     0.027 A 
HETATM    2  C2  UNL     1     -32.201   7.932   3.101  1.00 20.00     0.116 A 
HETATM    3  C3  UNL     1     -32.816   8.615   5.223  1.00 20.00     0.123 A 
HETATM    4  C4  UNL     1     -33.588   6.518   4.373  1.00 20.00    -0.045 A 
HETATM    5  C5  UNL     1     -33.541   7.459   5.402  1.00 20.00    -0.034 A 
HETATM    6  C6  UNL     1     -34.371   7.038   6.568  1.00 20.00     0.041 C 
HETATM    7  C7  UNL     1     -34.515   5.534   6.291  1.00 20.00     0.014 C 
HETATM    8  C8  UNL     1     -34.474   5.366   4.757  1.00 20.00     0.015 C 
HETATM    9  C9  UNL     1     -33.968   3.994   4.340  1.00 20.00     0.015 C 
HETATM   10  N10 UNL     1     -32.133   8.869   4.084  1.00 20.00    -0.273 NA
ENDROOT
TORSDOF 0
ENDMDL
MODEL 3
REMARK VINA RESULT:      -5.7      0.818      2.329
REMARK  0 active torsions:
REMARK  status: ('A' for Active; 'I' for Inactive)
ROOT
HETATM    1  C1  UNL     1     -33.633   5.467   3.776  1.00 20.00     0.027 A 
HETATM    2  C2  UNL     1     -34.494   4.877   4.691  1.00 20.00     0.116 A 
HETATM    3  C3  UNL     1     -34.376   6.660   6.158  1.00 20.00     0.123 A 
HETATM    4  C4  UNL     1     -33.155   6.720   4.103  1.00 20.00    -0.045 A 
HETATM    5  C5  UNL     1     -33.526   7.326   5.305  1.00 20.00    -0.034 A 
HETATM    6  C6  UNL     1     -32.860   8.649   5.480  1.00 20.00     0.041 C 
HETATM    7  C7  UNL     1     -32.442   8.956   4.034  1.00 20.00     0.014 C 
HETATM    8  C8  UNL     1     -32.185   7.592   3.356  1.00 20.00     0.015 C 
HETATM    9  C9  UNL     1     -32.394   7.648   1.851  1.00 20.00     0.015 C 
HETATM   10  N10 UNL     1     -34.878   5.439   5.868  1.00 20.00    -0.273 NA
ENDROOT
TORSDOF 0
ENDMDL
MODEL 4
REMARK VINA RESULT:      -5.7      1.717      3.639
REMARK  0 active torsions:
REMARK  status: ('A' for Active; 'I' for Inactive)
ROOT
HETATM    1  C1  UNL     1     -33.683   5.261   3.554  1.00 20.00     0.027 A 
HETATM    2  C2  UNL     1     -32.848   5.527   2.478  1.00 20.00     0.116 A 
HETATM    3  C3  UNL     1     -32.336   7.654   3.227  1.00 20.00     0.123 A 
HETATM    4  C4  UNL     1     -33.810   6.264   4.495  1.00 20.00    -0.045 A 
HETATM    5  C5  UNL     1     -33.133   7.474   4.334  1.00 20.00    -0.034 A 
HETATM    6  C6  UNL     1     -33.448   8.430   5.434  1.00 20.00     0.041 C 
HETATM    7  C7  UNL     1     -34.002   7.472   6.499  1.00 20.00     0.014 C 
HETATM    8  C8  UNL     1     -34.661   6.303   5.735  1.00 20.00     0.015 C 
HETATM    9  C9  UNL     1     -34.676   5.018   6.547  1.00 20.00     0.015 C 
HETATM   10  N10 UNL     1     -32.173   6.692   2.290  1.00 20.00    -0.273 NA
ENDROOT
TORSDOF 0
ENDMDL
MODEL 5
REMARK VINA RESULT:      -5.4      1.728      3.628
REMARK  0 active torsions:
REMARK  status: ('A' for Active; 'I' for Inactive)
ROOT
HETATM    1  C1  UNL     1     -32.497   7.667   3.446  1.00 20.00     0.027 A 
HETATM    2  C2  UNL     1     -32.225   8.780   4.230  1.00 20.00     0.116 A 
HETATM    3  C3  UNL     1     -33.571   8.055   5.964  1.00 20.00     0.123 A 
HETATM    4  C4  UNL     1     -33.342   6.721   3.994  1.00 20.00    -0.045 A 
HETATM    5  C5  UNL     1     -33.887   6.914   5.264  1.00 20.00    -0.034 A 
HETATM    6  C6  UNL     1     -34.806   5.800   5.641  1.00 20.00     0.041 C 
HETATM    7  C7  UNL     1     -34.358   4.711   4.654  1.00 20.00     0.014 C 
HETATM    8  C8  UNL     1     -33.859   5.446   3.390  1.00 20.00     0.015 C 
HETATM    9  C9  UNL     1     -32.832   4.633   2.619  1.00 20.00     0.015 C 
HETATM   10  N10 UNL     1     -32.737   8.998   5.471  1.00 20.00    -0.273 NA
ENDROOT
TORSDOF 0
ENDMDL
MODEL 6
REMARK VINA RESULT:      -4.9      0.914      2.521
REMARK  0 active torsions:
REMARK  status: ('A' for Active; 'I' for Inactive)
ROOT
HETATM    1  C1  UNL     1     -34.192   4.993   4.871  1.00 20.00     0.027 A 
HETATM    2  C2  UNL     1     -34.813   5.367   6.054  1.00 20.00     0.116 A 
HETATM    3  C3  UNL     1     -33.914   7.497   6.011  1.00 20.00     0.123 A 
HETATM    4  C4  UNL     1     -33.415   5.954   4.254  1.00 20.00    -0.045 A 
HETATM    5  C5  UNL     1     -33.271   7.219   4.827  1.00 20.00    -0.034 A 
HETATM    6  C6  UNL     1     -32.354   8.082   4.027  1.00 20.00     0.041 C 
HETATM    7  C7  UNL     1     -32.365   7.343   2.680  1.00 20.00     0.014 C 
HETATM    8  C8  UNL     1     -32.588   5.849   3.003  1.00 20.00     0.015 C 
HETATM    9  C9  UNL     1     -33.247   5.103   1.854  1.00 20.00     0.015 C 
HETATM   10  N10 UNL     1     -34.696   6.590   6.638  1.00 20.00    -0.273 NA
ENDROOT
TORSDOF 0
ENDMDL
MODEL 7
REMARK VINA RESULT:      -4.9      1.879      3.345
REMARK  0 active torsions:
REMARK  status: ('A' for Active; 'I' for Inactive)
ROOT
HETATM    1  C1  UNL     1     -33.091   8.071   5.461  1.00 20.00     0.027 A 
HETATM    2  C2  UNL     1     -32.521   9.017   4.621  1.00 20.00     0.116 A 
HETATM    3  C3  UNL     1     -32.442   7.569   2.820  1.00 20.00     0.123 A 
HETATM    4  C4  UNL     1     -33.343   6.831   4.907  1.00 20.00    -0.045 A 
HETATM    5  C5  UNL     1     -33.017   6.573   3.574  1.00 20.00    -0.034 A 
HETATM    6  C6  UNL     1     -33.328   5.164   3.196  1.00 20.00     0.041 C 
HETATM    7  C7  UNL     1     -34.311   4.776   4.311  1.00 20.00     0.014 C 
HETATM    8  C8  UNL     1     -33.905   5.596   5.556  1.00 20.00     0.015 C 
HETATM    9  C9  UNL     1     -35.076   5.836   6.495  1.00 20.00     0.015 C 
HETATM   10  N10 UNL     1     -32.192   8.801   3.319  1.00 20.00    -0.273 NA
ENDROOT
TORSDOF 0
ENDMDL
MODEL 8
REMARK VINA RESULT:      -4.8      1.493      2.681
REMARK  0 active torsions:
REMARK  status: ('A' for Active; 'I' for Inactive)
ROOT
HETATM    1  C1  UNL     1     -34.216   5.471   4.430  1.00 20.00     0.027 A 
HETATM    2  C2  UNL     1     -33.765   4.666   3.394  1.00 20.00     0.116 A 
HETATM    3  C3  UNL     1     -32.368   6.303   2.549  1.00 20.00     0.123 A 
HETATM    4  C4  UNL     1     -33.681   6.743   4.498  1.00 20.00    -0.045 A 
HETATM    5  C5  UNL     1     -32.748   7.167   3.550  1.00 20.00    -0.034 A 
HETATM    6  C6  UNL     1     -32.338   8.583   3.780  1.00 20.00     0.041 C 
HETATM    7  C7  UNL     1     -32.770   8.774   5.242  1.00 20.00     0.014 C 
HETATM    8  C8  UNL     1     -33.992   7.855   5.460  1.00 20.00     0.015 C 
HETATM    9  C9  UNL     1     -34.141   7.430   6.912  1.00 20.00     0.015 C 
HETATM   10  N10 UNL     1     -32.857   5.046   2.456  1.00 20.00    -0.273 NA
ENDROOT
TORSDOF 0
ENDMDL
MODEL 9
REMARK VINA RESULT:      -4.6      1.553      3.031
REMARK  0 active torsions:
REMARK  status: ('A' for Active; 'I' for Inactive)
ROOT
HETATM    1  C1  UNL     1     -32.505   7.447   3.750  1.00 20.00     0.027 A 
HETATM    2  C2  UNL     1     -32.326   6.753   2.561  1.00 20.00     0.116 A 
HETATM    3  C3  UNL     1     -33.607   4.959   3.259  1.00 20.00     0.123 A 
HETATM    4  C4  UNL     1     -33.291   6.835   4.706  1.00 20.00    -0.045 A 
HETATM    5  C5  UNL     1     -33.848   5.579   4.463  1.00 20.00    -0.034 A 
HETATM    6  C6  UNL     1     -34.617   5.083   5.642  1.00 20.00     0.041 C 
HETATM    7  C7  UNL     1     -34.844   6.393   6.411  1.00 20.00     0.014 C 
HETATM    8  C8  UNL     1     -33.634   7.300   6.095  1.00 20.00     0.015 C 
HETATM    9  C9  UNL     1     -33.973   8.777   6.216  1.00 20.00     0.015 C 
HETATM   10  N10 UNL     1     -32.856   5.530   2.291  1.00 20.00    -0.273 NA
ENDROOT
TORSDOF 0
ENDMDL
