MODEL 1
REMARK VINA RESULT:      -5.2      0.000      0.000
REMARK  2 active torsions:
REMARK  status: ('A' for Active; 'I' for Inactive)
REMARK    1  A    between atoms: C1_1  and  C8_8 
REMARK    2  A    between atoms: C5_5  and  C8_8 
ROOT
HETATM    1  C2  UNL     1     -34.485   6.726   6.799  1.00 20.00     0.003 C 
HETATM    2  C3  UNL     1     -33.342   7.420   6.060  1.00 20.00     0.007 C 
HETATM    3  C4  UNL     1     -34.577   5.252   6.404  1.00 20.00     0.034 C 
HETATM    4  C5  UNL     1     -33.597   7.462   4.544  1.00 20.00     0.023 C 
HETATM    5  C6  UNL     1     -34.518   5.033   4.928  1.00 20.00     0.151 A 
HETATM    6  C7  UNL     1     -33.992   6.108   4.012  1.00 20.00     0.155 A 
HETATM    7  O10 UNL     1     -35.403   5.837   4.148  1.00 20.00    -0.375 OA
ENDROOT
BRANCH   4   8
HETATM    8  C8  UNL     1     -32.361   7.997   3.819  1.00 20.00     0.076 C 
BRANCH   8   9
HETATM    9  C1  UNL     1     -32.181   7.373   2.463  1.00 20.00     0.231 C 
HETATM   10  O9  UNL     1     -32.126   7.990   1.404  1.00 20.00    -0.307 OA
ENDBRANCH   8   9
ENDBRANCH   4   8
TORSDOF 2
ENDMDL
MODEL 2
REMARK VINA RESULT:      -4.3      1.346      2.083
REMARK  2 active torsions:
REMARK  status: ('A' for Active; 'I' for Inactive)
REMARK    1  A    between atoms: C1_1  and  C8_8 
REMARK    2  A    between atoms: C5_5  and  C8_8 
ROOT
HETATM    1  C2  UNL     1     -33.712   4.849   4.119  1.00 20.00     0.003 C 
HETATM    2  C3  UNL     1     -33.326   6.020   3.217  1.00 20.00     0.007 C 
HETATM    3  C4  UNL     1     -34.853   5.235   5.061  1.00 20.00     0.034 C 
HETATM    4  C5  UNL     1     -32.749   7.190   4.032  1.00 20.00     0.023 C 
HETATM    5  C6  UNL     1     -34.637   6.547   5.741  1.00 20.00     0.151 A 
HETATM    6  C7  UNL     1     -33.628   7.533   5.207  1.00 20.00     0.155 A 
HETATM    7  O10 UNL     1     -33.365   6.716   6.368  1.00 20.00    -0.375 OA
ENDROOT
BRANCH   4   8
HETATM    8  C8  UNL     1     -32.543   8.406   3.128  1.00 20.00     0.076 C 
BRANCH   8   9
HETATM    9  C1  UNL     1     -32.184   8.017   1.720  1.00 20.00     0.231 C 
HETATM   10  O9  UNL     1     -32.357   8.717   0.729  1.00 20.00    -0.307 OA
ENDBRANCH   8   9
ENDBRANCH   4   8
TORSDOF 2
ENDMDL
MODEL 3
REMARK VINA RESULT:      -4.1      1.693      4.121
REMARK  2 active torsions:
REMARK  status: ('A' for Active; 'I' for Inactive)
REMARK    1  A    between atoms: C1_1  and  C8_8 
REMARK    2  A    between atoms: C5_5  and  C8_8 
ROOT
HETATM    1  C2  UNL     1     -32.242   7.129   2.563  1.00 20.00     0.003 C 
HETATM    2  C3  UNL     1     -32.975   5.926   3.156  1.00 20.00     0.007 C 
HETATM    3  C4  UNL     1     -31.615   7.984   3.663  1.00 20.00     0.034 C 
HETATM    4  C5  UNL     1     -34.176   6.364   4.010  1.00 20.00     0.023 C 
HETATM    5  C6  UNL     1     -32.549   8.273   4.791  1.00 20.00     0.151 A 
HETATM    6  C7  UNL     1     -33.793   7.444   4.990  1.00 20.00     0.155 A 
HETATM    7  O10 UNL     1     -33.835   8.768   4.417  1.00 20.00    -0.375 OA
ENDROOT
BRANCH   4   8
HETATM    8  C8  UNL     1     -34.775   5.156   4.731  1.00 20.00     0.076 C 
BRANCH   8   9
HETATM    9  C1  UNL     1     -34.713   5.297   6.227  1.00 20.00     0.231 C 
HETATM   10  O9  UNL     1     -33.766   4.959   6.930  1.00 20.00    -0.307 OA
ENDBRANCH   8   9
ENDBRANCH   4   8
TORSDOF 2
ENDMDL
MODEL 4
REMARK VINA RESULT:      -3.9     12.607     13.516
REMARK  2 active torsions:
REMARK  status: ('A' for Active; 'I' for Inactive)
REMARK    1  A    between atoms: C1_1  and  C8_8 
REMARK    2  A    between atoms: C5_5  and  C8_8 
ROOT
HETATM    1  C2  UNL     1     -33.856  16.401  -3.640  1.00 20.00     0.003 C 
HETATM    2  C3  UNL     1     -33.058  16.765  -2.389  1.00 20.00     0.007 C 
HETATM    3  C4  UNL     1     -34.164  17.644  -4.475  1.00 20.00     0.034 C 
HETATM    4  C5  UNL     1     -33.878  17.651  -1.438  1.00 20.00     0.023 C 
HETATM    5  C6  UNL     1     -34.693  18.781  -3.665  1.00 20.00     0.151 A 
HETATM    6  C7  UNL     1     -34.513  18.808  -2.168  1.00 20.00     0.155 A 
HETATM    7  O10 UNL     1     -35.772  18.465  -2.785  1.00 20.00    -0.375 OA
ENDROOT
BRANCH   4   8
HETATM    8  C8  UNL     1     -32.996  18.145  -0.290  1.00 20.00     0.076 C 
BRANCH   8   9
HETATM    9  C1  UNL     1     -31.787  18.892  -0.781  1.00 20.00     0.231 C 
HETATM   10  O9  UNL     1     -30.628  18.643  -0.468  1.00 20.00    -0.307 OA
ENDBRANCH   8   9
ENDBRANCH   4   8
TORSDOF 2
ENDMDL
MODEL 5
REMARK VINA RESULT:      -3.8     11.724     13.219
REMARK  2 active torsions:
REMARK  status: ('A' for Active; 'I' for Inactive)
REMARK    1  A    between atoms: C1_1  and  C8_8 
REMARK    2  A    between atoms: C5_5  and  C8_8 
ROOT
HETATM    1  C2  UNL     1     -33.222  17.798  -2.544  1.00 20.00     0.003 C 
HETATM    2  C3  UNL     1     -33.380  16.284  -2.679  1.00 20.00     0.007 C 
HETATM    3  C4  UNL     1     -34.525  18.518  -2.889  1.00 20.00     0.034 C 
HETATM    4  C5  UNL     1     -33.650  15.876  -4.137  1.00 20.00     0.023 C 
HETATM    5  C6  UNL     1     -35.149  18.032  -4.156  1.00 20.00     0.151 A 
HETATM    6  C7  UNL     1     -34.749  16.705  -4.750  1.00 20.00     0.155 A 
HETATM    7  O10 UNL     1     -34.279  17.961  -5.285  1.00 20.00    -0.375 OA
ENDROOT
BRANCH   4   8
HETATM    8  C8  UNL     1     -33.982  14.385  -4.211  1.00 20.00     0.076 C 
BRANCH   8   9
HETATM    9  C1  UNL     1     -35.346  14.133  -4.791  1.00 20.00     0.231 C 
HETATM   10  O9  UNL     1     -36.098  13.223  -4.457  1.00 20.00    -0.307 OA
ENDBRANCH   8   9
ENDBRANCH   4   8
TORSDOF 2
ENDMDL
MODEL 6
REMARK VINA RESULT:      -3.7     12.341     13.500
REMARK  2 active torsions:
REMARK  status: ('A' for Active; 'I' for Inactive)
REMARK    1  A    between atoms: C1_1  and  C8_8 
REMARK    2  A    between atoms: C5_5  and  C8_8 
ROOT
HETATM    1  C2  UNL     1     -33.231  17.241  -2.336  1.00 20.00     0.003 C 
HETATM    2  C3  UNL     1     -33.529  15.901  -3.006  1.00 20.00     0.007 C 
HETATM    3  C4  UNL     1     -34.470  18.137  -2.327  1.00 20.00     0.034 C 
HETATM    4  C5  UNL     1     -33.862  16.080  -4.496  1.00 20.00     0.023 C 
HETATM    5  C6  UNL     1     -35.160  18.201  -3.650  1.00 20.00     0.151 A 
HETATM    6  C7  UNL     1     -34.894  17.159  -4.707  1.00 20.00     0.155 A 
HETATM    7  O10 UNL     1     -34.322  18.483  -4.771  1.00 20.00    -0.375 OA
ENDROOT
BRANCH   4   8
HETATM    8  C8  UNL     1     -34.330  14.751  -5.092  1.00 20.00     0.076 C 
BRANCH   8   9
HETATM    9  C1  UNL     1     -35.660  14.873  -5.784  1.00 20.00     0.231 C 
HETATM   10  O9  UNL     1     -35.974  14.290  -6.816  1.00 20.00    -0.307 OA
ENDBRANCH   8   9
ENDBRANCH   4   8
TORSDOF 2
ENDMDL
MODEL 7
REMARK VINA RESULT:      -3.6      9.351     10.120
REMARK  2 active torsions:
REMARK  status: ('A' for Active; 'I' for Inactive)
REMARK    1  A    between atoms: C1_1  and  C8_8 
REMARK    2  A    between atoms: C5_5  and  C8_8 
ROOT
HETATM    1  C2  UNL     1     -42.513  14.145   5.706  1.00 20.00     0.003 C 
HETATM    2  C3  UNL     1     -41.277  13.494   5.088  1.00 20.00     0.007 C 
HETATM    3  C4  UNL     1     -42.118  15.242   6.694  1.00 20.00     0.034 C 
HETATM    4  C5  UNL     1     -40.445  12.752   6.147  1.00 20.00     0.023 C 
HETATM    5  C6  UNL     1     -41.050  14.820   7.648  1.00 20.00     0.151 A 
HETATM    6  C7  UNL     1     -40.192  13.614   7.357  1.00 20.00     0.155 A 
HETATM    7  O10 UNL     1     -41.273  13.576   8.313  1.00 20.00    -0.375 OA
ENDROOT
BRANCH   4   8
HETATM    8  C8  UNL     1     -39.129  12.268   5.535  1.00 20.00     0.076 C 
BRANCH   8   9
HETATM    9  C1  UNL     1     -39.343  11.487   4.267  1.00 20.00     0.231 C 
HETATM   10  O9  UNL     1     -39.076  11.887   3.139  1.00 20.00    -0.307 OA
ENDBRANCH   8   9
ENDBRANCH   4   8
TORSDOF 2
ENDMDL
MODEL 8
REMARK VINA RESULT:      -3.6      1.400      3.736
REMARK  2 active torsions:
REMARK  status: ('A' for Active; 'I' for Inactive)
REMARK    1  A    between atoms: C1_1  and  C8_8 
REMARK    2  A    between atoms: C5_5  and  C8_8 
ROOT
HETATM    1  C2  UNL     1     -32.312   9.253   4.866  1.00 20.00     0.003 C 
HETATM    2  C3  UNL     1     -33.425   8.438   5.522  1.00 20.00     0.007 C 
HETATM    3  C4  UNL     1     -32.460   9.258   3.345  1.00 20.00     0.034 C 
HETATM    4  C5  UNL     1     -33.334   6.952   5.139  1.00 20.00     0.023 C 
HETATM    5  C6  UNL     1     -32.709   7.902   2.772  1.00 20.00     0.151 A 
HETATM    6  C7  UNL     1     -33.184   6.772   3.650  1.00 20.00     0.155 A 
HETATM    7  O10 UNL     1     -31.815   6.876   3.203  1.00 20.00    -0.375 OA
ENDROOT
BRANCH   4   8
HETATM    8  C8  UNL     1     -34.559   6.200   5.661  1.00 20.00     0.076 C 
BRANCH   8   9
HETATM    9  C1  UNL     1     -34.905   5.011   4.807  1.00 20.00     0.231 C 
HETATM   10  O9  UNL     1     -34.199   4.019   4.660  1.00 20.00    -0.307 OA
ENDBRANCH   8   9
ENDBRANCH   4   8
TORSDOF 2
ENDMDL
MODEL 9
REMARK VINA RESULT:      -3.6     12.401     13.510
REMARK  2 active torsions:
REMARK  status: ('A' for Active; 'I' for Inactive)
REMARK    1  A    between atoms: C1_1  and  C8_8 
REMARK    2  A    between atoms: C5_5  and  C8_8 
ROOT
HETATM    1  C2  UNL     1     -33.738  14.818  -4.135  1.00 20.00     0.003 C 
HETATM    2  C3  UNL     1     -33.051  16.016  -3.483  1.00 20.00     0.007 C 
HETATM    3  C4  UNL     1     -34.018  15.084  -5.614  1.00 20.00     0.034 C 
HETATM    4  C5  UNL     1     -33.968  17.250  -3.467  1.00 20.00     0.023 C 
HETATM    5  C6  UNL     1     -34.640  16.417  -5.865  1.00 20.00     0.151 A 
HETATM    6  C7  UNL     1     -34.578  17.504  -4.822  1.00 20.00     0.155 A 
HETATM    7  O10 UNL     1     -35.774  16.732  -5.057  1.00 20.00    -0.375 OA
ENDROOT
BRANCH   4   8
HETATM    8  C8  UNL     1     -33.192  18.473  -2.977  1.00 20.00     0.076 C 
BRANCH   8   9
HETATM    9  C1  UNL     1     -32.584  18.257  -1.618  1.00 20.00     0.231 C 
HETATM   10  O9  UNL     1     -31.536  18.758  -1.226  1.00 20.00    -0.307 OA
ENDBRANCH   8   9
ENDBRANCH   4   8
TORSDOF 2
ENDMDL
