MODEL 1
REMARK VINA RESULT:      -3.3      0.000      0.000
REMARK  0 active torsions:
REMARK  status: ('A' for Active; 'I' for Inactive)
ROOT
HETATM    1  C1  UNL     1     -41.889  14.176   5.255  1.00 20.00     0.147 C 
HETATM    2  C2  UNL     1     -42.870  15.191   5.813  1.00 20.00     0.085 C 
HETATM    3  C3  UNL     1     -43.417  13.442   7.513  1.00 20.00     0.008 C 
HETATM    4  C4  UNL     1     -42.410  12.463   6.869  1.00 20.00     0.030 C 
HETATM    5  C5  UNL     1     -42.740  14.826   7.316  1.00 20.00     0.002 C 
HETATM    6  C6  UNL     1     -41.287  13.404   6.418  1.00 20.00     0.086 C 
HETATM    7  C7  UNL     1     -41.228  14.502   7.499  1.00 20.00    -0.019 C 
HETATM    8  C8  UNL     1     -40.294  15.691   7.189  1.00 20.00     0.017 C 
HETATM    9  C9  UNL     1     -40.872  14.018   8.918  1.00 20.00     0.017 C 
HETATM   10  O10 UNL     1     -41.666  14.011   4.066  1.00 20.00    -0.296 OA
HETATM   11 BR11 UNL     1     -39.663  12.545   5.959  1.00 20.00    -0.076 Br
ENDROOT
TORSDOF 0
ENDMDL
MODEL 2
REMARK VINA RESULT:      -3.2     13.528     14.359
REMARK  0 active torsions:
REMARK  status: ('A' for Active; 'I' for Inactive)
ROOT
HETATM    1  C1  UNL     1     -35.724  14.790  -6.599  1.00 20.00     0.147 C 
HETATM    2  C2  UNL     1     -36.099  14.255  -5.229  1.00 20.00     0.085 C 
HETATM    3  C3  UNL     1     -33.685  14.563  -4.658  1.00 20.00     0.008 C 
HETATM    4  C4  UNL     1     -33.387  15.081  -6.084  1.00 20.00     0.030 C 
HETATM    5  C5  UNL     1     -35.115  15.102  -4.379  1.00 20.00     0.002 C 
HETATM    6  C6  UNL     1     -34.662  15.863  -6.418  1.00 20.00     0.086 C 
HETATM    7  C7  UNL     1     -35.106  16.492  -5.082  1.00 20.00    -0.019 C 
HETATM    8  C8  UNL     1     -36.483  17.190  -5.100  1.00 20.00     0.017 C 
HETATM    9  C9  UNL     1     -34.112  17.490  -4.455  1.00 20.00     0.017 C 
HETATM   10  O10 UNL     1     -36.191  14.385  -7.651  1.00 20.00    -0.296 OA
HETATM   11 BR11 UNL     1     -34.524  17.011  -7.918  1.00 20.00    -0.076 Br
ENDROOT
TORSDOF 0
ENDMDL
MODEL 3
REMARK VINA RESULT:      -3.1     13.319     14.512
REMARK  0 active torsions:
REMARK  status: ('A' for Active; 'I' for Inactive)
ROOT
HETATM    1  C1  UNL     1     -34.453  15.826  -6.959  1.00 20.00     0.147 C 
HETATM    2  C2  UNL     1     -35.216  16.783  -7.855  1.00 20.00     0.085 C 
HETATM    3  C3  UNL     1     -37.177  16.296  -6.385  1.00 20.00     0.008 C 
HETATM    4  C4  UNL     1     -36.331  15.321  -5.534  1.00 20.00     0.030 C 
HETATM    5  C5  UNL     1     -36.156  17.395  -6.782  1.00 20.00     0.002 C 
HETATM    6  C6  UNL     1     -34.957  16.000  -5.534  1.00 20.00     0.086 C 
HETATM    7  C7  UNL     1     -35.259  17.512  -5.514  1.00 20.00    -0.019 C 
HETATM    8  C8  UNL     1     -34.037  18.437  -5.698  1.00 20.00     0.017 C 
HETATM    9  C9  UNL     1     -36.017  18.021  -4.272  1.00 20.00     0.017 C 
HETATM   10  O10 UNL     1     -33.605  15.040  -7.350  1.00 20.00    -0.296 OA
HETATM   11 BR11 UNL     1     -33.739  15.338  -4.245  1.00 20.00    -0.076 Br
ENDROOT
TORSDOF 0
ENDMDL
MODEL 4
REMARK VINA RESULT:      -3.0     13.227     14.436
REMARK  0 active torsions:
REMARK  status: ('A' for Active; 'I' for Inactive)
ROOT
HETATM    1  C1  UNL     1     -36.119  14.869  -5.299  1.00 20.00     0.147 C 
HETATM    2  C2  UNL     1     -34.680  14.634  -4.880  1.00 20.00     0.085 C 
HETATM    3  C3  UNL     1     -34.093  15.266  -7.226  1.00 20.00     0.008 C 
HETATM    4  C4  UNL     1     -35.586  15.463  -7.574  1.00 20.00     0.030 C 
HETATM    5  C5  UNL     1     -34.011  15.734  -5.748  1.00 20.00     0.002 C 
HETATM    6  C6  UNL     1     -36.150  16.039  -6.270  1.00 20.00     0.086 C 
HETATM    7  C7  UNL     1     -35.019  16.920  -5.701  1.00 20.00    -0.019 C 
HETATM    8  C8  UNL     1     -35.260  17.478  -4.282  1.00 20.00     0.017 C 
HETATM    9  C9  UNL     1     -34.602  18.114  -6.582  1.00 20.00     0.017 C 
HETATM   10  O10 UNL     1     -37.066  14.194  -4.927  1.00 20.00    -0.296 OA
HETATM   11 BR11 UNL     1     -37.869  16.817  -6.418  1.00 20.00    -0.076 Br
ENDROOT
TORSDOF 0
ENDMDL
MODEL 5
REMARK VINA RESULT:      -2.9      2.142      3.050
REMARK  0 active torsions:
REMARK  status: ('A' for Active; 'I' for Inactive)
ROOT
HETATM    1  C1  UNL     1     -40.988  16.035   7.519  1.00 20.00     0.147 C 
HETATM    2  C2  UNL     1     -40.289  15.296   8.645  1.00 20.00     0.085 C 
HETATM    3  C3  UNL     1     -42.564  14.459   9.253  1.00 20.00     0.008 C 
HETATM    4  C4  UNL     1     -43.198  15.259   8.092  1.00 20.00     0.030 C 
HETATM    5  C5  UNL     1     -41.187  14.031   8.676  1.00 20.00     0.002 C 
HETATM    6  C6  UNL     1     -42.121  15.160   7.005  1.00 20.00     0.086 C 
HETATM    7  C7  UNL     1     -41.508  13.756   7.177  1.00 20.00    -0.019 C 
HETATM    8  C8  UNL     1     -40.260  13.465   6.316  1.00 20.00     0.017 C 
HETATM    9  C9  UNL     1     -42.478  12.577   6.964  1.00 20.00     0.017 C 
HETATM   10  O10 UNL     1     -40.688  17.154   7.135  1.00 20.00    -0.296 OA
HETATM   11 BR11 UNL     1     -42.693  15.655   5.269  1.00 20.00    -0.076 Br
ENDROOT
TORSDOF 0
ENDMDL
MODEL 6
REMARK VINA RESULT:      -2.9      1.992      3.084
REMARK  0 active torsions:
REMARK  status: ('A' for Active; 'I' for Inactive)
ROOT
HETATM    1  C1  UNL     1     -42.421  13.667   8.468  1.00 20.00     0.147 C 
HETATM    2  C2  UNL     1     -43.218  14.649   9.305  1.00 20.00     0.085 C 
HETATM    3  C3  UNL     1     -40.999  15.542  10.029  1.00 20.00     0.008 C 
HETATM    4  C4  UNL     1     -40.265  14.494   9.163  1.00 20.00     0.030 C 
HETATM    5  C5  UNL     1     -42.265  15.868   9.191  1.00 20.00     0.002 C 
HETATM    6  C6  UNL     1     -41.185  14.381   7.942  1.00 20.00     0.086 C 
HETATM    7  C7  UNL     1     -41.739  15.803   7.726  1.00 20.00    -0.019 C 
HETATM    8  C8  UNL     1     -42.848  15.931   6.660  1.00 20.00     0.017 C 
HETATM    9  C9  UNL     1     -40.688  16.883   7.404  1.00 20.00     0.017 C 
HETATM   10  O10 UNL     1     -42.729  12.499   8.292  1.00 20.00    -0.296 OA
HETATM   11 BR11 UNL     1     -40.422  13.507   6.445  1.00 20.00    -0.076 Br
ENDROOT
TORSDOF 0
ENDMDL
MODEL 7
REMARK VINA RESULT:      -2.9      1.936      3.257
REMARK  0 active torsions:
REMARK  status: ('A' for Active; 'I' for Inactive)
ROOT
HETATM    1  C1  UNL     1     -41.334  14.017   8.648  1.00 20.00     0.147 C 
HETATM    2  C2  UNL     1     -42.666  14.532   9.162  1.00 20.00     0.085 C 
HETATM    3  C3  UNL     1     -42.547  16.167   7.275  1.00 20.00     0.008 C 
HETATM    4  C4  UNL     1     -41.182  15.594   6.830  1.00 20.00     0.030 C 
HETATM    5  C5  UNL     1     -43.301  14.914   7.798  1.00 20.00     0.002 C 
HETATM    6  C6  UNL     1     -41.345  14.099   7.129  1.00 20.00     0.086 C 
HETATM    7  C7  UNL     1     -42.826  13.791   6.830  1.00 20.00    -0.019 C 
HETATM    8  C8  UNL     1     -43.306  12.380   7.229  1.00 20.00     0.017 C 
HETATM    9  C9  UNL     1     -43.268  14.013   5.370  1.00 20.00     0.017 C 
HETATM   10  O10 UNL     1     -40.418  13.638   9.360  1.00 20.00    -0.296 OA
HETATM   11 BR11 UNL     1     -40.043  12.979   6.331  1.00 20.00    -0.076 Br
ENDROOT
TORSDOF 0
ENDMDL
MODEL 8
REMARK VINA RESULT:      -2.8     13.243     14.478
REMARK  0 active torsions:
REMARK  status: ('A' for Active; 'I' for Inactive)
ROOT
HETATM    1  C1  UNL     1     -36.303  17.525  -4.918  1.00 20.00     0.147 C 
HETATM    2  C2  UNL     1     -37.225  17.226  -6.085  1.00 20.00     0.085 C 
HETATM    3  C3  UNL     1     -35.285  17.847  -7.532  1.00 20.00     0.008 C 
HETATM    4  C4  UNL     1     -34.419  18.149  -6.287  1.00 20.00     0.030 C 
HETATM    5  C5  UNL     1     -36.167  16.657  -7.068  1.00 20.00     0.002 C 
HETATM    6  C6  UNL     1     -34.897  17.083  -5.294  1.00 20.00     0.086 C 
HETATM    7  C7  UNL     1     -35.202  15.842  -6.157  1.00 20.00    -0.019 C 
HETATM    8  C8  UNL     1     -35.884  14.670  -5.418  1.00 20.00     0.017 C 
HETATM    9  C9  UNL     1     -33.999  15.248  -6.914  1.00 20.00     0.017 C 
HETATM   10  O10 UNL     1     -36.654  18.060  -3.878  1.00 20.00    -0.296 OA
HETATM   11 BR11 UNL     1     -33.781  16.842  -3.784  1.00 20.00    -0.076 Br
ENDROOT
TORSDOF 0
ENDMDL
MODEL 9
REMARK VINA RESULT:      -2.8     13.481     14.546
REMARK  0 active torsions:
REMARK  status: ('A' for Active; 'I' for Inactive)
ROOT
HETATM    1  C1  UNL     1     -36.176  17.230  -5.007  1.00 20.00     0.147 C 
HETATM    2  C2  UNL     1     -34.829  17.213  -4.310  1.00 20.00     0.085 C 
HETATM    3  C3  UNL     1     -34.692  14.829  -5.045  1.00 20.00     0.008 C 
HETATM    4  C4  UNL     1     -36.082  14.927  -5.713  1.00 20.00     0.030 C 
HETATM    5  C5  UNL     1     -34.091  16.243  -5.270  1.00 20.00     0.002 C 
HETATM    6  C6  UNL     1     -36.082  16.362  -6.252  1.00 20.00     0.086 C 
HETATM    7  C7  UNL     1     -34.625  16.626  -6.682  1.00 20.00    -0.019 C 
HETATM    8  C8  UNL     1     -34.306  18.079  -7.094  1.00 20.00     0.017 C 
HETATM    9  C9  UNL     1     -34.090  15.719  -7.807  1.00 20.00     0.017 C 
HETATM   10  O10 UNL     1     -37.160  17.824  -4.595  1.00 20.00    -0.296 OA
HETATM   11 BR11 UNL     1     -37.444  16.742  -7.510  1.00 20.00    -0.076 Br
ENDROOT
TORSDOF 0
ENDMDL
