MODEL 1
REMARK VINA RESULT:      -3.6      0.000      0.000
REMARK  1 active torsions:
REMARK  status: ('A' for Active; 'I' for Inactive)
REMARK    1  A    between atoms: C1_1  and  C5_5 
ROOT
HETATM    1  C2  UNL     1     -33.661  15.156  -6.844  1.00 20.00     0.022 C 
HETATM    2  C3  UNL     1     -34.647  15.650  -7.917  1.00 20.00     0.011 C 
HETATM    3  C4  UNL     1     -35.897  14.763  -6.071  1.00 20.00     0.031 C 
HETATM    4  C5  UNL     1     -34.538  15.367  -5.606  1.00 20.00     0.057 C 
HETATM    5  C6  UNL     1     -35.842  16.017  -7.011  1.00 20.00    -0.035 C 
HETATM    6  C7  UNL     1     -35.250  16.781  -5.733  1.00 20.00    -0.023 C 
HETATM    7  C8  UNL     1     -37.080  16.495  -7.715  1.00 20.00     0.016 C 
HETATM    8  C9  UNL     1     -34.347  17.992  -6.012  1.00 20.00     0.017 C 
HETATM    9  C10 UNL     1     -36.232  17.200  -4.621  1.00 20.00     0.017 C 
ENDROOT
BRANCH   4  10
HETATM   10  C1  UNL     1     -33.972  14.951  -4.315  1.00 20.00     0.182 C 
HETATM   11  O11 UNL     1     -33.162  15.768  -3.794  1.00 20.00    -0.647 OA
HETATM   12  O12 UNL     1     -34.372  13.829  -3.898  1.00 20.00    -0.647 OA
ENDBRANCH   4  10
TORSDOF 1
ENDMDL
MODEL 2
REMARK VINA RESULT:      -3.4      1.166      1.578
REMARK  1 active torsions:
REMARK  status: ('A' for Active; 'I' for Inactive)
REMARK    1  A    between atoms: C1_1  and  C5_5 
ROOT
HETATM    1  C2  UNL     1     -33.905  15.140  -6.753  1.00 20.00     0.022 C 
HETATM    2  C3  UNL     1     -34.066  16.343  -7.699  1.00 20.00     0.011 C 
HETATM    3  C4  UNL     1     -36.245  15.571  -7.055  1.00 20.00     0.031 C 
HETATM    4  C5  UNL     1     -35.191  15.311  -5.937  1.00 20.00     0.057 C 
HETATM    5  C6  UNL     1     -35.412  16.894  -7.179  1.00 20.00    -0.035 C 
HETATM    6  C7  UNL     1     -35.354  16.849  -5.578  1.00 20.00    -0.023 C 
HETATM    7  C8  UNL     1     -35.968  18.077  -7.918  1.00 20.00     0.016 C 
HETATM    8  C9  UNL     1     -34.154  17.540  -4.912  1.00 20.00     0.017 C 
HETATM    9  C10 UNL     1     -36.611  17.280  -4.797  1.00 20.00     0.017 C 
ENDROOT
BRANCH   4  10
HETATM   10  C1  UNL     1     -35.465  14.292  -4.915  1.00 20.00     0.182 C 
HETATM   11  O11 UNL     1     -36.641  13.832  -4.915  1.00 20.00    -0.647 OA
HETATM   12  O12 UNL     1     -34.485  14.013  -4.168  1.00 20.00    -0.647 OA
ENDBRANCH   4  10
TORSDOF 1
ENDMDL
MODEL 3
REMARK VINA RESULT:      -3.3      1.225      2.723
REMARK  1 active torsions:
REMARK  status: ('A' for Active; 'I' for Inactive)
REMARK    1  A    between atoms: C1_1  and  C5_5 
ROOT
HETATM    1  C2  UNL     1     -36.979  15.952  -5.166  1.00 20.00     0.022 C 
HETATM    2  C3  UNL     1     -36.819  17.274  -5.938  1.00 20.00     0.011 C 
HETATM    3  C4  UNL     1     -34.705  16.688  -4.967  1.00 20.00     0.031 C 
HETATM    4  C5  UNL     1     -35.548  15.424  -5.311  1.00 20.00     0.057 C 
HETATM    5  C6  UNL     1     -35.329  17.162  -6.325  1.00 20.00    -0.035 C 
HETATM    6  C7  UNL     1     -35.079  15.655  -6.810  1.00 20.00    -0.023 C 
HETATM    7  C8  UNL     1     -34.750  18.336  -7.061  1.00 20.00     0.016 C 
HETATM    8  C9  UNL     1     -36.003  15.125  -7.918  1.00 20.00     0.017 C 
HETATM    9  C10 UNL     1     -33.642  15.247  -7.191  1.00 20.00     0.017 C 
ENDROOT
BRANCH   4  10
HETATM   10  C1  UNL     1     -35.241  14.153  -4.641  1.00 20.00     0.182 C 
HETATM   11  O11 UNL     1     -34.081  14.067  -4.152  1.00 20.00    -0.647 OA
HETATM   12  O12 UNL     1     -36.183  13.311  -4.644  1.00 20.00    -0.647 OA
ENDBRANCH   4  10
TORSDOF 1
ENDMDL
MODEL 4
REMARK VINA RESULT:      -3.3     13.589     15.083
REMARK  1 active torsions:
REMARK  status: ('A' for Active; 'I' for Inactive)
REMARK    1  A    between atoms: C1_1  and  C5_5 
ROOT
HETATM    1  C2  UNL     1     -43.060  15.045   7.966  1.00 20.00     0.022 C 
HETATM    2  C3  UNL     1     -43.416  15.042   6.468  1.00 20.00     0.011 C 
HETATM    3  C4  UNL     1     -41.046  15.339   6.697  1.00 20.00     0.031 C 
HETATM    4  C5  UNL     1     -41.634  14.495   7.868  1.00 20.00     0.057 C 
HETATM    5  C6  UNL     1     -42.092  14.489   5.896  1.00 20.00    -0.035 C 
HETATM    6  C7  UNL     1     -41.635  13.281   6.845  1.00 20.00    -0.023 C 
HETATM    7  C8  UNL     1     -42.011  14.395   4.400  1.00 20.00     0.016 C 
HETATM    8  C9  UNL     1     -42.666  12.168   7.087  1.00 20.00     0.017 C 
HETATM    9  C10 UNL     1     -40.292  12.590   6.539  1.00 20.00     0.017 C 
ENDROOT
BRANCH   4  10
HETATM   10  C1  UNL     1     -40.879  14.387   9.124  1.00 20.00     0.182 C 
HETATM   11  O11 UNL     1     -39.845  15.107   9.195  1.00 20.00    -0.647 OA
HETATM   12  O12 UNL     1     -41.367  13.584   9.968  1.00 20.00    -0.647 OA
ENDBRANCH   4  10
TORSDOF 1
ENDMDL
MODEL 5
REMARK VINA RESULT:      -3.2      1.702      2.977
REMARK  1 active torsions:
REMARK  status: ('A' for Active; 'I' for Inactive)
REMARK    1  A    between atoms: C1_1  and  C5_5 
ROOT
HETATM    1  C2  UNL     1     -34.500  16.038  -4.516  1.00 20.00     0.022 C 
HETATM    2  C3  UNL     1     -33.969  17.477  -4.644  1.00 20.00     0.011 C 
HETATM    3  C4  UNL     1     -34.404  16.618  -6.841  1.00 20.00     0.031 C 
HETATM    4  C5  UNL     1     -35.361  15.994  -5.782  1.00 20.00     0.057 C 
HETATM    5  C6  UNL     1     -34.667  17.887  -5.958  1.00 20.00    -0.035 C 
HETATM    6  C7  UNL     1     -36.176  17.353  -5.879  1.00 20.00    -0.023 C 
HETATM    7  C8  UNL     1     -34.338  19.257  -6.479  1.00 20.00     0.016 C 
HETATM    8  C9  UNL     1     -36.989  17.768  -4.643  1.00 20.00     0.017 C 
HETATM    9  C10 UNL     1     -37.084  17.567  -7.106  1.00 20.00     0.017 C 
ENDROOT
BRANCH   4  10
HETATM   10  C1  UNL     1     -36.032  14.721  -6.081  1.00 20.00     0.182 C 
HETATM   11  O11 UNL     1     -36.581  14.156  -5.095  1.00 20.00    -0.647 OA
HETATM   12  O12 UNL     1     -35.970  14.361  -7.290  1.00 20.00    -0.647 OA
ENDBRANCH   4  10
TORSDOF 1
ENDMDL
MODEL 6
REMARK VINA RESULT:      -3.0      1.956      3.293
REMARK  1 active torsions:
REMARK  status: ('A' for Active; 'I' for Inactive)
REMARK    1  A    between atoms: C1_1  and  C5_5 
ROOT
HETATM    1  C2  UNL     1     -37.204  16.011  -5.490  1.00 20.00     0.022 C 
HETATM    2  C3  UNL     1     -37.289  17.343  -4.724  1.00 20.00     0.011 C 
HETATM    3  C4  UNL     1     -34.984  16.698  -4.896  1.00 20.00     0.031 C 
HETATM    4  C5  UNL     1     -35.815  16.187  -6.111  1.00 20.00     0.057 C 
HETATM    5  C6  UNL     1     -35.917  17.940  -5.106  1.00 20.00    -0.035 C 
HETATM    6  C7  UNL     1     -35.702  17.669  -6.670  1.00 20.00    -0.023 C 
HETATM    7  C8  UNL     1     -35.577  19.262  -4.478  1.00 20.00     0.016 C 
HETATM    8  C9  UNL     1     -36.818  18.144  -7.612  1.00 20.00     0.017 C 
HETATM    9  C10 UNL     1     -34.365  18.104  -7.302  1.00 20.00     0.017 C 
ENDROOT
BRANCH   4  10
HETATM   10  C1  UNL     1     -35.302  15.067  -6.911  1.00 20.00     0.182 C 
HETATM   11  O11 UNL     1     -34.066  14.840  -6.790  1.00 20.00    -0.647 OA
HETATM   12  O12 UNL     1     -36.168  14.478  -7.617  1.00 20.00    -0.647 OA
ENDBRANCH   4  10
TORSDOF 1
ENDMDL
MODEL 7
REMARK VINA RESULT:      -3.0      1.072      2.173
REMARK  1 active torsions:
REMARK  status: ('A' for Active; 'I' for Inactive)
REMARK    1  A    between atoms: C1_1  and  C5_5 
ROOT
HETATM    1  C2  UNL     1     -35.179  14.625  -5.009  1.00 20.00     0.022 C 
HETATM    2  C3  UNL     1     -36.223  14.584  -6.139  1.00 20.00     0.011 C 
HETATM    3  C4  UNL     1     -36.198  16.788  -5.192  1.00 20.00     0.031 C 
HETATM    4  C5  UNL     1     -34.800  16.107  -5.096  1.00 20.00     0.057 C 
HETATM    5  C6  UNL     1     -36.174  16.062  -6.582  1.00 20.00    -0.035 C 
HETATM    6  C7  UNL     1     -34.630  16.490  -6.627  1.00 20.00    -0.023 C 
HETATM    7  C8  UNL     1     -37.137  16.457  -7.664  1.00 20.00     0.016 C 
HETATM    8  C9  UNL     1     -33.694  15.607  -7.467  1.00 20.00     0.017 C 
HETATM    9  C10 UNL     1     -34.296  17.954  -6.975  1.00 20.00     0.017 C 
ENDROOT
BRANCH   4  10
HETATM   10  C1  UNL     1     -33.828  16.600  -4.111  1.00 20.00     0.182 C 
HETATM   11  O11 UNL     1     -32.878  15.809  -3.849  1.00 20.00    -0.647 OA
HETATM   12  O12 UNL     1     -34.072  17.752  -3.656  1.00 20.00    -0.647 OA
ENDBRANCH   4  10
TORSDOF 1
ENDMDL
MODEL 8
REMARK VINA RESULT:      -3.0      2.351      3.735
REMARK  1 active torsions:
REMARK  status: ('A' for Active; 'I' for Inactive)
REMARK    1  A    between atoms: C1_1  and  C5_5 
ROOT
HETATM    1  C2  UNL     1     -35.393  17.982  -6.778  1.00 20.00     0.022 C 
HETATM    2  C3  UNL     1     -34.200  18.160  -5.823  1.00 20.00     0.011 C 
HETATM    3  C4  UNL     1     -36.030  17.207  -4.600  1.00 20.00     0.031 C 
HETATM    4  C5  UNL     1     -36.058  16.781  -6.098  1.00 20.00     0.057 C 
HETATM    5  C6  UNL     1     -34.493  17.010  -4.836  1.00 20.00    -0.035 C 
HETATM    6  C7  UNL     1     -34.927  15.737  -5.708  1.00 20.00    -0.023 C 
HETATM    7  C8  UNL     1     -33.553  16.887  -3.670  1.00 20.00     0.016 C 
HETATM    8  C9  UNL     1     -33.963  15.306  -6.824  1.00 20.00     0.017 C 
HETATM    9  C10 UNL     1     -35.349  14.458  -4.960  1.00 20.00     0.017 C 
ENDROOT
BRANCH   4  10
HETATM   10  C1  UNL     1     -37.317  16.302  -6.685  1.00 20.00     0.182 C 
HETATM   11  O11 UNL     1     -38.300  16.263  -5.894  1.00 20.00    -0.647 OA
HETATM   12  O12 UNL     1     -37.248  15.992  -7.908  1.00 20.00    -0.647 OA
ENDBRANCH   4  10
TORSDOF 1
ENDMDL
MODEL 9
REMARK VINA RESULT:      -3.0     13.645     14.928
REMARK  1 active torsions:
REMARK  status: ('A' for Active; 'I' for Inactive)
REMARK    1  A    between atoms: C1_1  and  C5_5 
ROOT
HETATM    1  C2  UNL     1     -40.962  12.890   6.686  1.00 20.00     0.022 C 
HETATM    2  C3  UNL     1     -41.126  13.519   5.291  1.00 20.00     0.011 C 
HETATM    3  C4  UNL     1     -43.292  13.308   6.301  1.00 20.00     0.031 C 
HETATM    4  C5  UNL     1     -42.179  13.520   7.370  1.00 20.00     0.057 C 
HETATM    5  C6  UNL     1     -42.403  14.350   5.538  1.00 20.00    -0.035 C 
HETATM    6  C7  UNL     1     -42.240  15.055   6.968  1.00 20.00    -0.023 C 
HETATM    7  C8  UNL     1     -42.947  15.089   4.349  1.00 20.00     0.016 C 
HETATM    8  C9  UNL     1     -40.963  15.882   7.186  1.00 20.00     0.017 C 
HETATM    9  C10 UNL     1     -43.417  15.897   7.498  1.00 20.00     0.017 C 
ENDROOT
BRANCH   4  10
HETATM   10  C1  UNL     1     -42.435  13.123   8.761  1.00 20.00     0.182 C 
HETATM   11  O11 UNL     1     -41.704  13.683   9.625  1.00 20.00    -0.647 OA
HETATM   12  O12 UNL     1     -43.356  12.271   8.908  1.00 20.00    -0.647 OA
ENDBRANCH   4  10
TORSDOF 1
ENDMDL
