MODEL 1
REMARK VINA RESULT:      -3.5      0.000      0.000
REMARK  1 active torsions:
REMARK  status: ('A' for Active; 'I' for Inactive)
REMARK    1  A    between atoms: C4_4  and  C6_6 
ROOT
HETATM    1  C1  UNL     1     -23.914  19.048   9.764  1.00 20.00     0.280 C 
HETATM    2  C2  UNL     1     -22.506  18.613  10.156  1.00 20.00     0.104 C 
HETATM    3  C3  UNL     1     -23.768  17.269  12.168  1.00 20.00     0.109 C 
HETATM    4  C4  UNL     1     -25.067  17.799  11.550  1.00 20.00     0.229 C 
HETATM    5  N7  UNL     1     -24.942  18.069  10.111  1.00 20.00     0.089 N 
HETATM    6  S8  UNL     1     -22.356  18.390  11.949  1.00 20.00    -0.165 SA
HETATM    7  H21 UNL     1     -25.851  18.390   9.747  1.00 20.00     0.316 HD
ENDROOT
BRANCH   4   8
HETATM    8  C6  UNL     1     -25.656  18.987  12.322  1.00 20.00     0.032 C 
HETATM    9  C5  UNL     1     -27.147  18.987  12.273  1.00 20.00     0.007 C 
ENDBRANCH   4   8
TORSDOF 1
ENDMDL
MODEL 2
REMARK VINA RESULT:      -3.4     15.942     16.386
REMARK  1 active torsions:
REMARK  status: ('A' for Active; 'I' for Inactive)
REMARK    1  A    between atoms: C4_4  and  C6_6 
ROOT
HETATM    1  C1  UNL     1     -32.248   8.010   4.113  1.00 20.00     0.280 C 
HETATM    2  C2  UNL     1     -32.236   7.141   2.861  1.00 20.00     0.104 C 
HETATM    3  C3  UNL     1     -34.556   6.118   3.870  1.00 20.00     0.109 C 
HETATM    4  C4  UNL     1     -34.367   7.125   5.011  1.00 20.00     0.229 C 
HETATM    5  N7  UNL     1     -33.594   8.306   4.602  1.00 20.00     0.089 N 
HETATM    6  S8  UNL     1     -32.990   5.521   3.170  1.00 20.00    -0.165 SA
HETATM    7  H21 UNL     1     -33.528   8.959   5.397  1.00 20.00     0.316 HD
ENDROOT
BRANCH   4   8
HETATM    8  C6  UNL     1     -33.826   6.483   6.294  1.00 20.00     0.032 C 
HETATM    9  C5  UNL     1     -34.500   5.184   6.583  1.00 20.00     0.007 C 
ENDBRANCH   4   8
TORSDOF 1
ENDMDL
MODEL 3
REMARK VINA RESULT:      -3.2     17.503     18.181
REMARK  1 active torsions:
REMARK  status: ('A' for Active; 'I' for Inactive)
REMARK    1  A    between atoms: C4_4  and  C6_6 
ROOT
HETATM    1  C1  UNL     1     -33.984  14.733  -4.553  1.00 20.00     0.280 C 
HETATM    2  C2  UNL     1     -34.892  15.418  -5.569  1.00 20.00     0.104 C 
HETATM    3  C3  UNL     1     -33.943  17.726  -4.465  1.00 20.00     0.109 C 
HETATM    4  C4  UNL     1     -33.085  16.812  -3.580  1.00 20.00     0.229 C 
HETATM    5  N7  UNL     1     -32.799  15.517  -4.212  1.00 20.00     0.089 N 
HETATM    6  S8  UNL     1     -35.536  16.989  -4.930  1.00 20.00    -0.165 SA
HETATM    7  H21 UNL     1     -32.195  14.962  -3.588  1.00 20.00     0.316 HD
ENDROOT
BRANCH   4   8
HETATM    8  C6  UNL     1     -33.640  16.662  -2.158  1.00 20.00     0.032 C 
HETATM    9  C5  UNL     1     -33.162  17.758  -1.265  1.00 20.00     0.007 C 
ENDBRANCH   4   8
TORSDOF 1
ENDMDL
MODEL 4
REMARK VINA RESULT:      -3.1     16.603     17.252
REMARK  1 active torsions:
REMARK  status: ('A' for Active; 'I' for Inactive)
REMARK    1  A    between atoms: C4_4  and  C6_6 
ROOT
HETATM    1  C1  UNL     1     -34.353   5.619   6.549  1.00 20.00     0.280 C 
HETATM    2  C2  UNL     1     -34.018   7.101   6.673  1.00 20.00     0.104 C 
HETATM    3  C3  UNL     1     -34.373   7.135   3.967  1.00 20.00     0.109 C 
HETATM    4  C4  UNL     1     -34.722   5.649   4.111  1.00 20.00     0.229 C 
HETATM    5  N7  UNL     1     -35.256   5.318   5.440  1.00 20.00     0.089 N 
HETATM    6  S8  UNL     1     -33.166   7.714   5.194  1.00 20.00    -0.165 SA
HETATM    7  H21 UNL     1     -35.502   4.318   5.467  1.00 20.00     0.316 HD
ENDROOT
BRANCH   4   8
HETATM    8  C6  UNL     1     -33.576   4.721   3.691  1.00 20.00     0.032 C 
HETATM    9  C5  UNL     1     -32.869   5.237   2.483  1.00 20.00     0.007 C 
ENDBRANCH   4   8
TORSDOF 1
ENDMDL
MODEL 5
REMARK VINA RESULT:      -3.1     18.488     19.177
REMARK  1 active torsions:
REMARK  status: ('A' for Active; 'I' for Inactive)
REMARK    1  A    between atoms: C4_4  and  C6_6 
ROOT
HETATM    1  C1  UNL     1     -35.209  13.786  -4.519  1.00 20.00     0.280 C 
HETATM    2  C2  UNL     1     -36.094  14.485  -5.545  1.00 20.00     0.104 C 
HETATM    3  C3  UNL     1     -34.172  16.421  -5.492  1.00 20.00     0.109 C 
HETATM    4  C4  UNL     1     -33.444  15.508  -4.499  1.00 20.00     0.229 C 
HETATM    5  N7  UNL     1     -33.788  14.090  -4.675  1.00 20.00     0.089 N 
HETATM    6  S8  UNL     1     -35.981  16.289  -5.401  1.00 20.00    -0.165 SA
HETATM    7  H21 UNL     1     -33.247  13.525  -4.005  1.00 20.00     0.316 HD
ENDROOT
BRANCH   4   8
HETATM    8  C6  UNL     1     -33.587  15.971  -3.044  1.00 20.00     0.032 C 
HETATM    9  C5  UNL     1     -33.211  17.406  -2.886  1.00 20.00     0.007 C 
ENDBRANCH   4   8
TORSDOF 1
ENDMDL
MODEL 6
REMARK VINA RESULT:      -3.1     23.583     24.440
REMARK  1 active torsions:
REMARK  status: ('A' for Active; 'I' for Inactive)
REMARK    1  A    between atoms: C4_4  and  C6_6 
ROOT
HETATM    1  C1  UNL     1     -42.249   4.612   1.470  1.00 20.00     0.280 C 
HETATM    2  C2  UNL     1     -43.417   5.342   2.124  1.00 20.00     0.104 C 
HETATM    3  C3  UNL     1     -43.335   6.916  -0.104  1.00 20.00     0.109 C 
HETATM    4  C4  UNL     1     -42.197   5.999  -0.568  1.00 20.00     0.229 C 
HETATM    5  N7  UNL     1     -42.285   4.650   0.009  1.00 20.00     0.089 N 
HETATM    6  S8  UNL     1     -43.417   7.106   1.700  1.00 20.00    -0.165 SA
HETATM    7  H21 UNL     1     -41.517   4.072  -0.362  1.00 20.00     0.316 HD
ENDROOT
BRANCH   4   8
HETATM    8  C6  UNL     1     -40.809   6.626  -0.386  1.00 20.00     0.032 C 
HETATM    9  C5  UNL     1     -40.891   8.112  -0.272  1.00 20.00     0.007 C 
ENDBRANCH   4   8
TORSDOF 1
ENDMDL
MODEL 7
REMARK VINA RESULT:      -3.1     14.542     15.307
REMARK  1 active torsions:
REMARK  status: ('A' for Active; 'I' for Inactive)
REMARK    1  A    between atoms: C4_4  and  C6_6 
ROOT
HETATM    1  C1  UNL     1     -34.035  18.562   0.714  1.00 20.00     0.280 C 
HETATM    2  C2  UNL     1     -32.719  19.263   1.036  1.00 20.00     0.104 C 
HETATM    3  C3  UNL     1     -32.247  19.032  -1.642  1.00 20.00     0.109 C 
HETATM    4  C4  UNL     1     -33.638  18.391  -1.714  1.00 20.00     0.229 C 
HETATM    5  N7  UNL     1     -34.527  18.842  -0.634  1.00 20.00     0.089 N 
HETATM    6  S8  UNL     1     -31.390  18.720  -0.072  1.00 20.00    -0.165 SA
HETATM    7  H21 UNL     1     -35.452  18.405  -0.753  1.00 20.00     0.316 HD
ENDROOT
BRANCH   4   8
HETATM    8  C6  UNL     1     -33.588  16.862  -1.834  1.00 20.00     0.032 C 
HETATM    9  C5  UNL     1     -33.281  16.432  -3.229  1.00 20.00     0.007 C 
ENDBRANCH   4   8
TORSDOF 1
ENDMDL
MODEL 8
REMARK VINA RESULT:      -3.0     17.483     18.323
REMARK  1 active torsions:
REMARK  status: ('A' for Active; 'I' for Inactive)
REMARK    1  A    between atoms: C4_4  and  C6_6 
ROOT
HETATM    1  C1  UNL     1     -40.542  14.961   7.153  1.00 20.00     0.280 C 
HETATM    2  C2  UNL     1     -42.014  15.089   7.531  1.00 20.00     0.104 C 
HETATM    3  C3  UNL     1     -42.172  12.483   6.738  1.00 20.00     0.109 C 
HETATM    4  C4  UNL     1     -40.664  12.592   6.478  1.00 20.00     0.229 C 
HETATM    5  N7  UNL     1     -40.016  13.607   7.319  1.00 20.00     0.089 N 
HETATM    6  S8  UNL     1     -43.062  14.045   6.483  1.00 20.00    -0.165 SA
HETATM    7  H21 UNL     1     -39.004  13.612   7.124  1.00 20.00     0.316 HD
ENDROOT
BRANCH   4   8
HETATM    8  C6  UNL     1     -40.324  12.756   4.991  1.00 20.00     0.032 C 
HETATM    9  C5  UNL     1     -39.283  11.780   4.557  1.00 20.00     0.007 C 
ENDBRANCH   4   8
TORSDOF 1
ENDMDL
MODEL 9
REMARK VINA RESULT:      -2.9     23.489     24.265
REMARK  1 active torsions:
REMARK  status: ('A' for Active; 'I' for Inactive)
REMARK    1  A    between atoms: C4_4  and  C6_6 
ROOT
HETATM    1  C1  UNL     1     -40.802   6.432  -0.038  1.00 20.00     0.280 C 
HETATM    2  C2  UNL     1     -41.162   7.908  -0.159  1.00 20.00     0.104 C 
HETATM    3  C3  UNL     1     -43.262   7.257   1.456  1.00 20.00     0.109 C 
HETATM    4  C4  UNL     1     -42.670   5.842   1.460  1.00 20.00     0.229 C 
HETATM    5  N7  UNL     1     -41.219   5.835   1.230  1.00 20.00     0.089 N 
HETATM    6  S8  UNL     1     -42.956   8.162  -0.088  1.00 20.00    -0.165 SA
HETATM    7  H21 UNL     1     -40.874   4.865   1.276  1.00 20.00     0.316 HD
ENDROOT
BRANCH   4   8
HETATM    8  C6  UNL     1     -43.417   4.878   0.531  1.00 20.00     0.032 C 
HETATM    9  C5  UNL     1     -43.417   3.487   1.071  1.00 20.00     0.007 C 
ENDBRANCH   4   8
TORSDOF 1
ENDMDL
