MODEL 1
REMARK VINA RESULT:      -3.7      0.000      0.000
REMARK  1 active torsions:
REMARK  status: ('A' for Active; 'I' for Inactive)
REMARK    1  A    between atoms: C3_3  and  O10_10 
ROOT
HETATM    1  C1  UNL     1     -33.648  16.061  -3.484  1.00 20.00     0.041 C 
HETATM    2  C2  UNL     1     -34.566  17.188  -5.471  1.00 20.00     0.020 C 
HETATM    3  C3  UNL     1     -33.311  15.273  -4.744  1.00 20.00     0.126 C 
HETATM    4  C4  UNL     1     -34.139  17.429  -3.997  1.00 20.00    -0.045 C 
HETATM    5  C5  UNL     1     -34.421  15.672  -5.734  1.00 20.00    -0.021 C 
HETATM    6  C6  UNL     1     -33.001  18.461  -3.940  1.00 20.00     0.015 C 
HETATM    7  C7  UNL     1     -35.312  17.939  -3.152  1.00 20.00     0.015 C 
HETATM    8  C8  UNL     1     -35.751  14.942  -5.468  1.00 20.00     0.017 C 
HETATM    9  C9  UNL     1     -34.000  15.397  -7.182  1.00 20.00     0.017 C 
ENDROOT
BRANCH   3  10
HETATM   10  O10 UNL     1     -33.273  13.886  -4.467  1.00 20.00    -0.395 OA
HETATM   11  H28 UNL     1     -32.351  13.664  -4.249  1.00 20.00     0.210 HD
ENDBRANCH   3  10
TORSDOF 1
ENDMDL
MODEL 2
REMARK VINA RESULT:      -3.6     12.284     13.382
REMARK  1 active torsions:
REMARK  status: ('A' for Active; 'I' for Inactive)
REMARK    1  A    between atoms: C3_3  and  O10_10 
ROOT
HETATM    1  C1  UNL     1     -33.439   8.090   5.273  1.00 20.00     0.041 C 
HETATM    2  C2  UNL     1     -33.262   6.435   3.459  1.00 20.00     0.020 C 
HETATM    3  C3  UNL     1     -33.719   6.689   5.803  1.00 20.00     0.126 C 
HETATM    4  C4  UNL     1     -32.822   7.865   3.879  1.00 20.00    -0.045 C 
HETATM    5  C5  UNL     1     -34.211   5.919   4.564  1.00 20.00    -0.021 C 
HETATM    6  C6  UNL     1     -31.289   7.944   3.952  1.00 20.00     0.015 C 
HETATM    7  C7  UNL     1     -33.325   8.918   2.884  1.00 20.00     0.015 C 
HETATM    8  C8  UNL     1     -35.679   6.228   4.211  1.00 20.00     0.017 C 
HETATM    9  C9  UNL     1     -34.069   4.405   4.756  1.00 20.00     0.017 C 
ENDROOT
BRANCH   3  10
HETATM   10  O10 UNL     1     -34.667   6.735   6.853  1.00 20.00    -0.395 OA
HETATM   11  H28 UNL     1     -34.930   7.666   6.958  1.00 20.00     0.210 HD
ENDBRANCH   3  10
TORSDOF 1
ENDMDL
MODEL 3
REMARK VINA RESULT:      -3.6      2.487      3.358
REMARK  1 active torsions:
REMARK  status: ('A' for Active; 'I' for Inactive)
REMARK    1  A    between atoms: C3_3  and  O10_10 
ROOT
HETATM    1  C1  UNL     1     -33.591  16.885  -1.667  1.00 20.00     0.041 C 
HETATM    2  C2  UNL     1     -33.518  19.263  -2.301  1.00 20.00     0.020 C 
HETATM    3  C3  UNL     1     -33.526  17.029  -3.183  1.00 20.00     0.126 C 
HETATM    4  C4  UNL     1     -33.241  18.285  -1.126  1.00 20.00    -0.045 C 
HETATM    5  C5  UNL     1     -34.127  18.422  -3.445  1.00 20.00    -0.021 C 
HETATM    6  C6  UNL     1     -31.758  18.348  -0.726  1.00 20.00     0.015 C 
HETATM    7  C7  UNL     1     -34.098  18.625   0.098  1.00 20.00     0.015 C 
HETATM    8  C8  UNL     1     -35.666  18.434  -3.372  1.00 20.00     0.017 C 
HETATM    9  C9  UNL     1     -33.705  18.962  -4.817  1.00 20.00     0.017 C 
ENDROOT
BRANCH   3  10
HETATM   10  O10 UNL     1     -34.237  15.980  -3.813  1.00 20.00    -0.395 OA
HETATM   11  H28 UNL     1     -33.932  15.942  -4.736  1.00 20.00     0.210 HD
ENDBRANCH   3  10
TORSDOF 1
ENDMDL
MODEL 4
REMARK VINA RESULT:      -3.4     11.876     13.010
REMARK  1 active torsions:
REMARK  status: ('A' for Active; 'I' for Inactive)
REMARK    1  A    between atoms: C3_3  and  O10_10 
ROOT
HETATM    1  C1  UNL     1     -32.284   6.887   3.496  1.00 20.00     0.041 C 
HETATM    2  C2  UNL     1     -34.228   7.941   4.578  1.00 20.00     0.020 C 
HETATM    3  C3  UNL     1     -33.513   5.995   3.365  1.00 20.00     0.126 C 
HETATM    4  C4  UNL     1     -32.837   8.249   3.960  1.00 20.00    -0.045 C 
HETATM    5  C5  UNL     1     -34.392   6.404   4.560  1.00 20.00    -0.021 C 
HETATM    6  C6  UNL     1     -32.991   9.200   2.762  1.00 20.00     0.015 C 
HETATM    7  C7  UNL     1     -31.900   8.895   4.987  1.00 20.00     0.015 C 
HETATM    8  C8  UNL     1     -33.918   5.789   5.890  1.00 20.00     0.017 C 
HETATM    9  C9  UNL     1     -35.856   6.004   4.337  1.00 20.00     0.017 C 
ENDROOT
BRANCH   3  10
HETATM   10  O10 UNL     1     -33.140   4.630   3.379  1.00 20.00    -0.395 OA
HETATM   11  H28 UNL     1     -32.426   4.523   2.726  1.00 20.00     0.210 HD
ENDBRANCH   3  10
TORSDOF 1
ENDMDL
MODEL 5
REMARK VINA RESULT:      -3.3     12.784     14.138
REMARK  1 active torsions:
REMARK  status: ('A' for Active; 'I' for Inactive)
REMARK    1  A    between atoms: C3_3  and  O10_10 
ROOT
HETATM    1  C1  UNL     1     -40.387  14.425   8.399  1.00 20.00     0.041 C 
HETATM    2  C2  UNL     1     -42.162  15.118   6.840  1.00 20.00     0.020 C 
HETATM    3  C3  UNL     1     -40.142  13.831   7.017  1.00 20.00     0.126 C 
HETATM    4  C4  UNL     1     -41.468  15.501   8.176  1.00 20.00    -0.045 C 
HETATM    5  C5  UNL     1     -41.546  13.776   6.387  1.00 20.00    -0.021 C 
HETATM    6  C6  UNL     1     -40.822  16.891   8.056  1.00 20.00     0.015 C 
HETATM    7  C7  UNL     1     -42.467  15.519   9.338  1.00 20.00     0.015 C 
HETATM    8  C8  UNL     1     -42.386  12.590   6.900  1.00 20.00     0.017 C 
HETATM    9  C9  UNL     1     -41.467  13.687   4.858  1.00 20.00     0.017 C 
ENDROOT
BRANCH   3  10
HETATM   10  O10 UNL     1     -39.521  12.564   7.124  1.00 20.00    -0.395 OA
HETATM   11  H28 UNL     1     -39.744  12.067   6.318  1.00 20.00     0.210 HD
ENDBRANCH   3  10
TORSDOF 1
ENDMDL
MODEL 6
REMARK VINA RESULT:      -3.3      1.785      2.992
REMARK  1 active torsions:
REMARK  status: ('A' for Active; 'I' for Inactive)
REMARK    1  A    between atoms: C3_3  and  O10_10 
ROOT
HETATM    1  C1  UNL     1     -34.404  16.822  -7.123  1.00 20.00     0.041 C 
HETATM    2  C2  UNL     1     -36.103  16.492  -5.371  1.00 20.00     0.020 C 
HETATM    3  C3  UNL     1     -34.512  15.345  -6.758  1.00 20.00     0.126 C 
HETATM    4  C4  UNL     1     -35.647  17.473  -6.486  1.00 20.00    -0.045 C 
HETATM    5  C5  UNL     1     -35.050  15.362  -5.316  1.00 20.00    -0.021 C 
HETATM    6  C6  UNL     1     -36.761  17.636  -7.532  1.00 20.00     0.015 C 
HETATM    7  C7  UNL     1     -35.304  18.852  -5.909  1.00 20.00     0.015 C 
HETATM    8  C8  UNL     1     -33.961  15.681  -4.274  1.00 20.00     0.017 C 
HETATM    9  C9  UNL     1     -35.694  14.020  -4.946  1.00 20.00     0.017 C 
ENDROOT
BRANCH   3  10
HETATM   10  O10 UNL     1     -33.254  14.709  -6.885  1.00 20.00    -0.395 OA
HETATM   11  H28 UNL     1     -32.765  14.878  -6.060  1.00 20.00     0.210 HD
ENDBRANCH   3  10
TORSDOF 1
ENDMDL
MODEL 7
REMARK VINA RESULT:      -3.3      1.617      2.882
REMARK  1 active torsions:
REMARK  status: ('A' for Active; 'I' for Inactive)
REMARK    1  A    between atoms: C3_3  and  O10_10 
ROOT
HETATM    1  C1  UNL     1     -36.669  16.085  -6.156  1.00 20.00     0.041 C 
HETATM    2  C2  UNL     1     -34.588  16.989  -5.199  1.00 20.00     0.020 C 
HETATM    3  C3  UNL     1     -35.846  14.968  -5.524  1.00 20.00     0.126 C 
HETATM    4  C4  UNL     1     -36.024  17.386  -5.640  1.00 20.00    -0.045 C 
HETATM    5  C5  UNL     1     -34.403  15.502  -5.576  1.00 20.00    -0.021 C 
HETATM    6  C6  UNL     1     -36.812  17.934  -4.439  1.00 20.00     0.015 C 
HETATM    7  C7  UNL     1     -35.994  18.453  -6.741  1.00 20.00     0.015 C 
HETATM    8  C8  UNL     1     -33.765  15.369  -6.972  1.00 20.00     0.017 C 
HETATM    9  C9  UNL     1     -33.505  14.780  -4.565  1.00 20.00     0.017 C 
ENDROOT
BRANCH   3  10
HETATM   10  O10 UNL     1     -36.026  13.757  -6.233  1.00 20.00    -0.395 OA
HETATM   11  H28 UNL     1     -35.820  13.033  -5.617  1.00 20.00     0.210 HD
ENDBRANCH   3  10
TORSDOF 1
ENDMDL
MODEL 8
REMARK VINA RESULT:      -3.2     12.961     14.216
REMARK  1 active torsions:
REMARK  status: ('A' for Active; 'I' for Inactive)
REMARK    1  A    between atoms: C3_3  and  O10_10 
ROOT
HETATM    1  C1  UNL     1     -42.368  14.338   7.965  1.00 20.00     0.041 C 
HETATM    2  C2  UNL     1     -40.120  14.221   6.969  1.00 20.00     0.020 C 
HETATM    3  C3  UNL     1     -42.141  12.974   7.323  1.00 20.00     0.126 C 
HETATM    4  C4  UNL     1     -40.968  14.979   8.028  1.00 20.00    -0.045 C 
HETATM    5  C5  UNL     1     -41.077  13.248   6.245  1.00 20.00    -0.021 C 
HETATM    6  C6  UNL     1     -40.356  14.791   9.425  1.00 20.00     0.015 C 
HETATM    7  C7  UNL     1     -41.040  16.478   7.716  1.00 20.00     0.015 C 
HETATM    8  C8  UNL     1     -41.663  13.899   4.978  1.00 20.00     0.017 C 
HETATM    9  C9  UNL     1     -40.354  11.959   5.836  1.00 20.00     0.017 C 
ENDROOT
BRANCH   3  10
HETATM   10  O10 UNL     1     -43.354  12.462   6.804  1.00 20.00    -0.395 OA
HETATM   11  H28 UNL     1     -43.782  11.961   7.519  1.00 20.00     0.210 HD
ENDBRANCH   3  10
TORSDOF 1
ENDMDL
MODEL 9
REMARK VINA RESULT:      -3.2      1.462      3.556
REMARK  1 active torsions:
REMARK  status: ('A' for Active; 'I' for Inactive)
REMARK    1  A    between atoms: C3_3  and  O10_10 
ROOT
HETATM    1  C1  UNL     1     -33.336  15.511  -3.962  1.00 20.00     0.041 C 
HETATM    2  C2  UNL     1     -35.249  16.734  -4.913  1.00 20.00     0.020 C 
HETATM    3  C3  UNL     1     -33.833  16.566  -2.981  1.00 20.00     0.126 C 
HETATM    4  C4  UNL     1     -34.450  15.405  -5.021  1.00 20.00    -0.045 C 
HETATM    5  C5  UNL     1     -34.511  17.615  -3.882  1.00 20.00    -0.021 C 
HETATM    6  C6  UNL     1     -35.368  14.211  -4.715  1.00 20.00     0.015 C 
HETATM    7  C7  UNL     1     -33.854  15.225  -6.422  1.00 20.00     0.015 C 
HETATM    8  C8  UNL     1     -33.501  18.544  -4.581  1.00 20.00     0.017 C 
HETATM    9  C9  UNL     1     -35.494  18.481  -3.085  1.00 20.00     0.017 C 
ENDROOT
BRANCH   3  10
HETATM   10  O10 UNL     1     -32.758  17.084  -2.220  1.00 20.00    -0.395 OA
HETATM   11  H28 UNL     1     -32.252  17.673  -2.806  1.00 20.00     0.210 HD
ENDBRANCH   3  10
TORSDOF 1
ENDMDL
