MODEL 1
REMARK VINA RESULT:      -4.9      0.000      0.000
REMARK  3 active torsions:
REMARK  status: ('A' for Active; 'I' for Inactive)
REMARK    1  A    between atoms: C1_1  and  C6_6 
REMARK    2  A    between atoms: C1_1  and  O8_8 
REMARK    3  A    between atoms: C4_4  and  C6_6 
ROOT
HETATM    1  C6  UNL     1     -34.104   6.702   5.639  1.00 20.00     0.115 C 
ENDROOT
BRANCH   1   2
HETATM    2  C1  UNL     1     -34.752   5.491   4.991  1.00 20.00     0.139 C 
HETATM    3  O7  UNL     1     -34.270   4.368   4.957  1.00 20.00    -0.650 OA
BRANCH   2   4
HETATM    4  O8  UNL     1     -35.951   5.813   4.442  1.00 20.00    -0.776 OA
HETATM    5  H18 UNL     1     -36.108   6.780   4.449  1.00 20.00     0.167 HD
ENDBRANCH   2   4
ENDBRANCH   1   2
BRANCH   1   6
HETATM    6  C4  UNL     1     -33.679   7.733   4.653  1.00 20.00    -0.001 A 
HETATM    7  C2  UNL     1     -32.504   8.626   4.951  1.00 20.00     0.010 A 
HETATM    8  C3  UNL     1     -32.392   7.564   3.888  1.00 20.00    -0.014 A 
HETATM    9  C5  UNL     1     -32.321   7.948   2.451  1.00 20.00     0.010 C 
ENDBRANCH   1   6
TORSDOF 3
ENDMDL
MODEL 2
REMARK VINA RESULT:      -4.5      2.609      3.783
REMARK  3 active torsions:
REMARK  status: ('A' for Active; 'I' for Inactive)
REMARK    1  A    between atoms: C1_1  and  C6_6 
REMARK    2  A    between atoms: C1_1  and  O8_8 
REMARK    3  A    between atoms: C4_4  and  C6_6 
ROOT
HETATM    1  C6  UNL     1     -33.746   8.029   5.465  1.00 20.00     0.115 C 
ENDROOT
BRANCH   1   2
HETATM    2  C1  UNL     1     -32.622   8.519   4.568  1.00 20.00     0.139 C 
HETATM    3  O7  UNL     1     -32.496   8.244   3.384  1.00 20.00    -0.650 OA
BRANCH   2   4
HETATM    4  O8  UNL     1     -31.760   9.312   5.254  1.00 20.00    -0.776 OA
HETATM    5  H18 UNL     1     -31.474  10.086   4.725  1.00 20.00     0.167 HD
ENDBRANCH   2   4
ENDBRANCH   1   2
BRANCH   1   6
HETATM    6  C4  UNL     1     -33.707   6.559   5.698  1.00 20.00    -0.001 A 
HETATM    7  C2  UNL     1     -34.857   5.871   6.385  1.00 20.00     0.010 A 
HETATM    8  C3  UNL     1     -34.613   5.645   4.916  1.00 20.00    -0.014 A 
HETATM    9  C5  UNL     1     -34.112   4.328   4.433  1.00 20.00     0.010 C 
ENDBRANCH   1   6
TORSDOF 3
ENDMDL
MODEL 3
REMARK VINA RESULT:      -4.5      2.420      3.589
REMARK  3 active torsions:
REMARK  status: ('A' for Active; 'I' for Inactive)
REMARK    1  A    between atoms: C1_1  and  C6_6 
REMARK    2  A    between atoms: C1_1  and  O8_8 
REMARK    3  A    between atoms: C4_4  and  C6_6 
ROOT
HETATM    1  C6  UNL     1     -33.043   8.344   4.951  1.00 20.00     0.115 C 
ENDROOT
BRANCH   1   2
HETATM    2  C1  UNL     1     -32.513   8.237   3.532  1.00 20.00     0.139 C 
HETATM    3  O7  UNL     1     -31.970   7.252   3.056  1.00 20.00    -0.650 OA
BRANCH   2   4
HETATM    4  O8  UNL     1     -32.718   9.390   2.845  1.00 20.00    -0.776 OA
HETATM    5  H18 UNL     1     -32.649   9.257   1.877  1.00 20.00     0.167 HD
ENDBRANCH   2   4
ENDBRANCH   1   2
BRANCH   1   6
HETATM    6  C4  UNL     1     -33.320   7.019   5.571  1.00 20.00    -0.001 A 
HETATM    7  C2  UNL     1     -34.393   6.883   6.619  1.00 20.00     0.010 A 
HETATM    8  C3  UNL     1     -34.597   6.286   5.251  1.00 20.00    -0.014 A 
HETATM    9  C5  UNL     1     -34.586   4.808   5.069  1.00 20.00     0.010 C 
ENDBRANCH   1   6
TORSDOF 3
ENDMDL
MODEL 4
REMARK VINA RESULT:      -4.5      2.567      3.790
REMARK  3 active torsions:
REMARK  status: ('A' for Active; 'I' for Inactive)
REMARK    1  A    between atoms: C1_1  and  C6_6 
REMARK    2  A    between atoms: C1_1  and  O8_8 
REMARK    3  A    between atoms: C4_4  and  C6_6 
ROOT
HETATM    1  C6  UNL     1     -33.740   8.029   5.459  1.00 20.00     0.115 C 
ENDROOT
BRANCH   1   2
HETATM    2  C1  UNL     1     -32.527   8.551   4.708  1.00 20.00     0.139 C 
HETATM    3  O7  UNL     1     -31.931   9.585   4.967  1.00 20.00    -0.650 OA
BRANCH   2   4
HETATM    4  O8  UNL     1     -32.181   7.714   3.697  1.00 20.00    -0.776 OA
HETATM    5  H18 UNL     1     -32.649   6.855   3.756  1.00 20.00     0.167 HD
ENDBRANCH   2   4
ENDBRANCH   1   2
BRANCH   1   6
HETATM    6  C4  UNL     1     -33.697   6.558   5.686  1.00 20.00    -0.001 A 
HETATM    7  C2  UNL     1     -34.831   5.868   6.397  1.00 20.00     0.010 A 
HETATM    8  C3  UNL     1     -34.621   5.647   4.921  1.00 20.00    -0.014 A 
HETATM    9  C5  UNL     1     -34.131   4.331   4.423  1.00 20.00     0.010 C 
ENDBRANCH   1   6
TORSDOF 3
ENDMDL
MODEL 5
REMARK VINA RESULT:      -4.3      1.535      2.068
REMARK  3 active torsions:
REMARK  status: ('A' for Active; 'I' for Inactive)
REMARK    1  A    between atoms: C1_1  and  C6_6 
REMARK    2  A    between atoms: C1_1  and  O8_8 
REMARK    3  A    between atoms: C4_4  and  C6_6 
ROOT
HETATM    1  C6  UNL     1     -35.112   5.953   4.459  1.00 20.00     0.115 C 
ENDROOT
BRANCH   1   2
HETATM    2  C1  UNL     1     -34.039   5.025   3.917  1.00 20.00     0.139 C 
HETATM    3  O7  UNL     1     -33.343   5.249   2.938  1.00 20.00    -0.650 OA
BRANCH   2   4
HETATM    4  O8  UNL     1     -33.945   3.897   4.666  1.00 20.00    -0.776 OA
HETATM    5  H18 UNL     1     -33.013   3.648   4.839  1.00 20.00     0.167 HD
ENDBRANCH   2   4
ENDBRANCH   1   2
BRANCH   1   6
HETATM    6  C4  UNL     1     -34.556   7.190   5.074  1.00 20.00    -0.001 A 
HETATM    7  C2  UNL     1     -33.824   7.118   6.388  1.00 20.00     0.010 A 
HETATM    8  C3  UNL     1     -33.066   7.409   5.119  1.00 20.00    -0.014 A 
HETATM    9  C5  UNL     1     -32.502   8.766   4.877  1.00 20.00     0.010 C 
ENDBRANCH   1   6
TORSDOF 3
ENDMDL
MODEL 6
REMARK VINA RESULT:      -4.3      1.306      1.588
REMARK  3 active torsions:
REMARK  status: ('A' for Active; 'I' for Inactive)
REMARK    1  A    between atoms: C1_1  and  C6_6 
REMARK    2  A    between atoms: C1_1  and  O8_8 
REMARK    3  A    between atoms: C4_4  and  C6_6 
ROOT
HETATM    1  C6  UNL     1     -35.160   6.237   4.369  1.00 20.00     0.115 C 
ENDROOT
BRANCH   1   2
HETATM    2  C1  UNL     1     -34.703   4.910   4.948  1.00 20.00     0.139 C 
HETATM    3  O7  UNL     1     -33.978   4.106   4.380  1.00 20.00    -0.650 OA
BRANCH   2   4
HETATM    4  O8  UNL     1     -35.207   4.721   6.194  1.00 20.00    -0.776 OA
HETATM    5  H18 UNL     1     -34.770   5.296   6.857  1.00 20.00     0.167 HD
ENDBRANCH   2   4
ENDBRANCH   1   2
BRANCH   1   6
HETATM    6  C4  UNL     1     -34.436   7.404   4.945  1.00 20.00    -0.001 A 
HETATM    7  C2  UNL     1     -33.558   7.227   6.156  1.00 20.00     0.010 A 
HETATM    8  C3  UNL     1     -32.939   7.507   4.812  1.00 20.00    -0.014 A 
HETATM    9  C5  UNL     1     -32.301   8.825   4.540  1.00 20.00     0.010 C 
ENDBRANCH   1   6
TORSDOF 3
ENDMDL
MODEL 7
REMARK VINA RESULT:      -4.2      0.807      1.399
REMARK  3 active torsions:
REMARK  status: ('A' for Active; 'I' for Inactive)
REMARK    1  A    between atoms: C1_1  and  C6_6 
REMARK    2  A    between atoms: C1_1  and  O8_8 
REMARK    3  A    between atoms: C4_4  and  C6_6 
ROOT
HETATM    1  C6  UNL     1     -34.404   6.422   5.905  1.00 20.00     0.115 C 
ENDROOT
BRANCH   1   2
HETATM    2  C1  UNL     1     -34.939   5.357   4.963  1.00 20.00     0.139 C 
HETATM    3  O7  UNL     1     -34.427   4.264   4.775  1.00 20.00    -0.650 OA
BRANCH   2   4
HETATM    4  O8  UNL     1     -36.073   5.775   4.346  1.00 20.00    -0.776 OA
HETATM    5  H18 UNL     1     -36.240   6.730   4.495  1.00 20.00     0.167 HD
ENDBRANCH   2   4
ENDBRANCH   1   2
BRANCH   1   6
HETATM    6  C4  UNL     1     -33.153   7.062   5.410  1.00 20.00    -0.001 A 
HETATM    7  C2  UNL     1     -32.885   7.155   3.931  1.00 20.00     0.010 A 
HETATM    8  C3  UNL     1     -33.209   8.398   4.718  1.00 20.00    -0.014 A 
HETATM    9  C5  UNL     1     -32.155   9.419   4.976  1.00 20.00     0.010 C 
ENDBRANCH   1   6
TORSDOF 3
ENDMDL
MODEL 8
REMARK VINA RESULT:      -4.1      2.618      4.090
REMARK  3 active torsions:
REMARK  status: ('A' for Active; 'I' for Inactive)
REMARK    1  A    between atoms: C1_1  and  C6_6 
REMARK    2  A    between atoms: C1_1  and  O8_8 
REMARK    3  A    between atoms: C4_4  and  C6_6 
ROOT
HETATM    1  C6  UNL     1     -33.076   6.901   3.749  1.00 20.00     0.115 C 
ENDROOT
BRANCH   1   2
HETATM    2  C1  UNL     1     -32.508   8.309   3.780  1.00 20.00     0.139 C 
HETATM    3  O7  UNL     1     -32.567   9.112   2.860  1.00 20.00    -0.650 OA
BRANCH   2   4
HETATM    4  O8  UNL     1     -31.916   8.572   4.972  1.00 20.00    -0.776 OA
HETATM    5  H18 UNL     1     -30.990   8.252   5.000  1.00 20.00     0.167 HD
ENDBRANCH   2   4
ENDBRANCH   1   2
BRANCH   1   6
HETATM    6  C4  UNL     1     -34.157   6.687   4.751  1.00 20.00    -0.001 A 
HETATM    7  C2  UNL     1     -35.401   5.928   4.372  1.00 20.00     0.010 A 
HETATM    8  C3  UNL     1     -34.403   5.313   5.318  1.00 20.00    -0.014 A 
HETATM    9  C5  UNL     1     -34.739   5.148   6.759  1.00 20.00     0.010 C 
ENDBRANCH   1   6
TORSDOF 3
ENDMDL
MODEL 9
REMARK VINA RESULT:      -4.1      1.381      1.445
REMARK  3 active torsions:
REMARK  status: ('A' for Active; 'I' for Inactive)
REMARK    1  A    between atoms: C1_1  and  C6_6 
REMARK    2  A    between atoms: C1_1  and  O8_8 
REMARK    3  A    between atoms: C4_4  and  C6_6 
ROOT
HETATM    1  C6  UNL     1     -33.749   6.279   4.473  1.00 20.00     0.115 C 
ENDROOT
BRANCH   1   2
HETATM    2  C1  UNL     1     -34.579   5.984   5.711  1.00 20.00     0.139 C 
HETATM    3  O7  UNL     1     -34.578   6.652   6.735  1.00 20.00    -0.650 OA
BRANCH   2   4
HETATM    4  O8  UNL     1     -35.334   4.870   5.539  1.00 20.00    -0.776 OA
HETATM    5  H18 UNL     1     -36.268   5.088   5.337  1.00 20.00     0.167 HD
ENDBRANCH   2   4
ENDBRANCH   1   2
BRANCH   1   6
HETATM    6  C4  UNL     1     -33.560   7.737   4.233  1.00 20.00    -0.001 A 
HETATM    7  C2  UNL     1     -32.335   8.437   4.760  1.00 20.00     0.010 A 
HETATM    8  C3  UNL     1     -32.496   8.214   3.279  1.00 20.00    -0.014 A 
HETATM    9  C5  UNL     1     -32.766   9.365   2.373  1.00 20.00     0.010 C 
ENDBRANCH   1   6
TORSDOF 3
ENDMDL
