MODEL 1
REMARK VINA RESULT:      -3.7      0.000      0.000
REMARK  1 active torsions:
REMARK  status: ('A' for Active; 'I' for Inactive)
REMARK    1  A    between atoms: C8_8  and  N10_10 
ROOT
HETATM    1  C1  UNL     1     -33.448  17.329  -1.541  1.00 20.00     0.013 C 
HETATM    2  C2  UNL     1     -33.323  16.655  -2.528  1.00 20.00    -0.087 C 
HETATM    3  C8  UNL     1     -33.166  15.832  -3.729  1.00 20.00     0.365 C 
ENDROOT
BRANCH   3   4
HETATM    4  N10 UNL     1     -34.376  15.875  -4.546  1.00 20.00     0.102 N 
HETATM    5  C5  UNL     1     -34.684  17.252  -4.952  1.00 20.00     0.303 C 
HETATM    6  C3  UNL     1     -35.951  17.298  -5.811  1.00 20.00     0.302 C 
HETATM    7  N9  UNL     1     -35.817  16.434  -6.991  1.00 20.00     0.087 N 
HETATM    8  C4  UNL     1     -35.508  15.057  -6.585  1.00 20.00     0.302 C 
HETATM    9  C7  UNL     1     -37.028  16.476  -7.806  1.00 20.00     0.310 C 
HETATM   10  C6  UNL     1     -34.240  15.012  -5.726  1.00 20.00     0.303 C 
ENDBRANCH   3   4
TORSDOF 1
ENDMDL
MODEL 2
REMARK VINA RESULT:      -3.7      1.623      3.147
REMARK  1 active torsions:
REMARK  status: ('A' for Active; 'I' for Inactive)
REMARK    1  A    between atoms: C8_8  and  N10_10 
ROOT
HETATM    1  C1  UNL     1     -31.208  18.573  -0.335  1.00 20.00     0.013 C 
HETATM    2  C2  UNL     1     -32.245  18.606  -0.939  1.00 20.00    -0.087 C 
HETATM    3  C8  UNL     1     -33.512  18.649  -1.672  1.00 20.00     0.365 C 
ENDROOT
BRANCH   3   4
HETATM    4  N10 UNL     1     -33.420  17.874  -2.908  1.00 20.00     0.102 N 
HETATM    5  C5  UNL     1     -33.333  16.437  -2.618  1.00 20.00     0.303 C 
HETATM    6  C3  UNL     1     -33.239  15.624  -3.913  1.00 20.00     0.302 C 
HETATM    7  N9  UNL     1     -34.383  15.901  -4.790  1.00 20.00     0.087 N 
HETATM    8  C4  UNL     1     -34.471  17.338  -5.079  1.00 20.00     0.302 C 
HETATM    9  C7  UNL     1     -34.289  15.128  -6.026  1.00 20.00     0.310 C 
HETATM   10  C6  UNL     1     -34.565  18.151  -3.784  1.00 20.00     0.303 C 
ENDBRANCH   3   4
TORSDOF 1
ENDMDL
MODEL 3
REMARK VINA RESULT:      -3.6      1.292      1.932
REMARK  1 active torsions:
REMARK  status: ('A' for Active; 'I' for Inactive)
REMARK    1  A    between atoms: C8_8  and  N10_10 
ROOT
HETATM    1  C1  UNL     1     -33.766  17.907   0.026  1.00 20.00     0.013 C 
HETATM    2  C2  UNL     1     -33.418  17.830  -1.121  1.00 20.00    -0.087 C 
HETATM    3  C8  UNL     1     -32.990  17.738  -2.518  1.00 20.00     0.365 C 
ENDROOT
BRANCH   3   4
HETATM    4  N10 UNL     1     -33.900  16.889  -3.283  1.00 20.00     0.102 N 
HETATM    5  C5  UNL     1     -34.495  17.633  -4.400  1.00 20.00     0.303 C 
HETATM    6  C3  UNL     1     -35.447  16.742  -5.204  1.00 20.00     0.302 C 
HETATM    7  N9  UNL     1     -34.756  15.545  -5.696  1.00 20.00     0.087 N 
HETATM    8  C4  UNL     1     -34.160  14.801  -4.579  1.00 20.00     0.302 C 
HETATM    9  C7  UNL     1     -35.667  14.695  -6.459  1.00 20.00     0.310 C 
HETATM   10  C6  UNL     1     -33.207  15.692  -3.776  1.00 20.00     0.303 C 
ENDBRANCH   3   4
TORSDOF 1
ENDMDL
MODEL 4
REMARK VINA RESULT:      -3.5      1.195      2.178
REMARK  1 active torsions:
REMARK  status: ('A' for Active; 'I' for Inactive)
REMARK    1  A    between atoms: C8_8  and  N10_10 
ROOT
HETATM    1  C1  UNL     1     -32.510  19.092  -1.642  1.00 20.00     0.013 C 
HETATM    2  C2  UNL     1     -32.916  17.998  -1.927  1.00 20.00    -0.087 C 
HETATM    3  C8  UNL     1     -33.412  16.664  -2.270  1.00 20.00     0.365 C 
ENDROOT
BRANCH   3   4
HETATM    4  N10 UNL     1     -33.514  16.507  -3.719  1.00 20.00     0.102 N 
HETATM    5  C5  UNL     1     -33.789  15.109  -4.075  1.00 20.00     0.303 C 
HETATM    6  C3  UNL     1     -33.898  14.945  -5.594  1.00 20.00     0.302 C 
HETATM    7  N9  UNL     1     -34.935  15.826  -6.144  1.00 20.00     0.087 N 
HETATM    8  C4  UNL     1     -34.661  17.225  -5.787  1.00 20.00     0.302 C 
HETATM    9  C7  UNL     1     -35.035  15.671  -7.593  1.00 20.00     0.310 C 
HETATM   10  C6  UNL     1     -34.552  17.388  -4.267  1.00 20.00     0.303 C 
ENDBRANCH   3   4
TORSDOF 1
ENDMDL
MODEL 5
REMARK VINA RESULT:      -3.5     11.854     13.561
REMARK  1 active torsions:
REMARK  status: ('A' for Active; 'I' for Inactive)
REMARK    1  A    between atoms: C8_8  and  N10_10 
ROOT
HETATM    1  C1  UNL     1     -38.935  11.649   3.946  1.00 20.00     0.013 C 
HETATM    2  C2  UNL     1     -39.640  11.899   4.885  1.00 20.00    -0.087 C 
HETATM    3  C8  UNL     1     -40.501  12.198   6.032  1.00 20.00     0.365 C 
ENDROOT
BRANCH   3   4
HETATM    4  N10 UNL     1     -40.684  13.641   6.176  1.00 20.00     0.102 N 
HETATM    5  C5  UNL     1     -42.031  14.042   5.751  1.00 20.00     0.303 C 
HETATM    6  C3  UNL     1     -42.225  15.553   5.904  1.00 20.00     0.302 C 
HETATM    7  N9  UNL     1     -41.979  15.976   7.288  1.00 20.00     0.087 N 
HETATM    8  C4  UNL     1     -40.632  15.574   7.715  1.00 20.00     0.302 C 
HETATM    9  C7  UNL     1     -42.160  17.418   7.432  1.00 20.00     0.310 C 
HETATM   10  C6  UNL     1     -40.439  14.062   7.561  1.00 20.00     0.303 C 
ENDBRANCH   3   4
TORSDOF 1
ENDMDL
MODEL 6
REMARK VINA RESULT:      -3.4      4.161      7.124
REMARK  1 active torsions:
REMARK  status: ('A' for Active; 'I' for Inactive)
REMARK    1  A    between atoms: C8_8  and  N10_10 
ROOT
HETATM    1  C1  UNL     1     -33.369  16.314  -2.809  1.00 20.00     0.013 C 
HETATM    2  C2  UNL     1     -33.517  17.479  -2.557  1.00 20.00    -0.087 C 
HETATM    3  C8  UNL     1     -33.701  18.900  -2.254  1.00 20.00     0.365 C 
ENDROOT
BRANCH   3   4
HETATM    4  N10 UNL     1     -33.078  19.240  -0.976  1.00 20.00     0.102 N 
HETATM    5  C5  UNL     1     -33.922  18.812   0.146  1.00 20.00     0.303 C 
HETATM    6  C3  UNL     1     -33.269  19.166   1.486  1.00 20.00     0.302 C 
HETATM    7  N9  UNL     1     -31.934  18.566   1.593  1.00 20.00     0.087 N 
HETATM    8  C4  UNL     1     -31.089  18.993   0.469  1.00 20.00     0.302 C 
HETATM    9  C7  UNL     1     -31.311  18.908   2.869  1.00 20.00     0.310 C 
HETATM   10  C6  UNL     1     -31.743  18.638  -0.870  1.00 20.00     0.303 C 
ENDBRANCH   3   4
TORSDOF 1
ENDMDL
MODEL 7
REMARK VINA RESULT:      -3.2     11.603     13.297
REMARK  1 active torsions:
REMARK  status: ('A' for Active; 'I' for Inactive)
REMARK    1  A    between atoms: C8_8  and  N10_10 
ROOT
HETATM    1  C1  UNL     1     -32.877   9.131   0.091  1.00 20.00     0.013 C 
HETATM    2  C2  UNL     1     -32.402   8.561   1.036  1.00 20.00    -0.087 C 
HETATM    3  C8  UNL     1     -31.818   7.866   2.185  1.00 20.00     0.365 C 
ENDROOT
BRANCH   3   4
HETATM    4  N10 UNL     1     -32.858   7.468   3.131  1.00 20.00     0.102 N 
HETATM    5  C5  UNL     1     -33.013   6.009   3.154  1.00 20.00     0.303 C 
HETATM    6  C3  UNL     1     -34.102   5.591   4.147  1.00 20.00     0.302 C 
HETATM    7  N9  UNL     1     -33.805   6.095   5.493  1.00 20.00     0.087 N 
HETATM    8  C4  UNL     1     -33.648   7.555   5.471  1.00 20.00     0.302 C 
HETATM    9  C7  UNL     1     -34.846   5.699   6.438  1.00 20.00     0.310 C 
HETATM   10  C6  UNL     1     -32.559   7.972   4.477  1.00 20.00     0.303 C 
ENDBRANCH   3   4
TORSDOF 1
ENDMDL
MODEL 8
REMARK VINA RESULT:      -3.2     12.681     14.057
REMARK  1 active torsions:
REMARK  status: ('A' for Active; 'I' for Inactive)
REMARK    1  A    between atoms: C8_8  and  N10_10 
ROOT
HETATM    1  C1  UNL     1     -39.349  12.032   5.278  1.00 20.00     0.013 C 
HETATM    2  C2  UNL     1     -40.379  12.221   5.865  1.00 20.00    -0.087 C 
HETATM    3  C8  UNL     1     -41.637  12.447   6.580  1.00 20.00     0.365 C 
ENDROOT
BRANCH   3   4
HETATM    4  N10 UNL     1     -41.686  13.803   7.122  1.00 20.00     0.102 N 
HETATM    5  C5  UNL     1     -40.472  14.103   7.891  1.00 20.00     0.303 C 
HETATM    6  C3  UNL     1     -40.522  15.525   8.458  1.00 20.00     0.302 C 
HETATM    7  N9  UNL     1     -40.705  16.511   7.385  1.00 20.00     0.087 N 
HETATM    8  C4  UNL     1     -41.919  16.211   6.614  1.00 20.00     0.302 C 
HETATM    9  C7  UNL     1     -40.756  17.866   7.927  1.00 20.00     0.310 C 
HETATM   10  C6  UNL     1     -41.868  14.788   6.048  1.00 20.00     0.303 C 
ENDBRANCH   3   4
TORSDOF 1
ENDMDL
MODEL 9
REMARK VINA RESULT:      -3.2      2.473      3.750
REMARK  1 active torsions:
REMARK  status: ('A' for Active; 'I' for Inactive)
REMARK    1  A    between atoms: C8_8  and  N10_10 
ROOT
HETATM    1  C1  UNL     1     -31.009  18.624   0.036  1.00 20.00     0.013 C 
HETATM    2  C2  UNL     1     -32.184  18.378   0.024  1.00 20.00    -0.087 C 
HETATM    3  C8  UNL     1     -33.617  18.077   0.015  1.00 20.00     0.365 C 
ENDROOT
BRANCH   3   4
HETATM    4  N10 UNL     1     -34.111  17.961  -1.356  1.00 20.00     0.102 N 
HETATM    5  C5  UNL     1     -34.080  19.263  -2.034  1.00 20.00     0.303 C 
HETATM    6  C3  UNL     1     -34.596  19.141  -3.471  1.00 20.00     0.302 C 
HETATM    7  N9  UNL     1     -33.817  18.153  -4.226  1.00 20.00     0.087 N 
HETATM    8  C4  UNL     1     -33.846  16.850  -3.548  1.00 20.00     0.302 C 
HETATM    9  C7  UNL     1     -34.312  18.035  -5.595  1.00 20.00     0.310 C 
HETATM   10  C6  UNL     1     -33.330  16.973  -2.110  1.00 20.00     0.303 C 
ENDBRANCH   3   4
TORSDOF 1
ENDMDL
