MODEL 1
REMARK VINA RESULT:      -4.9      0.000      0.000
REMARK  0 active torsions:
REMARK  status: ('A' for Active; 'I' for Inactive)
ROOT
HETATM    1  C1  UNL     1     -32.585   7.326   3.051  1.00 20.00     0.124 C 
HETATM    2  C2  UNL     1     -33.450   7.498   5.278  1.00 20.00     0.021 C 
HETATM    3  C3  UNL     1     -33.344   6.803   4.133  1.00 20.00     0.145 C 
HETATM    4  C4  UNL     1     -34.188   6.971   6.470  1.00 20.00     0.033 C 
HETATM    5  C5  UNL     1     -34.518   5.492   6.300  1.00 20.00     0.031 C 
HETATM    6  C6  UNL     1     -34.952   5.223   4.866  1.00 20.00     0.176 C 
HETATM    7  N7  UNL     1     -31.965   7.751   2.169  1.00 20.00    -0.189 NA
HETATM    8  O8  UNL     1     -33.932   5.572   3.923  1.00 20.00    -0.341 OA
ENDROOT
TORSDOF 0
ENDMDL
MODEL 2
REMARK VINA RESULT:      -4.3      1.044      1.763
REMARK  0 active torsions:
REMARK  status: ('A' for Active; 'I' for Inactive)
ROOT
HETATM    1  C1  UNL     1     -32.574   7.395   2.969  1.00 20.00     0.124 C 
HETATM    2  C2  UNL     1     -33.816   5.586   3.928  1.00 20.00     0.021 C 
HETATM    3  C3  UNL     1     -33.252   6.797   4.066  1.00 20.00     0.145 C 
HETATM    4  C4  UNL     1     -34.593   4.932   5.029  1.00 20.00     0.033 C 
HETATM    5  C5  UNL     1     -34.885   5.921   6.153  1.00 20.00     0.031 C 
HETATM    6  C6  UNL     1     -33.665   6.796   6.400  1.00 20.00     0.176 C 
HETATM    7  N7  UNL     1     -32.020   7.884   2.075  1.00 20.00    -0.189 NA
HETATM    8  O8  UNL     1     -33.290   7.536   5.231  1.00 20.00    -0.341 OA
ENDROOT
TORSDOF 0
ENDMDL
MODEL 3
REMARK VINA RESULT:      -4.3      1.653      2.238
REMARK  0 active torsions:
REMARK  status: ('A' for Active; 'I' for Inactive)
ROOT
HETATM    1  C1  UNL     1     -32.611   8.527   4.887  1.00 20.00     0.124 C 
HETATM    2  C2  UNL     1     -33.391   6.456   3.971  1.00 20.00     0.021 C 
HETATM    3  C3  UNL     1     -33.353   7.320   4.999  1.00 20.00     0.145 C 
HETATM    4  C4  UNL     1     -34.202   5.197   4.010  1.00 20.00     0.033 C 
HETATM    5  C5  UNL     1     -35.157   5.199   5.199  1.00 20.00     0.031 C 
HETATM    6  C6  UNL     1     -34.458   5.778   6.421  1.00 20.00     0.176 C 
HETATM    7  N7  UNL     1     -32.007   9.513   4.796  1.00 20.00    -0.189 NA
HETATM    8  O8  UNL     1     -34.010   7.121   6.196  1.00 20.00    -0.341 OA
ENDROOT
TORSDOF 0
ENDMDL
MODEL 4
REMARK VINA RESULT:      -4.1      2.196      3.402
REMARK  0 active torsions:
REMARK  status: ('A' for Active; 'I' for Inactive)
ROOT
HETATM    1  C1  UNL     1     -34.522   5.630   5.144  1.00 20.00     0.124 C 
HETATM    2  C2  UNL     1     -33.399   7.732   5.389  1.00 20.00     0.021 C 
HETATM    3  C3  UNL     1     -33.677   6.654   4.636  1.00 20.00     0.145 C 
HETATM    4  C4  UNL     1     -32.564   8.868   4.886  1.00 20.00     0.033 C 
HETATM    5  C5  UNL     1     -32.345   8.761   3.380  1.00 20.00     0.031 C 
HETATM    6  C6  UNL     1     -32.094   7.309   2.998  1.00 20.00     0.176 C 
HETATM    7  N7  UNL     1     -35.212   4.794   5.557  1.00 20.00    -0.189 NA
HETATM    8  O8  UNL     1     -33.193   6.463   3.358  1.00 20.00    -0.341 OA
ENDROOT
TORSDOF 0
ENDMDL
MODEL 5
REMARK VINA RESULT:      -3.7      1.781      2.500
REMARK  0 active torsions:
REMARK  status: ('A' for Active; 'I' for Inactive)
ROOT
HETATM    1  C1  UNL     1     -33.060   5.470   2.918  1.00 20.00     0.124 C 
HETATM    2  C2  UNL     1     -33.945   6.166   5.032  1.00 20.00     0.021 C 
HETATM    3  C3  UNL     1     -33.216   6.447   3.939  1.00 20.00     0.145 C 
HETATM    4  C4  UNL     1     -34.192   7.174   6.112  1.00 20.00     0.033 C 
HETATM    5  C5  UNL     1     -33.772   8.570   5.663  1.00 20.00     0.031 C 
HETATM    6  C6  UNL     1     -32.469   8.490   4.881  1.00 20.00     0.176 C 
HETATM    7  N7  UNL     1     -32.932   4.674   2.084  1.00 20.00    -0.189 NA
HETATM    8  O8  UNL     1     -32.591   7.657   3.720  1.00 20.00    -0.341 OA
ENDROOT
TORSDOF 0
ENDMDL
MODEL 6
REMARK VINA RESULT:      -3.6     12.756     13.155
REMARK  0 active torsions:
REMARK  status: ('A' for Active; 'I' for Inactive)
ROOT
HETATM    1  C1  UNL     1     -30.389  19.022   1.574  1.00 20.00     0.124 C 
HETATM    2  C2  UNL     1     -32.682  18.513   1.104  1.00 20.00     0.021 C 
HETATM    3  C3  UNL     1     -31.433  18.726   0.656  1.00 20.00     0.145 C 
HETATM    4  C4  UNL     1     -33.808  18.140   0.190  1.00 20.00     0.033 C 
HETATM    5  C5  UNL     1     -33.289  17.765  -1.194  1.00 20.00     0.031 C 
HETATM    6  C6  UNL     1     -32.168  18.712  -1.597  1.00 20.00     0.176 C 
HETATM    7  N7  UNL     1     -29.536  19.263   2.323  1.00 20.00    -0.189 NA
HETATM    8  O8  UNL     1     -31.072  18.669  -0.675  1.00 20.00    -0.341 OA
ENDROOT
TORSDOF 0
ENDMDL
MODEL 7
REMARK VINA RESULT:      -3.6     12.840     13.541
REMARK  0 active torsions:
REMARK  status: ('A' for Active; 'I' for Inactive)
ROOT
HETATM    1  C1  UNL     1     -35.558  14.923  -6.518  1.00 20.00     0.124 C 
HETATM    2  C2  UNL     1     -33.697  14.828  -5.014  1.00 20.00     0.021 C 
HETATM    3  C3  UNL     1     -34.777  15.483  -5.471  1.00 20.00     0.145 C 
HETATM    4  C4  UNL     1     -32.871  15.341  -3.875  1.00 20.00     0.033 C 
HETATM    5  C5  UNL     1     -33.576  16.489  -3.161  1.00 20.00     0.031 C 
HETATM    6  C6  UNL     1     -34.242  17.399  -4.183  1.00 20.00     0.176 C 
HETATM    7  N7  UNL     1     -36.197  14.466  -7.372  1.00 20.00    -0.189 NA
HETATM    8  O8  UNL     1     -35.207  16.698  -4.978  1.00 20.00    -0.341 OA
ENDROOT
TORSDOF 0
ENDMDL
MODEL 8
REMARK VINA RESULT:      -3.6      2.475      3.845
REMARK  0 active torsions:
REMARK  status: ('A' for Active; 'I' for Inactive)
ROOT
HETATM    1  C1  UNL     1     -34.480   5.887   5.917  1.00 20.00     0.124 C 
HETATM    2  C2  UNL     1     -33.587   5.718   3.701  1.00 20.00     0.021 C 
HETATM    3  C3  UNL     1     -33.742   6.430   4.830  1.00 20.00     0.145 C 
HETATM    4  C4  UNL     1     -32.773   6.214   2.546  1.00 20.00     0.033 C 
HETATM    5  C5  UNL     1     -31.951   7.436   2.941  1.00 20.00     0.031 C 
HETATM    6  C6  UNL     1     -32.782   8.352   3.828  1.00 20.00     0.176 C 
HETATM    7  N7  UNL     1     -35.080   5.445   6.805  1.00 20.00    -0.189 NA
HETATM    8  O8  UNL     1     -33.216   7.691   5.023  1.00 20.00    -0.341 OA
ENDROOT
TORSDOF 0
ENDMDL
MODEL 9
REMARK VINA RESULT:      -3.5     12.500     12.778
REMARK  0 active torsions:
REMARK  status: ('A' for Active; 'I' for Inactive)
ROOT
HETATM    1  C1  UNL     1     -33.260  16.959  -2.256  1.00 20.00     0.124 C 
HETATM    2  C2  UNL     1     -31.801  18.399  -1.016  1.00 20.00     0.021 C 
HETATM    3  C3  UNL     1     -32.969  17.740  -1.104  1.00 20.00     0.145 C 
HETATM    4  C4  UNL     1     -31.416  19.189   0.196  1.00 20.00     0.033 C 
HETATM    5  C5  UNL     1     -32.358  18.899   1.360  1.00 20.00     0.031 C 
HETATM    6  C6  UNL     1     -33.788  18.798   0.852  1.00 20.00     0.176 C 
HETATM    7  N7  UNL     1     -33.499  16.321  -3.195  1.00 20.00    -0.189 NA
HETATM    8  O8  UNL     1     -33.939  17.759  -0.123  1.00 20.00    -0.341 OA
ENDROOT
TORSDOF 0
ENDMDL
