MODEL 1
REMARK VINA RESULT:      -4.6      0.000      0.000
REMARK  3 active torsions:
REMARK  status: ('A' for Active; 'I' for Inactive)
REMARK    1  A    between atoms: C1_1  and  C4_4 
REMARK    2  A    between atoms: C2_2  and  C9_9 
REMARK    3  A    between atoms: C9_9  and  N10_10 
ROOT
HETATM    1  C5  UNL     1     -34.229   5.326   6.481  1.00 20.00     0.032 C 
HETATM    2  C6  UNL     1     -34.443   4.936   5.026  1.00 20.00     0.032 C 
HETATM    3  C7  UNL     1     -34.400   6.837   6.520  1.00 20.00     0.273 C 
HETATM    4  C8  UNL     1     -34.724   6.242   4.298  1.00 20.00     0.273 C 
HETATM    5  N10 UNL     1     -34.187   7.313   5.147  1.00 20.00     0.099 N 
ENDROOT
BRANCH   5   6
HETATM    6  C9  UNL     1     -32.748   7.496   4.888  1.00 20.00     0.366 C 
BRANCH   6   7
HETATM    7  C2  UNL     1     -32.505   7.800   3.474  1.00 20.00    -0.072 C 
HETATM    8  C1  UNL     1     -32.311   8.049   2.316  1.00 20.00    -0.078 C 
BRANCH   8   9
HETATM    9  C4  UNL     1     -32.089   8.345   0.945  1.00 20.00     0.054 C 
HETATM   10  C3  UNL     1     -32.697   9.366   0.335  1.00 20.00     0.020 C 
ENDBRANCH   8   9
ENDBRANCH   6   7
ENDBRANCH   5   6
TORSDOF 3
ENDMDL
MODEL 2
REMARK VINA RESULT:      -4.0      1.025      1.389
REMARK  3 active torsions:
REMARK  status: ('A' for Active; 'I' for Inactive)
REMARK    1  A    between atoms: C1_1  and  C4_4 
REMARK    2  A    between atoms: C2_2  and  C9_9 
REMARK    3  A    between atoms: C9_9  and  N10_10 
ROOT
HETATM    1  C5  UNL     1     -33.927   6.856   6.384  1.00 20.00     0.032 C 
HETATM    2  C6  UNL     1     -34.239   5.369   6.475  1.00 20.00     0.032 C 
HETATM    3  C7  UNL     1     -34.364   7.272   4.987  1.00 20.00     0.273 C 
HETATM    4  C8  UNL     1     -34.838   5.002   5.125  1.00 20.00     0.273 C 
HETATM    5  N10 UNL     1     -34.407   6.043   4.184  1.00 20.00     0.099 N 
ENDROOT
BRANCH   5   6
HETATM    6  C9  UNL     1     -33.067   5.731   3.656  1.00 20.00     0.366 C 
BRANCH   6   7
HETATM    7  C2  UNL     1     -32.652   6.724   2.660  1.00 20.00    -0.072 C 
HETATM    8  C1  UNL     1     -32.318   7.537   1.842  1.00 20.00    -0.078 C 
BRANCH   8   9
HETATM    9  C4  UNL     1     -31.928   8.499   0.874  1.00 20.00     0.054 C 
HETATM   10  C3  UNL     1     -32.740   9.491   0.497  1.00 20.00     0.020 C 
ENDBRANCH   8   9
ENDBRANCH   6   7
ENDBRANCH   5   6
TORSDOF 3
ENDMDL
MODEL 3
REMARK VINA RESULT:      -4.0     11.817     12.805
REMARK  3 active torsions:
REMARK  status: ('A' for Active; 'I' for Inactive)
REMARK    1  A    between atoms: C1_1  and  C4_4 
REMARK    2  A    between atoms: C2_2  and  C9_9 
REMARK    3  A    between atoms: C9_9  and  N10_10 
ROOT
HETATM    1  C5  UNL     1     -36.393  15.858  -5.521  1.00 20.00     0.032 C 
HETATM    2  C6  UNL     1     -35.705  14.756  -6.314  1.00 20.00     0.032 C 
HETATM    3  C7  UNL     1     -35.289  16.839  -5.156  1.00 20.00     0.273 C 
HETATM    4  C8  UNL     1     -34.238  15.156  -6.366  1.00 20.00     0.273 C 
HETATM    5  N10 UNL     1     -34.026  16.096  -5.258  1.00 20.00     0.099 N 
ENDROOT
BRANCH   5   6
HETATM    6  C9  UNL     1     -33.765  15.360  -4.008  1.00 20.00     0.366 C 
BRANCH   6   7
HETATM    7  C2  UNL     1     -33.484  16.285  -2.905  1.00 20.00    -0.072 C 
HETATM    8  C1  UNL     1     -33.259  17.045  -2.003  1.00 20.00    -0.078 C 
BRANCH   8   9
HETATM    9  C4  UNL     1     -32.999  17.945  -0.937  1.00 20.00     0.054 C 
HETATM   10  C3  UNL     1     -31.783  18.457  -0.725  1.00 20.00     0.020 C 
ENDBRANCH   8   9
ENDBRANCH   6   7
ENDBRANCH   5   6
TORSDOF 3
ENDMDL
MODEL 4
REMARK VINA RESULT:      -3.9     11.434     12.000
REMARK  3 active torsions:
REMARK  status: ('A' for Active; 'I' for Inactive)
REMARK    1  A    between atoms: C1_1  and  C4_4 
REMARK    2  A    between atoms: C2_2  and  C9_9 
REMARK    3  A    between atoms: C9_9  and  N10_10 
ROOT
HETATM    1  C5  UNL     1     -30.714  18.306   0.853  1.00 20.00     0.032 C 
HETATM    2  C6  UNL     1     -31.445  18.527   2.169  1.00 20.00     0.032 C 
HETATM    3  C7  UNL     1     -31.607  18.928  -0.211  1.00 20.00     0.273 C 
HETATM    4  C8  UNL     1     -32.724  19.263   1.799  1.00 20.00     0.273 C 
HETATM    5  N10 UNL     1     -32.953  19.002   0.372  1.00 20.00     0.099 N 
ENDROOT
BRANCH   5   6
HETATM    6  C9  UNL     1     -33.657  17.720   0.194  1.00 20.00     0.366 C 
BRANCH   6   7
HETATM    7  C2  UNL     1     -33.602  17.281  -1.204  1.00 20.00    -0.072 C 
HETATM    8  C1  UNL     1     -33.553  16.917  -2.347  1.00 20.00    -0.078 C 
BRANCH   8   9
HETATM    9  C4  UNL     1     -33.492  16.481  -3.697  1.00 20.00     0.054 C 
HETATM   10  C3  UNL     1     -33.184  15.222  -4.020  1.00 20.00     0.020 C 
ENDBRANCH   8   9
ENDBRANCH   6   7
ENDBRANCH   5   6
TORSDOF 3
ENDMDL
MODEL 5
REMARK VINA RESULT:      -3.8     11.829     13.078
REMARK  3 active torsions:
REMARK  status: ('A' for Active; 'I' for Inactive)
REMARK    1  A    between atoms: C1_1  and  C4_4 
REMARK    2  A    between atoms: C2_2  and  C9_9 
REMARK    3  A    between atoms: C9_9  and  N10_10 
ROOT
HETATM    1  C5  UNL     1     -34.398  15.586  -7.143  1.00 20.00     0.032 C 
HETATM    2  C6  UNL     1     -34.440  17.029  -6.663  1.00 20.00     0.032 C 
HETATM    3  C7  UNL     1     -35.005  14.769  -6.011  1.00 20.00     0.273 C 
HETATM    4  C8  UNL     1     -35.067  16.973  -5.277  1.00 20.00     0.273 C 
HETATM    5  N10 UNL     1     -34.895  15.595  -4.801  1.00 20.00     0.099 N 
ENDROOT
BRANCH   5   6
HETATM    6  C9  UNL     1     -33.565  15.429  -4.189  1.00 20.00     0.366 C 
BRANCH   6   7
HETATM    7  C2  UNL     1     -33.411  16.307  -3.025  1.00 20.00    -0.072 C 
HETATM    8  C1  UNL     1     -33.279  17.026  -2.072  1.00 20.00    -0.078 C 
BRANCH   8   9
HETATM    9  C4  UNL     1     -33.117  17.877  -0.947  1.00 20.00     0.054 C 
HETATM   10  C3  UNL     1     -31.937  18.423  -0.639  1.00 20.00     0.020 C 
ENDBRANCH   8   9
ENDBRANCH   6   7
ENDBRANCH   5   6
TORSDOF 3
ENDMDL
MODEL 6
REMARK VINA RESULT:      -3.8     11.637     12.825
REMARK  3 active torsions:
REMARK  status: ('A' for Active; 'I' for Inactive)
REMARK    1  A    between atoms: C1_1  and  C4_4 
REMARK    2  A    between atoms: C2_2  and  C9_9 
REMARK    3  A    between atoms: C9_9  and  N10_10 
ROOT
HETATM    1  C5  UNL     1     -33.322  16.239  -3.450  1.00 20.00     0.032 C 
HETATM    2  C6  UNL     1     -33.989  17.307  -4.305  1.00 20.00     0.032 C 
HETATM    3  C7  UNL     1     -33.530  16.690  -2.011  1.00 20.00     0.273 C 
HETATM    4  C8  UNL     1     -34.546  18.322  -3.317  1.00 20.00     0.273 C 
HETATM    5  N10 UNL     1     -33.801  18.132  -2.066  1.00 20.00     0.099 N 
ENDROOT
BRANCH   5   6
HETATM    6  C9  UNL     1     -32.537  18.888  -2.105  1.00 20.00     0.366 C 
BRANCH   6   7
HETATM    7  C2  UNL     1     -31.834  18.801  -0.822  1.00 20.00    -0.072 C 
HETATM    8  C1  UNL     1     -31.256  18.735   0.229  1.00 20.00    -0.078 C 
BRANCH   8   9
HETATM    9  C4  UNL     1     -30.572  18.663   1.470  1.00 20.00     0.054 C 
HETATM   10  C3  UNL     1     -31.219  18.715   2.638  1.00 20.00     0.020 C 
ENDBRANCH   8   9
ENDBRANCH   6   7
ENDBRANCH   5   6
TORSDOF 3
ENDMDL
MODEL 7
REMARK VINA RESULT:      -3.7     11.441     12.509
REMARK  3 active torsions:
REMARK  status: ('A' for Active; 'I' for Inactive)
REMARK    1  A    between atoms: C1_1  and  C4_4 
REMARK    2  A    between atoms: C2_2  and  C9_9 
REMARK    3  A    between atoms: C9_9  and  N10_10 
ROOT
HETATM    1  C5  UNL     1     -35.117  15.258  -5.032  1.00 20.00     0.032 C 
HETATM    2  C6  UNL     1     -34.102  14.452  -4.235  1.00 20.00     0.032 C 
HETATM    3  C7  UNL     1     -34.490  16.634  -5.205  1.00 20.00     0.273 C 
HETATM    4  C8  UNL     1     -32.940  15.403  -3.987  1.00 20.00     0.273 C 
HETATM    5  N10 UNL     1     -33.475  16.761  -4.151  1.00 20.00     0.099 N 
ENDROOT
BRANCH   5   6
HETATM    6  C9  UNL     1     -34.099  17.218  -2.896  1.00 20.00     0.366 C 
BRANCH   6   7
HETATM    7  C2  UNL     1     -33.085  17.703  -1.954  1.00 20.00    -0.072 C 
HETATM    8  C1  UNL     1     -32.257  18.096  -1.179  1.00 20.00    -0.078 C 
BRANCH   8   9
HETATM    9  C4  UNL     1     -31.277  18.554  -0.260  1.00 20.00     0.054 C 
HETATM   10  C3  UNL     1     -31.493  18.560   1.059  1.00 20.00     0.020 C 
ENDBRANCH   8   9
ENDBRANCH   6   7
ENDBRANCH   5   6
TORSDOF 3
ENDMDL
MODEL 8
REMARK VINA RESULT:      -3.4      9.664     10.782
REMARK  3 active torsions:
REMARK  status: ('A' for Active; 'I' for Inactive)
REMARK    1  A    between atoms: C1_1  and  C4_4 
REMARK    2  A    between atoms: C2_2  and  C9_9 
REMARK    3  A    between atoms: C9_9  and  N10_10 
ROOT
HETATM    1  C5  UNL     1     -42.084   7.632   0.704  1.00 20.00     0.032 C 
HETATM    2  C6  UNL     1     -40.997   7.406  -0.337  1.00 20.00     0.032 C 
HETATM    3  C7  UNL     1     -42.452   6.243   1.207  1.00 20.00     0.273 C 
HETATM    4  C8  UNL     1     -40.794   5.899  -0.384  1.00 20.00     0.273 C 
HETATM    5  N10 UNL     1     -42.015   5.299   0.170  1.00 20.00     0.099 N 
ENDROOT
BRANCH   5   6
HETATM    6  C9  UNL     1     -43.045   5.178  -0.877  1.00 20.00     0.366 C 
BRANCH   6   7
HETATM    7  C2  UNL     1     -42.576   4.330  -1.977  1.00 20.00    -0.072 C 
HETATM    8  C1  UNL     1     -42.189   3.641  -2.881  1.00 20.00    -0.078 C 
BRANCH   8   9
HETATM    9  C4  UNL     1     -41.727   2.829  -3.950  1.00 20.00     0.054 C 
HETATM   10  C3  UNL     1     -41.803   1.496  -3.909  1.00 20.00     0.020 C 
ENDBRANCH   8   9
ENDBRANCH   6   7
ENDBRANCH   5   6
TORSDOF 3
ENDMDL
MODEL 9
REMARK VINA RESULT:      -3.4     11.658     12.482
REMARK  3 active torsions:
REMARK  status: ('A' for Active; 'I' for Inactive)
REMARK    1  A    between atoms: C1_1  and  C4_4 
REMARK    2  A    between atoms: C2_2  and  C9_9 
REMARK    3  A    between atoms: C9_9  and  N10_10 
ROOT
HETATM    1  C5  UNL     1     -31.822  18.942  -0.760  1.00 20.00     0.032 C 
HETATM    2  C6  UNL     1     -32.913  18.586   0.239  1.00 20.00     0.032 C 
HETATM    3  C7  UNL     1     -32.499  18.904  -2.123  1.00 20.00     0.273 C 
HETATM    4  C8  UNL     1     -34.164  18.359  -0.597  1.00 20.00     0.273 C 
HETATM    5  N10 UNL     1     -33.704  18.079  -1.963  1.00 20.00     0.099 N 
ENDROOT
BRANCH   5   6
HETATM    6  C9  UNL     1     -33.367  16.652  -2.106  1.00 20.00     0.366 C 
BRANCH   6   7
HETATM    7  C2  UNL     1     -33.675  16.173  -3.457  1.00 20.00    -0.072 C 
HETATM    8  C1  UNL     1     -33.928  15.776  -4.562  1.00 20.00    -0.078 C 
BRANCH   8   9
HETATM    9  C4  UNL     1     -34.227  15.301  -5.865  1.00 20.00     0.054 C 
HETATM   10  C3  UNL     1     -35.426  14.800  -6.177  1.00 20.00     0.020 C 
ENDBRANCH   8   9
ENDBRANCH   6   7
ENDBRANCH   5   6
TORSDOF 3
ENDMDL
