MODEL 1
REMARK VINA RESULT:      -5.3      0.000      0.000
REMARK  0 active torsions:
REMARK  status: ('A' for Active; 'I' for Inactive)
ROOT
HETATM    1  C1  UNL     1     -32.857   8.510   4.744  1.00 20.00     0.011 A 
HETATM    2  C2  UNL     1     -32.331   8.779   3.480  1.00 20.00     0.024 A 
HETATM    3  C3  UNL     1     -32.988   6.578   2.735  1.00 20.00     0.031 A 
HETATM    4  C4  UNL     1     -33.445   7.268   5.016  1.00 20.00    -0.024 A 
HETATM    5  C5  UNL     1     -33.528   6.302   3.998  1.00 20.00    -0.047 A 
HETATM    6  C6  UNL     1     -32.395   7.813   2.478  1.00 20.00     0.034 A 
HETATM    7  C7  UNL     1     -34.136   4.952   4.281  1.00 20.00     0.069 C 
HETATM    8  C8  UNL     1     -34.043   7.000   6.375  1.00 20.00     0.308 C 
HETATM    9  C9  UNL     1     -34.988   4.946   5.551  1.00 20.00     0.274 C 
HETATM   10  N10 UNL     1     -34.260   5.576   6.651  1.00 20.00     0.087 N 
HETATM   11 CL11 UNL     1     -31.741   8.146   0.920  1.00 20.00    -0.084 Cl
HETATM   12  H21 UNL     1     -33.359   5.114   6.767  1.00 20.00     0.316 HD
ENDROOT
TORSDOF 0
ENDMDL
MODEL 2
REMARK VINA RESULT:      -4.8      0.852      2.192
REMARK  0 active torsions:
REMARK  status: ('A' for Active; 'I' for Inactive)
ROOT
HETATM    1  C1  UNL     1     -33.295   5.202   2.888  1.00 20.00     0.011 A 
HETATM    2  C2  UNL     1     -32.657   6.016   1.952  1.00 20.00     0.024 A 
HETATM    3  C3  UNL     1     -32.840   7.895   3.458  1.00 20.00     0.031 A 
HETATM    4  C4  UNL     1     -33.719   5.731   4.114  1.00 20.00    -0.024 A 
HETATM    5  C5  UNL     1     -33.472   7.084   4.408  1.00 20.00    -0.047 A 
HETATM    6  C6  UNL     1     -32.432   7.362   2.236  1.00 20.00     0.034 A 
HETATM    7  C7  UNL     1     -33.943   7.674   5.713  1.00 20.00     0.069 C 
HETATM    8  C8  UNL     1     -34.375   4.834   5.135  1.00 20.00     0.308 C 
HETATM    9  C9  UNL     1     -34.266   6.607   6.759  1.00 20.00     0.274 C 
HETATM   10  N10 UNL     1     -35.109   5.564   6.174  1.00 20.00     0.087 N 
HETATM   11 CL11 UNL     1     -31.649   8.366   1.077  1.00 20.00    -0.084 Cl
HETATM   12  H21 UNL     1     -35.938   5.992   5.764  1.00 20.00     0.316 HD
ENDROOT
TORSDOF 0
ENDMDL
MODEL 3
REMARK VINA RESULT:      -4.2     12.206     13.462
REMARK  0 active torsions:
REMARK  status: ('A' for Active; 'I' for Inactive)
ROOT
HETATM    1  C1  UNL     1     -33.267  15.938  -2.889  1.00 20.00     0.011 A 
HETATM    2  C2  UNL     1     -33.625  16.959  -2.010  1.00 20.00     0.024 A 
HETATM    3  C3  UNL     1     -34.912  18.017  -3.758  1.00 20.00     0.031 A 
HETATM    4  C4  UNL     1     -33.721  15.953  -4.214  1.00 20.00    -0.024 A 
HETATM    5  C5  UNL     1     -34.566  16.991  -4.646  1.00 20.00    -0.047 A 
HETATM    6  C6  UNL     1     -34.445  17.999  -2.444  1.00 20.00     0.034 A 
HETATM    7  C7  UNL     1     -35.045  17.034  -6.075  1.00 20.00     0.069 C 
HETATM    8  C8  UNL     1     -33.358  14.824  -5.147  1.00 20.00     0.308 C 
HETATM    9  C9  UNL     1     -34.894  15.689  -6.787  1.00 20.00     0.274 C 
HETATM   10  N10 UNL     1     -33.553  15.147  -6.565  1.00 20.00     0.087 N 
HETATM   11 CL11 UNL     1     -34.882  19.261  -1.358  1.00 20.00    -0.084 Cl
HETATM   12  H21 UNL     1     -32.859  15.837  -6.852  1.00 20.00     0.316 HD
ENDROOT
TORSDOF 0
ENDMDL
MODEL 4
REMARK VINA RESULT:      -4.2     12.544     12.808
REMARK  0 active torsions:
REMARK  status: ('A' for Active; 'I' for Inactive)
ROOT
HETATM    1  C1  UNL     1     -32.529  19.262   2.958  1.00 20.00     0.011 A 
HETATM    2  C2  UNL     1     -31.297  19.095   3.590  1.00 20.00     0.024 A 
HETATM    3  C3  UNL     1     -30.290  18.504   1.476  1.00 20.00     0.031 A 
HETATM    4  C4  UNL     1     -32.653  19.043   1.580  1.00 20.00    -0.024 A 
HETATM    5  C5  UNL     1     -31.520  18.679   0.831  1.00 20.00    -0.047 A 
HETATM    6  C6  UNL     1     -30.179  18.714   2.850  1.00 20.00     0.034 A 
HETATM    7  C7  UNL     1     -31.642  18.417  -0.649  1.00 20.00     0.069 C 
HETATM    8  C8  UNL     1     -33.982  19.263   0.900  1.00 20.00     0.308 C 
HETATM    9  C9  UNL     1     -32.924  18.999  -1.246  1.00 20.00     0.274 C 
HETATM   10  N10 UNL     1     -34.076  18.635  -0.423  1.00 20.00     0.087 N 
HETATM   11 CL11 UNL     1     -28.661  18.503   3.634  1.00 20.00    -0.084 Cl
HETATM   12  H21 UNL     1     -34.106  17.621  -0.313  1.00 20.00     0.316 HD
ENDROOT
TORSDOF 0
ENDMDL
MODEL 5
REMARK VINA RESULT:      -4.2     12.111     13.167
REMARK  0 active torsions:
REMARK  status: ('A' for Active; 'I' for Inactive)
ROOT
HETATM    1  C1  UNL     1     -35.049  18.468  -3.529  1.00 20.00     0.011 A 
HETATM    2  C2  UNL     1     -34.561  18.752  -2.253  1.00 20.00     0.024 A 
HETATM    3  C3  UNL     1     -33.387  16.643  -2.227  1.00 20.00     0.031 A 
HETATM    4  C4  UNL     1     -34.715  17.263  -4.161  1.00 20.00    -0.024 A 
HETATM    5  C5  UNL     1     -33.862  16.353  -3.512  1.00 20.00    -0.047 A 
HETATM    6  C6  UNL     1     -33.733  17.840  -1.602  1.00 20.00     0.034 A 
HETATM    7  C7  UNL     1     -33.513  15.041  -4.169  1.00 20.00     0.069 C 
HETATM    8  C8  UNL     1     -35.217  16.981  -5.556  1.00 20.00     0.308 C 
HETATM    9  C9  UNL     1     -33.795  15.042  -5.672  1.00 20.00     0.274 C 
HETATM   10  N10 UNL     1     -35.135  15.566  -5.935  1.00 20.00     0.087 N 
HETATM   11 CL11 UNL     1     -33.138  18.192  -0.026  1.00 20.00    -0.084 Cl
HETATM   12  H21 UNL     1     -35.817  15.033  -5.397  1.00 20.00     0.316 HD
ENDROOT
TORSDOF 0
ENDMDL
MODEL 6
REMARK VINA RESULT:      -4.0      1.165      2.229
REMARK  0 active torsions:
REMARK  status: ('A' for Active; 'I' for Inactive)
ROOT
HETATM    1  C1  UNL     1     -32.874   6.319   2.838  1.00 20.00     0.011 A 
HETATM    2  C2  UNL     1     -32.434   7.613   2.560  1.00 20.00     0.024 A 
HETATM    3  C3  UNL     1     -33.293   8.366   4.687  1.00 20.00     0.031 A 
HETATM    4  C4  UNL     1     -33.536   6.040   4.041  1.00 20.00    -0.024 A 
HETATM    5  C5  UNL     1     -33.730   7.068   4.980  1.00 20.00    -0.047 A 
HETATM    6  C6  UNL     1     -32.646   8.636   3.482  1.00 20.00     0.034 A 
HETATM    7  C7  UNL     1     -34.461   6.789   6.269  1.00 20.00     0.069 C 
HETATM    8  C8  UNL     1     -33.975   4.629   4.348  1.00 20.00     0.308 C 
HETATM    9  C9  UNL     1     -34.535   5.296   6.593  1.00 20.00     0.274 C 
HETATM   10  N10 UNL     1     -34.976   4.546   5.418  1.00 20.00     0.087 N 
HETATM   11 CL11 UNL     1     -32.106  10.233   3.134  1.00 20.00    -0.084 Cl
HETATM   12  H21 UNL     1     -35.859   4.931   5.084  1.00 20.00     0.316 HD
ENDROOT
TORSDOF 0
ENDMDL
MODEL 7
REMARK VINA RESULT:      -4.0     12.509     13.198
REMARK  0 active torsions:
REMARK  status: ('A' for Active; 'I' for Inactive)
ROOT
HETATM    1  C1  UNL     1     -34.872  19.256  -0.765  1.00 20.00     0.011 A 
HETATM    2  C2  UNL     1     -33.903  19.263   0.238  1.00 20.00     0.024 A 
HETATM    3  C3  UNL     1     -32.540  17.754  -1.065  1.00 20.00     0.031 A 
HETATM    4  C4  UNL     1     -34.687  18.490  -1.923  1.00 20.00    -0.024 A 
HETATM    5  C5  UNL     1     -33.503  17.748  -2.082  1.00 20.00    -0.047 A 
HETATM    6  C6  UNL     1     -32.739  18.511   0.089  1.00 20.00     0.034 A 
HETATM    7  C7  UNL     1     -33.299  16.900  -3.311  1.00 20.00     0.069 C 
HETATM    8  C8  UNL     1     -35.725  18.518  -3.018  1.00 20.00     0.308 C 
HETATM    9  C9  UNL     1     -34.238  17.286  -4.455  1.00 20.00     0.274 C 
HETATM   10  N10 UNL     1     -35.611  17.402  -3.965  1.00 20.00     0.087 N 
HETATM   11 CL11 UNL     1     -31.546  18.518   1.330  1.00 20.00    -0.084 Cl
HETATM   12  H21 UNL     1     -35.877  16.536  -3.499  1.00 20.00     0.316 HD
ENDROOT
TORSDOF 0
ENDMDL
MODEL 8
REMARK VINA RESULT:      -3.8     12.937     13.592
REMARK  0 active torsions:
REMARK  status: ('A' for Active; 'I' for Inactive)
ROOT
HETATM    1  C1  UNL     1     -25.025  -1.174  12.218  1.00 20.00     0.011 A 
HETATM    2  C2  UNL     1     -23.908  -1.844  11.720  1.00 20.00     0.024 A 
HETATM    3  C3  UNL     1     -25.306  -2.993  10.121  1.00 20.00     0.031 A 
HETATM    4  C4  UNL     1     -26.295  -1.415  11.676  1.00 20.00    -0.024 A 
HETATM    5  C5  UNL     1     -26.433  -2.317  10.607  1.00 20.00    -0.047 A 
HETATM    6  C6  UNL     1     -24.049  -2.754  10.674  1.00 20.00     0.034 A 
HETATM    7  C7  UNL     1     -27.795  -2.605  10.028  1.00 20.00     0.069 C 
HETATM    8  C8  UNL     1     -27.492  -0.657  12.197  1.00 20.00     0.308 C 
HETATM    9  C9  UNL     1     -28.830  -1.543  10.403  1.00 20.00     0.274 C 
HETATM   10  N10 UNL     1     -28.776  -1.269  11.838  1.00 20.00     0.087 N 
HETATM   11 CL11 UNL     1     -22.669  -3.584  10.065  1.00 20.00    -0.084 Cl
HETATM   12  H21 UNL     1     -28.889  -2.142  12.353  1.00 20.00     0.316 HD
ENDROOT
TORSDOF 0
ENDMDL
MODEL 9
REMARK VINA RESULT:      -3.8     12.121     13.284
REMARK  0 active torsions:
REMARK  status: ('A' for Active; 'I' for Inactive)
ROOT
HETATM    1  C1  UNL     1     -33.344  15.380  -3.819  1.00 20.00     0.011 A 
HETATM    2  C2  UNL     1     -33.721  15.009  -5.110  1.00 20.00     0.024 A 
HETATM    3  C3  UNL     1     -34.931  17.084  -5.356  1.00 20.00     0.031 A 
HETATM    4  C4  UNL     1     -33.765  16.603  -3.284  1.00 20.00    -0.024 A 
HETATM    5  C5  UNL     1     -34.549  17.470  -4.066  1.00 20.00    -0.047 A 
HETATM    6  C6  UNL     1     -34.516  15.858  -5.877  1.00 20.00     0.034 A 
HETATM    7  C7  UNL     1     -35.030  18.780  -3.495  1.00 20.00     0.069 C 
HETATM    8  C8  UNL     1     -33.321  17.012  -1.900  1.00 20.00     0.308 C 
HETATM    9  C9  UNL     1     -34.241  19.208  -2.257  1.00 20.00     0.274 C 
HETATM   10  N10 UNL     1     -34.127  18.092  -1.319  1.00 20.00     0.087 N 
HETATM   11 CL11 UNL     1     -34.985  15.395  -7.467  1.00 20.00    -0.084 Cl
HETATM   12  H21 UNL     1     -35.058  17.737  -1.102  1.00 20.00     0.316 HD
ENDROOT
TORSDOF 0
ENDMDL
