MODEL 1
REMARK VINA RESULT:      -5.7      0.000      0.000
REMARK  2 active torsions:
REMARK  status: ('A' for Active; 'I' for Inactive)
REMARK    1  A    between atoms: C2_2  and  C3_3 
REMARK    2  A    between atoms: C3_3  and  O10_10 
ROOT
HETATM    1  C1  UNL     1     -33.576   7.038   4.871  1.00 20.00    -0.067 C 
HETATM    2  C2  UNL     1     -32.810   8.009   4.362  1.00 20.00     0.014 C 
HETATM    3  C4  UNL     1     -33.994   6.947   6.311  1.00 20.00     0.035 C 
HETATM    4  C5  UNL     1     -34.134   5.889   4.081  1.00 20.00     0.035 C 
HETATM    5  C6  UNL     1     -34.564   5.538   6.414  1.00 20.00     0.005 C 
HETATM    6  C7  UNL     1     -35.155   5.281   5.035  1.00 20.00     0.005 C 
HETATM    7  C8  UNL     1     -32.275   9.137   5.193  1.00 20.00     0.056 C 
ENDROOT
BRANCH   2   8
HETATM    8  C3  UNL     1     -32.494   7.941   2.911  1.00 20.00     0.171 C 
HETATM    9  O9  UNL     1     -32.045   6.966   2.328  1.00 20.00    -0.646 OA
BRANCH   8  10
HETATM   10  O10 UNL     1     -32.772   9.118   2.302  1.00 20.00    -0.773 OA
HETATM   11  H22 UNL     1     -32.436   9.143   1.381  1.00 20.00     0.167 HD
ENDBRANCH   8  10
ENDBRANCH   2   8
TORSDOF 2
ENDMDL
MODEL 2
REMARK VINA RESULT:      -5.6      2.331      3.724
REMARK  2 active torsions:
REMARK  status: ('A' for Active; 'I' for Inactive)
REMARK    1  A    between atoms: C2_2  and  C3_3 
REMARK    2  A    between atoms: C3_3  and  O10_10 
ROOT
HETATM    1  C1  UNL     1     -33.364   7.073   4.493  1.00 20.00    -0.067 C 
HETATM    2  C2  UNL     1     -34.100   6.339   5.334  1.00 20.00     0.014 C 
HETATM    3  C4  UNL     1     -32.735   8.393   4.840  1.00 20.00     0.035 C 
HETATM    4  C5  UNL     1     -33.053   6.691   3.074  1.00 20.00     0.035 C 
HETATM    5  C6  UNL     1     -32.297   8.931   3.482  1.00 20.00     0.005 C 
HETATM    6  C7  UNL     1     -31.960   7.679   2.685  1.00 20.00     0.005 C 
HETATM    7  C8  UNL     1     -34.384   6.763   6.744  1.00 20.00     0.056 C 
ENDROOT
BRANCH   2   8
HETATM    8  C3  UNL     1     -34.647   5.055   4.821  1.00 20.00     0.171 C 
HETATM    9  O9  UNL     1     -34.023   4.010   4.717  1.00 20.00    -0.646 OA
BRANCH   8  10
HETATM   10  O10 UNL     1     -35.949   5.190   4.476  1.00 20.00    -0.773 OA
HETATM   11  H22 UNL     1     -36.528   4.578   4.979  1.00 20.00     0.167 HD
ENDBRANCH   8  10
ENDBRANCH   2   8
TORSDOF 2
ENDMDL
MODEL 3
REMARK VINA RESULT:      -5.4      2.383      3.843
REMARK  2 active torsions:
REMARK  status: ('A' for Active; 'I' for Inactive)
REMARK    1  A    between atoms: C2_2  and  C3_3 
REMARK    2  A    between atoms: C3_3  and  O10_10 
ROOT
HETATM    1  C1  UNL     1     -33.272   6.991   4.320  1.00 20.00    -0.067 C 
HETATM    2  C2  UNL     1     -33.559   5.794   3.800  1.00 20.00     0.014 C 
HETATM    3  C4  UNL     1     -32.392   8.018   3.665  1.00 20.00     0.035 C 
HETATM    4  C5  UNL     1     -33.786   7.495   5.639  1.00 20.00     0.035 C 
HETATM    5  C6  UNL     1     -32.151   9.026   4.782  1.00 20.00     0.005 C 
HETATM    6  C7  UNL     1     -33.432   8.976   5.602  1.00 20.00     0.005 C 
HETATM    7  C8  UNL     1     -33.021   5.336   2.477  1.00 20.00     0.056 C 
ENDROOT
BRANCH   2   8
HETATM    8  C3  UNL     1     -34.449   4.902   4.588  1.00 20.00     0.171 C 
HETATM    9  O9  UNL     1     -34.102   3.882   5.163  1.00 20.00    -0.646 OA
BRANCH   8  10
HETATM   10  O10 UNL     1     -35.719   5.370   4.591  1.00 20.00    -0.773 OA
HETATM   11  H22 UNL     1     -36.165   5.228   3.729  1.00 20.00     0.167 HD
ENDBRANCH   8  10
ENDBRANCH   2   8
TORSDOF 2
ENDMDL
MODEL 4
REMARK VINA RESULT:      -5.1      1.267      2.293
REMARK  2 active torsions:
REMARK  status: ('A' for Active; 'I' for Inactive)
REMARK    1  A    between atoms: C2_2  and  C3_3 
REMARK    2  A    between atoms: C3_3  and  O10_10 
ROOT
HETATM    1  C1  UNL     1     -33.608   6.128   4.402  1.00 20.00    -0.067 C 
HETATM    2  C2  UNL     1     -32.917   6.239   3.263  1.00 20.00     0.014 C 
HETATM    3  C4  UNL     1     -34.365   4.901   4.825  1.00 20.00     0.035 C 
HETATM    4  C5  UNL     1     -33.734   7.213   5.433  1.00 20.00     0.035 C 
HETATM    5  C6  UNL     1     -35.200   5.401   5.998  1.00 20.00     0.005 C 
HETATM    6  C7  UNL     1     -34.334   6.483   6.628  1.00 20.00     0.005 C 
HETATM    7  C8  UNL     1     -32.821   5.125   2.263  1.00 20.00     0.056 C 
ENDROOT
BRANCH   2   8
HETATM    8  C3  UNL     1     -32.227   7.530   3.005  1.00 20.00     0.171 C 
HETATM    9  O9  UNL     1     -31.719   8.245   3.855  1.00 20.00    -0.646 OA
BRANCH   8  10
HETATM   10  O10 UNL     1     -32.230   7.821   1.683  1.00 20.00    -0.773 OA
HETATM   11  H22 UNL     1     -32.907   8.494   1.456  1.00 20.00     0.167 HD
ENDBRANCH   8  10
ENDBRANCH   2   8
TORSDOF 2
ENDMDL
MODEL 5
REMARK VINA RESULT:      -5.1      1.286      2.234
REMARK  2 active torsions:
REMARK  status: ('A' for Active; 'I' for Inactive)
REMARK    1  A    between atoms: C2_2  and  C3_3 
REMARK    2  A    between atoms: C3_3  and  O10_10 
ROOT
HETATM    1  C1  UNL     1     -33.643   6.453   4.521  1.00 20.00    -0.067 C 
HETATM    2  C2  UNL     1     -32.898   6.932   3.520  1.00 20.00     0.014 C 
HETATM    3  C4  UNL     1     -34.202   5.059   4.578  1.00 20.00     0.035 C 
HETATM    4  C5  UNL     1     -34.035   7.234   5.743  1.00 20.00     0.035 C 
HETATM    5  C6  UNL     1     -35.198   5.136   5.729  1.00 20.00     0.005 C 
HETATM    6  C7  UNL     1     -34.586   6.160   6.674  1.00 20.00     0.005 C 
HETATM    7  C8  UNL     1     -32.533   6.113   2.318  1.00 20.00     0.056 C 
ENDROOT
BRANCH   2   8
HETATM    8  C3  UNL     1     -32.429   8.338   3.630  1.00 20.00     0.171 C 
HETATM    9  O9  UNL     1     -32.702   9.241   2.853  1.00 20.00    -0.646 OA
BRANCH   8  10
HETATM   10  O10 UNL     1     -31.644   8.499   4.721  1.00 20.00    -0.773 OA
HETATM   11  H22 UNL     1     -31.046   7.734   4.860  1.00 20.00     0.167 HD
ENDBRANCH   8  10
ENDBRANCH   2   8
TORSDOF 2
ENDMDL
MODEL 6
REMARK VINA RESULT:      -4.7     11.488     12.759
REMARK  2 active torsions:
REMARK  status: ('A' for Active; 'I' for Inactive)
REMARK    1  A    between atoms: C2_2  and  C3_3 
REMARK    2  A    between atoms: C3_3  and  O10_10 
ROOT
HETATM    1  C1  UNL     1     -33.795  16.697  -3.948  1.00 20.00    -0.067 C 
HETATM    2  C2  UNL     1     -34.136  15.803  -4.882  1.00 20.00     0.014 C 
HETATM    3  C4  UNL     1     -33.766  18.184  -4.161  1.00 20.00     0.035 C 
HETATM    4  C5  UNL     1     -33.388  16.352  -2.544  1.00 20.00     0.035 C 
HETATM    5  C6  UNL     1     -33.030  18.693  -2.927  1.00 20.00     0.005 C 
HETATM    6  C7  UNL     1     -33.416  17.702  -1.838  1.00 20.00     0.005 C 
HETATM    7  C8  UNL     1     -34.535  16.197  -6.273  1.00 20.00     0.056 C 
ENDROOT
BRANCH   2   8
HETATM    8  C3  UNL     1     -34.108  14.368  -4.496  1.00 20.00     0.171 C 
HETATM    9  O9  UNL     1     -35.071  13.714  -4.126  1.00 20.00    -0.646 OA
BRANCH   8  10
HETATM   10  O10 UNL     1     -32.856  13.863  -4.609  1.00 20.00    -0.773 OA
HETATM   11  H22 UNL     1     -32.805  13.157  -5.288  1.00 20.00     0.167 HD
ENDBRANCH   8  10
ENDBRANCH   2   8
TORSDOF 2
ENDMDL
MODEL 7
REMARK VINA RESULT:      -4.4      1.602      2.357
REMARK  2 active torsions:
REMARK  status: ('A' for Active; 'I' for Inactive)
REMARK    1  A    between atoms: C2_2  and  C3_3 
REMARK    2  A    between atoms: C3_3  and  O10_10 
ROOT
HETATM    1  C1  UNL     1     -33.481   6.454   4.379  1.00 20.00    -0.067 C 
HETATM    2  C2  UNL     1     -33.407   7.595   5.072  1.00 20.00     0.014 C 
HETATM    3  C4  UNL     1     -34.331   5.276   4.763  1.00 20.00     0.035 C 
HETATM    4  C5  UNL     1     -32.727   6.175   3.110  1.00 20.00     0.035 C 
HETATM    5  C6  UNL     1     -33.819   4.170   3.847  1.00 20.00     0.005 C 
HETATM    6  C7  UNL     1     -33.394   4.909   2.586  1.00 20.00     0.005 C 
HETATM    7  C8  UNL     1     -34.181   7.827   6.335  1.00 20.00     0.056 C 
ENDROOT
BRANCH   2   8
HETATM    8  C3  UNL     1     -32.513   8.658   4.543  1.00 20.00     0.171 C 
HETATM    9  O9  UNL     1     -32.550   9.119   3.413  1.00 20.00    -0.646 OA
BRANCH   8  10
HETATM   10  O10 UNL     1     -31.633   9.061   5.490  1.00 20.00    -0.773 OA
HETATM   11  H22 UNL     1     -31.620  10.037   5.588  1.00 20.00     0.167 HD
ENDBRANCH   8  10
ENDBRANCH   2   8
TORSDOF 2
ENDMDL
MODEL 8
REMARK VINA RESULT:      -4.4      2.562      4.330
REMARK  2 active torsions:
REMARK  status: ('A' for Active; 'I' for Inactive)
REMARK    1  A    between atoms: C2_2  and  C3_3 
REMARK    2  A    between atoms: C3_3  and  O10_10 
ROOT
HETATM    1  C1  UNL     1     -33.341   6.764   4.187  1.00 20.00    -0.067 C 
HETATM    2  C2  UNL     1     -33.982   5.796   4.850  1.00 20.00     0.014 C 
HETATM    3  C4  UNL     1     -32.725   6.602   2.826  1.00 20.00     0.035 C 
HETATM    4  C5  UNL     1     -33.136   8.160   4.701  1.00 20.00     0.035 C 
HETATM    5  C6  UNL     1     -31.880   7.862   2.680  1.00 20.00     0.005 C 
HETATM    6  C7  UNL     1     -32.650   8.912   3.468  1.00 20.00     0.005 C 
HETATM    7  C8  UNL     1     -34.160   4.415   4.294  1.00 20.00     0.056 C 
ENDROOT
BRANCH   2   8
HETATM    8  C3  UNL     1     -34.529   6.133   6.191  1.00 20.00     0.171 C 
HETATM    9  O9  UNL     1     -34.351   7.185   6.785  1.00 20.00    -0.646 OA
BRANCH   8  10
HETATM   10  O10 UNL     1     -35.264   5.108   6.682  1.00 20.00    -0.773 OA
HETATM   11  H22 UNL     1     -36.207   5.172   6.417  1.00 20.00     0.167 HD
ENDBRANCH   8  10
ENDBRANCH   2   8
TORSDOF 2
ENDMDL
MODEL 9
REMARK VINA RESULT:      -4.3     11.574     13.427
REMARK  2 active torsions:
REMARK  status: ('A' for Active; 'I' for Inactive)
REMARK    1  A    between atoms: C2_2  and  C3_3 
REMARK    2  A    between atoms: C3_3  and  O10_10 
ROOT
HETATM    1  C1  UNL     1     -34.303  17.098  -4.603  1.00 20.00    -0.067 C 
HETATM    2  C2  UNL     1     -33.726  16.306  -3.693  1.00 20.00     0.014 C 
HETATM    3  C4  UNL     1     -34.698  18.527  -4.363  1.00 20.00     0.035 C 
HETATM    4  C5  UNL     1     -34.646  16.680  -6.004  1.00 20.00     0.035 C 
HETATM    5  C6  UNL     1     -35.569  18.851  -5.571  1.00 20.00     0.005 C 
HETATM    6  C7  UNL     1     -34.975  18.002  -6.686  1.00 20.00     0.005 C 
HETATM    7  C8  UNL     1     -33.403  16.770  -2.304  1.00 20.00     0.056 C 
ENDROOT
BRANCH   2   8
HETATM    8  C3  UNL     1     -33.403  14.915  -4.105  1.00 20.00     0.171 C 
HETATM    9  O9  UNL     1     -34.159  13.958  -4.027  1.00 20.00    -0.646 OA
BRANCH   8  10
HETATM   10  O10 UNL     1     -32.141  14.836  -4.589  1.00 20.00    -0.773 OA
HETATM   11  H22 UNL     1     -31.656  14.064  -4.227  1.00 20.00     0.167 HD
ENDBRANCH   8  10
ENDBRANCH   2   8
TORSDOF 2
ENDMDL
