MODEL 1
REMARK VINA RESULT:      -4.7      0.000      0.000
REMARK  1 active torsions:
REMARK  status: ('A' for Active; 'I' for Inactive)
REMARK    1  A    between atoms: C6_6  and  N8_8 
ROOT
HETATM    1  C1  UNL     1     -32.333   8.645   3.853  1.00 20.00     0.137 A 
HETATM    2  C2  UNL     1     -33.192   8.158   4.810  1.00 20.00     0.113 A 
HETATM    3  C3  UNL     1     -32.745   6.636   3.281  1.00 20.00     0.203 A 
HETATM    4  N7  UNL     1     -32.059   7.693   2.904  1.00 20.00    -0.231 NA
HETATM    5  N8  UNL     1     -33.447   6.871   4.430  1.00 20.00    -0.327 N 
HETATM    6 CL9  UNL     1     -32.809   5.133   2.496  1.00 20.00    -0.043 Cl
ENDROOT
BRANCH   5   7
HETATM    7  C6  UNL     1     -34.322   5.937   5.151  1.00 20.00     0.083 C 
HETATM    8  C4  UNL     1     -35.670   5.759   4.450  1.00 20.00     0.032 C 
HETATM    9  C5  UNL     1     -34.496   6.332   6.618  1.00 20.00     0.032 C 
ENDBRANCH   5   7
TORSDOF 1
ENDMDL
MODEL 2
REMARK VINA RESULT:      -4.4      1.318      3.100
REMARK  1 active torsions:
REMARK  status: ('A' for Active; 'I' for Inactive)
REMARK    1  A    between atoms: C6_6  and  N8_8 
ROOT
HETATM    1  C1  UNL     1     -34.758   5.388   6.054  1.00 20.00     0.137 A 
HETATM    2  C2  UNL     1     -34.283   6.670   5.909  1.00 20.00     0.113 A 
HETATM    3  C3  UNL     1     -33.884   5.456   4.114  1.00 20.00     0.203 A 
HETATM    4  N7  UNL     1     -34.507   4.638   4.933  1.00 20.00    -0.231 NA
HETATM    5  N8  UNL     1     -33.725   6.698   4.662  1.00 20.00    -0.327 N 
HETATM    6 CL9  UNL     1     -33.312   5.095   2.557  1.00 20.00    -0.043 Cl
ENDROOT
BRANCH   5   7
HETATM    7  C6  UNL     1     -33.081   7.869   4.053  1.00 20.00     0.083 C 
HETATM    8  C4  UNL     1     -31.989   7.469   3.058  1.00 20.00     0.032 C 
HETATM    9  C5  UNL     1     -32.556   8.847   5.105  1.00 20.00     0.032 C 
ENDBRANCH   5   7
TORSDOF 1
ENDMDL
MODEL 3
REMARK VINA RESULT:      -4.4      0.565      1.263
REMARK  1 active torsions:
REMARK  status: ('A' for Active; 'I' for Inactive)
REMARK    1  A    between atoms: C6_6  and  N8_8 
ROOT
HETATM    1  C1  UNL     1     -32.204   8.651   4.251  1.00 20.00     0.137 A 
HETATM    2  C2  UNL     1     -33.199   8.325   5.141  1.00 20.00     0.113 A 
HETATM    3  C3  UNL     1     -32.883   6.722   3.662  1.00 20.00     0.203 A 
HETATM    4  N7  UNL     1     -32.012   7.650   3.334  1.00 20.00    -0.231 NA
HETATM    5  N8  UNL     1     -33.626   7.087   4.750  1.00 20.00    -0.327 N 
HETATM    6 CL9  UNL     1     -33.125   5.233   2.884  1.00 20.00    -0.043 Cl
ENDROOT
BRANCH   5   7
HETATM    7  C6  UNL     1     -34.691   6.316   5.406  1.00 20.00     0.083 C 
HETATM    8  C4  UNL     1     -34.128   5.239   6.336  1.00 20.00     0.032 C 
HETATM    9  C5  UNL     1     -35.678   5.730   4.396  1.00 20.00     0.032 C 
ENDBRANCH   5   7
TORSDOF 1
ENDMDL
MODEL 4
REMARK VINA RESULT:      -4.0      2.007      2.537
REMARK  1 active torsions:
REMARK  status: ('A' for Active; 'I' for Inactive)
REMARK    1  A    between atoms: C6_6  and  N8_8 
ROOT
HETATM    1  C1  UNL     1     -32.173   8.826   3.952  1.00 20.00     0.137 A 
HETATM    2  C2  UNL     1     -32.416   7.616   3.347  1.00 20.00     0.113 A 
HETATM    3  C3  UNL     1     -33.329   7.713   5.350  1.00 20.00     0.203 A 
HETATM    4  N7  UNL     1     -32.743   8.880   5.198  1.00 20.00    -0.231 NA
HETATM    5  N8  UNL     1     -33.157   6.913   4.254  1.00 20.00    -0.327 N 
HETATM    6 CL9  UNL     1     -34.204   7.182   6.704  1.00 20.00    -0.043 Cl
ENDROOT
BRANCH   5   7
HETATM    7  C6  UNL     1     -33.662   5.548   4.054  1.00 20.00     0.083 C 
HETATM    8  C4  UNL     1     -33.268   4.987   2.687  1.00 20.00     0.032 C 
HETATM    9  C5  UNL     1     -35.171   5.456   4.289  1.00 20.00     0.032 C 
ENDBRANCH   5   7
TORSDOF 1
ENDMDL
MODEL 5
REMARK VINA RESULT:      -4.0      2.037      2.692
REMARK  1 active torsions:
REMARK  status: ('A' for Active; 'I' for Inactive)
REMARK    1  A    between atoms: C6_6  and  N8_8 
ROOT
HETATM    1  C1  UNL     1     -32.201   8.731   4.305  1.00 20.00     0.137 A 
HETATM    2  C2  UNL     1     -32.462   7.683   3.455  1.00 20.00     0.113 A 
HETATM    3  C3  UNL     1     -33.519   7.446   5.374  1.00 20.00     0.203 A 
HETATM    4  N7  UNL     1     -32.861   8.578   5.497  1.00 20.00    -0.231 NA
HETATM    5  N8  UNL     1     -33.307   6.867   4.153  1.00 20.00    -0.327 N 
HETATM    6 CL9  UNL     1     -34.522   6.721   6.535  1.00 20.00    -0.043 Cl
ENDROOT
BRANCH   5   7
HETATM    7  C6  UNL     1     -33.868   5.606   3.651  1.00 20.00     0.083 C 
HETATM    8  C4  UNL     1     -34.164   4.621   4.784  1.00 20.00     0.032 C 
HETATM    9  C5  UNL     1     -32.987   4.976   2.571  1.00 20.00     0.032 C 
ENDBRANCH   5   7
TORSDOF 1
ENDMDL
MODEL 6
REMARK VINA RESULT:      -4.0      2.023      3.588
REMARK  1 active torsions:
REMARK  status: ('A' for Active; 'I' for Inactive)
REMARK    1  A    between atoms: C6_6  and  N8_8 
ROOT
HETATM    1  C1  UNL     1     -34.732   5.475   6.269  1.00 20.00     0.137 A 
HETATM    2  C2  UNL     1     -34.402   5.143   4.977  1.00 20.00     0.113 A 
HETATM    3  C3  UNL     1     -33.779   7.200   5.465  1.00 20.00     0.203 A 
HETATM    4  N7  UNL     1     -34.342   6.755   6.567  1.00 20.00    -0.231 NA
HETATM    5  N8  UNL     1     -33.793   6.258   4.474  1.00 20.00    -0.327 N 
HETATM    6 CL9  UNL     1     -33.100   8.736   5.218  1.00 20.00    -0.043 Cl
ENDROOT
BRANCH   5   7
HETATM    7  C6  UNL     1     -33.260   6.386   3.111  1.00 20.00     0.083 C 
HETATM    8  C4  UNL     1     -32.929   5.024   2.496  1.00 20.00     0.032 C 
HETATM    9  C5  UNL     1     -32.065   7.338   3.050  1.00 20.00     0.032 C 
ENDBRANCH   5   7
TORSDOF 1
ENDMDL
MODEL 7
REMARK VINA RESULT:      -3.8      1.779      2.474
REMARK  1 active torsions:
REMARK  status: ('A' for Active; 'I' for Inactive)
REMARK    1  A    between atoms: C6_6  and  N8_8 
ROOT
HETATM    1  C1  UNL     1     -32.877   5.374   2.547  1.00 20.00     0.137 A 
HETATM    2  C2  UNL     1     -33.732   5.179   3.605  1.00 20.00     0.113 A 
HETATM    3  C3  UNL     1     -32.785   7.167   3.691  1.00 20.00     0.203 A 
HETATM    4  N7  UNL     1     -32.291   6.613   2.606  1.00 20.00    -0.231 NA
HETATM    5  N8  UNL     1     -33.662   6.335   4.330  1.00 20.00    -0.327 N 
HETATM    6 CL9  UNL     1     -32.428   8.712   4.296  1.00 20.00    -0.043 Cl
ENDROOT
BRANCH   5   7
HETATM    7  C6  UNL     1     -34.409   6.603   5.566  1.00 20.00     0.083 C 
HETATM    8  C4  UNL     1     -33.619   7.487   6.533  1.00 20.00     0.032 C 
HETATM    9  C5  UNL     1     -34.883   5.314   6.239  1.00 20.00     0.032 C 
ENDBRANCH   5   7
TORSDOF 1
ENDMDL
MODEL 8
REMARK VINA RESULT:      -3.8      1.751      2.914
REMARK  1 active torsions:
REMARK  status: ('A' for Active; 'I' for Inactive)
REMARK    1  A    between atoms: C6_6  and  N8_8 
ROOT
HETATM    1  C1  UNL     1     -32.810   5.347   2.550  1.00 20.00     0.137 A 
HETATM    2  C2  UNL     1     -32.599   6.609   3.052  1.00 20.00     0.113 A 
HETATM    3  C3  UNL     1     -34.087   5.506   4.245  1.00 20.00     0.203 A 
HETATM    4  N7  UNL     1     -33.737   4.666   3.296  1.00 20.00    -0.231 NA
HETATM    5  N8  UNL     1     -33.424   6.697   4.137  1.00 20.00    -0.327 N 
HETATM    6 CL9  UNL     1     -35.215   5.230   5.483  1.00 20.00    -0.043 Cl
ENDROOT
BRANCH   5   7
HETATM    7  C6  UNL     1     -33.550   7.873   5.008  1.00 20.00     0.083 C 
HETATM    8  C4  UNL     1     -32.413   8.873   4.788  1.00 20.00     0.032 C 
HETATM    9  C5  UNL     1     -33.680   7.483   6.481  1.00 20.00     0.032 C 
ENDBRANCH   5   7
TORSDOF 1
ENDMDL
MODEL 9
REMARK VINA RESULT:      -3.8      1.908      2.459
REMARK  1 active torsions:
REMARK  status: ('A' for Active; 'I' for Inactive)
REMARK    1  A    between atoms: C6_6  and  N8_8 
ROOT
HETATM    1  C1  UNL     1     -32.056   7.551   2.859  1.00 20.00     0.137 A 
HETATM    2  C2  UNL     1     -32.784   6.427   3.170  1.00 20.00     0.113 A 
HETATM    3  C3  UNL     1     -33.220   8.079   4.562  1.00 20.00     0.203 A 
HETATM    4  N7  UNL     1     -32.332   8.575   3.729  1.00 20.00    -0.231 NA
HETATM    5  N8  UNL     1     -33.524   6.779   4.263  1.00 20.00    -0.327 N 
HETATM    6 CL9  UNL     1     -33.945   8.879   5.872  1.00 20.00    -0.043 Cl
ENDROOT
BRANCH   5   7
HETATM    7  C6  UNL     1     -34.467   5.898   4.963  1.00 20.00     0.083 C 
HETATM    8  C4  UNL     1     -34.344   6.020   6.483  1.00 20.00     0.032 C 
HETATM    9  C5  UNL     1     -34.343   4.445   4.502  1.00 20.00     0.032 C 
ENDBRANCH   5   7
TORSDOF 1
ENDMDL
