MODEL 1
REMARK VINA RESULT:      -5.6      0.000      0.000
REMARK  1 active torsions:
REMARK  status: ('A' for Active; 'I' for Inactive)
REMARK    1  A    between atoms: C5_5  and  O7_7 
ROOT
HETATM    1  C1  UNL     1     -33.440   7.756   4.454  1.00 20.00     0.037 C 
HETATM    2  C2  UNL     1     -33.349   5.627   3.095  1.00 20.00     0.037 C 
HETATM    3  C3  UNL     1     -33.981   6.974   5.648  1.00 20.00     0.081 C 
HETATM    4  C4  UNL     1     -33.889   4.840   4.285  1.00 20.00     0.081 C 
HETATM    5  C5  UNL     1     -32.586   6.873   3.545  1.00 20.00     0.118 C 
HETATM    6  C6  UNL     1     -34.720   5.723   5.203  1.00 20.00     0.243 C 
HETATM    7  F8  UNL     1     -35.099   5.010   6.293  1.00 20.00    -0.206 F 
HETATM    8  F9  UNL     1     -35.862   6.084   4.561  1.00 20.00    -0.206 F 
ENDROOT
BRANCH   5   9
HETATM    9  O7  UNL     1     -32.201   7.635   2.405  1.00 20.00    -0.396 OA
HETATM   10  H19 UNL     1     -32.693   7.275   1.651  1.00 20.00     0.210 HD
ENDBRANCH   5   9
TORSDOF 1
ENDMDL
MODEL 2
REMARK VINA RESULT:      -5.4      1.190      1.427
REMARK  1 active torsions:
REMARK  status: ('A' for Active; 'I' for Inactive)
REMARK    1  A    between atoms: C5_5  and  O7_7 
ROOT
HETATM    1  C1  UNL     1     -33.796   7.823   5.786  1.00 20.00     0.037 C 
HETATM    2  C2  UNL     1     -32.995   7.149   3.485  1.00 20.00     0.037 C 
HETATM    3  C3  UNL     1     -34.265   6.394   6.045  1.00 20.00     0.081 C 
HETATM    4  C4  UNL     1     -33.462   5.719   3.739  1.00 20.00     0.081 C 
HETATM    5  C5  UNL     1     -32.638   7.863   4.790  1.00 20.00     0.118 C 
HETATM    6  C6  UNL     1     -34.598   5.676   4.747  1.00 20.00     0.243 C 
HETATM    7  F8  UNL     1     -34.916   4.385   5.015  1.00 20.00    -0.206 F 
HETATM    8  F9  UNL     1     -35.705   6.240   4.197  1.00 20.00    -0.206 F 
ENDROOT
BRANCH   5   9
HETATM    9  O7  UNL     1     -32.321   9.224   4.517  1.00 20.00    -0.396 OA
HETATM   10  H19 UNL     1     -32.643   9.741   5.272  1.00 20.00     0.210 HD
ENDBRANCH   5   9
TORSDOF 1
ENDMDL
MODEL 3
REMARK VINA RESULT:      -5.3      1.725      2.531
REMARK  1 active torsions:
REMARK  status: ('A' for Active; 'I' for Inactive)
REMARK    1  A    between atoms: C5_5  and  O7_7 
ROOT
HETATM    1  C1  UNL     1     -34.122   4.843   4.668  1.00 20.00     0.037 C 
HETATM    2  C2  UNL     1     -32.925   6.959   3.976  1.00 20.00     0.037 C 
HETATM    3  C3  UNL     1     -34.826   5.604   5.787  1.00 20.00     0.081 C 
HETATM    4  C4  UNL     1     -33.626   7.724   5.093  1.00 20.00     0.081 C 
HETATM    5  C5  UNL     1     -33.756   5.764   3.505  1.00 20.00     0.118 C 
HETATM    6  C6  UNL     1     -34.011   6.805   6.240  1.00 20.00     0.243 C 
HETATM    7  F8  UNL     1     -34.715   7.505   7.164  1.00 20.00    -0.206 F 
HETATM    8  F9  UNL     1     -32.884   6.370   6.862  1.00 20.00    -0.206 F 
ENDROOT
BRANCH   5   9
HETATM    9  O7  UNL     1     -33.015   5.015   2.548  1.00 20.00    -0.396 OA
HETATM   10  H19 UNL     1     -32.103   4.971   2.874  1.00 20.00     0.210 HD
ENDBRANCH   5   9
TORSDOF 1
ENDMDL
MODEL 4
REMARK VINA RESULT:      -5.3      1.145      2.179
REMARK  1 active torsions:
REMARK  status: ('A' for Active; 'I' for Inactive)
REMARK    1  A    between atoms: C5_5  and  O7_7 
ROOT
HETATM    1  C1  UNL     1     -33.655   5.715   3.838  1.00 20.00     0.037 C 
HETATM    2  C2  UNL     1     -33.024   7.619   5.376  1.00 20.00     0.037 C 
HETATM    3  C3  UNL     1     -34.788   5.325   4.783  1.00 20.00     0.081 C 
HETATM    4  C4  UNL     1     -34.155   7.234   6.323  1.00 20.00     0.081 C 
HETATM    5  C5  UNL     1     -33.330   7.205   3.936  1.00 20.00     0.118 C 
HETATM    6  C6  UNL     1     -34.495   5.756   6.211  1.00 20.00     0.243 C 
HETATM    7  F8  UNL     1     -35.565   5.478   6.996  1.00 20.00    -0.206 F 
HETATM    8  F9  UNL     1     -33.459   5.022   6.694  1.00 20.00    -0.206 F 
ENDROOT
BRANCH   5   9
HETATM    9  O7  UNL     1     -32.203   7.478   3.110  1.00 20.00    -0.396 OA
HETATM   10  H19 UNL     1     -32.468   7.272   2.201  1.00 20.00     0.210 HD
ENDBRANCH   5   9
TORSDOF 1
ENDMDL
MODEL 5
REMARK VINA RESULT:      -5.2      2.655      3.511
REMARK  1 active torsions:
REMARK  status: ('A' for Active; 'I' for Inactive)
REMARK    1  A    between atoms: C5_5  and  O7_7 
ROOT
HETATM    1  C1  UNL     1     -33.938   5.868   3.698  1.00 20.00     0.037 C 
HETATM    2  C2  UNL     1     -34.496   6.479   6.086  1.00 20.00     0.037 C 
HETATM    3  C3  UNL     1     -32.771   6.852   3.716  1.00 20.00     0.081 C 
HETATM    4  C4  UNL     1     -33.332   7.463   6.110  1.00 20.00     0.081 C 
HETATM    5  C5  UNL     1     -34.249   5.339   5.097  1.00 20.00     0.118 C 
HETATM    6  C6  UNL     1     -33.006   7.973   4.716  1.00 20.00     0.243 C 
HETATM    7  F8  UNL     1     -31.908   8.767   4.770  1.00 20.00    -0.206 F 
HETATM    8  F9  UNL     1     -34.027   8.755   4.277  1.00 20.00    -0.206 F 
ENDROOT
BRANCH   5   9
HETATM    9  O7  UNL     1     -35.406   4.512   5.022  1.00 20.00    -0.396 OA
HETATM   10  H19 UNL     1     -36.166   5.105   4.925  1.00 20.00     0.210 HD
ENDBRANCH   5   9
TORSDOF 1
ENDMDL
MODEL 6
REMARK VINA RESULT:      -5.0      2.816      3.471
REMARK  1 active torsions:
REMARK  status: ('A' for Active; 'I' for Inactive)
REMARK    1  A    between atoms: C5_5  and  O7_7 
ROOT
HETATM    1  C1  UNL     1     -34.030   6.648   5.190  1.00 20.00     0.037 C 
HETATM    2  C2  UNL     1     -32.908   5.674   3.146  1.00 20.00     0.037 C 
HETATM    3  C3  UNL     1     -33.788   8.056   4.655  1.00 20.00     0.081 C 
HETATM    4  C4  UNL     1     -32.664   7.079   2.606  1.00 20.00     0.081 C 
HETATM    5  C5  UNL     1     -34.134   5.627   4.059  1.00 20.00     0.118 C 
HETATM    6  C6  UNL     1     -32.583   8.099   3.729  1.00 20.00     0.243 C 
HETATM    7  F8  UNL     1     -32.463   9.343   3.202  1.00 20.00    -0.206 F 
HETATM    8  F9  UNL     1     -31.456   7.877   4.455  1.00 20.00    -0.206 F 
ENDROOT
BRANCH   5   9
HETATM    9  O7  UNL     1     -34.255   4.328   4.630  1.00 20.00    -0.396 OA
HETATM   10  H19 UNL     1     -35.070   3.943   4.273  1.00 20.00     0.210 HD
ENDBRANCH   5   9
TORSDOF 1
ENDMDL
MODEL 7
REMARK VINA RESULT:      -4.6      2.733      3.696
REMARK  1 active torsions:
REMARK  status: ('A' for Active; 'I' for Inactive)
REMARK    1  A    between atoms: C5_5  and  O7_7 
ROOT
HETATM    1  C1  UNL     1     -34.591   5.675   4.337  1.00 20.00     0.037 C 
HETATM    2  C2  UNL     1     -33.957   7.088   6.334  1.00 20.00     0.037 C 
HETATM    3  C3  UNL     1     -33.482   6.328   3.519  1.00 20.00     0.081 C 
HETATM    4  C4  UNL     1     -32.847   7.745   5.521  1.00 20.00     0.081 C 
HETATM    5  C5  UNL     1     -34.265   5.678   5.830  1.00 20.00     0.118 C 
HETATM    6  C6  UNL     1     -33.159   7.722   4.034  1.00 20.00     0.243 C 
HETATM    7  F8  UNL     1     -32.106   8.226   3.343  1.00 20.00    -0.206 F 
HETATM    8  F9  UNL     1     -34.213   8.543   3.786  1.00 20.00    -0.206 F 
ENDROOT
BRANCH   5   9
HETATM    9  O7  UNL     1     -35.381   5.149   6.539  1.00 20.00    -0.396 OA
HETATM   10  H19 UNL     1     -35.024   4.661   7.296  1.00 20.00     0.210 HD
ENDBRANCH   5   9
TORSDOF 1
ENDMDL
MODEL 8
REMARK VINA RESULT:      -4.4      2.002      2.502
REMARK  1 active torsions:
REMARK  status: ('A' for Active; 'I' for Inactive)
REMARK    1  A    between atoms: C5_5  and  O7_7 
ROOT
HETATM    1  C1  UNL     1     -32.385   7.040   2.933  1.00 20.00     0.037 C 
HETATM    2  C2  UNL     1     -34.175   5.657   4.061  1.00 20.00     0.037 C 
HETATM    3  C3  UNL     1     -32.351   7.980   4.135  1.00 20.00     0.081 C 
HETATM    4  C4  UNL     1     -34.145   6.593   5.265  1.00 20.00     0.081 C 
HETATM    5  C5  UNL     1     -32.831   5.634   3.333  1.00 20.00     0.118 C 
HETATM    6  C6  UNL     1     -33.680   7.986   4.873  1.00 20.00     0.243 C 
HETATM    7  F8  UNL     1     -33.575   8.757   5.984  1.00 20.00    -0.206 F 
HETATM    8  F9  UNL     1     -34.624   8.568   4.087  1.00 20.00    -0.206 F 
ENDROOT
BRANCH   5   9
HETATM    9  O7  UNL     1     -32.939   4.841   2.155  1.00 20.00    -0.396 OA
HETATM   10  H19 UNL     1     -32.489   4.003   2.341  1.00 20.00     0.210 HD
ENDBRANCH   5   9
TORSDOF 1
ENDMDL
MODEL 9
REMARK VINA RESULT:      -4.1      2.293      3.142
REMARK  1 active torsions:
REMARK  status: ('A' for Active; 'I' for Inactive)
REMARK    1  A    between atoms: C5_5  and  O7_7 
ROOT
HETATM    1  C1  UNL     1     -34.621   5.449   5.934  1.00 20.00     0.037 C 
HETATM    2  C2  UNL     1     -33.600   7.560   4.991  1.00 20.00     0.037 C 
HETATM    3  C3  UNL     1     -33.986   4.637   4.809  1.00 20.00     0.081 C 
HETATM    4  C4  UNL     1     -32.963   6.753   3.865  1.00 20.00     0.081 C 
HETATM    5  C5  UNL     1     -33.813   6.709   6.243  1.00 20.00     0.118 C 
HETATM    6  C6  UNL     1     -33.753   5.488   3.572  1.00 20.00     0.243 C 
HETATM    7  F8  UNL     1     -33.102   4.755   2.635  1.00 20.00    -0.206 F 
HETATM    8  F9  UNL     1     -34.953   5.827   3.031  1.00 20.00    -0.206 F 
ENDROOT
BRANCH   5   9
HETATM    9  O7  UNL     1     -34.513   7.467   7.224  1.00 20.00    -0.396 OA
HETATM   10  H19 UNL     1     -34.395   8.401   6.989  1.00 20.00     0.210 HD
ENDBRANCH   5   9
TORSDOF 1
ENDMDL
