MODEL 1
REMARK VINA RESULT:      -4.7      0.000      0.000
REMARK  3 active torsions:
REMARK  status: ('A' for Active; 'I' for Inactive)
REMARK    1  A    between atoms: C1_1  and  C3_3 
REMARK    2  A    between atoms: C2_2  and  C5_5 
REMARK    3  A    between atoms: C4_4  and  C7_7 
ROOT
HETATM    1  C1  UNL     1     -32.342   8.650   4.150  1.00 20.00     0.000 C 
HETATM    2  C2  UNL     1     -33.261   8.482   5.112  1.00 20.00    -0.000 C 
ENDROOT
BRANCH   1   3
HETATM    3  C3  UNL     1     -32.065   7.651   3.141  1.00 20.00     0.003 C 
HETATM    4  C4  UNL     1     -32.228   7.880   1.832  1.00 20.00     0.041 C 
BRANCH   4   5
HETATM    5  C7  UNL     1     -32.710   9.205   1.392  1.00 20.00     0.258 C 
HETATM    6  O9  UNL     1     -32.861   9.478   0.208  1.00 20.00    -0.302 OA
ENDBRANCH   4   5
ENDBRANCH   1   3
BRANCH   2   7
HETATM    7  C5  UNL     1     -34.063   7.285   5.236  1.00 20.00    -0.004 C 
HETATM    8  C6  UNL     1     -33.988   6.455   6.287  1.00 20.00    -0.031 C 
HETATM    9  C8  UNL     1     -34.812   5.218   6.426  1.00 20.00     0.036 C 
ENDBRANCH   2   7
TORSDOF 3
ENDMDL
MODEL 2
REMARK VINA RESULT:      -4.6      2.530      4.584
REMARK  3 active torsions:
REMARK  status: ('A' for Active; 'I' for Inactive)
REMARK    1  A    between atoms: C1_1  and  C3_3 
REMARK    2  A    between atoms: C2_2  and  C5_5 
REMARK    3  A    between atoms: C4_4  and  C7_7 
ROOT
HETATM    1  C1  UNL     1     -33.656   7.433   5.702  1.00 20.00     0.000 C 
HETATM    2  C2  UNL     1     -32.616   8.060   5.133  1.00 20.00    -0.000 C 
ENDROOT
BRANCH   1   3
HETATM    3  C3  UNL     1     -34.870   7.109   4.985  1.00 20.00     0.003 C 
HETATM    4  C4  UNL     1     -35.219   5.851   4.686  1.00 20.00     0.041 C 
BRANCH   4   5
HETATM    5  C7  UNL     1     -34.335   4.745   5.101  1.00 20.00     0.258 C 
HETATM    6  O9  UNL     1     -33.956   3.888   4.313  1.00 20.00    -0.302 OA
ENDBRANCH   4   5
ENDBRANCH   1   3
BRANCH   2   7
HETATM    7  C5  UNL     1     -32.607   8.474   3.748  1.00 20.00    -0.004 C 
HETATM    8  C6  UNL     1     -32.174   7.691   2.749  1.00 20.00    -0.031 C 
HETATM    9  C8  UNL     1     -32.161   8.107   1.316  1.00 20.00     0.036 C 
ENDBRANCH   2   7
TORSDOF 3
ENDMDL
MODEL 3
REMARK VINA RESULT:      -4.5      2.234      4.174
REMARK  3 active torsions:
REMARK  status: ('A' for Active; 'I' for Inactive)
REMARK    1  A    between atoms: C1_1  and  C3_3 
REMARK    2  A    between atoms: C2_2  and  C5_5 
REMARK    3  A    between atoms: C4_4  and  C7_7 
ROOT
HETATM    1  C1  UNL     1     -34.181   6.198   6.388  1.00 20.00     0.000 C 
HETATM    2  C2  UNL     1     -33.337   7.234   6.277  1.00 20.00    -0.000 C 
ENDROOT
BRANCH   1   3
HETATM    3  C3  UNL     1     -35.244   5.943   5.441  1.00 20.00     0.003 C 
HETATM    4  C4  UNL     1     -35.061   5.226   4.324  1.00 20.00     0.041 C 
BRANCH   4   5
HETATM    5  C7  UNL     1     -33.723   4.671   4.042  1.00 20.00     0.258 C 
HETATM    6  O9  UNL     1     -33.109   4.950   3.020  1.00 20.00    -0.302 OA
ENDBRANCH   4   5
ENDBRANCH   1   3
BRANCH   2   7
HETATM    7  C5  UNL     1     -33.407   8.198   5.201  1.00 20.00    -0.004 C 
HETATM    8  C6  UNL     1     -32.563   8.198   4.159  1.00 20.00    -0.031 C 
HETATM    9  C8  UNL     1     -32.626   9.187   3.042  1.00 20.00     0.036 C 
ENDBRANCH   2   7
TORSDOF 3
ENDMDL
MODEL 4
REMARK VINA RESULT:      -4.2      2.832      5.097
REMARK  3 active torsions:
REMARK  status: ('A' for Active; 'I' for Inactive)
REMARK    1  A    between atoms: C1_1  and  C3_3 
REMARK    2  A    between atoms: C2_2  and  C5_5 
REMARK    3  A    between atoms: C4_4  and  C7_7 
ROOT
HETATM    1  C1  UNL     1     -33.346   7.684   4.862  1.00 20.00     0.000 C 
HETATM    2  C2  UNL     1     -32.439   8.394   4.175  1.00 20.00    -0.000 C 
ENDROOT
BRANCH   1   3
HETATM    3  C3  UNL     1     -34.294   6.794   4.229  1.00 20.00     0.003 C 
HETATM    4  C4  UNL     1     -34.968   5.855   4.906  1.00 20.00     0.041 C 
BRANCH   4   5
HETATM    5  C7  UNL     1     -34.738   5.717   6.358  1.00 20.00     0.258 C 
HETATM    6  O9  UNL     1     -33.900   4.948   6.810  1.00 20.00    -0.302 OA
ENDBRANCH   4   5
ENDBRANCH   1   3
BRANCH   2   7
HETATM    7  C5  UNL     1     -32.322   8.340   2.735  1.00 20.00    -0.004 C 
HETATM    8  C6  UNL     1     -32.788   9.300   1.923  1.00 20.00    -0.031 C 
HETATM    9  C8  UNL     1     -32.672   9.255   0.435  1.00 20.00     0.036 C 
ENDBRANCH   2   7
TORSDOF 3
ENDMDL
MODEL 5
REMARK VINA RESULT:      -4.2     10.966     11.527
REMARK  3 active torsions:
REMARK  status: ('A' for Active; 'I' for Inactive)
REMARK    1  A    between atoms: C1_1  and  C3_3 
REMARK    2  A    between atoms: C2_2  and  C5_5 
REMARK    3  A    between atoms: C4_4  and  C7_7 
ROOT
HETATM    1  C1  UNL     1     -33.555  14.779  -4.648  1.00 20.00     0.000 C 
HETATM    2  C2  UNL     1     -33.016  15.757  -3.905  1.00 20.00    -0.000 C 
ENDROOT
BRANCH   1   3
HETATM    3  C3  UNL     1     -34.824  14.159  -4.336  1.00 20.00     0.003 C 
HETATM    4  C4  UNL     1     -35.873  14.202  -5.167  1.00 20.00     0.041 C 
BRANCH   4   5
HETATM    5  C7  UNL     1     -35.736  14.907  -6.456  1.00 20.00     0.258 C 
HETATM    6  O9  UNL     1     -36.082  14.395  -7.514  1.00 20.00    -0.302 OA
ENDBRANCH   4   5
ENDBRANCH   1   3
BRANCH   2   7
HETATM    7  C5  UNL     1     -33.652  16.287  -2.719  1.00 20.00    -0.004 C 
HETATM    8  C6  UNL     1     -33.097  17.235  -1.949  1.00 20.00    -0.031 C 
HETATM    9  C8  UNL     1     -33.744  17.791  -0.724  1.00 20.00     0.036 C 
ENDBRANCH   2   7
TORSDOF 3
ENDMDL
MODEL 6
REMARK VINA RESULT:      -4.0     11.071     11.731
REMARK  3 active torsions:
REMARK  status: ('A' for Active; 'I' for Inactive)
REMARK    1  A    between atoms: C1_1  and  C3_3 
REMARK    2  A    between atoms: C2_2  and  C5_5 
REMARK    3  A    between atoms: C4_4  and  C7_7 
ROOT
HETATM    1  C1  UNL     1     -33.085  18.647  -0.773  1.00 20.00     0.000 C 
HETATM    2  C2  UNL     1     -33.900  17.824  -1.449  1.00 20.00    -0.000 C 
ENDROOT
BRANCH   1   3
HETATM    3  C3  UNL     1     -31.662  18.417  -0.643  1.00 20.00     0.003 C 
HETATM    4  C4  UNL     1     -31.019  18.502   0.528  1.00 20.00     0.041 C 
BRANCH   4   5
HETATM    5  C7  UNL     1     -31.786  18.844   1.742  1.00 20.00     0.258 C 
HETATM    6  O9  UNL     1     -31.349  18.630   2.865  1.00 20.00    -0.302 OA
ENDBRANCH   4   5
ENDBRANCH   1   3
BRANCH   2   7
HETATM    7  C5  UNL     1     -33.437  16.627  -2.114  1.00 20.00    -0.004 C 
HETATM    8  C6  UNL     1     -33.560  16.425  -3.434  1.00 20.00    -0.031 C 
HETATM    9  C8  UNL     1     -33.085  15.194  -4.132  1.00 20.00     0.036 C 
ENDBRANCH   2   7
TORSDOF 3
ENDMDL
MODEL 7
REMARK VINA RESULT:      -4.0      2.853      4.891
REMARK  3 active torsions:
REMARK  status: ('A' for Active; 'I' for Inactive)
REMARK    1  A    between atoms: C1_1  and  C3_3 
REMARK    2  A    between atoms: C2_2  and  C5_5 
REMARK    3  A    between atoms: C4_4  and  C7_7 
ROOT
HETATM    1  C1  UNL     1     -33.894   4.569   3.976  1.00 20.00     0.000 C 
HETATM    2  C2  UNL     1     -32.907   5.055   3.209  1.00 20.00    -0.000 C 
ENDROOT
BRANCH   1   3
HETATM    3  C3  UNL     1     -35.058   5.344   4.348  1.00 20.00     0.003 C 
HETATM    4  C4  UNL     1     -35.146   6.002   5.511  1.00 20.00     0.041 C 
BRANCH   4   5
HETATM    5  C7  UNL     1     -34.013   5.941   6.456  1.00 20.00     0.258 C 
HETATM    6  O9  UNL     1     -33.259   6.890   6.624  1.00 20.00    -0.302 OA
ENDBRANCH   4   5
ENDBRANCH   1   3
BRANCH   2   7
HETATM    7  C5  UNL     1     -32.909   6.401   2.681  1.00 20.00    -0.004 C 
HETATM    8  C6  UNL     1     -32.366   7.444   3.325  1.00 20.00    -0.031 C 
HETATM    9  C8  UNL     1     -32.361   8.838   2.789  1.00 20.00     0.036 C 
ENDBRANCH   2   7
TORSDOF 3
ENDMDL
MODEL 8
REMARK VINA RESULT:      -3.9     11.185     11.787
REMARK  3 active torsions:
REMARK  status: ('A' for Active; 'I' for Inactive)
REMARK    1  A    between atoms: C1_1  and  C3_3 
REMARK    2  A    between atoms: C2_2  and  C5_5 
REMARK    3  A    between atoms: C4_4  and  C7_7 
ROOT
HETATM    1  C1  UNL     1     -33.647  17.180  -3.644  1.00 20.00     0.000 C 
HETATM    2  C2  UNL     1     -33.340  18.125  -2.742  1.00 20.00    -0.000 C 
ENDROOT
BRANCH   1   3
HETATM    3  C3  UNL     1     -33.292  15.788  -3.479  1.00 20.00     0.003 C 
HETATM    4  C4  UNL     1     -33.561  14.858  -4.405  1.00 20.00     0.041 C 
BRANCH   4   5
HETATM    5  C7  UNL     1     -34.248  15.264  -5.646  1.00 20.00     0.258 C 
HETATM    6  O9  UNL     1     -33.869  14.889  -6.748  1.00 20.00    -0.302 OA
ENDBRANCH   4   5
ENDBRANCH   1   3
BRANCH   2   7
HETATM    7  C5  UNL     1     -32.624  17.843  -1.518  1.00 20.00    -0.004 C 
HETATM    8  C6  UNL     1     -31.837  18.739  -0.904  1.00 20.00    -0.031 C 
HETATM    9  C8  UNL     1     -31.094  18.461   0.360  1.00 20.00     0.036 C 
ENDBRANCH   2   7
TORSDOF 3
ENDMDL
MODEL 9
REMARK VINA RESULT:      -3.9      2.312      3.783
REMARK  3 active torsions:
REMARK  status: ('A' for Active; 'I' for Inactive)
REMARK    1  A    between atoms: C1_1  and  C3_3 
REMARK    2  A    between atoms: C2_2  and  C5_5 
REMARK    3  A    between atoms: C4_4  and  C7_7 
ROOT
HETATM    1  C1  UNL     1     -34.940   6.203   6.087  1.00 20.00     0.000 C 
HETATM    2  C2  UNL     1     -35.165   5.323   5.101  1.00 20.00    -0.000 C 
ENDROOT
BRANCH   1   3
HETATM    3  C3  UNL     1     -33.613   6.632   6.473  1.00 20.00     0.003 C 
HETATM    4  C4  UNL     1     -32.979   7.648   5.875  1.00 20.00     0.041 C 
BRANCH   4   5
HETATM    5  C7  UNL     1     -33.655   8.365   4.776  1.00 20.00     0.258 C 
HETATM    6  O9  UNL     1     -33.098   8.584   3.708  1.00 20.00    -0.302 OA
ENDBRANCH   4   5
ENDBRANCH   1   3
BRANCH   2   7
HETATM    7  C5  UNL     1     -34.104   4.716   4.327  1.00 20.00    -0.004 C 
HETATM    8  C6  UNL     1     -33.694   5.193   3.143  1.00 20.00    -0.031 C 
HETATM    9  C8  UNL     1     -32.600   4.577   2.336  1.00 20.00     0.036 C 
ENDBRANCH   2   7
TORSDOF 3
ENDMDL
