MODEL 1
REMARK VINA RESULT:      -5.3      0.000      0.000
REMARK  3 active torsions:
REMARK  status: ('A' for Active; 'I' for Inactive)
REMARK    1  A    between atoms: C1_1  and  C3_3 
REMARK    2  A    between atoms: C2_2  and  C5_5 
REMARK    3  A    between atoms: C4_4  and  C7_7 
ROOT
HETATM    1  C1  UNL     1     -34.009   7.632   5.572  1.00 20.00     0.000 C 
HETATM    2  C2  UNL     1     -32.766   7.956   5.181  1.00 20.00    -0.000 C 
ENDROOT
BRANCH   1   3
HETATM    3  C3  UNL     1     -34.283   6.638   6.586  1.00 20.00     0.003 C 
HETATM    4  C4  UNL     1     -34.654   5.386   6.289  1.00 20.00     0.041 C 
BRANCH   4   5
HETATM    5  C7  UNL     1     -34.790   4.997   4.872  1.00 20.00     0.258 C 
HETATM    6  O9  UNL     1     -34.072   4.147   4.362  1.00 20.00    -0.302 OA
ENDBRANCH   4   5
ENDBRANCH   1   3
BRANCH   2   7
HETATM    7  C5  UNL     1     -32.494   8.949   4.166  1.00 20.00    -0.004 C 
HETATM    8  C6  UNL     1     -32.261   8.640   2.882  1.00 20.00    -0.031 C 
HETATM    9  C8  UNL     1     -32.256   7.244   2.353  1.00 20.00     0.036 C 
ENDBRANCH   2   7
TORSDOF 3
ENDMDL
MODEL 2
REMARK VINA RESULT:      -4.9      1.756      3.972
REMARK  3 active torsions:
REMARK  status: ('A' for Active; 'I' for Inactive)
REMARK    1  A    between atoms: C1_1  and  C3_3 
REMARK    2  A    between atoms: C2_2  and  C5_5 
REMARK    3  A    between atoms: C4_4  and  C7_7 
ROOT
HETATM    1  C1  UNL     1     -33.699   7.957   5.284  1.00 20.00     0.000 C 
HETATM    2  C2  UNL     1     -33.577   7.017   6.235  1.00 20.00    -0.000 C 
ENDROOT
BRANCH   1   3
HETATM    3  C3  UNL     1     -32.631   8.865   4.930  1.00 20.00     0.003 C 
HETATM    4  C4  UNL     1     -31.891   8.715   3.824  1.00 20.00     0.041 C 
BRANCH   4   5
HETATM    5  C7  UNL     1     -32.172   7.579   2.925  1.00 20.00     0.258 C 
HETATM    6  O9  UNL     1     -32.158   7.699   1.707  1.00 20.00    -0.302 OA
ENDBRANCH   4   5
ENDBRANCH   1   3
BRANCH   2   7
HETATM    7  C5  UNL     1     -34.646   6.110   6.588  1.00 20.00    -0.004 C 
HETATM    8  C6  UNL     1     -34.991   5.054   5.836  1.00 20.00    -0.031 C 
HETATM    9  C8  UNL     1     -34.316   4.695   4.554  1.00 20.00     0.036 C 
ENDBRANCH   2   7
TORSDOF 3
ENDMDL
MODEL 3
REMARK VINA RESULT:      -4.5      1.211      1.908
REMARK  3 active torsions:
REMARK  status: ('A' for Active; 'I' for Inactive)
REMARK    1  A    between atoms: C1_1  and  C3_3 
REMARK    2  A    between atoms: C2_2  and  C5_5 
REMARK    3  A    between atoms: C4_4  and  C7_7 
ROOT
HETATM    1  C1  UNL     1     -33.278   7.396   4.113  1.00 20.00     0.000 C 
HETATM    2  C2  UNL     1     -32.200   7.776   3.408  1.00 20.00    -0.000 C 
ENDROOT
BRANCH   1   3
HETATM    3  C3  UNL     1     -33.401   7.604   5.539  1.00 20.00     0.003 C 
HETATM    4  C4  UNL     1     -34.157   6.824   6.321  1.00 20.00     0.041 C 
BRANCH   4   5
HETATM    5  C7  UNL     1     -34.898   5.703   5.710  1.00 20.00     0.258 C 
HETATM    6  O9  UNL     1     -34.424   4.576   5.637  1.00 20.00    -0.302 OA
ENDBRANCH   4   5
ENDBRANCH   1   3
BRANCH   2   7
HETATM    7  C5  UNL     1     -32.078   7.566   1.983  1.00 20.00    -0.004 C 
HETATM    8  C6  UNL     1     -32.402   8.497   1.074  1.00 20.00    -0.031 C 
HETATM    9  C8  UNL     1     -32.925   9.851   1.425  1.00 20.00     0.036 C 
ENDBRANCH   2   7
TORSDOF 3
ENDMDL
MODEL 4
REMARK VINA RESULT:      -4.5      1.110      3.733
REMARK  3 active torsions:
REMARK  status: ('A' for Active; 'I' for Inactive)
REMARK    1  A    between atoms: C1_1  and  C3_3 
REMARK    2  A    between atoms: C2_2  and  C5_5 
REMARK    3  A    between atoms: C4_4  and  C7_7 
ROOT
HETATM    1  C1  UNL     1     -33.438   8.101   4.487  1.00 20.00     0.000 C 
HETATM    2  C2  UNL     1     -33.177   7.411   5.608  1.00 20.00    -0.000 C 
ENDROOT
BRANCH   1   3
HETATM    3  C3  UNL     1     -32.419   8.461   3.526  1.00 20.00     0.003 C 
HETATM    4  C4  UNL     1     -32.118   7.696   2.469  1.00 20.00     0.041 C 
BRANCH   4   5
HETATM    5  C7  UNL     1     -32.852   6.431   2.270  1.00 20.00     0.258 C 
HETATM    6  O9  UNL     1     -32.449   5.369   2.727  1.00 20.00    -0.302 OA
ENDBRANCH   4   5
ENDBRANCH   1   3
BRANCH   2   7
HETATM    7  C5  UNL     1     -34.196   7.052   6.568  1.00 20.00    -0.004 C 
HETATM    8  C6  UNL     1     -34.875   5.896   6.519  1.00 20.00    -0.031 C 
HETATM    9  C8  UNL     1     -34.658   4.851   5.475  1.00 20.00     0.036 C 
ENDBRANCH   2   7
TORSDOF 3
ENDMDL
MODEL 5
REMARK VINA RESULT:      -4.5      1.932      4.519
REMARK  3 active torsions:
REMARK  status: ('A' for Active; 'I' for Inactive)
REMARK    1  A    between atoms: C1_1  and  C3_3 
REMARK    2  A    between atoms: C2_2  and  C5_5 
REMARK    3  A    between atoms: C4_4  and  C7_7 
ROOT
HETATM    1  C1  UNL     1     -33.180   5.423   3.497  1.00 20.00     0.000 C 
HETATM    2  C2  UNL     1     -34.396   5.617   4.032  1.00 20.00    -0.000 C 
ENDROOT
BRANCH   1   3
HETATM    3  C3  UNL     1     -32.741   6.072   2.280  1.00 20.00     0.003 C 
HETATM    4  C4  UNL     1     -32.125   7.260   2.276  1.00 20.00     0.041 C 
BRANCH   4   5
HETATM    5  C7  UNL     1     -31.881   7.943   3.561  1.00 20.00     0.258 C 
HETATM    6  O9  UNL     1     -32.587   8.866   3.949  1.00 20.00    -0.302 OA
ENDBRANCH   4   5
ENDBRANCH   1   3
BRANCH   2   7
HETATM    7  C5  UNL     1     -34.833   4.968   5.247  1.00 20.00    -0.004 C 
HETATM    8  C6  UNL     1     -34.744   5.539   6.457  1.00 20.00    -0.031 C 
HETATM    9  C8  UNL     1     -34.185   6.904   6.689  1.00 20.00     0.036 C 
ENDBRANCH   2   7
TORSDOF 3
ENDMDL
MODEL 6
REMARK VINA RESULT:      -4.3      1.530      2.451
REMARK  3 active torsions:
REMARK  status: ('A' for Active; 'I' for Inactive)
REMARK    1  A    between atoms: C1_1  and  C3_3 
REMARK    2  A    between atoms: C2_2  and  C5_5 
REMARK    3  A    between atoms: C4_4  and  C7_7 
ROOT
HETATM    1  C1  UNL     1     -34.164   5.696   3.789  1.00 20.00     0.000 C 
HETATM    2  C2  UNL     1     -32.887   5.808   3.392  1.00 20.00    -0.000 C 
ENDROOT
BRANCH   1   3
HETATM    3  C3  UNL     1     -34.584   4.810   4.852  1.00 20.00     0.003 C 
HETATM    4  C4  UNL     1     -34.711   5.213   6.123  1.00 20.00     0.041 C 
BRANCH   4   5
HETATM    5  C7  UNL     1     -34.411   6.619   6.460  1.00 20.00     0.258 C 
HETATM    6  O9  UNL     1     -33.270   7.001   6.687  1.00 20.00    -0.302 OA
ENDBRANCH   4   5
ENDBRANCH   1   3
BRANCH   2   7
HETATM    7  C5  UNL     1     -32.468   6.693   2.328  1.00 20.00    -0.004 C 
HETATM    8  C6  UNL     1     -32.205   7.995   2.518  1.00 20.00    -0.031 C 
HETATM    9  C8  UNL     1     -32.314   8.677   3.842  1.00 20.00     0.036 C 
ENDBRANCH   2   7
TORSDOF 3
ENDMDL
MODEL 7
REMARK VINA RESULT:      -4.2      2.576      4.838
REMARK  3 active torsions:
REMARK  status: ('A' for Active; 'I' for Inactive)
REMARK    1  A    between atoms: C1_1  and  C3_3 
REMARK    2  A    between atoms: C2_2  and  C5_5 
REMARK    3  A    between atoms: C4_4  and  C7_7 
ROOT
HETATM    1  C1  UNL     1     -32.382   7.776   3.545  1.00 20.00     0.000 C 
HETATM    2  C2  UNL     1     -33.310   7.162   4.295  1.00 20.00    -0.000 C 
ENDROOT
BRANCH   1   3
HETATM    3  C3  UNL     1     -31.946   7.274   2.260  1.00 20.00     0.003 C 
HETATM    4  C4  UNL     1     -32.089   7.970   1.126  1.00 20.00     0.041 C 
BRANCH   4   5
HETATM    5  C7  UNL     1     -32.716   9.305   1.180  1.00 20.00     0.258 C 
HETATM    6  O9  UNL     1     -33.156   9.855   0.178  1.00 20.00    -0.302 OA
ENDBRANCH   4   5
ENDBRANCH   1   3
BRANCH   2   7
HETATM    7  C5  UNL     1     -33.744   7.665   5.579  1.00 20.00    -0.004 C 
HETATM    8  C6  UNL     1     -34.314   6.891   6.515  1.00 20.00    -0.031 C 
HETATM    9  C8  UNL     1     -34.565   5.430   6.341  1.00 20.00     0.036 C 
ENDBRANCH   2   7
TORSDOF 3
ENDMDL
MODEL 8
REMARK VINA RESULT:      -4.2     11.922     12.267
REMARK  3 active torsions:
REMARK  status: ('A' for Active; 'I' for Inactive)
REMARK    1  A    between atoms: C1_1  and  C3_3 
REMARK    2  A    between atoms: C2_2  and  C5_5 
REMARK    3  A    between atoms: C4_4  and  C7_7 
ROOT
HETATM    1  C1  UNL     1     -33.765  15.932  -3.005  1.00 20.00     0.000 C 
HETATM    2  C2  UNL     1     -33.127  16.903  -2.333  1.00 20.00    -0.000 C 
ENDROOT
BRANCH   1   3
HETATM    3  C3  UNL     1     -33.204  15.277  -4.166  1.00 20.00     0.003 C 
HETATM    4  C4  UNL     1     -33.913  14.447  -4.941  1.00 20.00     0.041 C 
BRANCH   4   5
HETATM    5  C7  UNL     1     -35.326  14.185  -4.603  1.00 20.00     0.258 C 
HETATM    6  O9  UNL     1     -35.726  13.064  -4.318  1.00 20.00    -0.302 OA
ENDBRANCH   4   5
ENDBRANCH   1   3
BRANCH   2   7
HETATM    7  C5  UNL     1     -33.689  17.558  -1.173  1.00 20.00    -0.004 C 
HETATM    8  C6  UNL     1     -32.957  18.284  -0.314  1.00 20.00    -0.031 C 
HETATM    9  C8  UNL     1     -31.487  18.500  -0.455  1.00 20.00     0.036 C 
ENDBRANCH   2   7
TORSDOF 3
ENDMDL
MODEL 9
REMARK VINA RESULT:      -4.2     12.319     12.870
REMARK  3 active torsions:
REMARK  status: ('A' for Active; 'I' for Inactive)
REMARK    1  A    between atoms: C1_1  and  C3_3 
REMARK    2  A    between atoms: C2_2  and  C5_5 
REMARK    3  A    between atoms: C4_4  and  C7_7 
ROOT
HETATM    1  C1  UNL     1     -33.202  17.003  -2.455  1.00 20.00     0.000 C 
HETATM    2  C2  UNL     1     -33.593  15.870  -3.060  1.00 20.00    -0.000 C 
ENDROOT
BRANCH   1   3
HETATM    3  C3  UNL     1     -33.669  17.399  -1.144  1.00 20.00     0.003 C 
HETATM    4  C4  UNL     1     -33.007  18.273  -0.375  1.00 20.00     0.041 C 
BRANCH   4   5
HETATM    5  C7  UNL     1     -31.750  18.860  -0.878  1.00 20.00     0.258 C 
HETATM    6  O9  UNL     1     -30.662  18.569  -0.398  1.00 20.00    -0.302 OA
ENDBRANCH   4   5
ENDBRANCH   1   3
BRANCH   2   7
HETATM    7  C5  UNL     1     -33.127  15.476  -4.370  1.00 20.00    -0.004 C 
HETATM    8  C6  UNL     1     -33.908  14.862  -5.272  1.00 20.00    -0.031 C 
HETATM    9  C8  UNL     1     -35.339  14.516  -5.029  1.00 20.00     0.036 C 
ENDBRANCH   2   7
TORSDOF 3
ENDMDL
