MODEL 1
REMARK VINA RESULT:      -4.3      0.000      0.000
REMARK  1 active torsions:
REMARK  status: ('A' for Active; 'I' for Inactive)
REMARK    1  A    between atoms: C2_2  and  C10_10 
ROOT
HETATM    1  C1  UNL     1     -32.990   6.176   3.277  1.00 20.00    -0.022 C 
HETATM    2  C2  UNL     1     -32.904   7.221   4.116  1.00 20.00    -0.073 C 
HETATM    3  C3  UNL     1     -34.321   5.962   5.773  1.00 20.00     0.134 C 
HETATM    4  C4  UNL     1     -33.815   4.954   3.553  1.00 20.00     0.039 C 
HETATM    5  C5  UNL     1     -33.613   7.265   5.442  1.00 20.00     0.113 C 
HETATM    6  C6  UNL     1     -34.895   5.160   4.620  1.00 20.00     0.055 C 
HETATM    7  C7  UNL     1     -36.140   5.856   4.074  1.00 20.00     0.018 C 
HETATM    8  O11 UNL     1     -34.503   5.619   6.942  1.00 20.00    -0.297 OA
ENDROOT
BRANCH   2   9
HETATM    9  C10 UNL     1     -32.072   8.426   3.785  1.00 20.00     0.006 C 
HETATM   10  C8  UNL     1     -32.577   9.078   2.504  1.00 20.00     0.014 C 
HETATM   11  C9  UNL     1     -32.075   9.419   4.943  1.00 20.00     0.014 C 
ENDBRANCH   2   9
TORSDOF 1
ENDMDL
MODEL 2
REMARK VINA RESULT:      -4.2     12.189     13.280
REMARK  1 active torsions:
REMARK  status: ('A' for Active; 'I' for Inactive)
REMARK    1  A    between atoms: C2_2  and  C10_10 
ROOT
HETATM    1  C1  UNL     1     -33.592  15.298  -3.688  1.00 20.00    -0.022 C 
HETATM    2  C2  UNL     1     -33.802  16.624  -3.633  1.00 20.00    -0.073 C 
HETATM    3  C3  UNL     1     -35.673  16.361  -5.296  1.00 20.00     0.134 C 
HETATM    4  C4  UNL     1     -34.335  14.377  -4.609  1.00 20.00     0.039 C 
HETATM    5  C5  UNL     1     -34.829  17.324  -4.480  1.00 20.00     0.113 C 
HETATM    6  C6  UNL     1     -35.012  15.086  -5.786  1.00 20.00     0.055 C 
HETATM    7  C7  UNL     1     -34.041  15.409  -6.919  1.00 20.00     0.018 C 
HETATM    8  O11 UNL     1     -36.824  16.650  -5.626  1.00 20.00    -0.297 OA
ENDROOT
BRANCH   2   9
HETATM    9  C10 UNL     1     -33.021  17.503  -2.699  1.00 20.00     0.006 C 
HETATM   10  C8  UNL     1     -33.005  18.937  -3.217  1.00 20.00     0.014 C 
HETATM   11  C9  UNL     1     -33.597  17.437  -1.288  1.00 20.00     0.014 C 
ENDBRANCH   2   9
TORSDOF 1
ENDMDL
MODEL 3
REMARK VINA RESULT:      -4.2     12.165     13.334
REMARK  1 active torsions:
REMARK  status: ('A' for Active; 'I' for Inactive)
REMARK    1  A    between atoms: C2_2  and  C10_10 
ROOT
HETATM    1  C1  UNL     1     -32.856  19.237  -2.878  1.00 20.00    -0.022 C 
HETATM    2  C2  UNL     1     -32.963  18.393  -1.839  1.00 20.00    -0.073 C 
HETATM    3  C3  UNL     1     -33.537  16.542  -3.447  1.00 20.00     0.134 C 
HETATM    4  C4  UNL     1     -33.158  18.852  -4.296  1.00 20.00     0.039 C 
HETATM    5  C5  UNL     1     -33.380  16.955  -1.994  1.00 20.00     0.113 C 
HETATM    6  C6  UNL     1     -34.020  17.593  -4.429  1.00 20.00     0.055 C 
HETATM    7  C7  UNL     1     -35.505  17.867  -4.205  1.00 20.00     0.018 C 
HETATM    8  O11 UNL     1     -33.368  15.373  -3.796  1.00 20.00    -0.297 OA
ENDROOT
BRANCH   2   9
HETATM    9  C10 UNL     1     -32.660  18.833  -0.436  1.00 20.00     0.006 C 
HETATM   10  C8  UNL     1     -33.656  18.215   0.537  1.00 20.00     0.014 C 
HETATM   11  C9  UNL     1     -31.227  18.472  -0.056  1.00 20.00     0.014 C 
ENDBRANCH   2   9
TORSDOF 1
ENDMDL
MODEL 4
REMARK VINA RESULT:      -4.2      1.325      2.421
REMARK  1 active torsions:
REMARK  status: ('A' for Active; 'I' for Inactive)
REMARK    1  A    between atoms: C2_2  and  C10_10 
ROOT
HETATM    1  C1  UNL     1     -33.325   7.921   5.532  1.00 20.00    -0.022 C 
HETATM    2  C2  UNL     1     -33.149   7.390   4.311  1.00 20.00    -0.073 C 
HETATM    3  C3  UNL     1     -34.887   5.651   4.854  1.00 20.00     0.134 C 
HETATM    4  C4  UNL     1     -34.231   7.330   6.572  1.00 20.00     0.039 C 
HETATM    5  C5  UNL     1     -33.864   6.150   3.847  1.00 20.00     0.113 C 
HETATM    6  C6  UNL     1     -34.586   5.860   6.326  1.00 20.00     0.055 C 
HETATM    7  C7  UNL     1     -33.481   4.904   6.770  1.00 20.00     0.018 C 
HETATM    8  O11 UNL     1     -35.878   5.017   4.489  1.00 20.00    -0.297 OA
ENDROOT
BRANCH   2   9
HETATM    9  C10 UNL     1     -32.220   8.015   3.311  1.00 20.00     0.006 C 
HETATM   10  C8  UNL     1     -32.097   7.126   2.079  1.00 20.00     0.014 C 
HETATM   11  C9  UNL     1     -32.698   9.413   2.931  1.00 20.00     0.014 C 
ENDBRANCH   2   9
TORSDOF 1
ENDMDL
MODEL 5
REMARK VINA RESULT:      -3.9     12.498     13.445
REMARK  1 active torsions:
REMARK  status: ('A' for Active; 'I' for Inactive)
REMARK    1  A    between atoms: C2_2  and  C10_10 
ROOT
HETATM    1  C1  UNL     1     -33.184  16.884  -2.272  1.00 20.00    -0.022 C 
HETATM    2  C2  UNL     1     -33.630  17.843  -1.444  1.00 20.00    -0.073 C 
HETATM    3  C3  UNL     1     -35.452  18.374  -3.098  1.00 20.00     0.134 C 
HETATM    4  C4  UNL     1     -33.763  16.623  -3.630  1.00 20.00     0.039 C 
HETATM    5  C5  UNL     1     -34.782  18.747  -1.787  1.00 20.00     0.113 C 
HETATM    6  C6  UNL     1     -34.579  17.790  -4.194  1.00 20.00     0.055 C 
HETATM    7  C7  UNL     1     -33.704  18.887  -4.796  1.00 20.00     0.018 C 
HETATM    8  O11 UNL     1     -36.642  18.622  -3.295  1.00 20.00    -0.297 OA
ENDROOT
BRANCH   2   9
HETATM    9  C10 UNL     1     -33.006  18.070  -0.098  1.00 20.00     0.006 C 
HETATM   10  C8  UNL     1     -31.570  18.554  -0.258  1.00 20.00     0.014 C 
HETATM   11  C9  UNL     1     -33.829  19.061   0.719  1.00 20.00     0.014 C 
ENDBRANCH   2   9
TORSDOF 1
ENDMDL
MODEL 6
REMARK VINA RESULT:      -3.9     11.971     12.977
REMARK  1 active torsions:
REMARK  status: ('A' for Active; 'I' for Inactive)
REMARK    1  A    between atoms: C2_2  and  C10_10 
ROOT
HETATM    1  C1  UNL     1     -34.465  17.446  -4.945  1.00 20.00    -0.022 C 
HETATM    2  C2  UNL     1     -34.118  17.124  -3.688  1.00 20.00    -0.073 C 
HETATM    3  C3  UNL     1     -33.569  14.795  -4.474  1.00 20.00     0.134 C 
HETATM    4  C4  UNL     1     -34.485  16.465  -6.079  1.00 20.00     0.039 C 
HETATM    5  C5  UNL     1     -33.687  15.739  -3.289  1.00 20.00     0.113 C 
HETATM    6  C6  UNL     1     -34.526  15.000  -5.634  1.00 20.00     0.055 C 
HETATM    7  C7  UNL     1     -35.927  14.542  -5.236  1.00 20.00     0.018 C 
HETATM    8  O11 UNL     1     -32.788  13.844  -4.452  1.00 20.00    -0.297 OA
ENDROOT
BRANCH   2   9
HETATM    9  C10 UNL     1     -34.126  18.143  -2.586  1.00 20.00     0.006 C 
HETATM   10  C8  UNL     1     -35.510  18.767  -2.457  1.00 20.00     0.014 C 
HETATM   11  C9  UNL     1     -33.683  17.516  -1.268  1.00 20.00     0.014 C 
ENDBRANCH   2   9
TORSDOF 1
ENDMDL
MODEL 7
REMARK VINA RESULT:      -3.8     12.321     13.926
REMARK  1 active torsions:
REMARK  status: ('A' for Active; 'I' for Inactive)
REMARK    1  A    between atoms: C2_2  and  C10_10 
ROOT
HETATM    1  C1  UNL     1     -34.651  17.130  -5.278  1.00 20.00    -0.022 C 
HETATM    2  C2  UNL     1     -34.564  15.841  -4.912  1.00 20.00    -0.073 C 
HETATM    3  C3  UNL     1     -36.001  15.220  -6.884  1.00 20.00     0.134 C 
HETATM    4  C4  UNL     1     -35.486  17.613  -6.427  1.00 20.00     0.039 C 
HETATM    5  C5  UNL     1     -35.282  14.735  -5.637  1.00 20.00     0.113 C 
HETATM    6  C6  UNL     1     -36.572  16.626  -6.866  1.00 20.00     0.055 C 
HETATM    7  C7  UNL     1     -37.808  16.671  -5.971  1.00 20.00     0.018 C 
HETATM    8  O11 UNL     1     -36.194  14.466  -7.838  1.00 20.00    -0.297 OA
ENDROOT
BRANCH   2   9
HETATM    9  C10 UNL     1     -33.722  15.412  -3.745  1.00 20.00     0.006 C 
HETATM   10  C8  UNL     1     -32.465  14.704  -4.235  1.00 20.00     0.014 C 
HETATM   11  C9  UNL     1     -33.370  16.608  -2.866  1.00 20.00     0.014 C 
ENDBRANCH   2   9
TORSDOF 1
ENDMDL
MODEL 8
REMARK VINA RESULT:      -3.7     12.427     13.760
REMARK  1 active torsions:
REMARK  status: ('A' for Active; 'I' for Inactive)
REMARK    1  A    between atoms: C2_2  and  C10_10 
ROOT
HETATM    1  C1  UNL     1     -34.080  15.037  -4.573  1.00 20.00    -0.022 C 
HETATM    2  C2  UNL     1     -35.044  15.875  -4.989  1.00 20.00    -0.073 C 
HETATM    3  C3  UNL     1     -33.658  17.815  -4.181  1.00 20.00     0.134 C 
HETATM    4  C4  UNL     1     -32.848  15.485  -3.844  1.00 20.00     0.039 C 
HETATM    5  C5  UNL     1     -34.977  17.364  -4.786  1.00 20.00     0.113 C 
HETATM    6  C6  UNL     1     -32.970  16.874  -3.210  1.00 20.00     0.055 C 
HETATM    7  C7  UNL     1     -33.727  16.854  -1.884  1.00 20.00     0.018 C 
HETATM    8  O11 UNL     1     -33.213  18.942  -4.401  1.00 20.00    -0.297 OA
ENDROOT
BRANCH   2   9
HETATM    9  C10 UNL     1     -36.264  15.372  -5.705  1.00 20.00     0.006 C 
HETATM   10  C8  UNL     1     -37.441  16.308  -5.460  1.00 20.00     0.014 C 
HETATM   11  C9  UNL     1     -35.989  15.218  -7.198  1.00 20.00     0.014 C 
ENDBRANCH   2   9
TORSDOF 1
ENDMDL
MODEL 9
REMARK VINA RESULT:      -3.6      9.558     10.435
REMARK  1 active torsions:
REMARK  status: ('A' for Active; 'I' for Inactive)
REMARK    1  A    between atoms: C2_2  and  C10_10 
ROOT
HETATM    1  C1  UNL     1     -40.154  13.423   7.146  1.00 20.00    -0.022 C 
HETATM    2  C2  UNL     1     -40.223  12.919   5.903  1.00 20.00    -0.073 C 
HETATM    3  C3  UNL     1     -42.077  14.541   5.385  1.00 20.00     0.134 C 
HETATM    4  C4  UNL     1     -41.088  14.473   7.670  1.00 20.00     0.039 C 
HETATM    5  C5  UNL     1     -41.238  13.375   4.891  1.00 20.00     0.113 C 
HETATM    6  C6  UNL     1     -42.387  14.605   6.869  1.00 20.00     0.055 C 
HETATM    7  C7  UNL     1     -43.415  13.536   7.230  1.00 20.00     0.018 C 
HETATM    8  O11 UNL     1     -42.565  15.351   4.596  1.00 20.00    -0.297 OA
ENDROOT
BRANCH   2   9
HETATM    9  C10 UNL     1     -39.269  11.859   5.432  1.00 20.00     0.006 C 
HETATM   10  C8  UNL     1     -39.249  11.806   3.910  1.00 20.00     0.014 C 
HETATM   11  C9  UNL     1     -37.871  12.105   5.990  1.00 20.00     0.014 C 
ENDBRANCH   2   9
TORSDOF 1
ENDMDL
