MODEL 1
REMARK VINA RESULT:      -5.1      0.000      0.000
REMARK  3 active torsions:
REMARK  status: ('A' for Active; 'I' for Inactive)
REMARK    1  A    between atoms: C1_1  and  C3_3 
REMARK    2  A    between atoms: C2_2  and  C5_5 
REMARK    3  A    between atoms: C4_4  and  C7_7 
ROOT
HETATM    1  C1  UNL     1     -33.905   7.860   5.723  1.00 20.00     0.000 C 
HETATM    2  C2  UNL     1     -32.746   7.945   5.054  1.00 20.00    -0.000 C 
ENDROOT
BRANCH   1   3
HETATM    3  C3  UNL     1     -34.194   6.803   6.670  1.00 20.00     0.004 C 
HETATM    4  C4  UNL     1     -34.674   5.610   6.297  1.00 20.00     0.049 C 
BRANCH   4   5
HETATM    5  C7  UNL     1     -34.937   5.315   4.860  1.00 20.00     0.145 C 
HETATM    6  C9  UNL     1     -33.945   4.421   4.163  1.00 20.00     0.096 C 
HETATM    7  O10 UNL     1     -35.923   5.750   4.272  1.00 20.00    -0.294 OA
ENDBRANCH   4   5
ENDBRANCH   1   3
BRANCH   2   8
HETATM    8  C5  UNL     1     -32.464   9.004   4.110  1.00 20.00    -0.004 C 
HETATM    9  C6  UNL     1     -32.272   8.876   2.788  1.00 20.00    -0.031 C 
HETATM   10  C8  UNL     1     -32.303   7.631   1.960  1.00 20.00     0.036 C 
ENDBRANCH   2   8
TORSDOF 3
ENDMDL
MODEL 2
REMARK VINA RESULT:      -5.0      1.414      2.097
REMARK  3 active torsions:
REMARK  status: ('A' for Active; 'I' for Inactive)
REMARK    1  A    between atoms: C1_1  and  C3_3 
REMARK    2  A    between atoms: C2_2  and  C5_5 
REMARK    3  A    between atoms: C4_4  and  C7_7 
ROOT
HETATM    1  C1  UNL     1     -32.706   7.591   4.417  1.00 20.00     0.000 C 
HETATM    2  C2  UNL     1     -32.708   8.269   3.259  1.00 20.00    -0.000 C 
ENDROOT
BRANCH   1   3
HETATM    3  C3  UNL     1     -33.373   8.067   5.611  1.00 20.00     0.004 C 
HETATM    4  C4  UNL     1     -34.223   7.309   6.316  1.00 20.00     0.049 C 
BRANCH   4   5
HETATM    5  C7  UNL     1     -34.523   5.913   5.890  1.00 20.00     0.145 C 
HETATM    6  C9  UNL     1     -35.364   5.751   4.652  1.00 20.00     0.096 C 
HETATM    7  O10 UNL     1     -34.089   4.936   6.496  1.00 20.00    -0.294 OA
ENDBRANCH   4   5
ENDBRANCH   1   3
BRANCH   2   8
HETATM    8  C5  UNL     1     -32.039   7.788   2.070  1.00 20.00    -0.004 C 
HETATM    9  C6  UNL     1     -32.083   8.332   0.844  1.00 20.00    -0.031 C 
HETATM   10  C8  UNL     1     -32.816   9.555   0.395  1.00 20.00     0.036 C 
ENDBRANCH   2   8
TORSDOF 3
ENDMDL
MODEL 3
REMARK VINA RESULT:      -5.0      0.891      1.072
REMARK  3 active torsions:
REMARK  status: ('A' for Active; 'I' for Inactive)
REMARK    1  A    between atoms: C1_1  and  C3_3 
REMARK    2  A    between atoms: C2_2  and  C5_5 
REMARK    3  A    between atoms: C4_4  and  C7_7 
ROOT
HETATM    1  C1  UNL     1     -33.939   7.718   5.718  1.00 20.00     0.000 C 
HETATM    2  C2  UNL     1     -32.722   7.946   5.201  1.00 20.00    -0.000 C 
ENDROOT
BRANCH   1   3
HETATM    3  C3  UNL     1     -34.194   6.700   6.716  1.00 20.00     0.004 C 
HETATM    4  C4  UNL     1     -34.569   5.454   6.398  1.00 20.00     0.049 C 
BRANCH   4   5
HETATM    5  C7  UNL     1     -34.742   5.056   4.973  1.00 20.00     0.145 C 
HETATM    6  C9  UNL     1     -35.725   5.859   4.163  1.00 20.00     0.096 C 
HETATM    7  O10 UNL     1     -34.101   4.138   4.468  1.00 20.00    -0.294 OA
ENDBRANCH   4   5
ENDBRANCH   1   3
BRANCH   2   8
HETATM    8  C5  UNL     1     -32.475   8.965   4.204  1.00 20.00    -0.004 C 
HETATM    9  C6  UNL     1     -32.295   8.778   2.888  1.00 20.00    -0.031 C 
HETATM   10  C8  UNL     1     -32.308   7.495   2.120  1.00 20.00     0.036 C 
ENDBRANCH   2   8
TORSDOF 3
ENDMDL
MODEL 4
REMARK VINA RESULT:      -4.6      1.523      4.189
REMARK  3 active torsions:
REMARK  status: ('A' for Active; 'I' for Inactive)
REMARK    1  A    between atoms: C1_1  and  C3_3 
REMARK    2  A    between atoms: C2_2  and  C5_5 
REMARK    3  A    between atoms: C4_4  and  C7_7 
ROOT
HETATM    1  C1  UNL     1     -33.676   7.794   5.262  1.00 20.00     0.000 C 
HETATM    2  C2  UNL     1     -33.749   6.964   6.314  1.00 20.00    -0.000 C 
ENDROOT
BRANCH   1   3
HETATM    3  C3  UNL     1     -32.722   8.880   5.179  1.00 20.00     0.004 C 
HETATM    4  C4  UNL     1     -32.103   9.214   4.039  1.00 20.00     0.049 C 
BRANCH   4   5
HETATM    5  C7  UNL     1     -32.379   8.465   2.781  1.00 20.00     0.145 C 
HETATM    6  C9  UNL     1     -32.862   9.274   1.607  1.00 20.00     0.096 C 
HETATM    7  O10 UNL     1     -32.197   7.254   2.687  1.00 20.00    -0.294 OA
ENDBRANCH   4   5
ENDBRANCH   1   3
BRANCH   2   8
HETATM    8  C5  UNL     1     -34.706   5.881   6.390  1.00 20.00    -0.004 C 
HETATM    9  C6  UNL     1     -34.863   4.882   5.509  1.00 20.00    -0.031 C 
HETATM   10  C8  UNL     1     -34.104   4.626   4.247  1.00 20.00     0.036 C 
ENDBRANCH   2   8
TORSDOF 3
ENDMDL
MODEL 5
REMARK VINA RESULT:      -4.3     12.173     12.931
REMARK  3 active torsions:
REMARK  status: ('A' for Active; 'I' for Inactive)
REMARK    1  A    between atoms: C1_1  and  C3_3 
REMARK    2  A    between atoms: C2_2  and  C5_5 
REMARK    3  A    between atoms: C4_4  and  C7_7 
ROOT
HETATM    1  C1  UNL     1     -33.619  17.358  -1.158  1.00 20.00     0.000 C 
HETATM    2  C2  UNL     1     -33.527  17.294  -2.495  1.00 20.00    -0.000 C 
ENDROOT
BRANCH   1   3
HETATM    3  C3  UNL     1     -33.908  18.584  -0.444  1.00 20.00     0.004 C 
HETATM    4  C4  UNL     1     -32.975  19.263   0.236  1.00 20.00     0.049 C 
BRANCH   4   5
HETATM    5  C7  UNL     1     -31.569  18.773   0.288  1.00 20.00     0.145 C 
HETATM    6  C9  UNL     1     -31.112  18.172   1.590  1.00 20.00     0.096 C 
HETATM    7  O10 UNL     1     -30.822  18.825  -0.685  1.00 20.00    -0.294 OA
ENDBRANCH   4   5
ENDBRANCH   1   3
BRANCH   2   8
HETATM    8  C5  UNL     1     -33.237  16.065  -3.201  1.00 20.00    -0.004 C 
HETATM    9  C6  UNL     1     -33.799  15.639  -4.342  1.00 20.00    -0.031 C 
HETATM   10  C8  UNL     1     -34.848  16.311  -5.170  1.00 20.00     0.036 C 
ENDBRANCH   2   8
TORSDOF 3
ENDMDL
MODEL 6
REMARK VINA RESULT:      -4.3     11.882     12.369
REMARK  3 active torsions:
REMARK  status: ('A' for Active; 'I' for Inactive)
REMARK    1  A    between atoms: C1_1  and  C3_3 
REMARK    2  A    between atoms: C2_2  and  C5_5 
REMARK    3  A    between atoms: C4_4  and  C7_7 
ROOT
HETATM    1  C1  UNL     1     -33.707  15.882  -3.119  1.00 20.00     0.000 C 
HETATM    2  C2  UNL     1     -33.158  16.909  -2.451  1.00 20.00    -0.000 C 
ENDROOT
BRANCH   1   3
HETATM    3  C3  UNL     1     -33.132  15.330  -4.328  1.00 20.00     0.004 C 
HETATM    4  C4  UNL     1     -33.832  14.570  -5.179  1.00 20.00     0.049 C 
BRANCH   4   5
HETATM    5  C7  UNL     1     -35.264  14.254  -4.912  1.00 20.00     0.145 C 
HETATM    6  C9  UNL     1     -36.281  15.216  -5.466  1.00 20.00     0.096 C 
HETATM    7  O10 UNL     1     -35.608  13.249  -4.296  1.00 20.00    -0.294 OA
ENDBRANCH   4   5
ENDBRANCH   1   3
BRANCH   2   8
HETATM    8  C5  UNL     1     -33.738  17.456  -1.244  1.00 20.00    -0.004 C 
HETATM    9  C6  UNL     1     -33.106  18.165  -0.296  1.00 20.00    -0.031 C 
HETATM   10  C8  UNL     1     -31.669  18.572  -0.241  1.00 20.00     0.036 C 
ENDBRANCH   2   8
TORSDOF 3
ENDMDL
MODEL 7
REMARK VINA RESULT:      -4.2      1.228      2.236
REMARK  3 active torsions:
REMARK  status: ('A' for Active; 'I' for Inactive)
REMARK    1  A    between atoms: C1_1  and  C3_3 
REMARK    2  A    between atoms: C2_2  and  C5_5 
REMARK    3  A    between atoms: C4_4  and  C7_7 
ROOT
HETATM    1  C1  UNL     1     -33.213   6.567   2.853  1.00 20.00     0.000 C 
HETATM    2  C2  UNL     1     -32.335   7.491   3.271  1.00 20.00    -0.000 C 
ENDROOT
BRANCH   1   3
HETATM    3  C3  UNL     1     -33.072   5.155   3.145  1.00 20.00     0.004 C 
HETATM    4  C4  UNL     1     -33.792   4.536   4.089  1.00 20.00     0.049 C 
BRANCH   4   5
HETATM    5  C7  UNL     1     -34.790   5.292   4.896  1.00 20.00     0.145 C 
HETATM    6  C9  UNL     1     -34.471   5.487   6.355  1.00 20.00     0.096 C 
HETATM    7  O10 UNL     1     -35.812   5.760   4.402  1.00 20.00    -0.294 OA
ENDBRANCH   4   5
ENDBRANCH   1   3
BRANCH   2   8
HETATM    8  C5  UNL     1     -32.482   8.899   2.975  1.00 20.00    -0.004 C 
HETATM    9  C6  UNL     1     -32.589   9.461   1.761  1.00 20.00    -0.031 C 
HETATM   10  C8  UNL     1     -32.588   8.793   0.423  1.00 20.00     0.036 C 
ENDBRANCH   2   8
TORSDOF 3
ENDMDL
MODEL 8
REMARK VINA RESULT:      -4.1     12.116     12.593
REMARK  3 active torsions:
REMARK  status: ('A' for Active; 'I' for Inactive)
REMARK    1  A    between atoms: C1_1  and  C3_3 
REMARK    2  A    between atoms: C2_2  and  C5_5 
REMARK    3  A    between atoms: C4_4  and  C7_7 
ROOT
HETATM    1  C1  UNL     1     -33.670  15.932  -3.035  1.00 20.00     0.000 C 
HETATM    2  C2  UNL     1     -33.087  16.926  -2.348  1.00 20.00    -0.000 C 
ENDROOT
BRANCH   1   3
HETATM    3  C3  UNL     1     -33.054  15.298  -4.182  1.00 20.00     0.004 C 
HETATM    4  C4  UNL     1     -33.760  14.859  -5.232  1.00 20.00     0.049 C 
BRANCH   4   5
HETATM    5  C7  UNL     1     -35.242  15.009  -5.264  1.00 20.00     0.145 C 
HETATM    6  C9  UNL     1     -36.049  13.831  -4.785  1.00 20.00     0.096 C 
HETATM    7  O10 UNL     1     -35.787  16.045  -5.633  1.00 20.00    -0.294 OA
ENDBRANCH   4   5
ENDBRANCH   1   3
BRANCH   2   8
HETATM    8  C5  UNL     1     -33.709  17.555  -1.204  1.00 20.00    -0.004 C 
HETATM    9  C6  UNL     1     -33.095  18.247  -0.232  1.00 20.00    -0.031 C 
HETATM   10  C8  UNL     1     -31.638  18.547  -0.081  1.00 20.00     0.036 C 
ENDBRANCH   2   8
TORSDOF 3
ENDMDL
MODEL 9
REMARK VINA RESULT:      -4.0     12.100     13.157
REMARK  3 active torsions:
REMARK  status: ('A' for Active; 'I' for Inactive)
REMARK    1  A    between atoms: C1_1  and  C3_3 
REMARK    2  A    between atoms: C2_2  and  C5_5 
REMARK    3  A    between atoms: C4_4  and  C7_7 
ROOT
HETATM    1  C1  UNL     1     -33.829  15.345  -3.881  1.00 20.00     0.000 C 
HETATM    2  C2  UNL     1     -33.226  16.452  -3.419  1.00 20.00    -0.000 C 
ENDROOT
BRANCH   1   3
HETATM    3  C3  UNL     1     -33.751  14.924  -5.264  1.00 20.00     0.004 C 
HETATM    4  C4  UNL     1     -34.809  14.935  -6.085  1.00 20.00     0.049 C 
BRANCH   4   5
HETATM    5  C7  UNL     1     -36.141  15.393  -5.597  1.00 20.00     0.145 C 
HETATM    6  C9  UNL     1     -36.395  16.877  -5.624  1.00 20.00     0.096 C 
HETATM    7  O10 UNL     1     -37.004  14.607  -5.215  1.00 20.00    -0.294 OA
ENDBRANCH   4   5
ENDBRANCH   1   3
BRANCH   2   8
HETATM    8  C5  UNL     1     -33.309  16.867  -2.036  1.00 20.00    -0.004 C 
HETATM    9  C6  UNL     1     -34.087  17.836  -1.531  1.00 20.00    -0.031 C 
HETATM   10  C8  UNL     1     -35.058  18.719  -2.248  1.00 20.00     0.036 C 
ENDBRANCH   2   8
TORSDOF 3
ENDMDL
