MODEL 1
REMARK VINA RESULT:      -3.6      0.000      0.000
REMARK  1 active torsions:
REMARK  status: ('A' for Active; 'I' for Inactive)
REMARK    1  A    between atoms: C1_1  and  C2_2 
ROOT
HETATM    1  C1  UNL     1     -34.821   5.252   5.049  1.00 20.00     0.326 C 
HETATM    2  O3  UNL     1     -34.300   4.314   4.464  1.00 20.00    -0.257 OA
HETATM    3  F4  UNL     1     -35.788   5.919   4.402  1.00 20.00    -0.162 F 
ENDROOT
BRANCH   1   4
HETATM    4  C2  UNL     1     -34.468   5.714   6.423  1.00 20.00     0.338 C 
HETATM    5  F5  UNL     1     -34.507   7.070   6.515  1.00 20.00    -0.245 F 
ENDBRANCH   1   4
TORSDOF 1
ENDMDL
MODEL 2
REMARK VINA RESULT:      -3.4      2.075      2.801
REMARK  1 active torsions:
REMARK  status: ('A' for Active; 'I' for Inactive)
REMARK    1  A    between atoms: C1_1  and  C2_2 
ROOT
HETATM    1  C1  UNL     1     -34.411   5.968   6.121  1.00 20.00     0.326 C 
HETATM    2  O3  UNL     1     -34.349   7.110   6.554  1.00 20.00    -0.257 OA
HETATM    3  F4  UNL     1     -33.963   4.985   6.916  1.00 20.00    -0.162 F 
ENDROOT
BRANCH   1   4
HETATM    4  C2  UNL     1     -34.945   5.582   4.783  1.00 20.00     0.338 C 
HETATM    5  F5  UNL     1     -34.411   4.407   4.357  1.00 20.00    -0.245 F 
ENDBRANCH   1   4
TORSDOF 1
ENDMDL
MODEL 3
REMARK VINA RESULT:      -3.3      1.280      1.449
REMARK  1 active torsions:
REMARK  status: ('A' for Active; 'I' for Inactive)
REMARK    1  A    between atoms: C1_1  and  C2_2 
ROOT
HETATM    1  C1  UNL     1     -34.599   5.487   5.401  1.00 20.00     0.326 C 
HETATM    2  O3  UNL     1     -34.646   4.491   4.694  1.00 20.00    -0.257 OA
HETATM    3  F4  UNL     1     -35.088   5.380   6.645  1.00 20.00    -0.162 F 
ENDROOT
BRANCH   1   4
HETATM    4  C2  UNL     1     -34.042   6.809   4.991  1.00 20.00     0.338 C 
HETATM    5  F5  UNL     1     -34.110   7.711   6.005  1.00 20.00    -0.245 F 
ENDBRANCH   1   4
TORSDOF 1
ENDMDL
MODEL 4
REMARK VINA RESULT:      -3.3      1.619      2.586
REMARK  1 active torsions:
REMARK  status: ('A' for Active; 'I' for Inactive)
REMARK    1  A    between atoms: C1_1  and  C2_2 
ROOT
HETATM    1  C1  UNL     1     -34.147   6.749   5.648  1.00 20.00     0.326 C 
HETATM    2  O3  UNL     1     -33.280   7.415   5.102  1.00 20.00    -0.257 OA
HETATM    3  F4  UNL     1     -34.514   7.115   6.885  1.00 20.00    -0.162 F 
ENDROOT
BRANCH   1   4
HETATM    4  C2  UNL     1     -34.830   5.565   5.050  1.00 20.00     0.338 C 
HETATM    5  F5  UNL     1     -35.922   5.934   4.330  1.00 20.00    -0.245 F 
ENDBRANCH   1   4
TORSDOF 1
ENDMDL
MODEL 5
REMARK VINA RESULT:      -3.2      1.953      2.652
REMARK  1 active torsions:
REMARK  status: ('A' for Active; 'I' for Inactive)
REMARK    1  A    between atoms: C1_1  and  C2_2 
ROOT
HETATM    1  C1  UNL     1     -34.095   6.832   5.678  1.00 20.00     0.326 C 
HETATM    2  O3  UNL     1     -33.152   7.509   5.295  1.00 20.00    -0.257 OA
HETATM    3  F4  UNL     1     -34.541   7.050   6.924  1.00 20.00    -0.162 F 
ENDROOT
BRANCH   1   4
HETATM    4  C2  UNL     1     -34.789   5.785   4.873  1.00 20.00     0.338 C 
HETATM    5  F5  UNL     1     -34.494   4.538   5.323  1.00 20.00    -0.245 F 
ENDBRANCH   1   4
TORSDOF 1
ENDMDL
MODEL 6
REMARK VINA RESULT:      -3.1      3.073      3.483
REMARK  1 active torsions:
REMARK  status: ('A' for Active; 'I' for Inactive)
REMARK    1  A    between atoms: C1_1  and  C2_2 
ROOT
HETATM    1  C1  UNL     1     -32.613   8.094   4.659  1.00 20.00     0.326 C 
HETATM    2  O3  UNL     1     -32.023   7.705   3.661  1.00 20.00    -0.257 OA
HETATM    3  F4  UNL     1     -32.254   9.285   5.159  1.00 20.00    -0.162 F 
ENDROOT
BRANCH   1   4
HETATM    4  C2  UNL     1     -33.698   7.350   5.363  1.00 20.00     0.338 C 
HETATM    5  F5  UNL     1     -33.309   6.965   6.606  1.00 20.00    -0.245 F 
ENDBRANCH   1   4
TORSDOF 1
ENDMDL
MODEL 7
REMARK VINA RESULT:      -3.1      1.765      2.337
REMARK  1 active torsions:
REMARK  status: ('A' for Active; 'I' for Inactive)
REMARK    1  A    between atoms: C1_1  and  C2_2 
ROOT
HETATM    1  C1  UNL     1     -34.928   5.452   5.035  1.00 20.00     0.326 C 
HETATM    2  O3  UNL     1     -34.821   5.745   6.217  1.00 20.00    -0.257 OA
HETATM    3  F4  UNL     1     -35.952   5.995   4.359  1.00 20.00    -0.162 F 
ENDROOT
BRANCH   1   4
HETATM    4  C2  UNL     1     -34.014   4.542   4.286  1.00 20.00     0.338 C 
HETATM    5  F5  UNL     1     -33.480   5.159   3.200  1.00 20.00    -0.245 F 
ENDBRANCH   1   4
TORSDOF 1
ENDMDL
MODEL 8
REMARK VINA RESULT:      -3.0      2.685      3.047
REMARK  1 active torsions:
REMARK  status: ('A' for Active; 'I' for Inactive)
REMARK    1  A    between atoms: C1_1  and  C2_2 
ROOT
HETATM    1  C1  UNL     1     -33.694   7.341   5.306  1.00 20.00     0.326 C 
HETATM    2  O3  UNL     1     -34.096   6.450   4.573  1.00 20.00    -0.257 OA
HETATM    3  F4  UNL     1     -34.167   7.365   6.561  1.00 20.00    -0.162 F 
ENDROOT
BRANCH   1   4
HETATM    4  C2  UNL     1     -32.720   8.403   4.918  1.00 20.00     0.338 C 
HETATM    5  F5  UNL     1     -31.780   7.924   4.062  1.00 20.00    -0.245 F 
ENDBRANCH   1   4
TORSDOF 1
ENDMDL
MODEL 9
REMARK VINA RESULT:      -3.0      3.536      4.056
REMARK  1 active torsions:
REMARK  status: ('A' for Active; 'I' for Inactive)
REMARK    1  A    between atoms: C1_1  and  C2_2 
ROOT
HETATM    1  C1  UNL     1     -32.661   8.036   4.691  1.00 20.00     0.326 C 
HETATM    2  O3  UNL     1     -33.347   7.370   5.453  1.00 20.00    -0.257 OA
HETATM    3  F4  UNL     1     -32.256   9.239   5.122  1.00 20.00    -0.162 F 
ENDROOT
BRANCH   1   4
HETATM    4  C2  UNL     1     -32.239   7.617   3.322  1.00 20.00     0.338 C 
HETATM    5  F5  UNL     1     -32.494   6.300   3.107  1.00 20.00    -0.245 F 
ENDBRANCH   1   4
TORSDOF 1
ENDMDL
