MODEL 1
REMARK VINA RESULT:      -4.7      0.000      0.000
REMARK  1 active torsions:
REMARK  status: ('A' for Active; 'I' for Inactive)
REMARK    1  A    between atoms: C4_4  and  O11_11 
ROOT
HETATM    1  C1  UNL     1     -33.943   4.415   4.714  1.00 20.00    -0.021 C 
HETATM    2  C2  UNL     1     -34.329   4.606   5.986  1.00 20.00    -0.025 C 
HETATM    3  C3  UNL     1     -33.424   6.798   4.464  1.00 20.00    -0.043 C 
HETATM    4  C4  UNL     1     -32.494   7.469   3.780  1.00 20.00     0.045 C 
HETATM    5  C5  UNL     1     -33.846   7.053   5.907  1.00 20.00     0.046 C 
HETATM    6  C6  UNL     1     -35.601   6.022   4.671  1.00 20.00     0.022 C 
HETATM    7  C7  UNL     1     -34.297   5.668   3.947  1.00 20.00     0.040 C 
HETATM    8  C8  UNL     1     -34.956   5.983   6.063  1.00 20.00     0.013 C 
HETATM    9  C9  UNL     1     -32.128   7.167   2.361  1.00 20.00     0.076 C 
ENDROOT
BRANCH   4  10
HETATM   10  O11 UNL     1     -31.805   8.508   4.377  1.00 20.00    -0.360 OA
HETATM   11  C10 UNL     1     -32.327   9.768   4.034  1.00 20.00     0.209 C 
ENDBRANCH   4  10
TORSDOF 1
ENDMDL
MODEL 2
REMARK VINA RESULT:      -4.3     15.416     16.661
REMARK  1 active torsions:
REMARK  status: ('A' for Active; 'I' for Inactive)
REMARK    1  A    between atoms: C4_4  and  O11_11 
ROOT
HETATM    1  C1  UNL     1     -24.653  16.928  11.098  1.00 20.00    -0.021 C 
HETATM    2  C2  UNL     1     -23.730  16.663  12.037  1.00 20.00    -0.025 C 
HETATM    3  C3  UNL     1     -23.192  18.610  10.072  1.00 20.00    -0.043 C 
HETATM    4  C4  UNL     1     -22.990  19.005   8.813  1.00 20.00     0.045 C 
HETATM    5  C5  UNL     1     -22.117  18.330  11.116  1.00 20.00     0.046 C 
HETATM    6  C6  UNL     1     -24.177  18.930  12.147  1.00 20.00     0.022 C 
HETATM    7  C7  UNL     1     -24.532  18.396  10.755  1.00 20.00     0.040 C 
HETATM    8  C8  UNL     1     -23.003  17.960  12.332  1.00 20.00     0.013 C 
HETATM    9  C9  UNL     1     -24.095  19.263   7.837  1.00 20.00     0.076 C 
ENDROOT
BRANCH   4  10
HETATM   10  O11 UNL     1     -21.706  19.198   8.341  1.00 20.00    -0.360 OA
HETATM   11  C10 UNL     1     -21.298  18.183   7.457  1.00 20.00     0.209 C 
ENDBRANCH   4  10
TORSDOF 1
ENDMDL
MODEL 3
REMARK VINA RESULT:      -3.9      1.649      4.004
REMARK  1 active torsions:
REMARK  status: ('A' for Active; 'I' for Inactive)
REMARK    1  A    between atoms: C4_4  and  O11_11 
ROOT
HETATM    1  C1  UNL     1     -32.611   7.947   2.013  1.00 20.00    -0.021 C 
HETATM    2  C2  UNL     1     -32.777   9.173   2.537  1.00 20.00    -0.025 C 
HETATM    3  C3  UNL     1     -33.416   6.903   4.081  1.00 20.00    -0.043 C 
HETATM    4  C4  UNL     1     -34.121   5.800   4.338  1.00 20.00     0.045 C 
HETATM    5  C5  UNL     1     -33.626   8.278   4.707  1.00 20.00     0.046 C 
HETATM    6  C6  UNL     1     -31.379   8.008   3.966  1.00 20.00     0.022 C 
HETATM    7  C7  UNL     1     -32.224   7.026   3.148  1.00 20.00     0.040 C 
HETATM    8  C8  UNL     1     -32.485   9.070   4.020  1.00 20.00     0.013 C 
HETATM    9  C9  UNL     1     -33.861   4.478   3.687  1.00 20.00     0.076 C 
ENDROOT
BRANCH   4  10
HETATM   10  O11 UNL     1     -35.160   5.834   5.249  1.00 20.00    -0.360 OA
HETATM   11  C10 UNL     1     -34.756   5.455   6.542  1.00 20.00     0.209 C 
ENDBRANCH   4  10
TORSDOF 1
ENDMDL
MODEL 4
REMARK VINA RESULT:      -3.8     12.564     13.824
REMARK  1 active torsions:
REMARK  status: ('A' for Active; 'I' for Inactive)
REMARK    1  A    between atoms: C4_4  and  O11_11 
ROOT
HETATM    1  C1  UNL     1     -34.867  18.534  -1.924  1.00 20.00    -0.021 C 
HETATM    2  C2  UNL     1     -34.030  17.852  -1.124  1.00 20.00    -0.025 C 
HETATM    3  C3  UNL     1     -34.245  17.137  -3.842  1.00 20.00    -0.043 C 
HETATM    4  C4  UNL     1     -34.916  16.683  -4.903  1.00 20.00     0.045 C 
HETATM    5  C5  UNL     1     -33.292  16.335  -2.963  1.00 20.00     0.046 C 
HETATM    6  C6  UNL     1     -32.773  18.657  -2.892  1.00 20.00     0.022 C 
HETATM    7  C7  UNL     1     -34.246  18.557  -3.303  1.00 20.00     0.040 C 
HETATM    8  C8  UNL     1     -32.843  17.434  -1.968  1.00 20.00     0.013 C 
HETATM    9  C9  UNL     1     -35.839  17.527  -5.725  1.00 20.00     0.076 C 
ENDROOT
BRANCH   4  10
HETATM   10  O11 UNL     1     -34.782  15.366  -5.300  1.00 20.00    -0.360 OA
HETATM   11  C10 UNL     1     -34.089  15.238  -6.517  1.00 20.00     0.209 C 
ENDBRANCH   4  10
TORSDOF 1
ENDMDL
MODEL 5
REMARK VINA RESULT:      -3.8      1.044      2.235
REMARK  1 active torsions:
REMARK  status: ('A' for Active; 'I' for Inactive)
REMARK    1  A    between atoms: C4_4  and  O11_11 
ROOT
HETATM    1  C1  UNL     1     -35.463   6.603   5.044  1.00 20.00    -0.021 C 
HETATM    2  C2  UNL     1     -35.653   5.397   4.483  1.00 20.00    -0.025 C 
HETATM    3  C3  UNL     1     -33.185   6.715   4.144  1.00 20.00    -0.043 C 
HETATM    4  C4  UNL     1     -32.422   7.715   3.699  1.00 20.00     0.045 C 
HETATM    5  C5  UNL     1     -33.366   5.352   3.485  1.00 20.00     0.046 C 
HETATM    6  C6  UNL     1     -33.778   5.231   5.827  1.00 20.00     0.022 C 
HETATM    7  C7  UNL     1     -34.003   6.693   5.424  1.00 20.00     0.040 C 
HETATM    8  C8  UNL     1     -34.320   4.678   4.503  1.00 20.00     0.013 C 
HETATM    9  C9  UNL     1     -32.288   9.031   4.398  1.00 20.00     0.076 C 
ENDROOT
BRANCH   4  10
HETATM   10  O11 UNL     1     -31.698   7.572   2.530  1.00 20.00    -0.360 OA
HETATM   11  C10 UNL     1     -32.249   8.301   1.462  1.00 20.00     0.209 C 
ENDBRANCH   4  10
TORSDOF 1
ENDMDL
MODEL 6
REMARK VINA RESULT:      -3.8     12.209     13.475
REMARK  1 active torsions:
REMARK  status: ('A' for Active; 'I' for Inactive)
REMARK    1  A    between atoms: C4_4  and  O11_11 
ROOT
HETATM    1  C1  UNL     1     -35.134  14.112  -4.525  1.00 20.00    -0.021 C 
HETATM    2  C2  UNL     1     -35.971  14.358  -5.547  1.00 20.00    -0.025 C 
HETATM    3  C3  UNL     1     -34.442  16.463  -4.463  1.00 20.00    -0.043 C 
HETATM    4  C4  UNL     1     -34.086  17.290  -3.477  1.00 20.00     0.045 C 
HETATM    5  C5  UNL     1     -35.387  16.784  -5.616  1.00 20.00     0.046 C 
HETATM    6  C6  UNL     1     -33.866  15.051  -6.211  1.00 20.00     0.022 C 
HETATM    7  C7  UNL     1     -33.952  15.042  -4.681  1.00 20.00     0.040 C 
HETATM    8  C8  UNL     1     -35.338  15.444  -6.393  1.00 20.00     0.013 C 
HETATM    9  C9  UNL     1     -33.150  16.910  -2.373  1.00 20.00     0.076 C 
ENDROOT
BRANCH   4  10
HETATM   10  O11 UNL     1     -34.586  18.578  -3.434  1.00 20.00    -0.360 OA
HETATM   11  C10 UNL     1     -35.409  18.799  -2.316  1.00 20.00     0.209 C 
ENDBRANCH   4  10
TORSDOF 1
ENDMDL
MODEL 7
REMARK VINA RESULT:      -3.8      9.758     10.794
REMARK  1 active torsions:
REMARK  status: ('A' for Active; 'I' for Inactive)
REMARK    1  A    between atoms: C4_4  and  O11_11 
ROOT
HETATM    1  C1  UNL     1     -40.559  15.437   7.708  1.00 20.00    -0.021 C 
HETATM    2  C2  UNL     1     -41.513  16.158   7.094  1.00 20.00    -0.025 C 
HETATM    3  C3  UNL     1     -40.864  13.594   6.119  1.00 20.00    -0.043 C 
HETATM    4  C4  UNL     1     -40.031  12.704   5.575  1.00 20.00     0.045 C 
HETATM    5  C5  UNL     1     -41.945  14.385   5.391  1.00 20.00     0.046 C 
HETATM    6  C6  UNL     1     -42.471  14.141   7.700  1.00 20.00     0.022 C 
HETATM    7  C7  UNL     1     -40.951  13.982   7.585  1.00 20.00     0.040 C 
HETATM    8  C8  UNL     1     -42.549  15.181   6.575  1.00 20.00     0.013 C 
HETATM    9  C9  UNL     1     -38.989  11.960   6.350  1.00 20.00     0.076 C 
ENDROOT
BRANCH   4  10
HETATM   10  O11 UNL     1     -40.098  12.424   4.223  1.00 20.00    -0.360 OA
HETATM   11  C10 UNL     1     -39.004  11.662   3.775  1.00 20.00     0.209 C 
ENDBRANCH   4  10
TORSDOF 1
ENDMDL
MODEL 8
REMARK VINA RESULT:      -3.5     12.353     13.833
REMARK  1 active torsions:
REMARK  status: ('A' for Active; 'I' for Inactive)
REMARK    1  A    between atoms: C4_4  and  O11_11 
ROOT
HETATM    1  C1  UNL     1     -34.487  16.775  -6.931  1.00 20.00    -0.021 C 
HETATM    2  C2  UNL     1     -34.287  15.456  -7.087  1.00 20.00    -0.025 C 
HETATM    3  C3  UNL     1     -34.447  16.543  -4.491  1.00 20.00    -0.043 C 
HETATM    4  C4  UNL     1     -34.015  17.326  -3.501  1.00 20.00     0.045 C 
HETATM    5  C5  UNL     1     -34.211  15.042  -4.626  1.00 20.00     0.046 C 
HETATM    6  C6  UNL     1     -36.182  15.707  -5.784  1.00 20.00     0.022 C 
HETATM    7  C7  UNL     1     -35.305  16.958  -5.673  1.00 20.00     0.040 C 
HETATM    8  C8  UNL     1     -34.986  14.758  -5.937  1.00 20.00     0.013 C 
HETATM    9  C9  UNL     1     -34.284  18.796  -3.428  1.00 20.00     0.076 C 
ENDROOT
BRANCH   4  10
HETATM   10  O11 UNL     1     -33.272  16.793  -2.464  1.00 20.00    -0.360 OA
HETATM   11  C10 UNL     1     -33.565  17.394  -1.227  1.00 20.00     0.209 C 
ENDBRANCH   4  10
TORSDOF 1
ENDMDL
MODEL 9
REMARK VINA RESULT:      -3.5     10.714     11.762
REMARK  1 active torsions:
REMARK  status: ('A' for Active; 'I' for Inactive)
REMARK    1  A    between atoms: C4_4  and  O11_11 
ROOT
HETATM    1  C1  UNL     1     -42.790  15.919   8.101  1.00 20.00    -0.021 C 
HETATM    2  C2  UNL     1     -42.298  16.095   9.339  1.00 20.00    -0.025 C 
HETATM    3  C3  UNL     1     -40.805  14.638   7.444  1.00 20.00    -0.043 C 
HETATM    4  C4  UNL     1     -40.610  13.603   6.624  1.00 20.00     0.045 C 
HETATM    5  C5  UNL     1     -40.217  14.810   8.841  1.00 20.00     0.046 C 
HETATM    6  C6  UNL     1     -40.722  16.919   7.859  1.00 20.00     0.022 C 
HETATM    7  C7  UNL     1     -41.613  15.891   7.153  1.00 20.00     0.040 C 
HETATM    8  C8  UNL     1     -40.792  16.200   9.212  1.00 20.00     0.013 C 
HETATM    9  C9  UNL     1     -41.218  13.498   5.261  1.00 20.00     0.076 C 
ENDROOT
BRANCH   4  10
HETATM   10  O11 UNL     1     -39.810  12.546   7.015  1.00 20.00    -0.360 OA
HETATM   11  C10 UNL     1     -39.340  11.793   5.925  1.00 20.00     0.209 C 
ENDBRANCH   4  10
TORSDOF 1
ENDMDL
