MODEL 1
REMARK VINA RESULT:      -3.5      0.000      0.000
REMARK  0 active torsions:
REMARK  status: ('A' for Active; 'I' for Inactive)
ROOT
HETATM    1  C1  UNL     1     -33.539   6.010   3.587  1.00 20.00     0.063 C 
HETATM    2  C2  UNL     1     -33.290   8.089   4.687  1.00 20.00     0.167 C 
HETATM    3  C3  UNL     1     -34.651   6.030   6.054  1.00 20.00     0.112 C 
HETATM    4  C4  UNL     1     -33.089   4.928   2.650  1.00 20.00     0.078 C 
HETATM    5  C5  UNL     1     -32.155   9.099   4.861  1.00 20.00     0.046 C 
HETATM    6  C6  UNL     1     -33.724   4.932   6.569  1.00 20.00     0.033 C 
HETATM    7  N7  UNL     1     -32.781   7.025   3.814  1.00 20.00    -0.272 NA
HETATM    8  S8  UNL     1     -35.109   5.742   4.320  1.00 20.00    -0.100 SA
HETATM    9  S9  UNL     1     -33.908   7.667   6.359  1.00 20.00    -0.127 SA
ENDROOT
TORSDOF 0
ENDMDL
MODEL 2
REMARK VINA RESULT:      -3.4     10.157     10.776
REMARK  0 active torsions:
REMARK  status: ('A' for Active; 'I' for Inactive)
ROOT
HETATM    1  C1  UNL     1     -40.274  13.002   6.556  1.00 20.00     0.063 C 
HETATM    2  C2  UNL     1     -40.732  14.582   8.255  1.00 20.00     0.167 C 
HETATM    3  C3  UNL     1     -42.905  13.608   6.742  1.00 20.00     0.112 C 
HETATM    4  C4  UNL     1     -39.501  11.863   5.959  1.00 20.00     0.078 C 
HETATM    5  C5  UNL     1     -40.273  14.790   9.699  1.00 20.00     0.046 C 
HETATM    6  C6  UNL     1     -43.292  12.174   7.096  1.00 20.00     0.033 C 
HETATM    7  N7  UNL     1     -39.993  13.424   7.739  1.00 20.00    -0.272 NA
HETATM    8  S8  UNL     1     -41.548  13.642   5.535  1.00 20.00    -0.100 SA
HETATM    9  S9  UNL     1     -42.564  14.554   8.262  1.00 20.00    -0.127 SA
ENDROOT
TORSDOF 0
ENDMDL
MODEL 3
REMARK VINA RESULT:      -3.1     12.688     14.021
REMARK  0 active torsions:
REMARK  status: ('A' for Active; 'I' for Inactive)
ROOT
HETATM    1  C1  UNL     1     -33.407  17.522  -2.262  1.00 20.00     0.063 C 
HETATM    2  C2  UNL     1     -34.032  15.818  -3.777  1.00 20.00     0.167 C 
HETATM    3  C3  UNL     1     -34.558  18.490  -4.511  1.00 20.00     0.112 C 
HETATM    4  C4  UNL     1     -32.530  18.113  -1.196  1.00 20.00     0.078 C 
HETATM    5  C5  UNL     1     -33.383  14.535  -4.300  1.00 20.00     0.046 C 
HETATM    6  C6  UNL     1     -33.305  19.263  -4.916  1.00 20.00     0.033 C 
HETATM    7  N7  UNL     1     -33.111  16.385  -2.786  1.00 20.00    -0.272 NA
HETATM    8  S8  UNL     1     -34.786  18.509  -2.709  1.00 20.00    -0.100 SA
HETATM    9  S9  UNL     1     -34.519  16.817  -5.233  1.00 20.00    -0.127 SA
ENDROOT
TORSDOF 0
ENDMDL
MODEL 4
REMARK VINA RESULT:      -3.0     10.430     11.134
REMARK  0 active torsions:
REMARK  status: ('A' for Active; 'I' for Inactive)
ROOT
HETATM    1  C1  UNL     1     -40.916  12.907   5.338  1.00 20.00     0.063 C 
HETATM    2  C2  UNL     1     -42.372  14.468   4.320  1.00 20.00     0.167 C 
HETATM    3  C3  UNL     1     -41.894  14.723   7.089  1.00 20.00     0.112 C 
HETATM    4  C4  UNL     1     -39.736  11.979   5.340  1.00 20.00     0.078 C 
HETATM    5  C5  UNL     1     -42.364  15.277   3.022  1.00 20.00     0.046 C 
HETATM    6  C6  UNL     1     -40.508  15.276   7.414  1.00 20.00     0.033 C 
HETATM    7  N7  UNL     1     -41.171  13.625   4.301  1.00 20.00    -0.272 NA
HETATM    8  S8  UNL     1     -41.839  12.926   6.828  1.00 20.00    -0.100 SA
HETATM    9  S9  UNL     1     -42.623  15.649   5.698  1.00 20.00    -0.127 SA
ENDROOT
TORSDOF 0
ENDMDL
MODEL 5
REMARK VINA RESULT:      -3.0     12.882     14.126
REMARK  0 active torsions:
REMARK  status: ('A' for Active; 'I' for Inactive)
ROOT
HETATM    1  C1  UNL     1     -35.267  18.109  -4.337  1.00 20.00     0.063 C 
HETATM    2  C2  UNL     1     -34.847  15.954  -5.217  1.00 20.00     0.167 C 
HETATM    3  C3  UNL     1     -33.068  16.951  -3.267  1.00 20.00     0.112 C 
HETATM    4  C4  UNL     1     -36.169  19.232  -3.917  1.00 20.00     0.078 C 
HETATM    5  C5  UNL     1     -35.700  14.729  -5.548  1.00 20.00     0.046 C 
HETATM    6  C6  UNL     1     -33.655  16.951  -1.858  1.00 20.00     0.033 C 
HETATM    7  N7  UNL     1     -35.767  17.000  -4.755  1.00 20.00    -0.272 NA
HETATM    8  S8  UNL     1     -33.553  18.445  -4.180  1.00 20.00    -0.100 SA
HETATM    9  S9  UNL     1     -33.491  15.396  -4.118  1.00 20.00    -0.127 SA
ENDROOT
TORSDOF 0
ENDMDL
MODEL 6
REMARK VINA RESULT:      -2.9     10.689     11.717
REMARK  0 active torsions:
REMARK  status: ('A' for Active; 'I' for Inactive)
ROOT
HETATM    1  C1  UNL     1     -40.984  14.256   8.472  1.00 20.00     0.063 C 
HETATM    2  C2  UNL     1     -41.084  12.955   6.500  1.00 20.00     0.167 C 
HETATM    3  C3  UNL     1     -42.701  15.262   6.639  1.00 20.00     0.112 C 
HETATM    4  C4  UNL     1     -40.277  14.824   9.668  1.00 20.00     0.078 C 
HETATM    5  C5  UNL     1     -40.059  12.260   5.602  1.00 20.00     0.046 C 
HETATM    6  C6  UNL     1     -41.913  16.561   6.495  1.00 20.00     0.033 C 
HETATM    7  N7  UNL     1     -40.337  13.542   7.618  1.00 20.00    -0.272 NA
HETATM    8  S8  UNL     1     -42.683  14.671   8.357  1.00 20.00    -0.100 SA
HETATM    9  S9  UNL     1     -42.106  14.035   5.430  1.00 20.00    -0.127 SA
ENDROOT
TORSDOF 0
ENDMDL
MODEL 7
REMARK VINA RESULT:      -2.9     13.213     14.188
REMARK  0 active torsions:
REMARK  status: ('A' for Active; 'I' for Inactive)
ROOT
HETATM    1  C1  UNL     1     -34.159  16.331  -4.487  1.00 20.00     0.063 C 
HETATM    2  C2  UNL     1     -35.791  17.540  -5.697  1.00 20.00     0.167 C 
HETATM    3  C3  UNL     1     -35.689  14.743  -6.055  1.00 20.00     0.112 C 
HETATM    4  C4  UNL     1     -33.280  16.092  -3.294  1.00 20.00     0.078 C 
HETATM    5  C5  UNL     1     -36.766  18.674  -5.376  1.00 20.00     0.046 C 
HETATM    6  C6  UNL     1     -36.240  13.962  -4.864  1.00 20.00     0.033 C 
HETATM    7  N7  UNL     1     -35.000  17.305  -4.485  1.00 20.00    -0.272 NA
HETATM    8  S8  UNL     1     -33.946  15.187  -5.799  1.00 20.00    -0.100 SA
HETATM    9  S9  UNL     1     -36.768  16.167  -6.418  1.00 20.00    -0.127 SA
ENDROOT
TORSDOF 0
ENDMDL
MODEL 8
REMARK VINA RESULT:      -2.9     13.242     14.237
REMARK  0 active torsions:
REMARK  status: ('A' for Active; 'I' for Inactive)
ROOT
HETATM    1  C1  UNL     1     -34.374  16.294  -5.378  1.00 20.00     0.063 C 
HETATM    2  C2  UNL     1     -33.825  17.387  -3.355  1.00 20.00     0.167 C 
HETATM    3  C3  UNL     1     -35.964  18.425  -4.874  1.00 20.00     0.112 C 
HETATM    4  C4  UNL     1     -34.493  15.084  -6.258  1.00 20.00     0.078 C 
HETATM    5  C5  UNL     1     -33.468  16.937  -1.937  1.00 20.00     0.046 C 
HETATM    6  C6  UNL     1     -37.226  17.569  -4.803  1.00 20.00     0.033 C 
HETATM    7  N7  UNL     1     -33.988  16.170  -4.157  1.00 20.00    -0.272 NA
HETATM    8  S8  UNL     1     -34.822  17.807  -6.144  1.00 20.00    -0.100 SA
HETATM    9  S9  UNL     1     -35.217  18.571  -3.218  1.00 20.00    -0.127 SA
ENDROOT
TORSDOF 0
ENDMDL
MODEL 9
REMARK VINA RESULT:      -2.8     13.628     14.732
REMARK  0 active torsions:
REMARK  status: ('A' for Active; 'I' for Inactive)
ROOT
HETATM    1  C1  UNL     1     -35.132  17.770  -5.875  1.00 20.00     0.063 C 
HETATM    2  C2  UNL     1     -34.298  16.416  -4.125  1.00 20.00     0.167 C 
HETATM    3  C3  UNL     1     -34.836  15.181  -6.604  1.00 20.00     0.112 C 
HETATM    4  C4  UNL     1     -35.253  19.063  -6.628  1.00 20.00     0.078 C 
HETATM    5  C5  UNL     1     -33.202  16.558  -3.068  1.00 20.00     0.046 C 
HETATM    6  C6  UNL     1     -33.808  15.519  -7.682  1.00 20.00     0.033 C 
HETATM    7  N7  UNL     1     -34.334  17.680  -4.869  1.00 20.00    -0.272 NA
HETATM    8  S8  UNL     1     -36.119  16.462  -6.498  1.00 20.00    -0.100 SA
HETATM    9  S9  UNL     1     -33.993  14.848  -5.023  1.00 20.00    -0.127 SA
ENDROOT
TORSDOF 0
ENDMDL
