MODEL 1
REMARK VINA RESULT:      -3.5      0.000      0.000
REMARK  0 active torsions:
REMARK  status: ('A' for Active; 'I' for Inactive)
ROOT
HETATM    1  C1  UNL     1     -24.296  19.003   9.591  1.00 20.00     0.302 C 
HETATM    2  C2  UNL     1     -25.454  19.158  10.550  1.00 20.00     0.201 C 
HETATM    3  C3  UNL     1     -23.941  17.679  11.445  1.00 20.00     0.253 C 
HETATM    4  C4  UNL     1     -24.417  16.290  11.878  1.00 20.00     0.081 C 
HETATM    5  C5  UNL     1     -22.707  18.087  12.260  1.00 20.00     0.081 C 
HETATM    6  C6  UNL     1     -22.463  17.424   9.451  1.00 20.00     0.314 C 
HETATM    7  N7  UNL     1     -23.788  17.693   9.982  1.00 20.00     0.120 N 
HETATM    8  O8  UNL     1     -24.983  18.618  11.792  1.00 20.00    -0.351 OA
ENDROOT
TORSDOF 0
ENDMDL
MODEL 2
REMARK VINA RESULT:      -3.4      1.391      2.507
REMARK  0 active torsions:
REMARK  status: ('A' for Active; 'I' for Inactive)
ROOT
HETATM    1  C1  UNL     1     -24.602  18.883   9.479  1.00 20.00     0.302 C 
HETATM    2  C2  UNL     1     -23.199  18.490   9.075  1.00 20.00     0.201 C 
HETATM    3  C3  UNL     1     -23.592  17.746  11.212  1.00 20.00     0.253 C 
HETATM    4  C4  UNL     1     -22.623  18.137  12.332  1.00 20.00     0.081 C 
HETATM    5  C5  UNL     1     -24.280  16.418  11.556  1.00 20.00     0.081 C 
HETATM    6  C6  UNL     1     -25.767  18.904  11.604  1.00 20.00     0.314 C 
HETATM    7  N7  UNL     1     -24.479  18.885  10.932  1.00 20.00     0.120 N 
HETATM    8  O8  UNL     1     -22.802  17.496  10.028  1.00 20.00    -0.351 OA
ENDROOT
TORSDOF 0
ENDMDL
MODEL 3
REMARK VINA RESULT:      -3.3      1.716      3.183
REMARK  0 active torsions:
REMARK  status: ('A' for Active; 'I' for Inactive)
ROOT
HETATM    1  C1  UNL     1     -22.782  18.174  12.332  1.00 20.00     0.302 C 
HETATM    2  C2  UNL     1     -21.384  18.547  11.892  1.00 20.00     0.201 C 
HETATM    3  C3  UNL     1     -22.672  18.163  10.029  1.00 20.00     0.253 C 
HETATM    4  C4  UNL     1     -22.194  17.153   8.982  1.00 20.00     0.081 C 
HETATM    5  C5  UNL     1     -23.577  19.212   9.369  1.00 20.00     0.081 C 
HETATM    6  C6  UNL     1     -24.687  17.231  11.168  1.00 20.00     0.314 C 
HETATM    7  N7  UNL     1     -23.248  17.431  11.167  1.00 20.00     0.120 N 
HETATM    8  O8  UNL     1     -21.507  18.876  10.502  1.00 20.00    -0.351 OA
ENDROOT
TORSDOF 0
ENDMDL
MODEL 4
REMARK VINA RESULT:      -3.3     16.118     16.923
REMARK  0 active torsions:
REMARK  status: ('A' for Active; 'I' for Inactive)
ROOT
HETATM    1  C1  UNL     1     -32.724   6.848   3.238  1.00 20.00     0.302 C 
HETATM    2  C2  UNL     1     -32.742   5.366   2.938  1.00 20.00     0.201 C 
HETATM    3  C3  UNL     1     -34.291   5.811   4.575  1.00 20.00     0.253 C 
HETATM    4  C4  UNL     1     -34.232   5.036   5.894  1.00 20.00     0.081 C 
HETATM    5  C5  UNL     1     -35.728   6.277   4.305  1.00 20.00     0.081 C 
HETATM    6  C6  UNL     1     -33.672   8.187   5.022  1.00 20.00     0.314 C 
HETATM    7  N7  UNL     1     -33.261   6.861   4.594  1.00 20.00     0.120 N 
HETATM    8  O8  UNL     1     -33.962   4.885   3.516  1.00 20.00    -0.351 OA
ENDROOT
TORSDOF 0
ENDMDL
MODEL 5
REMARK VINA RESULT:      -3.2     15.803     16.547
REMARK  0 active torsions:
REMARK  status: ('A' for Active; 'I' for Inactive)
ROOT
HETATM    1  C1  UNL     1     -32.537   7.374   4.102  1.00 20.00     0.302 C 
HETATM    2  C2  UNL     1     -33.378   8.152   5.089  1.00 20.00     0.201 C 
HETATM    3  C3  UNL     1     -34.349   6.099   4.742  1.00 20.00     0.253 C 
HETATM    4  C4  UNL     1     -35.816   6.027   4.311  1.00 20.00     0.081 C 
HETATM    5  C5  UNL     1     -33.960   4.818   5.492  1.00 20.00     0.081 C 
HETATM    6  C6  UNL     1     -32.924   5.343   2.838  1.00 20.00     0.314 C 
HETATM    7  N7  UNL     1     -33.526   6.443   3.572  1.00 20.00     0.120 N 
HETATM    8  O8  UNL     1     -34.234   7.177   5.698  1.00 20.00    -0.351 OA
ENDROOT
TORSDOF 0
ENDMDL
MODEL 6
REMARK VINA RESULT:      -3.2     23.852     24.446
REMARK  0 active torsions:
REMARK  status: ('A' for Active; 'I' for Inactive)
ROOT
HETATM    1  C1  UNL     1     -43.042   7.001   1.643  1.00 20.00     0.302 C 
HETATM    2  C2  UNL     1     -43.178   5.539   2.004  1.00 20.00     0.201 C 
HETATM    3  C3  UNL     1     -42.201   5.705  -0.068  1.00 20.00     0.253 C 
HETATM    4  C4  UNL     1     -42.820   4.956  -1.252  1.00 20.00     0.081 C 
HETATM    5  C5  UNL     1     -40.698   5.906  -0.305  1.00 20.00     0.081 C 
HETATM    6  C6  UNL     1     -42.522   8.154  -0.423  1.00 20.00     0.314 C 
HETATM    7  N7  UNL     1     -42.987   6.922   0.188  1.00 20.00     0.120 N 
HETATM    8  O8  UNL     1     -42.316   4.849   1.090  1.00 20.00    -0.351 OA
ENDROOT
TORSDOF 0
ENDMDL
MODEL 7
REMARK VINA RESULT:      -3.2     15.841     16.641
REMARK  0 active torsions:
REMARK  status: ('A' for Active; 'I' for Inactive)
ROOT
HETATM    1  C1  UNL     1     -33.043   7.430   5.580  1.00 20.00     0.302 C 
HETATM    2  C2  UNL     1     -34.142   7.211   6.597  1.00 20.00     0.201 C 
HETATM    3  C3  UNL     1     -34.545   5.878   4.770  1.00 20.00     0.253 C 
HETATM    4  C4  UNL     1     -35.901   5.964   4.064  1.00 20.00     0.081 C 
HETATM    5  C5  UNL     1     -33.932   4.487   4.559  1.00 20.00     0.081 C 
HETATM    6  C6  UNL     1     -32.799   6.810   3.250  1.00 20.00     0.314 C 
HETATM    7  N7  UNL     1     -33.719   7.022   4.353  1.00 20.00     0.120 N 
HETATM    8  O8  UNL     1     -34.790   6.000   6.189  1.00 20.00    -0.351 OA
ENDROOT
TORSDOF 0
ENDMDL
MODEL 8
REMARK VINA RESULT:      -3.1     15.823     16.655
REMARK  0 active torsions:
REMARK  status: ('A' for Active; 'I' for Inactive)
ROOT
HETATM    1  C1  UNL     1     -32.844   7.770   4.509  1.00 20.00     0.302 C 
HETATM    2  C2  UNL     1     -32.474   7.046   3.234  1.00 20.00     0.201 C 
HETATM    3  C3  UNL     1     -34.092   5.839   4.331  1.00 20.00     0.253 C 
HETATM    4  C4  UNL     1     -33.838   4.364   4.653  1.00 20.00     0.081 C 
HETATM    5  C5  UNL     1     -35.600   6.096   4.206  1.00 20.00     0.081 C 
HETATM    6  C6  UNL     1     -34.114   7.125   6.470  1.00 20.00     0.314 C 
HETATM    7  N7  UNL     1     -33.370   6.669   5.308  1.00 20.00     0.120 N 
HETATM    8  O8  UNL     1     -33.529   6.098   3.026  1.00 20.00    -0.351 OA
ENDROOT
TORSDOF 0
ENDMDL
MODEL 9
REMARK VINA RESULT:      -3.0      1.904      3.128
REMARK  0 active torsions:
REMARK  status: ('A' for Active; 'I' for Inactive)
ROOT
HETATM    1  C1  UNL     1     -24.754  18.614   9.621  1.00 20.00     0.302 C 
HETATM    2  C2  UNL     1     -24.507  19.262   8.277  1.00 20.00     0.201 C 
HETATM    3  C3  UNL     1     -22.538  18.356   9.038  1.00 20.00     0.253 C 
HETATM    4  C4  UNL     1     -21.293  19.243   9.134  1.00 20.00     0.081 C 
HETATM    5  C5  UNL     1     -22.124  16.892   8.842  1.00 20.00     0.081 C 
HETATM    6  C6  UNL     1     -23.277  17.774  11.348  1.00 20.00     0.314 C 
HETATM    7  N7  UNL     1     -23.410  18.637  10.188  1.00 20.00     0.120 N 
HETATM    8  O8  UNL     1     -23.247  18.739   7.838  1.00 20.00    -0.351 OA
ENDROOT
TORSDOF 0
ENDMDL
