MODEL 1
REMARK VINA RESULT:      -4.8      0.000      0.000
REMARK  1 active torsions:
REMARK  status: ('A' for Active; 'I' for Inactive)
REMARK    1  A    between atoms: C8_8  and  N9_9 
ROOT
HETATM    1  C1  UNL     1     -32.895   9.472   1.505  1.00 20.00     0.013 C 
HETATM    2  C2  UNL     1     -32.578   8.613   2.281  1.00 20.00    -0.087 C 
HETATM    3  C8  UNL     1     -32.186   7.565   3.226  1.00 20.00     0.364 C 
ENDROOT
BRANCH   3   4
HETATM    4  N9  UNL     1     -33.323   7.165   4.055  1.00 20.00     0.099 N 
HETATM    5  C6  UNL     1     -33.079   7.505   5.463  1.00 20.00     0.273 C 
HETATM    6  C4  UNL     1     -34.280   7.137   6.336  1.00 20.00     0.030 C 
HETATM    7  C3  UNL     1     -34.644   5.664   6.188  1.00 20.00     0.003 C 
HETATM    8  C5  UNL     1     -34.813   5.303   4.716  1.00 20.00     0.030 C 
HETATM    9  C7  UNL     1     -33.595   5.729   3.894  1.00 20.00     0.273 C 
ENDBRANCH   3   4
TORSDOF 1
ENDMDL
MODEL 2
REMARK VINA RESULT:      -4.3      0.833      1.846
REMARK  1 active torsions:
REMARK  status: ('A' for Active; 'I' for Inactive)
REMARK    1  A    between atoms: C8_8  and  N9_9 
ROOT
HETATM    1  C1  UNL     1     -32.597   9.012   2.051  1.00 20.00     0.013 C 
HETATM    2  C2  UNL     1     -32.549   8.807   3.233  1.00 20.00    -0.087 C 
HETATM    3  C8  UNL     1     -32.488   8.563   4.675  1.00 20.00     0.364 C 
ENDROOT
BRANCH   3   4
HETATM    4  N9  UNL     1     -32.977   7.222   4.994  1.00 20.00     0.099 N 
HETATM    5  C6  UNL     1     -33.548   6.585   3.799  1.00 20.00     0.273 C 
HETATM    6  C4  UNL     1     -34.019   5.162   4.103  1.00 20.00     0.030 C 
HETATM    7  C3  UNL     1     -35.014   5.142   5.258  1.00 20.00     0.003 C 
HETATM    8  C5  UNL     1     -34.444   5.879   6.465  1.00 20.00     0.030 C 
HETATM    9  C7  UNL     1     -33.959   7.279   6.086  1.00 20.00     0.273 C 
ENDBRANCH   3   4
TORSDOF 1
ENDMDL
MODEL 3
REMARK VINA RESULT:      -3.9      1.035      1.959
REMARK  1 active torsions:
REMARK  status: ('A' for Active; 'I' for Inactive)
REMARK    1  A    between atoms: C8_8  and  N9_9 
ROOT
HETATM    1  C1  UNL     1     -32.058   8.190   1.779  1.00 20.00     0.013 C 
HETATM    2  C2  UNL     1     -32.464   7.132   2.175  1.00 20.00    -0.087 C 
HETATM    3  C8  UNL     1     -32.957   5.839   2.653  1.00 20.00     0.364 C 
ENDROOT
BRANCH   3   4
HETATM    4  N9  UNL     1     -33.195   5.878   4.096  1.00 20.00     0.099 N 
HETATM    5  C6  UNL     1     -34.326   5.012   4.455  1.00 20.00     0.273 C 
HETATM    6  C4  UNL     1     -34.556   5.003   5.967  1.00 20.00     0.030 C 
HETATM    7  C3  UNL     1     -34.760   6.414   6.506  1.00 20.00     0.003 C 
HETATM    8  C5  UNL     1     -33.623   7.325   6.057  1.00 20.00     0.030 C 
HETATM    9  C7  UNL     1     -33.421   7.260   4.543  1.00 20.00     0.273 C 
ENDBRANCH   3   4
TORSDOF 1
ENDMDL
MODEL 4
REMARK VINA RESULT:      -3.7     15.318     15.852
REMARK  1 active torsions:
REMARK  status: ('A' for Active; 'I' for Inactive)
REMARK    1  A    between atoms: C8_8  and  N9_9 
ROOT
HETATM    1  C1  UNL     1     -21.631  17.974   7.882  1.00 20.00     0.013 C 
HETATM    2  C2  UNL     1     -22.584  18.507   8.383  1.00 20.00    -0.087 C 
HETATM    3  C8  UNL     1     -23.747  19.160   8.987  1.00 20.00     0.364 C 
ENDROOT
BRANCH   3   4
HETATM    4  N9  UNL     1     -23.996  18.632  10.329  1.00 20.00     0.099 N 
HETATM    5  C6  UNL     1     -23.919  17.165  10.328  1.00 20.00     0.273 C 
HETATM    6  C4  UNL     1     -24.128  16.600  11.734  1.00 20.00     0.030 C 
HETATM    7  C3  UNL     1     -25.447  17.075  12.332  1.00 20.00     0.003 C 
HETATM    8  C5  UNL     1     -25.552  18.594  12.252  1.00 20.00     0.030 C 
HETATM    9  C7  UNL     1     -25.297  19.096  10.830  1.00 20.00     0.273 C 
ENDBRANCH   3   4
TORSDOF 1
ENDMDL
MODEL 5
REMARK VINA RESULT:      -3.7     11.617     12.294
REMARK  1 active torsions:
REMARK  status: ('A' for Active; 'I' for Inactive)
REMARK    1  A    between atoms: C8_8  and  N9_9 
ROOT
HETATM    1  C1  UNL     1     -33.598  15.413  -3.718  1.00 20.00     0.013 C 
HETATM    2  C2  UNL     1     -33.336  16.509  -3.305  1.00 20.00    -0.087 C 
HETATM    3  C8  UNL     1     -33.018  17.848  -2.807  1.00 20.00     0.364 C 
ENDROOT
BRANCH   3   4
HETATM    4  N9  UNL     1     -32.894  17.842  -1.349  1.00 20.00     0.099 N 
HETATM    5  C6  UNL     1     -34.107  18.388  -0.726  1.00 20.00     0.273 C 
HETATM    6  C4  UNL     1     -34.013  18.342   0.799  1.00 20.00     0.030 C 
HETATM    7  C3  UNL     1     -32.771  19.069   1.301  1.00 20.00     0.003 C 
HETATM    8  C5  UNL     1     -31.527  18.551   0.588  1.00 20.00     0.030 C 
HETATM    9  C7  UNL     1     -31.699  18.589  -0.932  1.00 20.00     0.273 C 
ENDBRANCH   3   4
TORSDOF 1
ENDMDL
MODEL 6
REMARK VINA RESULT:      -3.6     11.871     13.202
REMARK  1 active torsions:
REMARK  status: ('A' for Active; 'I' for Inactive)
REMARK    1  A    between atoms: C8_8  and  N9_9 
ROOT
HETATM    1  C1  UNL     1     -33.491  17.290  -1.488  1.00 20.00     0.013 C 
HETATM    2  C2  UNL     1     -33.360  16.647  -2.493  1.00 20.00    -0.087 C 
HETATM    3  C8  UNL     1     -33.195  15.861  -3.717  1.00 20.00     0.364 C 
ENDROOT
BRANCH   3   4
HETATM    4  N9  UNL     1     -34.448  15.807  -4.469  1.00 20.00     0.099 N 
HETATM    5  C6  UNL     1     -34.304  14.941  -5.648  1.00 20.00     0.273 C 
HETATM    6  C4  UNL     1     -35.621  14.834  -6.419  1.00 20.00     0.030 C 
HETATM    7  C3  UNL     1     -36.145  16.210  -6.816  1.00 20.00     0.003 C 
HETATM    8  C5  UNL     1     -36.211  17.126  -5.599  1.00 20.00     0.030 C 
HETATM    9  C7  UNL     1     -34.876  17.160  -4.853  1.00 20.00     0.273 C 
ENDBRANCH   3   4
TORSDOF 1
ENDMDL
MODEL 7
REMARK VINA RESULT:      -3.6      1.339      4.225
REMARK  1 active torsions:
REMARK  status: ('A' for Active; 'I' for Inactive)
REMARK    1  A    between atoms: C8_8  and  N9_9 
ROOT
HETATM    1  C1  UNL     1     -34.413   4.980   6.845  1.00 20.00     0.013 C 
HETATM    2  C2  UNL     1     -34.780   5.465   5.810  1.00 20.00    -0.087 C 
HETATM    3  C8  UNL     1     -35.235   6.054   4.549  1.00 20.00     0.364 C 
ENDROOT
BRANCH   3   4
HETATM    4  N9  UNL     1     -34.219   6.955   4.004  1.00 20.00     0.099 N 
HETATM    5  C6  UNL     1     -33.172   6.192   3.311  1.00 20.00     0.273 C 
HETATM    6  C4  UNL     1     -32.128   7.122   2.692  1.00 20.00     0.030 C 
HETATM    7  C3  UNL     1     -31.521   8.049   3.739  1.00 20.00     0.003 C 
HETATM    8  C5  UNL     1     -32.619   8.774   4.510  1.00 20.00     0.030 C 
HETATM    9  C7  UNL     1     -33.649   7.791   5.070  1.00 20.00     0.273 C 
ENDBRANCH   3   4
TORSDOF 1
ENDMDL
MODEL 8
REMARK VINA RESULT:      -3.6     15.495     16.356
REMARK  1 active torsions:
REMARK  status: ('A' for Active; 'I' for Inactive)
REMARK    1  A    between atoms: C8_8  and  N9_9 
ROOT
HETATM    1  C1  UNL     1     -21.293  17.364   7.509  1.00 20.00     0.013 C 
HETATM    2  C2  UNL     1     -21.969  18.218   8.015  1.00 20.00    -0.087 C 
HETATM    3  C8  UNL     1     -22.794  19.263   8.625  1.00 20.00     0.364 C 
ENDROOT
BRANCH   3   4
HETATM    4  N9  UNL     1     -23.249  18.851   9.953  1.00 20.00     0.099 N 
HETATM    5  C6  UNL     1     -22.102  18.557  10.822  1.00 20.00     0.273 C 
HETATM    6  C4  UNL     1     -22.560  18.173  12.230  1.00 20.00     0.030 C 
HETATM    7  C3  UNL     1     -23.531  16.998  12.197  1.00 20.00     0.003 C 
HETATM    8  C5  UNL     1     -24.674  17.281  11.228  1.00 20.00     0.030 C 
HETATM    9  C7  UNL     1     -24.150  17.694   9.852  1.00 20.00     0.273 C 
ENDBRANCH   3   4
TORSDOF 1
ENDMDL
MODEL 9
REMARK VINA RESULT:      -3.5      1.069      4.287
REMARK  1 active torsions:
REMARK  status: ('A' for Active; 'I' for Inactive)
REMARK    1  A    between atoms: C8_8  and  N9_9 
ROOT
HETATM    1  C1  UNL     1     -34.779   5.026   6.624  1.00 20.00     0.013 C 
HETATM    2  C2  UNL     1     -34.357   6.119   6.360  1.00 20.00    -0.087 C 
HETATM    3  C8  UNL     1     -33.843   7.453   6.044  1.00 20.00     0.364 C 
ENDROOT
BRANCH   3   4
HETATM    4  N9  UNL     1     -33.603   7.588   4.607  1.00 20.00     0.099 N 
HETATM    5  C6  UNL     1     -33.147   6.312   4.039  1.00 20.00     0.273 C 
HETATM    6  C4  UNL     1     -32.940   6.423   2.528  1.00 20.00     0.030 C 
HETATM    7  C3  UNL     1     -31.972   7.548   2.182  1.00 20.00     0.003 C 
HETATM    8  C5  UNL     1     -32.410   8.850   2.845  1.00 20.00     0.030 C 
HETATM    9  C7  UNL     1     -32.635   8.662   4.347  1.00 20.00     0.273 C 
ENDBRANCH   3   4
TORSDOF 1
ENDMDL
