MODEL 1
REMARK VINA RESULT:      -4.1      0.000      0.000
REMARK  2 active torsions:
REMARK  status: ('A' for Active; 'I' for Inactive)
REMARK    1  A    between atoms: C8_8  and  C9_9 
REMARK    2  A    between atoms: C9_9  and  N11_11 
ROOT
HETATM    1  C1  UNL     1     -31.022  18.730   1.716  1.00 20.00     0.064 C 
HETATM    2  C2  UNL     1     -33.306  18.378   0.849  1.00 20.00     0.047 C 
HETATM    3  C3  UNL     1     -31.371  18.751  -0.728  1.00 20.00     0.047 C 
HETATM    4  C4  UNL     1     -34.278  18.663  -0.289  1.00 20.00     0.236 C 
HETATM    5  C5  UNL     1     -32.354  19.034  -1.856  1.00 20.00     0.236 C 
HETATM    6  C6  UNL     1     -31.965  19.089   0.644  1.00 20.00     0.096 C 
HETATM    7  N10 UNL     1     -30.279  18.447   2.561  1.00 20.00    -0.197 NA
HETATM    8  N11 UNL     1     -33.663  18.320  -1.623  1.00 20.00    -0.071 N 
HETATM    9  H28 UNL     1     -34.331  18.711  -2.350  1.00 20.00     0.279 HD
ENDROOT
BRANCH   8  10
HETATM   10  C9  UNL     1     -33.604  16.842  -1.901  1.00 20.00     0.234 C 
BRANCH  10  11
HETATM   11  C8  UNL     1     -33.214  16.626  -3.355  1.00 20.00     0.023 C 
HETATM   12  C7  UNL     1     -33.642  15.250  -3.840  1.00 20.00     0.007 C 
ENDBRANCH  10  11
ENDBRANCH   8  10
TORSDOF 2
ENDMDL
MODEL 2
REMARK VINA RESULT:      -3.9      3.578      6.756
REMARK  2 active torsions:
REMARK  status: ('A' for Active; 'I' for Inactive)
REMARK    1  A    between atoms: C8_8  and  C9_9 
REMARK    2  A    between atoms: C9_9  and  N11_11 
ROOT
HETATM    1  C1  UNL     1     -37.890  16.060  -5.408  1.00 20.00     0.064 C 
HETATM    2  C2  UNL     1     -35.693  14.938  -5.508  1.00 20.00     0.047 C 
HETATM    3  C3  UNL     1     -35.870  17.376  -4.876  1.00 20.00     0.047 C 
HETATM    4  C4  UNL     1     -34.199  15.116  -5.746  1.00 20.00     0.236 C 
HETATM    5  C5  UNL     1     -34.375  17.538  -5.118  1.00 20.00     0.236 C 
HETATM    6  C6  UNL     1     -36.464  16.245  -5.723  1.00 20.00     0.096 C 
HETATM    7  N10 UNL     1     -39.014  15.915  -5.160  1.00 20.00    -0.197 NA
HETATM    8  N11 UNL     1     -33.647  16.235  -4.898  1.00 20.00    -0.071 N 
HETATM    9  H28 UNL     1     -32.661  16.399  -5.255  1.00 20.00     0.279 HD
ENDROOT
BRANCH   8  10
HETATM   10  C9  UNL     1     -33.482  15.872  -3.447  1.00 20.00     0.234 C 
BRANCH  10  11
HETATM   11  C8  UNL     1     -32.962  17.083  -2.688  1.00 20.00     0.023 C 
HETATM   12  C7  UNL     1     -33.716  17.278  -1.383  1.00 20.00     0.007 C 
ENDBRANCH  10  11
ENDBRANCH   8  10
TORSDOF 2
ENDMDL
MODEL 3
REMARK VINA RESULT:      -3.8     13.910     14.915
REMARK  2 active torsions:
REMARK  status: ('A' for Active; 'I' for Inactive)
REMARK    1  A    between atoms: C8_8  and  C9_9 
REMARK    2  A    between atoms: C9_9  and  N11_11 
ROOT
HETATM    1  C1  UNL     1     -25.997  18.679  12.120  1.00 20.00     0.064 C 
HETATM    2  C2  UNL     1     -23.548  18.896  12.332  1.00 20.00     0.047 C 
HETATM    3  C3  UNL     1     -24.570  17.684  10.368  1.00 20.00     0.047 C 
HETATM    4  C4  UNL     1     -22.196  18.276  12.000  1.00 20.00     0.236 C 
HETATM    5  C5  UNL     1     -23.213  17.072  10.049  1.00 20.00     0.236 C 
HETATM    6  C6  UNL     1     -24.709  18.016  11.857  1.00 20.00     0.096 C 
HETATM    7  N10 UNL     1     -27.013  19.200  12.326  1.00 20.00    -0.197 NA
HETATM    8  N11 UNL     1     -22.093  17.962  10.528  1.00 20.00    -0.071 N 
HETATM    9  H28 UNL     1     -21.208  17.384  10.425  1.00 20.00     0.279 HD
ENDROOT
BRANCH   8  10
HETATM   10  C9  UNL     1     -21.869  19.174   9.664  1.00 20.00     0.234 C 
BRANCH  10  11
HETATM   11  C8  UNL     1     -22.401  18.893   8.267  1.00 20.00     0.023 C 
HETATM   12  C7  UNL     1     -21.293  18.414   7.344  1.00 20.00     0.007 C 
ENDBRANCH  10  11
ENDBRANCH   8  10
TORSDOF 2
ENDMDL
MODEL 4
REMARK VINA RESULT:      -3.7      2.184      3.563
REMARK  2 active torsions:
REMARK  status: ('A' for Active; 'I' for Inactive)
REMARK    1  A    between atoms: C8_8  and  C9_9 
REMARK    2  A    between atoms: C9_9  and  N11_11 
ROOT
HETATM    1  C1  UNL     1     -33.625  18.018  -0.490  1.00 20.00     0.064 C 
HETATM    2  C2  UNL     1     -33.772  18.849  -2.809  1.00 20.00     0.047 C 
HETATM    3  C3  UNL     1     -33.521  16.383  -2.337  1.00 20.00     0.047 C 
HETATM    4  C4  UNL     1     -33.384  18.602  -4.262  1.00 20.00     0.236 C 
HETATM    5  C5  UNL     1     -33.134  16.151  -3.791  1.00 20.00     0.236 C 
HETATM    6  C6  UNL     1     -33.166  17.799  -1.872  1.00 20.00     0.096 C 
HETATM    7  N10 UNL     1     -33.985  18.190   0.599  1.00 20.00    -0.197 NA
HETATM    8  N11 UNL     1     -33.745  17.201  -4.686  1.00 20.00    -0.071 N 
HETATM    9  H28 UNL     1     -33.286  17.066  -5.634  1.00 20.00     0.279 HD
ENDROOT
BRANCH   8  10
HETATM   10  C9  UNL     1     -35.217  17.003  -4.934  1.00 20.00     0.234 C 
BRANCH  10  11
HETATM   11  C8  UNL     1     -35.401  16.168  -6.191  1.00 20.00     0.023 C 
HETATM   12  C7  UNL     1     -35.824  14.748  -5.850  1.00 20.00     0.007 C 
ENDBRANCH  10  11
ENDBRANCH   8  10
TORSDOF 2
ENDMDL
MODEL 5
REMARK VINA RESULT:      -3.7      2.521      6.018
REMARK  2 active torsions:
REMARK  status: ('A' for Active; 'I' for Inactive)
REMARK    1  A    between atoms: C8_8  and  C9_9 
REMARK    2  A    between atoms: C9_9  and  N11_11 
ROOT
HETATM    1  C1  UNL     1     -36.218  15.872  -5.612  1.00 20.00     0.064 C 
HETATM    2  C2  UNL     1     -34.223  15.273  -4.288  1.00 20.00     0.047 C 
HETATM    3  C3  UNL     1     -34.986  17.673  -4.456  1.00 20.00     0.047 C 
HETATM    4  C4  UNL     1     -32.876  15.747  -3.757  1.00 20.00     0.236 C 
HETATM    5  C5  UNL     1     -33.635  18.132  -3.925  1.00 20.00     0.236 C 
HETATM    6  C6  UNL     1     -34.885  16.326  -5.182  1.00 20.00     0.096 C 
HETATM    7  N10 UNL     1     -37.268  15.514  -5.952  1.00 20.00    -0.197 NA
HETATM    8  N11 UNL     1     -33.011  17.073  -3.051  1.00 20.00    -0.071 N 
HETATM    9  H28 UNL     1     -32.017  17.402  -2.875  1.00 20.00     0.279 HD
ENDROOT
BRANCH   8  10
HETATM   10  C9  UNL     1     -33.634  16.971  -1.684  1.00 20.00     0.234 C 
BRANCH  10  11
HETATM   11  C8  UNL     1     -33.240  18.191  -0.866  1.00 20.00     0.023 C 
HETATM   12  C7  UNL     1     -31.729  18.318  -0.762  1.00 20.00     0.007 C 
ENDBRANCH  10  11
ENDBRANCH   8  10
TORSDOF 2
ENDMDL
MODEL 6
REMARK VINA RESULT:      -3.6      2.932      5.146
REMARK  2 active torsions:
REMARK  status: ('A' for Active; 'I' for Inactive)
REMARK    1  A    between atoms: C8_8  and  C9_9 
REMARK    2  A    between atoms: C9_9  and  N11_11 
ROOT
HETATM    1  C1  UNL     1     -33.474  17.080  -2.121  1.00 20.00     0.064 C 
HETATM    2  C2  UNL     1     -34.417  17.501  -4.362  1.00 20.00     0.047 C 
HETATM    3  C3  UNL     1     -33.667  15.186  -3.692  1.00 20.00     0.047 C 
HETATM    4  C4  UNL     1     -34.438  17.063  -5.822  1.00 20.00     0.236 C 
HETATM    5  C5  UNL     1     -33.692  14.763  -5.155  1.00 20.00     0.236 C 
HETATM    6  C6  UNL     1     -33.412  16.689  -3.539  1.00 20.00     0.096 C 
HETATM    7  N10 UNL     1     -33.522  17.388  -1.003  1.00 20.00    -0.197 NA
HETATM    8  N11 UNL     1     -34.690  15.581  -5.937  1.00 20.00    -0.071 N 
HETATM    9  H28 UNL     1     -34.513  15.343  -6.956  1.00 20.00     0.279 HD
ENDROOT
BRANCH   8  10
HETATM   10  C9  UNL     1     -36.122  15.189  -5.688  1.00 20.00     0.234 C 
BRANCH  10  11
HETATM   11  C8  UNL     1     -37.037  16.249  -6.279  1.00 20.00     0.023 C 
HETATM   12  C7  UNL     1     -38.126  16.647  -5.295  1.00 20.00     0.007 C 
ENDBRANCH  10  11
ENDBRANCH   8  10
TORSDOF 2
ENDMDL
MODEL 7
REMARK VINA RESULT:      -3.6     11.962     12.917
REMARK  2 active torsions:
REMARK  status: ('A' for Active; 'I' for Inactive)
REMARK    1  A    between atoms: C8_8  and  C9_9 
REMARK    2  A    between atoms: C9_9  and  N11_11 
ROOT
HETATM    1  C1  UNL     1     -42.314  13.777  10.139  1.00 20.00     0.064 C 
HETATM    2  C2  UNL     1     -42.859  13.049   7.845  1.00 20.00     0.047 C 
HETATM    3  C3  UNL     1     -40.663  14.185   8.350  1.00 20.00     0.047 C 
HETATM    4  C4  UNL     1     -42.639  13.301   6.358  1.00 20.00     0.236 C 
HETATM    5  C5  UNL     1     -40.456  14.430   6.862  1.00 20.00     0.236 C 
HETATM    6  C6  UNL     1     -42.149  14.094   8.711  1.00 20.00     0.096 C 
HETATM    7  N10 UNL     1     -42.444  13.528  11.265  1.00 20.00    -0.197 NA
HETATM    8  N11 UNL     1     -41.167  13.385   6.038  1.00 20.00    -0.071 N 
HETATM    9  H28 UNL     1     -41.116  13.733   5.036  1.00 20.00     0.279 HD
ENDROOT
BRANCH   8  10
HETATM   10  C9  UNL     1     -40.473  12.050   6.024  1.00 20.00     0.234 C 
BRANCH  10  11
HETATM   11  C8  UNL     1     -39.072  12.225   5.460  1.00 20.00     0.023 C 
HETATM   12  C7  UNL     1     -38.987  11.716   4.030  1.00 20.00     0.007 C 
ENDBRANCH  10  11
ENDBRANCH   8  10
TORSDOF 2
ENDMDL
MODEL 8
REMARK VINA RESULT:      -3.5     10.767     11.769
REMARK  2 active torsions:
REMARK  status: ('A' for Active; 'I' for Inactive)
REMARK    1  A    between atoms: C8_8  and  C9_9 
REMARK    2  A    between atoms: C9_9  and  N11_11 
ROOT
HETATM    1  C1  UNL     1     -40.766  17.723   7.213  1.00 20.00     0.064 C 
HETATM    2  C2  UNL     1     -40.297  15.339   7.650  1.00 20.00     0.047 C 
HETATM    3  C3  UNL     1     -42.233  16.025   6.182  1.00 20.00     0.047 C 
HETATM    4  C4  UNL     1     -40.891  13.940   7.764  1.00 20.00     0.236 C 
HETATM    5  C5  UNL     1     -42.813  14.623   6.305  1.00 20.00     0.236 C 
HETATM    6  C6  UNL     1     -41.377  16.396   7.398  1.00 20.00     0.096 C 
HETATM    7  N10 UNL     1     -40.284  18.768   7.067  1.00 20.00    -0.197 NA
HETATM    8  N11 UNL     1     -41.725  13.608   6.553  1.00 20.00    -0.071 N 
HETATM    9  H28 UNL     1     -42.231  12.707   6.797  1.00 20.00     0.279 HD
ENDROOT
BRANCH   8  10
HETATM   10  C9  UNL     1     -40.913  13.280   5.329  1.00 20.00     0.234 C 
BRANCH  10  11
HETATM   11  C8  UNL     1     -40.024  12.083   5.629  1.00 20.00     0.023 C 
HETATM   12  C7  UNL     1     -39.174  11.715   4.424  1.00 20.00     0.007 C 
ENDBRANCH  10  11
ENDBRANCH   8  10
TORSDOF 2
ENDMDL
MODEL 9
REMARK VINA RESULT:      -3.5      2.304      3.142
REMARK  2 active torsions:
REMARK  status: ('A' for Active; 'I' for Inactive)
REMARK    1  A    between atoms: C8_8  and  C9_9 
REMARK    2  A    between atoms: C9_9  and  N11_11 
ROOT
HETATM    1  C1  UNL     1     -31.802  18.458  -0.799  1.00 20.00     0.064 C 
HETATM    2  C2  UNL     1     -32.754  16.934  -2.491  1.00 20.00     0.047 C 
HETATM    3  C3  UNL     1     -33.967  19.046  -1.830  1.00 20.00     0.047 C 
HETATM    4  C4  UNL     1     -34.030  16.413  -3.140  1.00 20.00     0.236 C 
HETATM    5  C5  UNL     1     -35.235  18.513  -2.483  1.00 20.00     0.236 C 
HETATM    6  C6  UNL     1     -33.053  17.913  -1.351  1.00 20.00     0.096 C 
HETATM    7  N10 UNL     1     -30.817  18.888  -0.363  1.00 20.00    -0.197 NA
HETATM    8  N11 UNL     1     -34.905  17.553  -3.599  1.00 20.00    -0.071 N 
HETATM    9  H28 UNL     1     -35.830  17.107  -3.870  1.00 20.00     0.279 HD
ENDROOT
BRANCH   8  10
HETATM   10  C9  UNL     1     -34.415  18.227  -4.852  1.00 20.00     0.234 C 
BRANCH  10  11
HETATM   11  C8  UNL     1     -34.790  17.374  -6.054  1.00 20.00     0.023 C 
HETATM   12  C7  UNL     1     -36.258  16.980  -6.013  1.00 20.00     0.007 C 
ENDBRANCH  10  11
ENDBRANCH   8  10
TORSDOF 2
ENDMDL
