MODEL 1
REMARK VINA RESULT:      -4.1      0.000      0.000
REMARK  1 active torsions:
REMARK  status: ('A' for Active; 'I' for Inactive)
REMARK    1  A    between atoms: C9_9  and  N11_11 
ROOT
HETATM    1  C1  UNL     1     -41.919  12.402   6.798  1.00 20.00     0.102 C 
HETATM    2  C2  UNL     1     -39.632  11.701   4.930  1.00 20.00     0.007 C 
HETATM    3  C5  UNL     1     -39.408  12.112   6.402  1.00 20.00     0.058 C 
HETATM    4  C6  UNL     1     -40.484  12.979   4.764  1.00 20.00     0.058 C 
HETATM    5  C9  UNL     1     -40.692  12.964   6.295  1.00 20.00     0.246 C 
HETATM    6  N10 UNL     1     -42.907  11.949   7.202  1.00 20.00    -0.194 NA
ENDROOT
BRANCH   5   7
HETATM    7  N11 UNL     1     -40.435  14.305   6.834  1.00 20.00     0.112 N 
HETATM    8  C7  UNL     1     -41.585  15.183   6.612  1.00 20.00     0.275 C 
HETATM    9  C3  UNL     1     -41.344  16.315   7.600  1.00 20.00     0.032 C 
HETATM   10  C4  UNL     1     -40.479  15.709   8.699  1.00 20.00     0.032 C 
HETATM   11  C8  UNL     1     -40.272  14.258   8.287  1.00 20.00     0.275 C 
ENDBRANCH   5   7
TORSDOF 1
ENDMDL
MODEL 2
REMARK VINA RESULT:      -3.6     12.438     13.740
REMARK  1 active torsions:
REMARK  status: ('A' for Active; 'I' for Inactive)
REMARK    1  A    between atoms: C9_9  and  N11_11 
ROOT
HETATM    1  C1  UNL     1     -35.981  15.566  -5.558  1.00 20.00     0.102 C 
HETATM    2  C2  UNL     1     -34.081  15.757  -7.918  1.00 20.00     0.007 C 
HETATM    3  C5  UNL     1     -33.668  15.137  -6.564  1.00 20.00     0.058 C 
HETATM    4  C6  UNL     1     -34.568  16.997  -7.135  1.00 20.00     0.058 C 
HETATM    5  C9  UNL     1     -34.680  16.089  -5.889  1.00 20.00     0.246 C 
HETATM    6  N10 UNL     1     -37.029  15.145  -5.292  1.00 20.00    -0.194 NA
ENDROOT
BRANCH   5   7
HETATM    7  N11 UNL     1     -34.042  16.752  -4.746  1.00 20.00     0.112 N 
HETATM    8  C7  UNL     1     -34.979  17.658  -4.080  1.00 20.00     0.275 C 
HETATM    9  C3  UNL     1     -34.335  17.874  -2.719  1.00 20.00     0.032 C 
HETATM   10  C4  UNL     1     -33.472  16.639  -2.484  1.00 20.00     0.032 C 
HETATM   11  C8  UNL     1     -33.671  15.774  -3.722  1.00 20.00     0.275 C 
ENDBRANCH   5   7
TORSDOF 1
ENDMDL
MODEL 3
REMARK VINA RESULT:      -3.6      0.787      3.759
REMARK  1 active torsions:
REMARK  status: ('A' for Active; 'I' for Inactive)
REMARK    1  A    between atoms: C9_9  and  N11_11 
ROOT
HETATM    1  C1  UNL     1     -42.131  12.885   7.319  1.00 20.00     0.102 C 
HETATM    2  C2  UNL     1     -41.476  15.694   8.264  1.00 20.00     0.007 C 
HETATM    3  C5  UNL     1     -41.650  15.338   6.771  1.00 20.00     0.058 C 
HETATM    4  C6  UNL     1     -40.473  14.523   8.366  1.00 20.00     0.058 C 
HETATM    5  C9  UNL     1     -41.148  13.918   7.114  1.00 20.00     0.246 C 
HETATM    6  N10 UNL     1     -42.923  12.053   7.484  1.00 20.00    -0.194 NA
ENDROOT
BRANCH   5   7
HETATM    7  N11 UNL     1     -40.115  13.518   6.151  1.00 20.00     0.112 N 
HETATM    8  C7  UNL     1     -39.338  12.388   6.662  1.00 20.00     0.275 C 
HETATM    9  C3  UNL     1     -38.677  11.835   5.408  1.00 20.00     0.032 C 
HETATM   10  C4  UNL     1     -39.586  12.258   4.258  1.00 20.00     0.032 C 
HETATM   11  C8  UNL     1     -40.724  13.028   4.913  1.00 20.00     0.275 C 
ENDBRANCH   5   7
TORSDOF 1
ENDMDL
MODEL 4
REMARK VINA RESULT:      -3.4     12.874     13.999
REMARK  1 active torsions:
REMARK  status: ('A' for Active; 'I' for Inactive)
REMARK    1  A    between atoms: C9_9  and  N11_11 
ROOT
HETATM    1  C1  UNL     1     -34.142  15.247  -6.566  1.00 20.00     0.102 C 
HETATM    2  C2  UNL     1     -35.845  13.577  -4.690  1.00 20.00     0.007 C 
HETATM    3  C5  UNL     1     -36.329  14.920  -5.281  1.00 20.00     0.058 C 
HETATM    4  C6  UNL     1     -34.565  14.309  -4.227  1.00 20.00     0.058 C 
HETATM    5  C9  UNL     1     -34.851  15.366  -5.318  1.00 20.00     0.246 C 
HETATM    6  N10 UNL     1     -33.570  15.151  -7.571  1.00 20.00    -0.194 NA
ENDROOT
BRANCH   5   7
HETATM    7  N11 UNL     1     -34.730  16.709  -4.737  1.00 20.00     0.112 N 
HETATM    8  C7  UNL     1     -33.471  16.847  -4.004  1.00 20.00     0.275 C 
HETATM    9  C3  UNL     1     -33.308  18.355  -3.889  1.00 20.00     0.032 C 
HETATM   10  C4  UNL     1     -34.096  18.933  -5.060  1.00 20.00     0.032 C 
HETATM   11  C8  UNL     1     -34.667  17.724  -5.790  1.00 20.00     0.275 C 
ENDBRANCH   5   7
TORSDOF 1
ENDMDL
MODEL 5
REMARK VINA RESULT:      -3.3     12.978     14.172
REMARK  1 active torsions:
REMARK  status: ('A' for Active; 'I' for Inactive)
REMARK    1  A    between atoms: C9_9  and  N11_11 
ROOT
HETATM    1  C1  UNL     1     -36.767  16.039  -5.717  1.00 20.00     0.102 C 
HETATM    2  C2  UNL     1     -35.986  17.989  -7.908  1.00 20.00     0.007 C 
HETATM    3  C5  UNL     1     -35.339  16.593  -7.766  1.00 20.00     0.058 C 
HETATM    4  C6  UNL     1     -35.653  18.230  -6.418  1.00 20.00     0.058 C 
HETATM    5  C9  UNL     1     -35.599  16.695  -6.247  1.00 20.00     0.246 C 
HETATM    6  N10 UNL     1     -37.708  15.512  -5.290  1.00 20.00    -0.194 NA
ENDROOT
BRANCH   5   7
HETATM    7  N11 UNL     1     -34.379  16.330  -5.516  1.00 20.00     0.112 N 
HETATM    8  C7  UNL     1     -34.377  16.924  -4.179  1.00 20.00     0.275 C 
HETATM    9  C3  UNL     1     -33.336  16.097  -3.440  1.00 20.00     0.032 C 
HETATM   10  C4  UNL     1     -33.299  14.758  -4.170  1.00 20.00     0.032 C 
HETATM   11  C8  UNL     1     -34.325  14.885  -5.287  1.00 20.00     0.275 C 
ENDBRANCH   5   7
TORSDOF 1
ENDMDL
MODEL 6
REMARK VINA RESULT:      -3.3     12.099     13.623
REMARK  1 active torsions:
REMARK  status: ('A' for Active; 'I' for Inactive)
REMARK    1  A    between atoms: C9_9  and  N11_11 
ROOT
HETATM    1  C1  UNL     1     -35.273  18.574  -2.663  1.00 20.00     0.102 C 
HETATM    2  C2  UNL     1     -32.638  17.931  -1.300  1.00 20.00     0.007 C 
HETATM    3  C5  UNL     1     -32.738  18.888  -2.509  1.00 20.00     0.058 C 
HETATM    4  C6  UNL     1     -33.423  16.892  -2.132  1.00 20.00     0.058 C 
HETATM    5  C9  UNL     1     -33.961  18.069  -2.978  1.00 20.00     0.246 C 
HETATM    6  N10 UNL     1     -36.329  18.981  -2.409  1.00 20.00    -0.194 NA
ENDROOT
BRANCH   5   7
HETATM    7  N11 UNL     1     -33.818  17.748  -4.403  1.00 20.00     0.112 N 
HETATM    8  C7  UNL     1     -34.796  16.738  -4.809  1.00 20.00     0.275 C 
HETATM    9  C3  UNL     1     -34.819  16.877  -6.324  1.00 20.00     0.032 C 
HETATM   10  C4  UNL     1     -34.370  18.308  -6.602  1.00 20.00     0.032 C 
HETATM   11  C8  UNL     1     -34.118  18.918  -5.230  1.00 20.00     0.275 C 
ENDBRANCH   5   7
TORSDOF 1
ENDMDL
MODEL 7
REMARK VINA RESULT:      -3.3     12.982     14.181
REMARK  1 active torsions:
REMARK  status: ('A' for Active; 'I' for Inactive)
REMARK    1  A    between atoms: C9_9  and  N11_11 
ROOT
HETATM    1  C1  UNL     1     -34.454  15.684  -6.794  1.00 20.00     0.102 C 
HETATM    2  C2  UNL     1     -37.321  16.673  -6.915  1.00 20.00     0.007 C 
HETATM    3  C5  UNL     1     -36.132  17.603  -6.581  1.00 20.00     0.058 C 
HETATM    4  C6  UNL     1     -36.811  15.723  -5.808  1.00 20.00     0.058 C 
HETATM    5  C9  UNL     1     -35.419  16.373  -5.977  1.00 20.00     0.246 C 
HETATM    6  N10 UNL     1     -33.676  15.128  -7.452  1.00 20.00    -0.194 NA
ENDROOT
BRANCH   5   7
HETATM    7  N11 UNL     1     -34.881  16.720  -4.656  1.00 20.00     0.112 N 
HETATM    8  C7  UNL     1     -34.031  15.644  -4.142  1.00 20.00     0.275 C 
HETATM    9  C3  UNL     1     -33.225  16.338  -3.054  1.00 20.00     0.032 C 
HETATM   10  C4  UNL     1     -33.207  17.811  -3.448  1.00 20.00     0.032 C 
HETATM   11  C8  UNL     1     -34.000  17.886  -4.745  1.00 20.00     0.275 C 
ENDBRANCH   5   7
TORSDOF 1
ENDMDL
MODEL 8
REMARK VINA RESULT:      -3.3     13.108     14.357
REMARK  1 active torsions:
REMARK  status: ('A' for Active; 'I' for Inactive)
REMARK    1  A    between atoms: C9_9  and  N11_11 
ROOT
HETATM    1  C1  UNL     1     -34.113  15.346  -6.816  1.00 20.00     0.102 C 
HETATM    2  C2  UNL     1     -33.912  14.371  -3.948  1.00 20.00     0.007 C 
HETATM    3  C5  UNL     1     -35.235  14.342  -4.747  1.00 20.00     0.058 C 
HETATM    4  C6  UNL     1     -33.779  15.861  -4.335  1.00 20.00     0.058 C 
HETATM    5  C9  UNL     1     -34.718  15.571  -5.528  1.00 20.00     0.246 C 
HETATM    6  N10 UNL     1     -33.625  15.164  -7.853  1.00 20.00    -0.194 NA
ENDROOT
BRANCH   5   7
HETATM    7  N11 UNL     1     -35.768  16.595  -5.581  1.00 20.00     0.112 N 
HETATM    8  C7  UNL     1     -35.230  17.867  -6.063  1.00 20.00     0.275 C 
HETATM    9  C3  UNL     1     -36.478  18.627  -6.485  1.00 20.00     0.032 C 
HETATM   10  C4  UNL     1     -37.512  17.551  -6.804  1.00 20.00     0.032 C 
HETATM   11  C8  UNL     1     -36.800  16.230  -6.553  1.00 20.00     0.275 C 
ENDBRANCH   5   7
TORSDOF 1
ENDMDL
MODEL 9
REMARK VINA RESULT:      -3.2     11.783     13.490
REMARK  1 active torsions:
REMARK  status: ('A' for Active; 'I' for Inactive)
REMARK    1  A    between atoms: C9_9  and  N11_11 
ROOT
HETATM    1  C1  UNL     1     -33.153  18.609  -3.835  1.00 20.00     0.102 C 
HETATM    2  C2  UNL     1     -34.257  18.680  -1.008  1.00 20.00     0.007 C 
HETATM    3  C5  UNL     1     -33.356  17.534  -1.522  1.00 20.00     0.058 C 
HETATM    4  C6  UNL     1     -35.151  18.454  -2.249  1.00 20.00     0.058 C 
HETATM    5  C9  UNL     1     -33.929  17.798  -2.932  1.00 20.00     0.246 C 
HETATM    6  N10 UNL     1     -32.529  19.263  -4.562  1.00 20.00    -0.194 NA
ENDROOT
BRANCH   5   7
HETATM    7  N11 UNL     1     -34.338  16.527  -3.541  1.00 20.00     0.112 N 
HETATM    8  C7  UNL     1     -34.943  16.749  -4.854  1.00 20.00     0.275 C 
HETATM    9  C3  UNL     1     -34.867  15.375  -5.502  1.00 20.00     0.032 C 
HETATM   10  C4  UNL     1     -33.706  14.669  -4.807  1.00 20.00     0.032 C 
HETATM   11  C8  UNL     1     -33.173  15.679  -3.801  1.00 20.00     0.275 C 
ENDBRANCH   5   7
TORSDOF 1
ENDMDL
