MODEL 1
REMARK VINA RESULT:      -4.4      0.000      0.000
REMARK  3 active torsions:
REMARK  status: ('A' for Active; 'I' for Inactive)
REMARK    1  A    between atoms: C2_2  and  C5_5 
REMARK    2  A    between atoms: C5_5  and  C6_6 
REMARK    3  A    between atoms: C6_6  and  C7_7 
ROOT
HETATM    1  C5  UNL     1     -33.847   8.027   5.332  1.00 20.00     0.034 C 
ENDROOT
BRANCH   1   2
HETATM    2  C2  UNL     1     -32.497   8.112   4.634  1.00 20.00     0.145 A 
HETATM    3  C1  UNL     1     -32.270   7.461   3.298  1.00 20.00     0.200 A 
HETATM    4  O8  UNL     1     -32.502   8.873   3.423  1.00 20.00    -0.381 OA
ENDBRANCH   1   2
BRANCH   1   5
HETATM    5  C6  UNL     1     -33.925   6.801   6.246  1.00 20.00     0.006 C 
BRANCH   5   6
HETATM    6  C7  UNL     1     -34.779   5.658   5.667  1.00 20.00    -0.023 C 
HETATM    7  C3  UNL     1     -33.882   4.468   5.314  1.00 20.00     0.009 C 
HETATM    8  C4  UNL     1     -35.573   6.088   4.433  1.00 20.00     0.009 C 
ENDBRANCH   5   6
ENDBRANCH   1   5
TORSDOF 3
ENDMDL
MODEL 2
REMARK VINA RESULT:      -4.1      0.689      1.314
REMARK  3 active torsions:
REMARK  status: ('A' for Active; 'I' for Inactive)
REMARK    1  A    between atoms: C2_2  and  C5_5 
REMARK    2  A    between atoms: C5_5  and  C6_6 
REMARK    3  A    between atoms: C6_6  and  C7_7 
ROOT
HETATM    1  C5  UNL     1     -33.755   8.302   4.916  1.00 20.00     0.034 C 
ENDROOT
BRANCH   1   2
HETATM    2  C2  UNL     1     -32.422   8.318   4.180  1.00 20.00     0.145 A 
HETATM    3  C1  UNL     1     -32.193   7.462   2.966  1.00 20.00     0.200 A 
HETATM    4  O8  UNL     1     -32.479   8.866   2.860  1.00 20.00    -0.381 OA
ENDBRANCH   1   2
BRANCH   1   5
HETATM    5  C6  UNL     1     -33.760   7.259   6.036  1.00 20.00     0.006 C 
BRANCH   5   6
HETATM    6  C7  UNL     1     -34.220   5.864   5.574  1.00 20.00    -0.023 C 
HETATM    7  C3  UNL     1     -35.314   6.005   4.512  1.00 20.00     0.009 C 
HETATM    8  C4  UNL     1     -34.732   5.004   6.730  1.00 20.00     0.009 C 
ENDBRANCH   5   6
ENDBRANCH   1   5
TORSDOF 3
ENDMDL
MODEL 3
REMARK VINA RESULT:      -4.0      2.092      3.825
REMARK  3 active torsions:
REMARK  status: ('A' for Active; 'I' for Inactive)
REMARK    1  A    between atoms: C2_2  and  C5_5 
REMARK    2  A    between atoms: C5_5  and  C6_6 
REMARK    3  A    between atoms: C6_6  and  C7_7 
ROOT
HETATM    1  C5  UNL     1     -33.400   7.240   5.863  1.00 20.00     0.034 C 
ENDROOT
BRANCH   1   2
HETATM    2  C2  UNL     1     -34.587   6.298   6.008  1.00 20.00     0.145 A 
HETATM    3  C1  UNL     1     -34.678   5.032   5.203  1.00 20.00     0.200 A 
HETATM    4  O8  UNL     1     -34.269   5.026   6.580  1.00 20.00    -0.381 OA
ENDBRANCH   1   2
BRANCH   1   5
HETATM    5  C6  UNL     1     -33.584   8.189   4.676  1.00 20.00     0.006 C 
BRANCH   5   6
HETATM    6  C7  UNL     1     -32.473   8.067   3.616  1.00 20.00    -0.023 C 
HETATM    7  C3  UNL     1     -32.663   9.140   2.540  1.00 20.00     0.009 C 
HETATM    8  C4  UNL     1     -32.435   6.685   2.964  1.00 20.00     0.009 C 
ENDBRANCH   5   6
ENDBRANCH   1   5
TORSDOF 3
ENDMDL
MODEL 4
REMARK VINA RESULT:      -3.9      2.065      3.765
REMARK  3 active torsions:
REMARK  status: ('A' for Active; 'I' for Inactive)
REMARK    1  A    between atoms: C2_2  and  C5_5 
REMARK    2  A    between atoms: C5_5  and  C6_6 
REMARK    3  A    between atoms: C6_6  and  C7_7 
ROOT
HETATM    1  C5  UNL     1     -34.206   6.668   5.842  1.00 20.00     0.034 C 
ENDROOT
BRANCH   1   2
HETATM    2  C2  UNL     1     -34.880   5.697   4.883  1.00 20.00     0.145 A 
HETATM    3  C1  UNL     1     -34.071   4.787   4.002  1.00 20.00     0.200 A 
HETATM    4  O8  UNL     1     -34.695   4.316   5.208  1.00 20.00    -0.381 OA
ENDBRANCH   1   2
BRANCH   1   5
HETATM    5  C6  UNL     1     -33.896   8.002   5.158  1.00 20.00     0.006 C 
BRANCH   5   6
HETATM    6  C7  UNL     1     -32.440   8.117   4.670  1.00 20.00    -0.023 C 
HETATM    7  C3  UNL     1     -31.917   9.533   4.928  1.00 20.00     0.009 C 
HETATM    8  C4  UNL     1     -32.292   7.776   3.186  1.00 20.00     0.009 C 
ENDBRANCH   5   6
ENDBRANCH   1   5
TORSDOF 3
ENDMDL
MODEL 5
REMARK VINA RESULT:      -3.8      1.334      2.194
REMARK  3 active torsions:
REMARK  status: ('A' for Active; 'I' for Inactive)
REMARK    1  A    between atoms: C2_2  and  C5_5 
REMARK    2  A    between atoms: C5_5  and  C6_6 
REMARK    3  A    between atoms: C6_6  and  C7_7 
ROOT
HETATM    1  C5  UNL     1     -33.354   6.032   2.965  1.00 20.00     0.034 C 
ENDROOT
BRANCH   1   2
HETATM    2  C2  UNL     1     -32.297   7.060   3.343  1.00 20.00     0.145 A 
HETATM    3  C1  UNL     1     -32.616   8.529   3.379  1.00 20.00     0.200 A 
HETATM    4  O8  UNL     1     -32.543   7.740   4.578  1.00 20.00    -0.381 OA
ENDBRANCH   1   2
BRANCH   1   5
HETATM    5  C6  UNL     1     -33.461   4.930   4.020  1.00 20.00     0.006 C 
BRANCH   5   6
HETATM    6  C7  UNL     1     -34.728   5.035   4.890  1.00 20.00    -0.023 C 
HETATM    7  C3  UNL     1     -35.682   6.073   4.294  1.00 20.00     0.009 C 
HETATM    8  C4  UNL     1     -34.412   5.400   6.341  1.00 20.00     0.009 C 
ENDBRANCH   5   6
ENDBRANCH   1   5
TORSDOF 3
ENDMDL
MODEL 6
REMARK VINA RESULT:      -3.8      2.034      3.775
REMARK  3 active torsions:
REMARK  status: ('A' for Active; 'I' for Inactive)
REMARK    1  A    between atoms: C2_2  and  C5_5 
REMARK    2  A    between atoms: C5_5  and  C6_6 
REMARK    3  A    between atoms: C6_6  and  C7_7 
ROOT
HETATM    1  C5  UNL     1     -33.894   7.087   5.792  1.00 20.00     0.034 C 
ENDROOT
BRANCH   1   2
HETATM    2  C2  UNL     1     -34.807   5.875   5.664  1.00 20.00     0.145 A 
HETATM    3  C1  UNL     1     -34.433   4.708   4.792  1.00 20.00     0.200 A 
HETATM    4  O8  UNL     1     -34.275   4.669   6.220  1.00 20.00    -0.381 OA
ENDBRANCH   1   2
BRANCH   1   5
HETATM    5  C6  UNL     1     -34.144   8.093   4.667  1.00 20.00     0.006 C 
BRANCH   5   6
HETATM    6  C7  UNL     1     -32.857   8.553   3.958  1.00 20.00    -0.023 C 
HETATM    7  C3  UNL     1     -32.218   7.370   3.225  1.00 20.00     0.009 C 
HETATM    8  C4  UNL     1     -31.843   9.166   4.925  1.00 20.00     0.009 C 
ENDBRANCH   5   6
ENDBRANCH   1   5
TORSDOF 3
ENDMDL
MODEL 7
REMARK VINA RESULT:      -3.6      2.188      4.167
REMARK  3 active torsions:
REMARK  status: ('A' for Active; 'I' for Inactive)
REMARK    1  A    between atoms: C2_2  and  C5_5 
REMARK    2  A    between atoms: C5_5  and  C6_6 
REMARK    3  A    between atoms: C6_6  and  C7_7 
ROOT
HETATM    1  C5  UNL     1     -33.215   5.722   3.117  1.00 20.00     0.034 C 
ENDROOT
BRANCH   1   2
HETATM    2  C2  UNL     1     -33.891   5.686   4.480  1.00 20.00     0.145 A 
HETATM    3  C1  UNL     1     -35.389   5.727   4.607  1.00 20.00     0.200 A 
HETATM    4  O8  UNL     1     -34.651   4.501   4.735  1.00 20.00    -0.381 OA
ENDBRANCH   1   2
BRANCH   1   5
HETATM    5  C6  UNL     1     -32.253   6.906   3.003  1.00 20.00     0.006 C 
BRANCH   5   6
HETATM    6  C7  UNL     1     -32.873   8.244   3.448  1.00 20.00    -0.023 C 
HETATM    7  C3  UNL     1     -32.760   9.270   2.316  1.00 20.00     0.009 C 
HETATM    8  C4  UNL     1     -32.217   8.801   4.713  1.00 20.00     0.009 C 
ENDBRANCH   5   6
ENDBRANCH   1   5
TORSDOF 3
ENDMDL
MODEL 8
REMARK VINA RESULT:      -3.5      1.199      1.883
REMARK  3 active torsions:
REMARK  status: ('A' for Active; 'I' for Inactive)
REMARK    1  A    between atoms: C2_2  and  C5_5 
REMARK    2  A    between atoms: C5_5  and  C6_6 
REMARK    3  A    between atoms: C6_6  and  C7_7 
ROOT
HETATM    1  C5  UNL     1     -32.768   6.753   3.323  1.00 20.00     0.034 C 
ENDROOT
BRANCH   1   2
HETATM    2  C2  UNL     1     -31.992   7.917   2.724  1.00 20.00     0.145 A 
HETATM    3  C1  UNL     1     -32.186   8.327   1.291  1.00 20.00     0.200 A 
HETATM    4  O8  UNL     1     -32.794   9.049   2.375  1.00 20.00    -0.381 OA
ENDBRANCH   1   2
BRANCH   1   5
HETATM    5  C6  UNL     1     -33.582   7.193   4.541  1.00 20.00     0.006 C 
BRANCH   5   6
HETATM    6  C7  UNL     1     -34.585   6.129   5.026  1.00 20.00    -0.023 C 
HETATM    7  C3  UNL     1     -34.536   6.028   6.553  1.00 20.00     0.009 C 
HETATM    8  C4  UNL     1     -34.321   4.754   4.410  1.00 20.00     0.009 C 
ENDBRANCH   5   6
ENDBRANCH   1   5
TORSDOF 3
ENDMDL
MODEL 9
REMARK VINA RESULT:      -3.4     12.307     13.132
REMARK  3 active torsions:
REMARK  status: ('A' for Active; 'I' for Inactive)
REMARK    1  A    between atoms: C2_2  and  C5_5 
REMARK    2  A    between atoms: C5_5  and  C6_6 
REMARK    3  A    between atoms: C6_6  and  C7_7 
ROOT
HETATM    1  C5  UNL     1     -33.086  18.121  -0.130  1.00 20.00     0.034 C 
ENDROOT
BRANCH   1   2
HETATM    2  C2  UNL     1     -31.968  19.148  -0.246  1.00 20.00     0.145 A 
HETATM    3  C1  UNL     1     -30.905  19.263   0.811  1.00 20.00     0.200 A 
HETATM    4  O8  UNL     1     -30.665  18.590  -0.436  1.00 20.00    -0.381 OA
ENDBRANCH   1   2
BRANCH   1   5
HETATM    5  C6  UNL     1     -33.903  18.040  -1.422  1.00 20.00     0.006 C 
BRANCH   5   6
HETATM    6  C7  UNL     1     -33.086  17.556  -2.635  1.00 20.00    -0.023 C 
HETATM    7  C3  UNL     1     -33.271  18.526  -3.805  1.00 20.00     0.009 C 
HETATM    8  C4  UNL     1     -33.471  16.142  -3.073  1.00 20.00     0.009 C 
ENDBRANCH   5   6
ENDBRANCH   1   5
TORSDOF 3
ENDMDL
