MODEL 1
REMARK VINA RESULT:      -3.8      0.000      0.000
REMARK  0 active torsions:
REMARK  status: ('A' for Active; 'I' for Inactive)
ROOT
HETATM    1  C1  UNL     1     -33.853   6.036   4.133  1.00 20.00     0.048 C 
HETATM    2  C2  UNL     1     -34.876   5.245   4.920  1.00 20.00     0.169 C 
HETATM    3  C3  UNL     1     -33.970   6.869   6.328  1.00 20.00     0.187 C 
HETATM    4  C4  UNL     1     -33.837   7.340   4.893  1.00 20.00     0.108 C 
HETATM    5  O5  UNL     1     -34.756   5.666   6.287  1.00 20.00    -0.390 OA
HETATM    6 CL6  UNL     1     -32.371   8.282   4.611  1.00 20.00    -0.123 Cl
ENDROOT
TORSDOF 0
ENDMDL
MODEL 2
REMARK VINA RESULT:      -3.7      2.469      3.109
REMARK  0 active torsions:
REMARK  status: ('A' for Active; 'I' for Inactive)
ROOT
HETATM    1  C1  UNL     1     -33.289   7.617   5.389  1.00 20.00     0.048 C 
HETATM    2  C2  UNL     1     -32.637   8.058   4.095  1.00 20.00     0.169 C 
HETATM    3  C3  UNL     1     -33.455   5.894   3.801  1.00 20.00     0.187 C 
HETATM    4  C4  UNL     1     -34.258   6.571   4.893  1.00 20.00     0.108 C 
HETATM    5  O5  UNL     1     -32.596   6.903   3.244  1.00 20.00    -0.390 OA
HETATM    6 CL6  UNL     1     -34.773   5.456   6.161  1.00 20.00    -0.123 Cl
ENDROOT
TORSDOF 0
ENDMDL
MODEL 3
REMARK VINA RESULT:      -3.7      1.712      2.053
REMARK  0 active torsions:
REMARK  status: ('A' for Active; 'I' for Inactive)
ROOT
HETATM    1  C1  UNL     1     -34.329   4.889   5.203  1.00 20.00     0.048 C 
HETATM    2  C2  UNL     1     -34.778   5.780   6.342  1.00 20.00     0.169 C 
HETATM    3  C3  UNL     1     -33.576   7.084   4.828  1.00 20.00     0.187 C 
HETATM    4  C4  UNL     1     -34.158   5.895   4.090  1.00 20.00     0.108 C 
HETATM    5  O5  UNL     1     -34.125   7.044   6.155  1.00 20.00    -0.390 OA
HETATM    6 CL6  UNL     1     -33.113   5.311   2.792  1.00 20.00    -0.123 Cl
ENDROOT
TORSDOF 0
ENDMDL
MODEL 4
REMARK VINA RESULT:      -3.7      1.065      1.724
REMARK  0 active torsions:
REMARK  status: ('A' for Active; 'I' for Inactive)
ROOT
HETATM    1  C1  UNL     1     -34.273   6.659   6.318  1.00 20.00     0.048 C 
HETATM    2  C2  UNL     1     -34.584   5.179   6.375  1.00 20.00     0.169 C 
HETATM    3  C3  UNL     1     -34.250   5.769   4.143  1.00 20.00     0.187 C 
HETATM    4  C4  UNL     1     -33.504   6.752   5.023  1.00 20.00     0.108 C 
HETATM    5  O5  UNL     1     -34.750   4.743   5.017  1.00 20.00    -0.390 OA
HETATM    6 CL6  UNL     1     -33.475   8.387   4.357  1.00 20.00    -0.123 Cl
ENDROOT
TORSDOF 0
ENDMDL
MODEL 5
REMARK VINA RESULT:      -3.3      1.740      2.030
REMARK  0 active torsions:
REMARK  status: ('A' for Active; 'I' for Inactive)
ROOT
HETATM    1  C1  UNL     1     -33.345   6.424   4.062  1.00 20.00     0.048 C 
HETATM    2  C2  UNL     1     -33.602   5.136   3.309  1.00 20.00     0.169 C 
HETATM    3  C3  UNL     1     -34.513   4.925   5.446  1.00 20.00     0.187 C 
HETATM    4  C4  UNL     1     -34.455   6.397   5.086  1.00 20.00     0.108 C 
HETATM    5  O5  UNL     1     -34.134   4.204   4.262  1.00 20.00    -0.390 OA
HETATM    6 CL6  UNL     1     -34.131   7.433   6.477  1.00 20.00    -0.123 Cl
ENDROOT
TORSDOF 0
ENDMDL
MODEL 6
REMARK VINA RESULT:      -3.2      2.587      2.988
REMARK  0 active torsions:
REMARK  status: ('A' for Active; 'I' for Inactive)
ROOT
HETATM    1  C1  UNL     1     -33.062   6.522   3.276  1.00 20.00     0.048 C 
HETATM    2  C2  UNL     1     -32.020   7.613   3.414  1.00 20.00     0.169 C 
HETATM    3  C3  UNL     1     -33.715   8.023   4.962  1.00 20.00     0.187 C 
HETATM    4  C4  UNL     1     -33.695   6.541   4.647  1.00 20.00     0.108 C 
HETATM    5  O5  UNL     1     -32.570   8.593   4.308  1.00 20.00    -0.390 OA
HETATM    6 CL6  UNL     1     -35.301   5.809   4.671  1.00 20.00    -0.123 Cl
ENDROOT
TORSDOF 0
ENDMDL
MODEL 7
REMARK VINA RESULT:      -2.9     13.006     13.539
REMARK  0 active torsions:
REMARK  status: ('A' for Active; 'I' for Inactive)
ROOT
HETATM    1  C1  UNL     1     -33.673  14.914  -3.997  1.00 20.00     0.048 C 
HETATM    2  C2  UNL     1     -33.944  15.010  -5.484  1.00 20.00     0.169 C 
HETATM    3  C3  UNL     1     -34.305  17.112  -4.538  1.00 20.00     0.187 C 
HETATM    4  C4  UNL     1     -33.333  16.346  -3.663  1.00 20.00     0.108 C 
HETATM    5  O5  UNL     1     -34.511  16.309  -5.712  1.00 20.00    -0.390 OA
HETATM    6 CL6  UNL     1     -33.516  16.713  -1.946  1.00 20.00    -0.123 Cl
ENDROOT
TORSDOF 0
ENDMDL
MODEL 8
REMARK VINA RESULT:      -2.9      9.514      9.941
REMARK  0 active torsions:
REMARK  status: ('A' for Active; 'I' for Inactive)
ROOT
HETATM    1  C1  UNL     1     -40.928   7.068   0.555  1.00 20.00     0.048 C 
HETATM    2  C2  UNL     1     -41.301   8.268  -0.290  1.00 20.00     0.169 C 
HETATM    3  C3  UNL     1     -43.114   6.801  -0.265  1.00 20.00     0.187 C 
HETATM    4  C4  UNL     1     -42.287   6.573   0.985  1.00 20.00     0.108 C 
HETATM    5  O5  UNL     1     -42.554   7.954  -0.916  1.00 20.00    -0.390 OA
HETATM    6 CL6  UNL     1     -42.272   4.885   1.501  1.00 20.00    -0.123 Cl
ENDROOT
TORSDOF 0
ENDMDL
MODEL 9
REMARK VINA RESULT:      -2.7     16.013     16.591
REMARK  0 active torsions:
REMARK  status: ('A' for Active; 'I' for Inactive)
ROOT
HETATM    1  C1  UNL     1     -24.028  16.898  10.727  1.00 20.00     0.048 C 
HETATM    2  C2  UNL     1     -24.297  17.607  12.038  1.00 20.00     0.169 C 
HETATM    3  C3  UNL     1     -22.314  18.450  11.146  1.00 20.00     0.187 C 
HETATM    4  C4  UNL     1     -23.164  17.909  10.014  1.00 20.00     0.108 C 
HETATM    5  O5  UNL     1     -23.127  18.385  12.329  1.00 20.00    -0.390 OA
HETATM    6 CL6  UNL     1     -22.206  17.199   8.712  1.00 20.00    -0.123 Cl
ENDROOT
TORSDOF 0
ENDMDL
