MODEL 1
REMARK VINA RESULT:      -3.8      0.000      0.000
REMARK  2 active torsions:
REMARK  status: ('A' for Active; 'I' for Inactive)
REMARK    1  A    between atoms: C3_3  and  C10_10 
REMARK    2  A    between atoms: C7_7  and  C10_10 
ROOT
HETATM    1  C1  UNL     1     -34.067  18.152  -3.641  1.00 20.00    -0.024 C 
HETATM    2  C2  UNL     1     -33.739  17.176  -2.777  1.00 20.00    -0.087 C 
HETATM    3  C4  UNL     1     -34.270  17.930  -5.112  1.00 20.00     0.032 C 
HETATM    4  C5  UNL     1     -33.515  15.753  -3.225  1.00 20.00     0.034 C 
HETATM    5  C6  UNL     1     -33.402  15.597  -4.746  1.00 20.00     0.010 C 
HETATM    6  C7  UNL     1     -34.424  16.453  -5.507  1.00 20.00    -0.001 C 
HETATM    7  C8  UNL     1     -33.577  17.438  -1.309  1.00 20.00     0.043 C 
ENDROOT
BRANCH   6   8
HETATM    8  C10 UNL     1     -35.857  15.956  -5.283  1.00 20.00     0.047 C 
HETATM    9  C9  UNL     1     -36.865  16.888  -5.939  1.00 20.00     0.017 C 
BRANCH   8  10
HETATM   10  C3  UNL     1     -35.974  14.538  -5.805  1.00 20.00     0.235 C 
HETATM   11  O11 UNL     1     -36.014  14.234  -6.993  1.00 20.00    -0.306 OA
ENDBRANCH   8  10
ENDBRANCH   6   8
TORSDOF 2
ENDMDL
MODEL 2
REMARK VINA RESULT:      -3.7     10.554     11.950
REMARK  2 active torsions:
REMARK  status: ('A' for Active; 'I' for Inactive)
REMARK    1  A    between atoms: C3_3  and  C10_10 
REMARK    2  A    between atoms: C7_7  and  C10_10 
ROOT
HETATM    1  C1  UNL     1     -33.587   7.604   5.060  1.00 20.00    -0.024 C 
HETATM    2  C2  UNL     1     -34.052   6.479   4.490  1.00 20.00    -0.087 C 
HETATM    3  C4  UNL     1     -32.430   8.395   4.522  1.00 20.00     0.032 C 
HETATM    4  C5  UNL     1     -33.419   5.889   3.254  1.00 20.00     0.034 C 
HETATM    5  C6  UNL     1     -32.060   6.505   2.904  1.00 20.00     0.010 C 
HETATM    6  C7  UNL     1     -32.036   8.029   3.082  1.00 20.00    -0.001 C 
HETATM    7  C8  UNL     1     -35.233   5.739   5.044  1.00 20.00     0.043 C 
ENDROOT
BRANCH   6   8
HETATM    8  C10 UNL     1     -32.932   8.732   2.057  1.00 20.00     0.047 C 
HETATM    9  C9  UNL     1     -33.055  10.217   2.369  1.00 20.00     0.017 C 
BRANCH   8  10
HETATM   10  C3  UNL     1     -32.375   8.492   0.668  1.00 20.00     0.235 C 
HETATM   11  O11 UNL     1     -32.917   8.851  -0.372  1.00 20.00    -0.306 OA
ENDBRANCH   8  10
ENDBRANCH   6   8
TORSDOF 2
ENDMDL
MODEL 3
REMARK VINA RESULT:      -3.6     11.225     12.700
REMARK  2 active torsions:
REMARK  status: ('A' for Active; 'I' for Inactive)
REMARK    1  A    between atoms: C3_3  and  C10_10 
REMARK    2  A    between atoms: C7_7  and  C10_10 
ROOT
HETATM    1  C1  UNL     1     -32.426   7.595   1.814  1.00 20.00    -0.024 C 
HETATM    2  C2  UNL     1     -32.682   8.898   2.022  1.00 20.00    -0.087 C 
HETATM    3  C4  UNL     1     -32.159   6.612   2.917  1.00 20.00     0.032 C 
HETATM    4  C5  UNL     1     -32.695   9.500   3.405  1.00 20.00     0.034 C 
HETATM    5  C6  UNL     1     -32.110   8.580   4.482  1.00 20.00     0.010 C 
HETATM    6  C7  UNL     1     -32.546   7.119   4.315  1.00 20.00    -0.001 C 
HETATM    7  C8  UNL     1     -32.975   9.838   0.890  1.00 20.00     0.043 C 
ENDROOT
BRANCH   6   8
HETATM    8  C10 UNL     1     -34.045   6.942   4.584  1.00 20.00     0.047 C 
HETATM    9  C9  UNL     1     -34.510   5.551   4.179  1.00 20.00     0.017 C 
BRANCH   8  10
HETATM   10  C3  UNL     1     -34.320   7.225   6.047  1.00 20.00     0.235 C 
HETATM   11  O11 UNL     1     -34.667   6.381   6.868  1.00 20.00    -0.306 OA
ENDBRANCH   8  10
ENDBRANCH   6   8
TORSDOF 2
ENDMDL
MODEL 4
REMARK VINA RESULT:      -3.4     12.148     13.633
REMARK  2 active torsions:
REMARK  status: ('A' for Active; 'I' for Inactive)
REMARK    1  A    between atoms: C3_3  and  C10_10 
REMARK    2  A    between atoms: C7_7  and  C10_10 
ROOT
HETATM    1  C1  UNL     1     -40.970  13.607   4.416  1.00 20.00    -0.024 C 
HETATM    2  C2  UNL     1     -40.314  12.550   4.924  1.00 20.00    -0.087 C 
HETATM    3  C4  UNL     1     -42.088  14.315   5.126  1.00 20.00     0.032 C 
HETATM    4  C5  UNL     1     -40.670  11.957   6.264  1.00 20.00     0.034 C 
HETATM    5  C6  UNL     1     -42.001  12.466   6.829  1.00 20.00     0.010 C 
HETATM    6  C7  UNL     1     -42.195  13.974   6.621  1.00 20.00    -0.001 C 
HETATM    7  C8  UNL     1     -39.181  11.894   4.192  1.00 20.00     0.043 C 
ENDROOT
BRANCH   6   8
HETATM    8  C10 UNL     1     -41.207  14.793   7.459  1.00 20.00     0.047 C 
HETATM    9  C9  UNL     1     -41.381  16.283   7.202  1.00 20.00     0.017 C 
BRANCH   8  10
HETATM   10  C3  UNL     1     -41.395  14.446   8.921  1.00 20.00     0.235 C 
HETATM   11  O11 UNL     1     -40.542  13.917   9.628  1.00 20.00    -0.306 OA
ENDBRANCH   8  10
ENDBRANCH   6   8
TORSDOF 2
ENDMDL
MODEL 5
REMARK VINA RESULT:      -3.3      1.469      2.116
REMARK  2 active torsions:
REMARK  status: ('A' for Active; 'I' for Inactive)
REMARK    1  A    between atoms: C3_3  and  C10_10 
REMARK    2  A    between atoms: C7_7  and  C10_10 
ROOT
HETATM    1  C1  UNL     1     -33.026  19.028  -2.197  1.00 20.00    -0.024 C 
HETATM    2  C2  UNL     1     -33.356  18.008  -1.386  1.00 20.00    -0.087 C 
HETATM    3  C4  UNL     1     -32.956  18.916  -3.692  1.00 20.00     0.032 C 
HETATM    4  C5  UNL     1     -33.663  16.631  -1.920  1.00 20.00     0.034 C 
HETATM    5  C6  UNL     1     -33.277  16.439  -3.391  1.00 20.00     0.010 C 
HETATM    6  C7  UNL     1     -33.629  17.655  -4.258  1.00 20.00    -0.001 C 
HETATM    7  C8  UNL     1     -33.445  18.174   0.102  1.00 20.00     0.043 C 
ENDROOT
BRANCH   6   8
HETATM    8  C10 UNL     1     -35.145  17.837  -4.391  1.00 20.00     0.047 C 
HETATM    9  C9  UNL     1     -35.489  19.263  -4.796  1.00 20.00     0.017 C 
BRANCH   8  10
HETATM   10  C3  UNL     1     -35.678  16.823  -5.383  1.00 20.00     0.235 C 
HETATM   11  O11 UNL     1     -36.729  16.204  -5.250  1.00 20.00    -0.306 OA
ENDBRANCH   8  10
ENDBRANCH   6   8
TORSDOF 2
ENDMDL
MODEL 6
REMARK VINA RESULT:      -3.3     24.622     25.738
REMARK  2 active torsions:
REMARK  status: ('A' for Active; 'I' for Inactive)
REMARK    1  A    between atoms: C3_3  and  C10_10 
REMARK    2  A    between atoms: C7_7  and  C10_10 
ROOT
HETATM    1  C1  UNL     1     -29.008  -2.885  10.469  1.00 20.00    -0.024 C 
HETATM    2  C2  UNL     1     -29.489  -2.392  11.623  1.00 20.00    -0.087 C 
HETATM    3  C4  UNL     1     -27.774  -2.365   9.789  1.00 20.00     0.032 C 
HETATM    4  C5  UNL     1     -28.833  -1.233  12.332  1.00 20.00     0.034 C 
HETATM    5  C6  UNL     1     -27.784  -0.506  11.484  1.00 20.00     0.010 C 
HETATM    6  C7  UNL     1     -26.899  -1.469  10.680  1.00 20.00    -0.001 C 
HETATM    7  C8  UNL     1     -30.709  -2.964  12.282  1.00 20.00     0.043 C 
ENDROOT
BRANCH   6   8
HETATM    8  C10 UNL     1     -25.990  -2.298  11.594  1.00 20.00     0.047 C 
HETATM    9  C9  UNL     1     -25.246  -3.362  10.801  1.00 20.00     0.017 C 
BRANCH   8  10
HETATM   10  C3  UNL     1     -25.040  -1.367  12.320  1.00 20.00     0.235 C 
HETATM   11  O11 UNL     1     -23.922  -1.060  11.919  1.00 20.00    -0.306 OA
ENDBRANCH   8  10
ENDBRANCH   6   8
TORSDOF 2
ENDMDL
MODEL 7
REMARK VINA RESULT:      -3.2      2.190      4.183
REMARK  2 active torsions:
REMARK  status: ('A' for Active; 'I' for Inactive)
REMARK    1  A    between atoms: C3_3  and  C10_10 
REMARK    2  A    between atoms: C7_7  and  C10_10 
ROOT
HETATM    1  C1  UNL     1     -36.347  15.906  -6.216  1.00 20.00    -0.024 C 
HETATM    2  C2  UNL     1     -37.080  16.691  -5.408  1.00 20.00    -0.087 C 
HETATM    3  C4  UNL     1     -34.850  15.972  -6.310  1.00 20.00     0.032 C 
HETATM    4  C5  UNL     1     -36.449  17.743  -4.530  1.00 20.00     0.034 C 
HETATM    5  C6  UNL     1     -34.981  18.027  -4.865  1.00 20.00     0.010 C 
HETATM    6  C7  UNL     1     -34.184  16.749  -5.164  1.00 20.00    -0.001 C 
HETATM    7  C8  UNL     1     -38.572  16.568  -5.323  1.00 20.00     0.043 C 
ENDROOT
BRANCH   6   8
HETATM    8  C10 UNL     1     -34.020  15.879  -3.913  1.00 20.00     0.047 C 
HETATM    9  C9  UNL     1     -33.333  14.564  -4.251  1.00 20.00     0.017 C 
BRANCH   8  10
HETATM   10  C3  UNL     1     -33.257  16.662  -2.864  1.00 20.00     0.235 C 
HETATM   11  O11 UNL     1     -33.611  16.791  -1.696  1.00 20.00    -0.306 OA
ENDBRANCH   8  10
ENDBRANCH   6   8
TORSDOF 2
ENDMDL
MODEL 8
REMARK VINA RESULT:      -3.2     24.610     26.145
REMARK  2 active torsions:
REMARK  status: ('A' for Active; 'I' for Inactive)
REMARK    1  A    between atoms: C3_3  and  C10_10 
REMARK    2  A    between atoms: C7_7  and  C10_10 
ROOT
HETATM    1  C1  UNL     1     -24.914  -4.177  10.470  1.00 20.00    -0.024 C 
HETATM    2  C2  UNL     1     -23.979  -3.212  10.532  1.00 20.00    -0.087 C 
HETATM    3  C4  UNL     1     -26.233  -4.108  11.183  1.00 20.00     0.032 C 
HETATM    4  C5  UNL     1     -24.171  -1.967  11.362  1.00 20.00     0.034 C 
HETATM    5  C6  UNL     1     -25.356  -2.048  12.331  1.00 20.00     0.010 C 
HETATM    6  C7  UNL     1     -26.591  -2.706  11.702  1.00 20.00    -0.001 C 
HETATM    7  C8  UNL     1     -22.687  -3.310   9.777  1.00 20.00     0.043 C 
ENDROOT
BRANCH   6   8
HETATM    8  C10 UNL     1     -27.196  -1.833  10.596  1.00 20.00     0.047 C 
HETATM    9  C9  UNL     1     -28.277  -2.588   9.837  1.00 20.00     0.017 C 
BRANCH   8  10
HETATM   10  C3  UNL     1     -27.727  -0.555  11.213  1.00 20.00     0.235 C 
HETATM   11  O11 UNL     1     -28.759  -0.475  11.871  1.00 20.00    -0.306 OA
ENDBRANCH   8  10
ENDBRANCH   6   8
TORSDOF 2
ENDMDL
MODEL 9
REMARK VINA RESULT:      -3.2     12.228     13.389
REMARK  2 active torsions:
REMARK  status: ('A' for Active; 'I' for Inactive)
REMARK    1  A    between atoms: C3_3  and  C10_10 
REMARK    2  A    between atoms: C7_7  and  C10_10 
ROOT
HETATM    1  C1  UNL     1     -40.208  15.794   8.447  1.00 20.00    -0.024 C 
HETATM    2  C2  UNL     1     -40.958  16.641   7.721  1.00 20.00    -0.087 C 
HETATM    3  C4  UNL     1     -40.432  14.311   8.492  1.00 20.00     0.032 C 
HETATM    4  C5  UNL     1     -42.128  16.165   6.896  1.00 20.00     0.034 C 
HETATM    5  C6  UNL     1     -42.549  14.723   7.197  1.00 20.00     0.010 C 
HETATM    6  C7  UNL     1     -41.350  13.782   7.379  1.00 20.00    -0.001 C 
HETATM    7  C8  UNL     1     -40.678  18.114   7.681  1.00 20.00     0.043 C 
ENDROOT
BRANCH   6   8
HETATM    8  C10 UNL     1     -40.586  13.579   6.066  1.00 20.00     0.047 C 
HETATM    9  C9  UNL     1     -39.638  12.393   6.166  1.00 20.00     0.017 C 
BRANCH   8  10
HETATM   10  C3  UNL     1     -41.582  13.412   4.937  1.00 20.00     0.235 C 
HETATM   11  O11 UNL     1     -41.509  13.983   3.853  1.00 20.00    -0.306 OA
ENDBRANCH   8  10
ENDBRANCH   6   8
TORSDOF 2
ENDMDL
