MODEL 1
REMARK VINA RESULT:      -4.4      0.000      0.000
REMARK  1 active torsions:
REMARK  status: ('A' for Active; 'I' for Inactive)
REMARK    1  A    between atoms: C3_3  and  C8_8 
ROOT
HETATM    1  C1  UNL     1     -32.841   7.866   4.264  1.00 20.00     0.017 C 
HETATM    2  C2  UNL     1     -32.159   7.174   3.093  1.00 20.00     0.092 C 
HETATM    3  C3  UNL     1     -34.384   6.224   4.022  1.00 20.00     0.173 C 
HETATM    4  C4  UNL     1     -32.198   9.088   4.857  1.00 20.00     0.066 C 
HETATM    5  C5  UNL     1     -32.188   8.040   1.845  1.00 20.00     0.028 C 
HETATM    6  N9  UNL     1     -33.965   7.436   4.746  1.00 20.00    -0.282 NA
HETATM    7  S10 UNL     1     -33.130   5.673   2.841  1.00 20.00    -0.131 SA
ENDROOT
BRANCH   3   8
HETATM    8  C8  UNL     1     -34.662   5.125   5.039  1.00 20.00     0.012 C 
HETATM    9  C6  UNL     1     -33.707   3.948   4.841  1.00 20.00     0.012 C 
HETATM   10  C7  UNL     1     -34.553   5.666   6.464  1.00 20.00     0.012 C 
ENDBRANCH   3   8
TORSDOF 1
ENDMDL
MODEL 2
REMARK VINA RESULT:      -3.6     12.306     13.304
REMARK  1 active torsions:
REMARK  status: ('A' for Active; 'I' for Inactive)
REMARK    1  A    between atoms: C3_3  and  C8_8 
ROOT
HETATM    1  C1  UNL     1     -33.872  15.967  -4.030  1.00 20.00     0.017 C 
HETATM    2  C2  UNL     1     -34.854  17.018  -4.524  1.00 20.00     0.092 C 
HETATM    3  C3  UNL     1     -33.014  17.683  -2.825  1.00 20.00     0.173 C 
HETATM    4  C4  UNL     1     -34.000  14.559  -4.542  1.00 20.00     0.066 C 
HETATM    5  C5  UNL     1     -34.645  17.323  -5.998  1.00 20.00     0.028 C 
HETATM    6  N9  UNL     1     -32.924  16.262  -3.196  1.00 20.00    -0.282 NA
HETATM    7  S10 UNL     1     -34.483  18.474  -3.522  1.00 20.00    -0.131 SA
ENDROOT
BRANCH   3   8
HETATM    8  C8  UNL     1     -33.037  17.786  -1.306  1.00 20.00     0.012 C 
HETATM    9  C6  UNL     1     -31.791  18.508  -0.792  1.00 20.00     0.012 C 
HETATM   10  C7  UNL     1     -34.301  18.502  -0.831  1.00 20.00     0.012 C 
ENDBRANCH   3   8
TORSDOF 1
ENDMDL
MODEL 3
REMARK VINA RESULT:      -3.5     10.160     10.806
REMARK  1 active torsions:
REMARK  status: ('A' for Active; 'I' for Inactive)
REMARK    1  A    between atoms: C3_3  and  C8_8 
ROOT
HETATM    1  C1  UNL     1     -40.795  14.525   7.651  1.00 20.00     0.017 C 
HETATM    2  C2  UNL     1     -41.582  15.179   6.525  1.00 20.00     0.092 C 
HETATM    3  C3  UNL     1     -41.064  12.642   6.419  1.00 20.00     0.173 C 
HETATM    4  C4  UNL     1     -40.332  15.376   8.800  1.00 20.00     0.066 C 
HETATM    5  C5  UNL     1     -42.951  15.635   6.998  1.00 20.00     0.028 C 
HETATM    6  N9  UNL     1     -40.532  13.255   7.648  1.00 20.00    -0.282 NA
HETATM    7  S10 UNL     1     -41.746  13.874   5.287  1.00 20.00    -0.131 SA
ENDROOT
BRANCH   3   8
HETATM    8  C8  UNL     1     -39.941  11.871   5.738  1.00 20.00     0.012 C 
HETATM    9  C6  UNL     1     -39.761  12.338   4.293  1.00 20.00     0.012 C 
HETATM   10  C7  UNL     1     -38.633  12.022   6.514  1.00 20.00     0.012 C 
ENDBRANCH   3   8
TORSDOF 1
ENDMDL
MODEL 4
REMARK VINA RESULT:      -3.3     12.140     13.583
REMARK  1 active torsions:
REMARK  status: ('A' for Active; 'I' for Inactive)
REMARK    1  A    between atoms: C3_3  and  C8_8 
ROOT
HETATM    1  C1  UNL     1     -34.034  15.887  -4.221  1.00 20.00     0.017 C 
HETATM    2  C2  UNL     1     -34.928  16.614  -5.214  1.00 20.00     0.092 C 
HETATM    3  C3  UNL     1     -33.440  17.981  -3.591  1.00 20.00     0.173 C 
HETATM    4  C4  UNL     1     -34.040  14.384  -4.206  1.00 20.00     0.066 C 
HETATM    5  C5  UNL     1     -34.460  16.399  -6.643  1.00 20.00     0.028 C 
HETATM    6  N9  UNL     1     -33.258  16.532  -3.407  1.00 20.00    -0.282 NA
HETATM    7  S10 UNL     1     -34.772  18.354  -4.756  1.00 20.00    -0.131 SA
ENDROOT
BRANCH   3   8
HETATM    8  C8  UNL     1     -33.740  18.608  -2.236  1.00 20.00     0.012 C 
HETATM    9  C6  UNL     1     -35.238  18.872  -2.081  1.00 20.00     0.012 C 
HETATM   10  C7  UNL     1     -33.236  17.716  -1.103  1.00 20.00     0.012 C 
ENDBRANCH   3   8
TORSDOF 1
ENDMDL
MODEL 5
REMARK VINA RESULT:      -3.2     12.527     14.177
REMARK  1 active torsions:
REMARK  status: ('A' for Active; 'I' for Inactive)
REMARK    1  A    between atoms: C3_3  and  C8_8 
ROOT
HETATM    1  C1  UNL     1     -34.639  17.159  -6.443  1.00 20.00     0.017 C 
HETATM    2  C2  UNL     1     -34.488  15.646  -6.497  1.00 20.00     0.092 C 
HETATM    3  C3  UNL     1     -34.411  16.859  -4.208  1.00 20.00     0.173 C 
HETATM    4  C4  UNL     1     -34.826  17.915  -7.728  1.00 20.00     0.066 C 
HETATM    5  C5  UNL     1     -35.779  14.976  -6.936  1.00 20.00     0.028 C 
HETATM    6  N9  UNL     1     -34.628  17.803  -5.317  1.00 20.00    -0.282 NA
HETATM    7  S10 UNL     1     -34.084  15.182  -4.799  1.00 20.00    -0.131 SA
ENDROOT
BRANCH   3   8
HETATM    8  C8  UNL     1     -33.240  17.356  -3.371  1.00 20.00     0.012 C 
HETATM    9  C6  UNL     1     -33.049  18.863  -3.545  1.00 20.00     0.012 C 
HETATM   10  C7  UNL     1     -33.444  17.011  -1.896  1.00 20.00     0.012 C 
ENDBRANCH   3   8
TORSDOF 1
ENDMDL
MODEL 6
REMARK VINA RESULT:      -3.2     13.073     14.463
REMARK  1 active torsions:
REMARK  status: ('A' for Active; 'I' for Inactive)
REMARK    1  A    between atoms: C3_3  and  C8_8 
ROOT
HETATM    1  C1  UNL     1     -24.121  -3.079   9.707  1.00 20.00     0.017 C 
HETATM    2  C2  UNL     1     -23.189  -2.859  10.889  1.00 20.00     0.092 C 
HETATM    3  C3  UNL     1     -25.745  -3.013  11.286  1.00 20.00     0.173 C 
HETATM    4  C4  UNL     1     -23.529  -3.197   8.330  1.00 20.00     0.066 C 
HETATM    5  C5  UNL     1     -22.325  -4.082  11.148  1.00 20.00     0.028 C 
HETATM    6  N9  UNL     1     -25.404  -3.183   9.864  1.00 20.00    -0.282 NA
HETATM    7  S10 UNL     1     -24.302  -2.569  12.281  1.00 20.00    -0.131 SA
ENDROOT
BRANCH   3   8
HETATM    8  C8  UNL     1     -26.812  -1.933  11.402  1.00 20.00     0.012 C 
HETATM    9  C6  UNL     1     -26.197  -0.609  11.855  1.00 20.00     0.012 C 
HETATM   10  C7  UNL     1     -27.548  -1.754  10.075  1.00 20.00     0.012 C 
ENDBRANCH   3   8
TORSDOF 1
ENDMDL
MODEL 7
REMARK VINA RESULT:      -3.1     12.620     13.568
REMARK  1 active torsions:
REMARK  status: ('A' for Active; 'I' for Inactive)
REMARK    1  A    between atoms: C3_3  and  C8_8 
ROOT
HETATM    1  C1  UNL     1     -34.784  18.260  -2.690  1.00 20.00     0.017 C 
HETATM    2  C2  UNL     1     -33.786  17.333  -2.012  1.00 20.00     0.092 C 
HETATM    3  C3  UNL     1     -34.174  17.146  -4.567  1.00 20.00     0.173 C 
HETATM    4  C4  UNL     1     -35.526  19.263  -1.852  1.00 20.00     0.066 C 
HETATM    5  C5  UNL     1     -32.577  18.098  -1.501  1.00 20.00     0.028 C 
HETATM    6  N9  UNL     1     -34.992  18.214  -3.969  1.00 20.00    -0.282 NA
HETATM    7  S10 UNL     1     -33.297  16.181  -3.314  1.00 20.00    -0.131 SA
ENDROOT
BRANCH   3   8
HETATM    8  C8  UNL     1     -35.084  16.238  -5.383  1.00 20.00     0.012 C 
HETATM    9  C6  UNL     1     -34.861  16.450  -6.881  1.00 20.00     0.012 C 
HETATM   10  C7  UNL     1     -34.860  14.773  -5.013  1.00 20.00     0.012 C 
ENDBRANCH   3   8
TORSDOF 1
ENDMDL
MODEL 8
REMARK VINA RESULT:      -3.1     10.988     11.791
REMARK  1 active torsions:
REMARK  status: ('A' for Active; 'I' for Inactive)
REMARK    1  A    between atoms: C3_3  and  C8_8 
ROOT
HETATM    1  C1  UNL     1     -40.930  14.517   8.913  1.00 20.00     0.017 C 
HETATM    2  C2  UNL     1     -42.408  14.832   8.741  1.00 20.00     0.092 C 
HETATM    3  C3  UNL     1     -41.256  13.174   7.117  1.00 20.00     0.173 C 
HETATM    4  C4  UNL     1     -40.172  15.185  10.026  1.00 20.00     0.066 C 
HETATM    5  C5  UNL     1     -43.229  14.285   9.897  1.00 20.00     0.028 C 
HETATM    6  N9  UNL     1     -40.320  13.678   8.135  1.00 20.00    -0.282 NA
HETATM    7  S10 UNL     1     -42.861  14.004   7.202  1.00 20.00    -0.131 SA
ENDROOT
BRANCH   3   8
HETATM    8  C8  UNL     1     -40.633  13.381   5.742  1.00 20.00     0.012 C 
HETATM    9  C6  UNL     1     -39.974  12.094   5.247  1.00 20.00     0.012 C 
HETATM   10  C7  UNL     1     -41.681  13.863   4.740  1.00 20.00     0.012 C 
ENDBRANCH   3   8
TORSDOF 1
ENDMDL
MODEL 9
REMARK VINA RESULT:      -3.1     12.139     14.011
REMARK  1 active torsions:
REMARK  status: ('A' for Active; 'I' for Inactive)
REMARK    1  A    between atoms: C3_3  and  C8_8 
ROOT
HETATM    1  C1  UNL     1     -36.549  16.860  -5.151  1.00 20.00     0.017 C 
HETATM    2  C2  UNL     1     -36.243  18.300  -4.769  1.00 20.00     0.092 C 
HETATM    3  C3  UNL     1     -34.295  16.624  -5.105  1.00 20.00     0.173 C 
HETATM    4  C4  UNL     1     -37.983  16.444  -5.320  1.00 20.00     0.066 C 
HETATM    5  C5  UNL     1     -36.596  19.259  -5.893  1.00 20.00     0.028 C 
HETATM    6  N9  UNL     1     -35.603  15.994  -5.350  1.00 20.00    -0.282 NA
HETATM    7  S10 UNL     1     -34.462  18.309  -4.471  1.00 20.00    -0.131 SA
ENDROOT
BRANCH   3   8
HETATM    8  C8  UNL     1     -33.523  15.766  -4.112  1.00 20.00     0.012 C 
HETATM    9  C6  UNL     1     -33.517  16.412  -2.726  1.00 20.00     0.012 C 
HETATM   10  C7  UNL     1     -34.111  14.358  -4.041  1.00 20.00     0.012 C 
ENDBRANCH   3   8
TORSDOF 1
ENDMDL
