MODEL 1
REMARK VINA RESULT:      -3.4      0.000      0.000
REMARK  2 active torsions:
REMARK  status: ('A' for Active; 'I' for Inactive)
REMARK    1  A    between atoms: C1_1  and  C8_8 
REMARK    2  A    between atoms: C9_9  and  N10_10 
ROOT
HETATM    1  C1  UNL     1     -33.914  16.668  -3.693  1.00 20.00     0.092 C 
HETATM    2  N10 UNL     1     -34.722  16.482  -4.680  1.00 20.00    -0.295 NA
ENDROOT
BRANCH   1   3
HETATM    3  C8  UNL     1     -33.915  17.946  -2.867  1.00 20.00    -0.018 C 
HETATM    4  C2  UNL     1     -35.327  18.539  -2.930  1.00 20.00     0.020 C 
HETATM    5  C3  UNL     1     -33.573  17.566  -1.422  1.00 20.00     0.020 C 
HETATM    6  C4  UNL     1     -32.901  18.973  -3.386  1.00 20.00     0.020 C 
ENDBRANCH   1   3
BRANCH   2   7
HETATM    7  C9  UNL     1     -34.542  15.187  -5.329  1.00 20.00     0.042 C 
HETATM    8  C5  UNL     1     -34.038  15.426  -6.752  1.00 20.00     0.039 C 
HETATM    9  C6  UNL     1     -33.515  14.396  -4.521  1.00 20.00     0.039 C 
HETATM   10  C7  UNL     1     -35.888  14.463  -5.344  1.00 20.00     0.039 C 
ENDBRANCH   2   7
TORSDOF 2
ENDMDL
MODEL 2
REMARK VINA RESULT:      -3.4      0.105      1.364
REMARK  2 active torsions:
REMARK  status: ('A' for Active; 'I' for Inactive)
REMARK    1  A    between atoms: C1_1  and  C8_8 
REMARK    2  A    between atoms: C9_9  and  N10_10 
ROOT
HETATM    1  C1  UNL     1     -33.945  16.618  -3.612  1.00 20.00     0.092 C 
HETATM    2  N10 UNL     1     -34.717  16.455  -4.631  1.00 20.00    -0.295 NA
ENDROOT
BRANCH   1   3
HETATM    3  C8  UNL     1     -33.968  17.882  -2.764  1.00 20.00    -0.018 C 
HETATM    4  C2  UNL     1     -33.637  17.480  -1.322  1.00 20.00     0.020 C 
HETATM    5  C3  UNL     1     -32.886  18.824  -3.305  1.00 20.00     0.020 C 
HETATM    6  C4  UNL     1     -35.332  18.582  -2.805  1.00 20.00     0.020 C 
ENDBRANCH   1   3
BRANCH   2   7
HETATM    7  C9  UNL     1     -34.522  15.170  -5.296  1.00 20.00     0.042 C 
HETATM    8  C5  UNL     1     -34.052  15.434  -6.726  1.00 20.00     0.039 C 
HETATM    9  C6  UNL     1     -33.461  14.395  -4.516  1.00 20.00     0.039 C 
HETATM   10  C7  UNL     1     -35.851  14.417  -5.290  1.00 20.00     0.039 C 
ENDBRANCH   2   7
TORSDOF 2
ENDMDL
MODEL 3
REMARK VINA RESULT:      -3.4      0.038      1.375
REMARK  2 active torsions:
REMARK  status: ('A' for Active; 'I' for Inactive)
REMARK    1  A    between atoms: C1_1  and  C8_8 
REMARK    2  A    between atoms: C9_9  and  N10_10 
ROOT
HETATM    1  C1  UNL     1     -33.915  16.667  -3.664  1.00 20.00     0.092 C 
HETATM    2  N10 UNL     1     -34.715  16.488  -4.658  1.00 20.00    -0.295 NA
ENDROOT
BRANCH   1   3
HETATM    3  C8  UNL     1     -33.925  17.940  -2.827  1.00 20.00    -0.018 C 
HETATM    4  C2  UNL     1     -35.331  18.542  -2.916  1.00 20.00     0.020 C 
HETATM    5  C3  UNL     1     -33.616  17.545  -1.379  1.00 20.00     0.020 C 
HETATM    6  C4  UNL     1     -32.893  18.963  -3.317  1.00 20.00     0.020 C 
ENDBRANCH   1   3
BRANCH   2   7
HETATM    7  C9  UNL     1     -34.527  15.198  -5.316  1.00 20.00     0.042 C 
HETATM    8  C5  UNL     1     -33.495  14.398  -4.522  1.00 20.00     0.039 C 
HETATM    9  C6  UNL     1     -35.874  14.477  -5.328  1.00 20.00     0.039 C 
HETATM   10  C7  UNL     1     -34.040  15.451  -6.742  1.00 20.00     0.039 C 
ENDBRANCH   2   7
TORSDOF 2
ENDMDL
MODEL 4
REMARK VINA RESULT:      -3.4     11.843     13.243
REMARK  2 active torsions:
REMARK  status: ('A' for Active; 'I' for Inactive)
REMARK    1  A    between atoms: C1_1  and  C8_8 
REMARK    2  A    between atoms: C9_9  and  N10_10 
ROOT
HETATM    1  C1  UNL     1     -33.467   6.583   4.479  1.00 20.00     0.092 C 
HETATM    2  N10 UNL     1     -33.761   7.794   4.149  1.00 20.00    -0.295 NA
ENDROOT
BRANCH   1   3
HETATM    3  C8  UNL     1     -34.517   5.592   4.965  1.00 20.00    -0.018 C 
HETATM    4  C2  UNL     1     -35.850   5.969   4.309  1.00 20.00     0.020 C 
HETATM    5  C3  UNL     1     -34.084   4.196   4.504  1.00 20.00     0.020 C 
HETATM    6  C4  UNL     1     -34.668   5.610   6.491  1.00 20.00     0.020 C 
ENDBRANCH   1   3
BRANCH   2   7
HETATM    7  C9  UNL     1     -32.599   8.565   3.717  1.00 20.00     0.042 C 
HETATM    8  C5  UNL     1     -32.031   9.302   4.929  1.00 20.00     0.039 C 
HETATM    9  C6  UNL     1     -31.570   7.587   3.152  1.00 20.00     0.039 C 
HETATM   10  C7  UNL     1     -33.049   9.554   2.642  1.00 20.00     0.039 C 
ENDBRANCH   2   7
TORSDOF 2
ENDMDL
MODEL 5
REMARK VINA RESULT:      -3.3     11.836     13.222
REMARK  2 active torsions:
REMARK  status: ('A' for Active; 'I' for Inactive)
REMARK    1  A    between atoms: C1_1  and  C8_8 
REMARK    2  A    between atoms: C9_9  and  N10_10 
ROOT
HETATM    1  C1  UNL     1     -33.467   6.588   4.477  1.00 20.00     0.092 C 
HETATM    2  N10 UNL     1     -33.761   7.798   4.138  1.00 20.00    -0.295 NA
ENDROOT
BRANCH   1   3
HETATM    3  C8  UNL     1     -34.518   5.600   4.963  1.00 20.00    -0.018 C 
HETATM    4  C2  UNL     1     -35.849   5.975   4.302  1.00 20.00     0.020 C 
HETATM    5  C3  UNL     1     -34.085   4.201   4.508  1.00 20.00     0.020 C 
HETATM    6  C4  UNL     1     -34.674   5.623   6.488  1.00 20.00     0.020 C 
ENDBRANCH   1   3
BRANCH   2   7
HETATM    7  C9  UNL     1     -32.597   8.567   3.706  1.00 20.00     0.042 C 
HETATM    8  C5  UNL     1     -33.048   9.564   2.638  1.00 20.00     0.039 C 
HETATM    9  C6  UNL     1     -32.041   9.300   4.926  1.00 20.00     0.039 C 
HETATM   10  C7  UNL     1     -31.560   7.597   3.141  1.00 20.00     0.039 C 
ENDBRANCH   2   7
TORSDOF 2
ENDMDL
MODEL 6
REMARK VINA RESULT:      -3.3      0.087      1.961
REMARK  2 active torsions:
REMARK  status: ('A' for Active; 'I' for Inactive)
REMARK    1  A    between atoms: C1_1  and  C8_8 
REMARK    2  A    between atoms: C9_9  and  N10_10 
ROOT
HETATM    1  C1  UNL     1     -33.939  16.707  -3.685  1.00 20.00     0.092 C 
HETATM    2  N10 UNL     1     -34.804  16.480  -4.614  1.00 20.00    -0.295 NA
ENDROOT
BRANCH   1   3
HETATM    3  C8  UNL     1     -33.975  17.964  -2.826  1.00 20.00    -0.018 C 
HETATM    4  C2  UNL     1     -32.925  18.934  -3.379  1.00 20.00     0.020 C 
HETATM    5  C3  UNL     1     -35.374  18.577  -2.959  1.00 20.00     0.020 C 
HETATM    6  C4  UNL     1     -33.678  17.667  -1.351  1.00 20.00     0.020 C 
ENDBRANCH   1   3
BRANCH   2   7
HETATM    7  C9  UNL     1     -34.576  15.216  -5.309  1.00 20.00     0.042 C 
HETATM    8  C5  UNL     1     -35.892  14.441  -5.344  1.00 20.00     0.039 C 
HETATM    9  C6  UNL     1     -34.104  15.539  -6.727  1.00 20.00     0.039 C 
HETATM   10  C7  UNL     1     -33.504  14.435  -4.550  1.00 20.00     0.039 C 
ENDBRANCH   2   7
TORSDOF 2
ENDMDL
MODEL 7
REMARK VINA RESULT:      -3.1     24.120     25.601
REMARK  2 active torsions:
REMARK  status: ('A' for Active; 'I' for Inactive)
REMARK    1  A    between atoms: C1_1  and  C8_8 
REMARK    2  A    between atoms: C9_9  and  N10_10 
ROOT
HETATM    1  C1  UNL     1     -25.840  -2.779  10.116  1.00 20.00     0.092 C 
HETATM    2  N10 UNL     1     -26.352  -2.104  11.088  1.00 20.00    -0.295 NA
ENDROOT
BRANCH   1   3
HETATM    3  C8  UNL     1     -24.404  -3.284  10.141  1.00 20.00    -0.018 C 
HETATM    4  C2  UNL     1     -23.624  -2.415  11.133  1.00 20.00     0.020 C 
HETATM    5  C3  UNL     1     -24.431  -4.737  10.627  1.00 20.00     0.020 C 
HETATM    6  C4  UNL     1     -23.741  -3.212   8.760  1.00 20.00     0.020 C 
ENDBRANCH   1   3
BRANCH   2   7
HETATM    7  C9  UNL     1     -27.741  -1.722  10.848  1.00 20.00     0.042 C 
HETATM    8  C5  UNL     1     -27.755  -0.341  10.194  1.00 20.00     0.039 C 
HETATM    9  C6  UNL     1     -28.360  -2.765   9.918  1.00 20.00     0.039 C 
HETATM   10  C7  UNL     1     -28.473  -1.696  12.189  1.00 20.00     0.039 C 
ENDBRANCH   2   7
TORSDOF 2
ENDMDL
MODEL 8
REMARK VINA RESULT:      -3.1      1.073      4.311
REMARK  2 active torsions:
REMARK  status: ('A' for Active; 'I' for Inactive)
REMARK    1  A    between atoms: C1_1  and  C8_8 
REMARK    2  A    between atoms: C9_9  and  N10_10 
ROOT
HETATM    1  C1  UNL     1     -34.461  16.317  -4.600  1.00 20.00     0.092 C 
HETATM    2  N10 UNL     1     -34.804  17.495  -4.203  1.00 20.00    -0.295 NA
ENDROOT
BRANCH   1   3
HETATM    3  C8  UNL     1     -35.122  15.632  -5.788  1.00 20.00    -0.018 C 
HETATM    4  C2  UNL     1     -36.072  16.643  -6.438  1.00 20.00     0.020 C 
HETATM    5  C3  UNL     1     -34.015  15.245  -6.775  1.00 20.00     0.020 C 
HETATM    6  C4  UNL     1     -35.905  14.380  -5.372  1.00 20.00     0.020 C 
ENDBRANCH   1   3
BRANCH   2   7
HETATM    7  C9  UNL     1     -34.040  17.953  -3.046  1.00 20.00     0.042 C 
HETATM    8  C5  UNL     1     -32.971  18.933  -3.532  1.00 20.00     0.039 C 
HETATM    9  C6  UNL     1     -35.008  18.645  -2.088  1.00 20.00     0.039 C 
HETATM   10  C7  UNL     1     -33.399  16.737  -2.379  1.00 20.00     0.039 C 
ENDBRANCH   2   7
TORSDOF 2
ENDMDL
MODEL 9
REMARK VINA RESULT:      -3.1     24.147     25.561
REMARK  2 active torsions:
REMARK  status: ('A' for Active; 'I' for Inactive)
REMARK    1  A    between atoms: C1_1  and  C8_8 
REMARK    2  A    between atoms: C9_9  and  N10_10 
ROOT
HETATM    1  C1  UNL     1     -26.267  -2.225  10.894  1.00 20.00     0.092 C 
HETATM    2  N10 UNL     1     -25.705  -2.887   9.942  1.00 20.00    -0.295 NA
ENDROOT
BRANCH   1   3
HETATM    3  C8  UNL     1     -27.713  -1.755  10.819  1.00 20.00    -0.018 C 
HETATM    4  C2  UNL     1     -27.716  -0.360  10.183  1.00 20.00     0.020 C 
HETATM    5  C3  UNL     1     -28.474  -2.739   9.924  1.00 20.00     0.020 C 
HETATM    6  C4  UNL     1     -28.375  -1.694  12.201  1.00 20.00     0.020 C 
ENDBRANCH   1   3
BRANCH   2   7
HETATM    7  C9  UNL     1     -24.315  -3.231  10.228  1.00 20.00     0.042 C 
HETATM    8  C5  UNL     1     -23.767  -2.221  11.237  1.00 20.00     0.039 C 
HETATM    9  C6  UNL     1     -24.292  -4.642  10.813  1.00 20.00     0.039 C 
HETATM   10  C7  UNL     1     -23.525  -3.177   8.921  1.00 20.00     0.039 C 
ENDBRANCH   2   7
TORSDOF 2
ENDMDL
