MODEL 1
REMARK VINA RESULT:      -4.2      0.000      0.000
REMARK  1 active torsions:
REMARK  status: ('A' for Active; 'I' for Inactive)
REMARK    1  A    between atoms: C5_5  and  C10_10 
ROOT
HETATM    1  C1  UNL     1     -24.371  18.631   9.747  1.00 20.00    -0.018 C 
HETATM    2  C2  UNL     1     -23.640  18.117   8.747  1.00 20.00    -0.025 C 
HETATM    3  C3  UNL     1     -22.388  18.502  11.254  1.00 20.00     0.135 C 
HETATM    4  C4  UNL     1     -21.522  18.603  10.019  1.00 20.00     0.087 C 
HETATM    5  C5  UNL     1     -23.836  18.974  11.110  1.00 20.00     0.081 C 
HETATM    6  C6  UNL     1     -22.164  17.842   8.855  1.00 20.00     0.010 C 
HETATM    7  C7  UNL     1     -21.450  18.194   7.549  1.00 20.00     0.014 C 
HETATM    8  O11 UNL     1     -21.911  18.147  12.332  1.00 20.00    -0.297 OA
ENDROOT
BRANCH   5   9
HETATM    9  C10 UNL     1     -24.714  18.358  12.197  1.00 20.00    -0.008 C 
HETATM   10  C8  UNL     1     -26.028  19.128  12.331  1.00 20.00     0.010 C 
HETATM   11  C9  UNL     1     -24.986  16.884  11.901  1.00 20.00     0.010 C 
ENDBRANCH   5   9
TORSDOF 1
ENDMDL
MODEL 2
REMARK VINA RESULT:      -4.1     16.929     18.352
REMARK  1 active torsions:
REMARK  status: ('A' for Active; 'I' for Inactive)
REMARK    1  A    between atoms: C5_5  and  C10_10 
ROOT
HETATM    1  C1  UNL     1     -33.279  16.357  -3.082  1.00 20.00    -0.018 C 
HETATM    2  C2  UNL     1     -33.435  16.969  -1.899  1.00 20.00    -0.025 C 
HETATM    3  C3  UNL     1     -35.061  17.803  -4.059  1.00 20.00     0.135 C 
HETATM    4  C4  UNL     1     -34.709  18.835  -3.011  1.00 20.00     0.087 C 
HETATM    5  C5  UNL     1     -34.003  16.736  -4.344  1.00 20.00     0.081 C 
HETATM    6  C6  UNL     1     -34.345  18.151  -1.690  1.00 20.00     0.010 C 
HETATM    7  C7  UNL     1     -33.708  19.164  -0.739  1.00 20.00     0.014 C 
HETATM    8  O11 UNL     1     -36.106  17.889  -4.703  1.00 20.00    -0.297 OA
ENDROOT
BRANCH   5   9
HETATM    9  C10 UNL     1     -34.639  15.504  -4.984  1.00 20.00    -0.008 C 
HETATM   10  C8  UNL     1     -34.186  15.355  -6.436  1.00 20.00     0.010 C 
HETATM   11  C9  UNL     1     -34.301  14.245  -4.186  1.00 20.00     0.010 C 
ENDBRANCH   5   9
TORSDOF 1
ENDMDL
MODEL 3
REMARK VINA RESULT:      -4.1     15.136     16.497
REMARK  1 active torsions:
REMARK  status: ('A' for Active; 'I' for Inactive)
REMARK    1  A    between atoms: C5_5  and  C10_10 
ROOT
HETATM    1  C1  UNL     1     -33.046   6.321   3.050  1.00 20.00    -0.018 C 
HETATM    2  C2  UNL     1     -34.054   5.880   3.816  1.00 20.00    -0.025 C 
HETATM    3  C3  UNL     1     -32.589   8.131   4.704  1.00 20.00     0.135 C 
HETATM    4  C4  UNL     1     -33.196   7.234   5.758  1.00 20.00     0.087 C 
HETATM    5  C5  UNL     1     -32.122   7.449   3.417  1.00 20.00     0.081 C 
HETATM    6  C6  UNL     1     -34.372   6.445   5.175  1.00 20.00     0.010 C 
HETATM    7  C7  UNL     1     -34.784   5.335   6.142  1.00 20.00     0.014 C 
HETATM    8  O11 UNL     1     -32.403   9.327   4.924  1.00 20.00    -0.297 OA
ENDROOT
BRANCH   5   9
HETATM    9  C10 UNL     1     -32.032   8.457   2.274  1.00 20.00    -0.008 C 
HETATM   10  C8  UNL     1     -31.975   7.741   0.925  1.00 20.00     0.010 C 
HETATM   11  C9  UNL     1     -33.212   9.427   2.315  1.00 20.00     0.010 C 
ENDBRANCH   5   9
TORSDOF 1
ENDMDL
MODEL 4
REMARK VINA RESULT:      -4.1     15.444     16.870
REMARK  1 active torsions:
REMARK  status: ('A' for Active; 'I' for Inactive)
REMARK    1  A    between atoms: C5_5  and  C10_10 
ROOT
HETATM    1  C1  UNL     1     -33.882   7.893   5.491  1.00 20.00    -0.018 C 
HETATM    2  C2  UNL     1     -34.094   6.948   6.418  1.00 20.00    -0.025 C 
HETATM    3  C3  UNL     1     -33.569   6.119   3.765  1.00 20.00     0.135 C 
HETATM    4  C4  UNL     1     -34.446   5.227   4.614  1.00 20.00     0.087 C 
HETATM    5  C5  UNL     1     -33.673   7.623   4.026  1.00 20.00     0.081 C 
HETATM    6  C6  UNL     1     -34.182   5.478   6.101  1.00 20.00     0.010 C 
HETATM    7  C7  UNL     1     -35.267   4.805   6.942  1.00 20.00     0.014 C 
HETATM    8  O11 UNL     1     -32.885   5.651   2.855  1.00 20.00    -0.297 OA
ENDROOT
BRANCH   5   9
HETATM    9  C10 UNL     1     -32.424   8.345   3.525  1.00 20.00    -0.008 C 
HETATM   10  C8  UNL     1     -32.730   9.132   2.251  1.00 20.00     0.010 C 
HETATM   11  C9  UNL     1     -31.866   9.271   4.605  1.00 20.00     0.010 C 
ENDBRANCH   5   9
TORSDOF 1
ENDMDL
MODEL 5
REMARK VINA RESULT:      -4.0     15.292     16.275
REMARK  1 active torsions:
REMARK  status: ('A' for Active; 'I' for Inactive)
REMARK    1  A    between atoms: C5_5  and  C10_10 
ROOT
HETATM    1  C1  UNL     1     -33.643   5.980   3.493  1.00 20.00    -0.018 C 
HETATM    2  C2  UNL     1     -32.788   6.213   2.487  1.00 20.00    -0.025 C 
HETATM    3  C3  UNL     1     -33.018   8.165   4.521  1.00 20.00     0.135 C 
HETATM    4  C4  UNL     1     -32.658   8.643   3.133  1.00 20.00     0.087 C 
HETATM    5  C5  UNL     1     -33.942   6.950   4.603  1.00 20.00     0.081 C 
HETATM    6  C6  UNL     1     -32.031   7.505   2.322  1.00 20.00     0.010 C 
HETATM    7  C7  UNL     1     -31.949   7.901   0.848  1.00 20.00     0.014 C 
HETATM    8  O11 UNL     1     -32.654   8.789   5.518  1.00 20.00    -0.297 OA
ENDROOT
BRANCH   5   9
HETATM    9  C10 UNL     1     -33.810   6.262   5.961  1.00 20.00    -0.008 C 
HETATM   10  C8  UNL     1     -34.495   7.085   7.052  1.00 20.00     0.010 C 
HETATM   11  C9  UNL     1     -34.392   4.850   5.910  1.00 20.00     0.010 C 
ENDBRANCH   5   9
TORSDOF 1
ENDMDL
MODEL 6
REMARK VINA RESULT:      -3.8     17.552     18.991
REMARK  1 active torsions:
REMARK  status: ('A' for Active; 'I' for Inactive)
REMARK    1  A    between atoms: C5_5  and  C10_10 
ROOT
HETATM    1  C1  UNL     1     -34.513  17.636  -4.932  1.00 20.00    -0.018 C 
HETATM    2  C2  UNL     1     -33.700  18.195  -4.025  1.00 20.00    -0.025 C 
HETATM    3  C3  UNL     1     -33.845  15.372  -4.124  1.00 20.00     0.135 C 
HETATM    4  C4  UNL     1     -33.543  16.009  -2.786  1.00 20.00     0.087 C 
HETATM    5  C5  UNL     1     -34.766  16.158  -5.058  1.00 20.00     0.081 C 
HETATM    6  C6  UNL     1     -32.951  17.408  -2.983  1.00 20.00     0.010 C 
HETATM    7  C7  UNL     1     -32.929  18.155  -1.649  1.00 20.00     0.014 C 
HETATM    8  O11 UNL     1     -33.441  14.241  -4.390  1.00 20.00    -0.297 OA
ENDROOT
BRANCH   5   9
HETATM    9  C10 UNL     1     -34.578  15.707  -6.505  1.00 20.00    -0.008 C 
HETATM   10  C8  UNL     1     -35.783  14.895  -6.979  1.00 20.00     0.010 C 
HETATM   11  C9  UNL     1     -34.351  16.910  -7.420  1.00 20.00     0.010 C 
ENDBRANCH   5   9
TORSDOF 1
ENDMDL
MODEL 7
REMARK VINA RESULT:      -3.7     19.767     20.910
REMARK  1 active torsions:
REMARK  status: ('A' for Active; 'I' for Inactive)
REMARK    1  A    between atoms: C5_5  and  C10_10 
ROOT
HETATM    1  C1  UNL     1     -25.878  -3.010  10.152  1.00 20.00    -0.018 C 
HETATM    2  C2  UNL     1     -26.939  -2.191  10.167  1.00 20.00    -0.025 C 
HETATM    3  C3  UNL     1     -24.766  -1.590  11.875  1.00 20.00     0.135 C 
HETATM    4  C4  UNL     1     -26.146  -1.170  12.327  1.00 20.00     0.087 C 
HETATM    5  C5  UNL     1     -24.682  -2.878  11.055  1.00 20.00     0.081 C 
HETATM    6  C6  UNL     1     -27.085  -1.038  11.124  1.00 20.00     0.010 C 
HETATM    7  C7  UNL     1     -28.530  -0.911  11.605  1.00 20.00     0.014 C 
HETATM    8  O11 UNL     1     -23.767  -0.969  12.236  1.00 20.00    -0.297 OA
ENDROOT
BRANCH   5   9
HETATM    9  C10 UNL     1     -23.392  -2.915  10.238  1.00 20.00    -0.008 C 
HETATM   10  C8  UNL     1     -22.422  -3.950  10.809  1.00 20.00     0.010 C 
HETATM   11  C9  UNL     1     -23.690  -3.215   8.770  1.00 20.00     0.010 C 
ENDBRANCH   5   9
TORSDOF 1
ENDMDL
MODEL 8
REMARK VINA RESULT:      -3.6     17.723     19.228
REMARK  1 active torsions:
REMARK  status: ('A' for Active; 'I' for Inactive)
REMARK    1  A    between atoms: C5_5  and  C10_10 
ROOT
HETATM    1  C1  UNL     1     -40.244  14.352   6.822  1.00 20.00    -0.018 C 
HETATM    2  C2  UNL     1     -40.599  14.980   7.952  1.00 20.00    -0.025 C 
HETATM    3  C3  UNL     1     -42.220  12.847   7.044  1.00 20.00     0.135 C 
HETATM    4  C4  UNL     1     -42.894  13.952   7.825  1.00 20.00     0.087 C 
HETATM    5  C5  UNL     1     -41.040  13.259   6.164  1.00 20.00     0.081 C 
HETATM    6  C6  UNL     1     -41.874  14.687   8.699  1.00 20.00     0.010 C 
HETATM    7  C7  UNL     1     -42.490  15.975   9.246  1.00 20.00     0.014 C 
HETATM    8  O11 UNL     1     -42.670  11.701   7.056  1.00 20.00    -0.297 OA
ENDROOT
BRANCH   5   9
HETATM    9  C10 UNL     1     -40.146  12.057   5.863  1.00 20.00    -0.008 C 
HETATM   10  C8  UNL     1     -39.687  12.078   4.405  1.00 20.00     0.010 C 
HETATM   11  C9  UNL     1     -38.942  12.030   6.803  1.00 20.00     0.010 C 
ENDBRANCH   5   9
TORSDOF 1
ENDMDL
MODEL 9
REMARK VINA RESULT:      -3.5     15.515     16.425
REMARK  1 active torsions:
REMARK  status: ('A' for Active; 'I' for Inactive)
REMARK    1  A    between atoms: C5_5  and  C10_10 
ROOT
HETATM    1  C1  UNL     1     -33.803   5.893   3.657  1.00 20.00    -0.018 C 
HETATM    2  C2  UNL     1     -32.796   6.168   2.815  1.00 20.00    -0.025 C 
HETATM    3  C3  UNL     1     -33.615   8.186   4.621  1.00 20.00     0.135 C 
HETATM    4  C4  UNL     1     -33.043   8.628   3.294  1.00 20.00     0.087 C 
HETATM    5  C5  UNL     1     -34.409   6.879   4.618  1.00 20.00     0.081 C 
HETATM    6  C6  UNL     1     -32.158   7.527   2.701  1.00 20.00     0.010 C 
HETATM    7  C7  UNL     1     -31.832   7.852   1.243  1.00 20.00     0.014 C 
HETATM    8  O11 UNL     1     -33.517   8.899   5.620  1.00 20.00    -0.297 OA
ENDROOT
BRANCH   5   9
HETATM    9  C10 UNL     1     -34.473   6.283   6.023  1.00 20.00    -0.008 C 
HETATM   10  C8  UNL     1     -34.674   4.769   5.959  1.00 20.00     0.010 C 
HETATM   11  C9  UNL     1     -33.209   6.623   6.812  1.00 20.00     0.010 C 
ENDBRANCH   5   9
TORSDOF 1
ENDMDL
