MODEL 1
REMARK VINA RESULT:      -3.7      0.000      0.000
REMARK  1 active torsions:
REMARK  status: ('A' for Active; 'I' for Inactive)
REMARK    1  A    between atoms: C3_3  and  C8_8 
ROOT
HETATM    1  C1  UNL     1     -25.188  18.500  11.678  1.00 20.00     0.017 C 
HETATM    2  C2  UNL     1     -24.076  17.626  12.235  1.00 20.00     0.092 C 
HETATM    3  C3  UNL     1     -23.603  19.148  10.191  1.00 20.00     0.173 C 
HETATM    4  C4  UNL     1     -26.540  18.458  12.332  1.00 20.00     0.066 C 
HETATM    5  C5  UNL     1     -24.359  16.152  11.995  1.00 20.00     0.028 C 
HETATM    6  N9  UNL     1     -25.001  19.257  10.640  1.00 20.00    -0.282 NA
HETATM    7  S10 UNL     1     -22.608  18.144  11.320  1.00 20.00    -0.131 SA
ENDROOT
BRANCH   3   8
HETATM    8  C8  UNL     1     -23.587  18.542   8.794  1.00 20.00     0.012 C 
HETATM    9  C6  UNL     1     -24.577  19.263   7.879  1.00 20.00     0.012 C 
HETATM   10  C7  UNL     1     -22.180  18.590   8.200  1.00 20.00     0.012 C 
ENDBRANCH   3   8
TORSDOF 1
ENDMDL
MODEL 2
REMARK VINA RESULT:      -3.6     15.180     17.052
REMARK  1 active torsions:
REMARK  status: ('A' for Active; 'I' for Inactive)
REMARK    1  A    between atoms: C3_3  and  C8_8 
ROOT
HETATM    1  C1  UNL     1     -33.732  16.134  -3.809  1.00 20.00     0.017 C 
HETATM    2  C2  UNL     1     -34.140  17.342  -4.637  1.00 20.00     0.092 C 
HETATM    3  C3  UNL     1     -33.111  17.693  -2.284  1.00 20.00     0.173 C 
HETATM    4  C4  UNL     1     -33.937  14.759  -4.381  1.00 20.00     0.066 C 
HETATM    5  C5  UNL     1     -35.649  17.422  -4.792  1.00 20.00     0.028 C 
HETATM    6  N9  UNL     1     -33.238  16.265  -2.615  1.00 20.00    -0.282 NA
HETATM    7  S10 UNL     1     -33.526  18.752  -3.692  1.00 20.00    -0.131 SA
ENDROOT
BRANCH   3   8
HETATM    8  C8  UNL     1     -34.026  18.002  -1.106  1.00 20.00     0.012 C 
HETATM    9  C6  UNL     1     -33.208  18.324   0.145  1.00 20.00     0.012 C 
HETATM   10  C7  UNL     1     -34.966  19.159  -1.440  1.00 20.00     0.012 C 
ENDBRANCH   3   8
TORSDOF 1
ENDMDL
MODEL 3
REMARK VINA RESULT:      -3.5     17.434     19.332
REMARK  1 active torsions:
REMARK  status: ('A' for Active; 'I' for Inactive)
REMARK    1  A    between atoms: C3_3  and  C8_8 
ROOT
HETATM    1  C1  UNL     1     -34.436  17.906  -6.582  1.00 20.00     0.017 C 
HETATM    2  C2  UNL     1     -35.054  16.597  -7.047  1.00 20.00     0.092 C 
HETATM    3  C3  UNL     1     -34.667  17.002  -4.516  1.00 20.00     0.173 C 
HETATM    4  C4  UNL     1     -34.064  18.938  -7.610  1.00 20.00     0.066 C 
HETATM    5  C5  UNL     1     -34.049  15.751  -7.811  1.00 20.00     0.028 C 
HETATM    6  N9  UNL     1     -34.201  18.138  -5.327  1.00 20.00    -0.282 NA
HETATM    7  S10 UNL     1     -35.539  15.771  -5.516  1.00 20.00    -0.131 SA
ENDROOT
BRANCH   3   8
HETATM    8  C8  UNL     1     -33.463  16.367  -3.832  1.00 20.00     0.012 C 
HETATM    9  C6  UNL     1     -33.478  16.658  -2.331  1.00 20.00     0.012 C 
HETATM   10  C7  UNL     1     -33.431  14.860  -4.083  1.00 20.00     0.012 C 
ENDBRANCH   3   8
TORSDOF 1
ENDMDL
MODEL 4
REMARK VINA RESULT:      -3.3     17.193     18.323
REMARK  1 active torsions:
REMARK  status: ('A' for Active; 'I' for Inactive)
REMARK    1  A    between atoms: C3_3  and  C8_8 
ROOT
HETATM    1  C1  UNL     1     -42.083  13.607   7.493  1.00 20.00     0.017 C 
HETATM    2  C2  UNL     1     -42.326  14.776   6.551  1.00 20.00     0.092 C 
HETATM    3  C3  UNL     1     -41.178  12.631   5.657  1.00 20.00     0.173 C 
HETATM    4  C4  UNL     1     -42.518  13.727   8.926  1.00 20.00     0.066 C 
HETATM    5  C5  UNL     1     -41.459  15.969   6.915  1.00 20.00     0.028 C 
HETATM    6  N9  UNL     1     -41.488  12.525   7.092  1.00 20.00    -0.282 NA
HETATM    7  S10 UNL     1     -41.870  14.135   4.926  1.00 20.00    -0.131 SA
ENDROOT
BRANCH   3   8
HETATM    8  C8  UNL     1     -39.666  12.609   5.482  1.00 20.00     0.012 C 
HETATM    9  C6  UNL     1     -38.985  12.036   6.725  1.00 20.00     0.012 C 
HETATM   10  C7  UNL     1     -39.276  11.806   4.242  1.00 20.00     0.012 C 
ENDBRANCH   3   8
TORSDOF 1
ENDMDL
MODEL 5
REMARK VINA RESULT:      -3.2     16.755     17.828
REMARK  1 active torsions:
REMARK  status: ('A' for Active; 'I' for Inactive)
REMARK    1  A    between atoms: C3_3  and  C8_8 
ROOT
HETATM    1  C1  UNL     1     -40.766  14.835   8.884  1.00 20.00     0.017 C 
HETATM    2  C2  UNL     1     -41.692  15.861   8.251  1.00 20.00     0.092 C 
HETATM    3  C3  UNL     1     -41.474  13.507   7.188  1.00 20.00     0.173 C 
HETATM    4  C4  UNL     1     -39.997  15.216  10.118  1.00 20.00     0.066 C 
HETATM    5  C5  UNL     1     -40.909  17.012   7.641  1.00 20.00     0.028 C 
HETATM    6  N9  UNL     1     -40.608  13.654   8.369  1.00 20.00    -0.282 NA
HETATM    7  S10 UNL     1     -42.561  14.937   6.966  1.00 20.00    -0.131 SA
ENDROOT
BRANCH   3   8
HETATM    8  C8  UNL     1     -40.594  13.319   5.959  1.00 20.00     0.012 C 
HETATM    9  C6  UNL     1     -40.063  11.888   5.887  1.00 20.00     0.012 C 
HETATM   10  C7  UNL     1     -41.362  13.668   4.685  1.00 20.00     0.012 C 
ENDBRANCH   3   8
TORSDOF 1
ENDMDL
MODEL 6
REMARK VINA RESULT:      -3.2     15.654     17.474
REMARK  1 active torsions:
REMARK  status: ('A' for Active; 'I' for Inactive)
REMARK    1  A    between atoms: C3_3  and  C8_8 
ROOT
HETATM    1  C1  UNL     1     -33.776  16.163  -4.021  1.00 20.00     0.017 C 
HETATM    2  C2  UNL     1     -34.438  17.078  -5.039  1.00 20.00     0.092 C 
HETATM    3  C3  UNL     1     -33.101  18.109  -3.073  1.00 20.00     0.173 C 
HETATM    4  C4  UNL     1     -33.915  14.675  -4.183  1.00 20.00     0.066 C 
HETATM    5  C5  UNL     1     -35.953  17.015  -4.936  1.00 20.00     0.028 C 
HETATM    6  N9  UNL     1     -33.119  16.639  -3.007  1.00 20.00    -0.282 NA
HETATM    7  S10 UNL     1     -33.843  18.725  -4.604  1.00 20.00    -0.131 SA
ENDROOT
BRANCH   3   8
HETATM    8  C8  UNL     1     -33.848  18.660  -1.866  1.00 20.00     0.012 C 
HETATM    9  C6  UNL     1     -35.288  19.015  -2.237  1.00 20.00     0.012 C 
HETATM   10  C7  UNL     1     -33.826  17.659  -0.713  1.00 20.00     0.012 C 
ENDBRANCH   3   8
TORSDOF 1
ENDMDL
MODEL 7
REMARK VINA RESULT:      -3.2     17.826     19.598
REMARK  1 active torsions:
REMARK  status: ('A' for Active; 'I' for Inactive)
REMARK    1  A    between atoms: C3_3  and  C8_8 
ROOT
HETATM    1  C1  UNL     1     -35.657  16.264  -6.635  1.00 20.00     0.017 C 
HETATM    2  C2  UNL     1     -36.690  17.086  -5.880  1.00 20.00     0.092 C 
HETATM    3  C3  UNL     1     -34.277  16.902  -4.953  1.00 20.00     0.173 C 
HETATM    4  C4  UNL     1     -36.067  15.575  -7.907  1.00 20.00     0.066 C 
HETATM    5  C5  UNL     1     -37.771  16.201  -5.280  1.00 20.00     0.028 C 
HETATM    6  N9  UNL     1     -34.445  16.124  -6.191  1.00 20.00    -0.282 NA
HETATM    7  S10 UNL     1     -35.741  17.896  -4.576  1.00 20.00    -0.131 SA
ENDROOT
BRANCH   3   8
HETATM    8  C8  UNL     1     -33.985  15.939  -3.810  1.00 20.00     0.012 C 
HETATM    9  C6  UNL     1     -33.122  14.773  -4.291  1.00 20.00     0.012 C 
HETATM   10  C7  UNL     1     -33.304  16.666  -2.651  1.00 20.00     0.012 C 
ENDBRANCH   3   8
TORSDOF 1
ENDMDL
MODEL 8
REMARK VINA RESULT:      -3.2     16.919     18.112
REMARK  1 active torsions:
REMARK  status: ('A' for Active; 'I' for Inactive)
REMARK    1  A    between atoms: C3_3  and  C8_8 
ROOT
HETATM    1  C1  UNL     1     -40.509  13.220   6.717  1.00 20.00     0.017 C 
HETATM    2  C2  UNL     1     -41.450  14.275   6.157  1.00 20.00     0.092 C 
HETATM    3  C3  UNL     1     -40.399  14.614   8.502  1.00 20.00     0.173 C 
HETATM    4  C4  UNL     1     -40.212  12.000   5.890  1.00 20.00     0.066 C 
HETATM    5  C5  UNL     1     -42.874  13.754   6.065  1.00 20.00     0.028 C 
HETATM    6  N9  UNL     1     -39.983  13.338   7.898  1.00 20.00    -0.282 NA
HETATM    7  S10 UNL     1     -41.349  15.631   7.344  1.00 20.00    -0.131 SA
ENDROOT
BRANCH   3   8
HETATM    8  C8  UNL     1     -41.229  14.317   9.744  1.00 20.00     0.012 C 
HETATM    9  C6  UNL     1     -40.464  14.701  11.010  1.00 20.00     0.012 C 
HETATM   10  C7  UNL     1     -42.569  15.049   9.687  1.00 20.00     0.012 C 
ENDBRANCH   3   8
TORSDOF 1
ENDMDL
MODEL 9
REMARK VINA RESULT:      -3.2     16.968     18.676
REMARK  1 active torsions:
REMARK  status: ('A' for Active; 'I' for Inactive)
REMARK    1  A    between atoms: C3_3  and  C8_8 
ROOT
HETATM    1  C1  UNL     1     -36.508  17.429  -4.960  1.00 20.00     0.017 C 
HETATM    2  C2  UNL     1     -36.016  18.706  -4.299  1.00 20.00     0.092 C 
HETATM    3  C3  UNL     1     -34.330  16.811  -4.830  1.00 20.00     0.173 C 
HETATM    4  C4  UNL     1     -37.968  17.298  -5.291  1.00 20.00     0.066 C 
HETATM    5  C5  UNL     1     -36.546  18.834  -2.880  1.00 20.00     0.028 C 
HETATM    6  N9  UNL     1     -35.701  16.445  -5.219  1.00 20.00    -0.282 NA
HETATM    7  S10 UNL     1     -34.219  18.535  -4.289  1.00 20.00    -0.131 SA
ENDROOT
BRANCH   3   8
HETATM    8  C8  UNL     1     -33.875  15.880  -3.714  1.00 20.00     0.012 C 
HETATM    9  C6  UNL     1     -32.851  14.871  -4.235  1.00 20.00     0.012 C 
HETATM   10  C7  UNL     1     -33.295  16.676  -2.547  1.00 20.00     0.012 C 
ENDBRANCH   3   8
TORSDOF 1
ENDMDL
