MODEL 1
REMARK VINA RESULT:      -4.1      0.000      0.000
REMARK  2 active torsions:
REMARK  status: ('A' for Active; 'I' for Inactive)
REMARK    1  A    between atoms: C3_3  and  C10_10 
REMARK    2  A    between atoms: C7_7  and  C10_10 
ROOT
HETATM    1  C1  UNL     1     -32.533   7.526   1.963  1.00 20.00    -0.024 C 
HETATM    2  C2  UNL     1     -32.713   8.839   2.188  1.00 20.00    -0.087 C 
HETATM    3  C4  UNL     1     -32.286   6.518   3.049  1.00 20.00     0.032 C 
HETATM    4  C5  UNL     1     -32.653   9.427   3.577  1.00 20.00     0.034 C 
HETATM    5  C6  UNL     1     -32.088   8.466   4.628  1.00 20.00     0.010 C 
HETATM    6  C7  UNL     1     -32.606   7.032   4.462  1.00 20.00    -0.001 C 
HETATM    7  C8  UNL     1     -32.988   9.805   1.074  1.00 20.00     0.043 C 
ENDROOT
BRANCH   6   8
HETATM    8  C10 UNL     1     -34.103   6.933   4.773  1.00 20.00     0.047 C 
HETATM    9  C9  UNL     1     -34.362   7.112   6.263  1.00 20.00     0.017 C 
BRANCH   8  10
HETATM   10  C3  UNL     1     -34.624   5.604   4.265  1.00 20.00     0.235 C 
HETATM   11  O11 UNL     1     -34.706   4.583   4.941  1.00 20.00    -0.306 OA
ENDBRANCH   8  10
ENDBRANCH   6   8
TORSDOF 2
ENDMDL
MODEL 2
REMARK VINA RESULT:      -3.5     11.522     12.880
REMARK  2 active torsions:
REMARK  status: ('A' for Active; 'I' for Inactive)
REMARK    1  A    between atoms: C3_3  and  C10_10 
REMARK    2  A    between atoms: C7_7  and  C10_10 
ROOT
HETATM    1  C1  UNL     1     -34.006  17.919  -4.029  1.00 20.00    -0.024 C 
HETATM    2  C2  UNL     1     -33.625  16.970  -3.157  1.00 20.00    -0.087 C 
HETATM    3  C4  UNL     1     -34.373  17.641  -5.459  1.00 20.00     0.032 C 
HETATM    4  C5  UNL     1     -33.504  15.521  -3.556  1.00 20.00     0.034 C 
HETATM    5  C6  UNL     1     -33.561  15.292  -5.071  1.00 20.00     0.010 C 
HETATM    6  C7  UNL     1     -34.625  16.155  -5.761  1.00 20.00    -0.001 C 
HETATM    7  C8  UNL     1     -33.298  17.291  -1.728  1.00 20.00     0.043 C 
ENDROOT
BRANCH   6   8
HETATM    8  C10 UNL     1     -36.043  15.731  -5.363  1.00 20.00     0.047 C 
HETATM    9  C9  UNL     1     -36.171  14.214  -5.340  1.00 20.00     0.017 C 
BRANCH   8  10
HETATM   10  C3  UNL     1     -37.033  16.367  -6.317  1.00 20.00     0.235 C 
HETATM   11  O11 UNL     1     -37.271  15.958  -7.449  1.00 20.00    -0.306 OA
ENDBRANCH   8  10
ENDBRANCH   6   8
TORSDOF 2
ENDMDL
MODEL 3
REMARK VINA RESULT:      -3.5     11.151     12.278
REMARK  2 active torsions:
REMARK  status: ('A' for Active; 'I' for Inactive)
REMARK    1  A    between atoms: C3_3  and  C10_10 
REMARK    2  A    between atoms: C7_7  and  C10_10 
ROOT
HETATM    1  C1  UNL     1     -33.927  15.029  -4.162  1.00 20.00    -0.024 C 
HETATM    2  C2  UNL     1     -34.994  15.385  -4.899  1.00 20.00    -0.087 C 
HETATM    3  C4  UNL     1     -32.944  16.009  -3.588  1.00 20.00     0.032 C 
HETATM    4  C5  UNL     1     -35.283  16.826  -5.240  1.00 20.00     0.034 C 
HETATM    5  C6  UNL     1     -34.121  17.777  -4.936  1.00 20.00     0.010 C 
HETATM    6  C7  UNL     1     -33.434  17.466  -3.600  1.00 20.00    -0.001 C 
HETATM    7  C8  UNL     1     -35.968  14.374  -5.425  1.00 20.00     0.043 C 
ENDROOT
BRANCH   6   8
HETATM    8  C10 UNL     1     -34.353  17.761  -2.410  1.00 20.00     0.047 C 
HETATM    9  C9  UNL     1     -34.802  19.216  -2.416  1.00 20.00     0.017 C 
BRANCH   8  10
HETATM   10  C3  UNL     1     -33.629  17.399  -1.128  1.00 20.00     0.235 C 
HETATM   11  O11 UNL     1     -33.902  17.854  -0.022  1.00 20.00    -0.306 OA
ENDBRANCH   8  10
ENDBRANCH   6   8
TORSDOF 2
ENDMDL
MODEL 4
REMARK VINA RESULT:      -3.4     11.074     12.481
REMARK  2 active torsions:
REMARK  status: ('A' for Active; 'I' for Inactive)
REMARK    1  A    between atoms: C3_3  and  C10_10 
REMARK    2  A    between atoms: C7_7  and  C10_10 
ROOT
HETATM    1  C1  UNL     1     -34.511  18.338  -4.023  1.00 20.00    -0.024 C 
HETATM    2  C2  UNL     1     -34.267  17.847  -2.796  1.00 20.00    -0.087 C 
HETATM    3  C4  UNL     1     -34.223  17.591  -5.294  1.00 20.00     0.032 C 
HETATM    4  C5  UNL     1     -33.643  16.489  -2.589  1.00 20.00     0.034 C 
HETATM    5  C6  UNL     1     -33.060  15.877  -3.866  1.00 20.00     0.010 C 
HETATM    6  C7  UNL     1     -33.959  16.090  -5.091  1.00 20.00    -0.001 C 
HETATM    7  C8  UNL     1     -34.601  18.617  -1.553  1.00 20.00     0.043 C 
ENDROOT
BRANCH   6   8
HETATM    8  C10 UNL     1     -35.266  15.299  -4.977  1.00 20.00     0.047 C 
HETATM    9  C9  UNL     1     -35.011  13.903  -4.423  1.00 20.00     0.017 C 
BRANCH   8  10
HETATM   10  C3  UNL     1     -35.935  15.254  -6.335  1.00 20.00     0.235 C 
HETATM   11  O11 UNL     1     -36.005  14.255  -7.045  1.00 20.00    -0.306 OA
ENDBRANCH   8  10
ENDBRANCH   6   8
TORSDOF 2
ENDMDL
MODEL 5
REMARK VINA RESULT:      -3.3     11.150     12.849
REMARK  2 active torsions:
REMARK  status: ('A' for Active; 'I' for Inactive)
REMARK    1  A    between atoms: C3_3  and  C10_10 
REMARK    2  A    between atoms: C7_7  and  C10_10 
ROOT
HETATM    1  C1  UNL     1     -36.241  16.800  -5.866  1.00 20.00    -0.024 C 
HETATM    2  C2  UNL     1     -36.972  17.447  -4.942  1.00 20.00    -0.087 C 
HETATM    3  C4  UNL     1     -34.741  16.855  -5.934  1.00 20.00     0.032 C 
HETATM    4  C5  UNL     1     -36.336  18.325  -3.892  1.00 20.00     0.034 C 
HETATM    5  C6  UNL     1     -34.859  18.634  -4.160  1.00 20.00     0.010 C 
HETATM    6  C7  UNL     1     -34.079  17.414  -4.665  1.00 20.00    -0.001 C 
HETATM    7  C8  UNL     1     -38.466  17.338  -4.894  1.00 20.00     0.043 C 
ENDROOT
BRANCH   6   8
HETATM    8  C10 UNL     1     -33.944  16.341  -3.580  1.00 20.00     0.047 C 
HETATM    9  C9  UNL     1     -33.207  16.886  -2.364  1.00 20.00     0.017 C 
BRANCH   8  10
HETATM   10  C3  UNL     1     -33.246  15.131  -4.168  1.00 20.00     0.235 C 
HETATM   11  O11 UNL     1     -33.703  13.993  -4.165  1.00 20.00    -0.306 OA
ENDBRANCH   8  10
ENDBRANCH   6   8
TORSDOF 2
ENDMDL
MODEL 6
REMARK VINA RESULT:      -3.3     11.593     13.295
REMARK  2 active torsions:
REMARK  status: ('A' for Active; 'I' for Inactive)
REMARK    1  A    between atoms: C3_3  and  C10_10 
REMARK    2  A    between atoms: C7_7  and  C10_10 
ROOT
HETATM    1  C1  UNL     1     -33.636  15.634  -3.648  1.00 20.00    -0.024 C 
HETATM    2  C2  UNL     1     -33.711  16.902  -3.207  1.00 20.00    -0.087 C 
HETATM    3  C4  UNL     1     -34.518  15.071  -4.726  1.00 20.00     0.032 C 
HETATM    4  C5  UNL     1     -34.726  17.877  -3.748  1.00 20.00     0.034 C 
HETATM    5  C6  UNL     1     -35.820  17.221  -4.598  1.00 20.00     0.010 C 
HETATM    6  C7  UNL     1     -35.272  16.139  -5.537  1.00 20.00    -0.001 C 
HETATM    7  C8  UNL     1     -32.787  17.430  -2.150  1.00 20.00     0.043 C 
ENDROOT
BRANCH   6   8
HETATM    8  C10 UNL     1     -34.389  16.738  -6.636  1.00 20.00     0.047 C 
HETATM    9  C9  UNL     1     -34.946  18.073  -7.114  1.00 20.00     0.017 C 
BRANCH   8  10
HETATM   10  C3  UNL     1     -34.268  15.739  -7.769  1.00 20.00     0.235 C 
HETATM   11  O11 UNL     1     -33.329  14.964  -7.917  1.00 20.00    -0.306 OA
ENDBRANCH   8  10
ENDBRANCH   6   8
TORSDOF 2
ENDMDL
MODEL 7
REMARK VINA RESULT:      -3.3     10.122     11.056
REMARK  2 active torsions:
REMARK  status: ('A' for Active; 'I' for Inactive)
REMARK    1  A    between atoms: C3_3  and  C10_10 
REMARK    2  A    between atoms: C7_7  and  C10_10 
ROOT
HETATM    1  C1  UNL     1     -41.038  13.588   4.463  1.00 20.00    -0.024 C 
HETATM    2  C2  UNL     1     -40.276  12.608   4.980  1.00 20.00    -0.087 C 
HETATM    3  C4  UNL     1     -42.022  14.392   5.264  1.00 20.00     0.032 C 
HETATM    4  C5  UNL     1     -40.368  12.207   6.431  1.00 20.00     0.034 C 
HETATM    5  C6  UNL     1     -41.583  12.794   7.157  1.00 20.00     0.010 C 
HETATM    6  C7  UNL     1     -41.845  14.259   6.785  1.00 20.00    -0.001 C 
HETATM    7  C8  UNL     1     -39.283  11.853   4.147  1.00 20.00     0.043 C 
ENDROOT
BRANCH   6   8
HETATM    8  C10 UNL     1     -40.738  15.182   7.306  1.00 20.00     0.047 C 
HETATM    9  C9  UNL     1     -40.384  14.845   8.749  1.00 20.00     0.017 C 
BRANCH   8  10
HETATM   10  C3  UNL     1     -41.185  16.621   7.156  1.00 20.00     0.235 C 
HETATM   11  O11 UNL     1     -40.454  17.597   7.296  1.00 20.00    -0.306 OA
ENDBRANCH   8  10
ENDBRANCH   6   8
TORSDOF 2
ENDMDL
MODEL 8
REMARK VINA RESULT:      -3.2     10.355     11.379
REMARK  2 active torsions:
REMARK  status: ('A' for Active; 'I' for Inactive)
REMARK    1  A    between atoms: C3_3  and  C10_10 
REMARK    2  A    between atoms: C7_7  and  C10_10 
ROOT
HETATM    1  C1  UNL     1     -40.307  15.783   8.327  1.00 20.00    -0.024 C 
HETATM    2  C2  UNL     1     -40.969  16.648   7.540  1.00 20.00    -0.087 C 
HETATM    3  C4  UNL     1     -40.614  14.315   8.399  1.00 20.00     0.032 C 
HETATM    4  C5  UNL     1     -42.118  16.212   6.664  1.00 20.00     0.034 C 
HETATM    5  C6  UNL     1     -42.632  14.803   6.978  1.00 20.00     0.010 C 
HETATM    6  C7  UNL     1     -41.499  13.805   7.249  1.00 20.00    -0.001 C 
HETATM    7  C8  UNL     1     -40.607  18.102   7.478  1.00 20.00     0.043 C 
ENDROOT
BRANCH   6   8
HETATM    8  C10 UNL     1     -40.678  13.526   5.986  1.00 20.00     0.047 C 
HETATM    9  C9  UNL     1     -41.524  13.712   4.734  1.00 20.00     0.017 C 
BRANCH   8  10
HETATM   10  C3  UNL     1     -40.101  12.128   6.074  1.00 20.00     0.235 C 
HETATM   11  O11 UNL     1     -39.102  11.825   6.720  1.00 20.00    -0.306 OA
ENDBRANCH   8  10
ENDBRANCH   6   8
TORSDOF 2
ENDMDL
MODEL 9
REMARK VINA RESULT:      -3.2     11.698     13.401
REMARK  2 active torsions:
REMARK  status: ('A' for Active; 'I' for Inactive)
REMARK    1  A    between atoms: C3_3  and  C10_10 
REMARK    2  A    between atoms: C7_7  and  C10_10 
ROOT
HETATM    1  C1  UNL     1     -33.156  19.125  -2.154  1.00 20.00    -0.024 C 
HETATM    2  C2  UNL     1     -33.425  18.059  -1.379  1.00 20.00    -0.087 C 
HETATM    3  C4  UNL     1     -33.035  19.062  -3.649  1.00 20.00     0.032 C 
HETATM    4  C5  UNL     1     -33.602  16.677  -1.957  1.00 20.00     0.034 C 
HETATM    5  C6  UNL     1     -33.163  16.560  -3.421  1.00 20.00     0.010 C 
HETATM    6  C7  UNL     1     -33.588  17.767  -4.266  1.00 20.00    -0.001 C 
HETATM    7  C8  UNL     1     -33.568  18.176   0.109  1.00 20.00     0.043 C 
ENDROOT
BRANCH   6   8
HETATM    8  C10 UNL     1     -35.109  17.829  -4.438  1.00 20.00     0.047 C 
HETATM    9  C9  UNL     1     -35.623  16.605  -5.184  1.00 20.00     0.017 C 
BRANCH   8  10
HETATM   10  C3  UNL     1     -35.472  19.117  -5.150  1.00 20.00     0.235 C 
HETATM   11  O11 UNL     1     -35.488  19.259  -6.368  1.00 20.00    -0.306 OA
ENDBRANCH   8  10
ENDBRANCH   6   8
TORSDOF 2
ENDMDL
