MODEL 1
REMARK VINA RESULT:      -4.2      0.000      0.000
REMARK  3 active torsions:
REMARK  status: ('A' for Active; 'I' for Inactive)
REMARK    1  A    between atoms: C1_1  and  C3_3 
REMARK    2  A    between atoms: C2_2  and  C7_7 
REMARK    3  A    between atoms: C3_3  and  O9_9 
ROOT
HETATM    1  C1  UNL     1     -33.068   8.332   4.908  1.00 20.00     0.078 C 
HETATM    2  C2  UNL     1     -33.814   7.503   5.650  1.00 20.00    -0.017 C 
ENDROOT
BRANCH   1   3
HETATM    3  C3  UNL     1     -32.590   7.902   3.576  1.00 20.00     0.282 C 
HETATM    4  O8  UNL     1     -32.194   6.782   3.294  1.00 20.00    -0.260 OA
BRANCH   3   5
HETATM    5  O9  UNL     1     -32.676   8.973   2.742  1.00 20.00    -0.323 OA
HETATM    6  C6  UNL     1     -32.404   8.703   1.362  1.00 20.00     0.213 C 
ENDBRANCH   3   5
ENDBRANCH   1   3
BRANCH   2   7
HETATM    7  C7  UNL     1     -34.210   6.119   5.200  1.00 20.00    -0.000 C 
HETATM    8  C4  UNL     1     -34.337   5.188   6.407  1.00 20.00     0.013 C 
HETATM    9  C5  UNL     1     -35.524   6.173   4.422  1.00 20.00     0.013 C 
ENDBRANCH   2   7
TORSDOF 3
ENDMDL
MODEL 2
REMARK VINA RESULT:      -4.2      2.307      3.554
REMARK  3 active torsions:
REMARK  status: ('A' for Active; 'I' for Inactive)
REMARK    1  A    between atoms: C1_1  and  C3_3 
REMARK    2  A    between atoms: C2_2  and  C7_7 
REMARK    3  A    between atoms: C3_3  and  O9_9 
ROOT
HETATM    1  C1  UNL     1     -34.222   5.597   6.038  1.00 20.00     0.078 C 
HETATM    2  C2  UNL     1     -33.697   6.801   6.303  1.00 20.00    -0.017 C 
ENDROOT
BRANCH   1   3
HETATM    3  C3  UNL     1     -34.821   5.329   4.713  1.00 20.00     0.282 C 
HETATM    4  O8  UNL     1     -35.877   5.789   4.307  1.00 20.00    -0.260 OA
BRANCH   3   5
HETATM    5  O9  UNL     1     -33.986   4.487   4.046  1.00 20.00    -0.323 OA
HETATM    6  C6  UNL     1     -33.273   5.069   2.949  1.00 20.00     0.213 C 
ENDBRANCH   3   5
ENDBRANCH   1   3
BRANCH   2   7
HETATM    7  C7  UNL     1     -33.676   7.933   5.306  1.00 20.00    -0.000 C 
HETATM    8  C4  UNL     1     -34.025   9.251   5.998  1.00 20.00     0.013 C 
HETATM    9  C5  UNL     1     -32.305   8.023   4.638  1.00 20.00     0.013 C 
ENDBRANCH   2   7
TORSDOF 3
ENDMDL
MODEL 3
REMARK VINA RESULT:      -4.1      1.266      1.825
REMARK  3 active torsions:
REMARK  status: ('A' for Active; 'I' for Inactive)
REMARK    1  A    between atoms: C1_1  and  C3_3 
REMARK    2  A    between atoms: C2_2  and  C7_7 
REMARK    3  A    between atoms: C3_3  and  O9_9 
ROOT
HETATM    1  C1  UNL     1     -32.294   7.139   3.291  1.00 20.00     0.078 C 
HETATM    2  C2  UNL     1     -33.135   6.281   3.885  1.00 20.00    -0.017 C 
ENDROOT
BRANCH   1   3
HETATM    3  C3  UNL     1     -32.454   8.593   3.501  1.00 20.00     0.282 C 
HETATM    4  O8  UNL     1     -32.242   9.185   4.549  1.00 20.00    -0.260 OA
BRANCH   3   5
HETATM    5  O9  UNL     1     -32.873   9.136   2.327  1.00 20.00    -0.323 OA
HETATM    6  C6  UNL     1     -32.278   8.586   1.146  1.00 20.00     0.213 C 
ENDBRANCH   3   5
ENDBRANCH   1   3
BRANCH   2   7
HETATM    7  C7  UNL     1     -34.267   6.718   4.781  1.00 20.00    -0.000 C 
HETATM    8  C4  UNL     1     -35.485   5.818   4.571  1.00 20.00     0.013 C 
HETATM    9  C5  UNL     1     -33.823   6.689   6.244  1.00 20.00     0.013 C 
ENDBRANCH   2   7
TORSDOF 3
ENDMDL
MODEL 4
REMARK VINA RESULT:      -4.0      2.103      4.050
REMARK  3 active torsions:
REMARK  status: ('A' for Active; 'I' for Inactive)
REMARK    1  A    between atoms: C1_1  and  C3_3 
REMARK    2  A    between atoms: C2_2  and  C7_7 
REMARK    3  A    between atoms: C3_3  and  O9_9 
ROOT
HETATM    1  C1  UNL     1     -33.432   5.450   3.553  1.00 20.00     0.078 C 
HETATM    2  C2  UNL     1     -32.697   6.496   3.151  1.00 20.00    -0.017 C 
ENDROOT
BRANCH   1   3
HETATM    3  C3  UNL     1     -34.614   5.667   4.414  1.00 20.00     0.282 C 
HETATM    4  O8  UNL     1     -35.711   6.042   4.029  1.00 20.00    -0.260 OA
BRANCH   3   5
HETATM    5  O9  UNL     1     -34.252   5.374   5.692  1.00 20.00    -0.323 OA
HETATM    6  C6  UNL     1     -34.461   6.421   6.647  1.00 20.00     0.213 C 
ENDBRANCH   3   5
ENDBRANCH   1   3
BRANCH   2   7
HETATM    7  C7  UNL     1     -33.008   7.922   3.530  1.00 20.00    -0.000 C 
HETATM    8  C4  UNL     1     -32.173   8.340   4.741  1.00 20.00     0.013 C 
HETATM    9  C5  UNL     1     -32.745   8.853   2.348  1.00 20.00     0.013 C 
ENDBRANCH   2   7
TORSDOF 3
ENDMDL
MODEL 5
REMARK VINA RESULT:      -4.0     11.512     12.338
REMARK  3 active torsions:
REMARK  status: ('A' for Active; 'I' for Inactive)
REMARK    1  A    between atoms: C1_1  and  C3_3 
REMARK    2  A    between atoms: C2_2  and  C7_7 
REMARK    3  A    between atoms: C3_3  and  O9_9 
ROOT
HETATM    1  C1  UNL     1     -32.739  18.565   0.584  1.00 20.00     0.078 C 
HETATM    2  C2  UNL     1     -33.441  18.244  -0.511  1.00 20.00    -0.017 C 
ENDROOT
BRANCH   1   3
HETATM    3  C3  UNL     1     -31.262  18.500   0.560  1.00 20.00     0.282 C 
HETATM    4  O8  UNL     1     -30.554  18.826  -0.380  1.00 20.00    -0.260 OA
BRANCH   3   5
HETATM    5  O9  UNL     1     -30.851  18.018   1.764  1.00 20.00    -0.323 OA
HETATM    6  C6  UNL     1     -31.179  18.829   2.897  1.00 20.00     0.213 C 
ENDBRANCH   3   5
ENDBRANCH   1   3
BRANCH   2   7
HETATM    7  C7  UNL     1     -32.801  17.809  -1.806  1.00 20.00    -0.000 C 
HETATM    8  C4  UNL     1     -33.479  16.543  -2.330  1.00 20.00     0.013 C 
HETATM    9  C5  UNL     1     -32.885  18.931  -2.840  1.00 20.00     0.013 C 
ENDBRANCH   2   7
TORSDOF 3
ENDMDL
MODEL 6
REMARK VINA RESULT:      -3.9      2.427      3.944
REMARK  3 active torsions:
REMARK  status: ('A' for Active; 'I' for Inactive)
REMARK    1  A    between atoms: C1_1  and  C3_3 
REMARK    2  A    between atoms: C2_2  and  C7_7 
REMARK    3  A    between atoms: C3_3  and  O9_9 
ROOT
HETATM    1  C1  UNL     1     -35.129   6.676   4.881  1.00 20.00     0.078 C 
HETATM    2  C2  UNL     1     -34.348   7.617   4.334  1.00 20.00    -0.017 C 
ENDROOT
BRANCH   1   3
HETATM    3  C3  UNL     1     -34.521   5.563   5.641  1.00 20.00     0.282 C 
HETATM    4  O8  UNL     1     -33.953   5.667   6.717  1.00 20.00    -0.260 OA
BRANCH   3   5
HETATM    5  O9  UNL     1     -34.712   4.422   4.925  1.00 20.00    -0.323 OA
HETATM    6  C6  UNL     1     -33.764   4.187   3.878  1.00 20.00     0.213 C 
ENDBRANCH   3   5
ENDBRANCH   1   3
BRANCH   2   7
HETATM    7  C7  UNL     1     -32.844   7.615   4.449  1.00 20.00    -0.000 C 
HETATM    8  C4  UNL     1     -32.210   7.411   3.072  1.00 20.00     0.013 C 
HETATM    9  C5  UNL     1     -32.359   8.921   5.076  1.00 20.00     0.013 C 
ENDBRANCH   2   7
TORSDOF 3
ENDMDL
MODEL 7
REMARK VINA RESULT:      -3.9     14.971     15.848
REMARK  3 active torsions:
REMARK  status: ('A' for Active; 'I' for Inactive)
REMARK    1  A    between atoms: C1_1  and  C3_3 
REMARK    2  A    between atoms: C2_2  and  C7_7 
REMARK    3  A    between atoms: C3_3  and  O9_9 
ROOT
HETATM    1  C1  UNL     1     -21.913  18.301  10.233  1.00 20.00     0.078 C 
HETATM    2  C2  UNL     1     -22.803  18.100  11.214  1.00 20.00    -0.017 C 
ENDROOT
BRANCH   1   3
HETATM    3  C3  UNL     1     -22.270  17.983   8.834  1.00 20.00     0.282 C 
HETATM    4  O8  UNL     1     -22.248  16.869   8.334  1.00 20.00    -0.260 OA
BRANCH   3   5
HETATM    5  O9  UNL     1     -22.620  19.147   8.224  1.00 20.00    -0.323 OA
HETATM    6  C6  UNL     1     -23.999  19.259   7.855  1.00 20.00     0.213 C 
ENDBRANCH   3   5
ENDBRANCH   1   3
BRANCH   2   7
HETATM    7  C7  UNL     1     -24.189  17.554  10.973  1.00 20.00    -0.000 C 
HETATM    8  C4  UNL     1     -24.392  16.262  11.765  1.00 20.00     0.013 C 
HETATM    9  C5  UNL     1     -25.240  18.593  11.361  1.00 20.00     0.013 C 
ENDBRANCH   2   7
TORSDOF 3
ENDMDL
MODEL 8
REMARK VINA RESULT:      -3.8      9.162      9.943
REMARK  3 active torsions:
REMARK  status: ('A' for Active; 'I' for Inactive)
REMARK    1  A    between atoms: C1_1  and  C3_3 
REMARK    2  A    between atoms: C2_2  and  C7_7 
REMARK    3  A    between atoms: C3_3  and  O9_9 
ROOT
HETATM    1  C1  UNL     1     -41.491  12.547   6.439  1.00 20.00     0.078 C 
HETATM    2  C2  UNL     1     -41.735  13.685   7.102  1.00 20.00    -0.017 C 
ENDROOT
BRANCH   1   3
HETATM    3  C3  UNL     1     -40.111  12.217   6.023  1.00 20.00     0.282 C 
HETATM    4  O8  UNL     1     -39.223  11.823   6.763  1.00 20.00    -0.260 OA
BRANCH   3   5
HETATM    5  O9  UNL     1     -40.022  12.431   4.682  1.00 20.00    -0.323 OA
HETATM    6  C6  UNL     1     -38.997  11.694   4.007  1.00 20.00     0.213 C 
ENDBRANCH   3   5
ENDBRANCH   1   3
BRANCH   2   7
HETATM    7  C7  UNL     1     -40.660  14.680   7.462  1.00 20.00    -0.000 C 
HETATM    8  C4  UNL     1     -41.149  16.104   7.197  1.00 20.00     0.013 C 
HETATM    9  C5  UNL     1     -40.257  14.515   8.927  1.00 20.00     0.013 C 
ENDBRANCH   2   7
TORSDOF 3
ENDMDL
MODEL 9
REMARK VINA RESULT:      -3.8      9.397     10.315
REMARK  3 active torsions:
REMARK  status: ('A' for Active; 'I' for Inactive)
REMARK    1  A    between atoms: C1_1  and  C3_3 
REMARK    2  A    between atoms: C2_2  and  C7_7 
REMARK    3  A    between atoms: C3_3  and  O9_9 
ROOT
HETATM    1  C1  UNL     1     -41.754  13.548   5.961  1.00 20.00     0.078 C 
HETATM    2  C2  UNL     1     -40.726  13.170   5.189  1.00 20.00    -0.017 C 
ENDROOT
BRANCH   1   3
HETATM    3  C3  UNL     1     -42.149  12.721   7.121  1.00 20.00     0.282 C 
HETATM    4  O8  UNL     1     -42.825  11.706   7.068  1.00 20.00    -0.260 OA
BRANCH   3   5
HETATM    5  O9  UNL     1     -41.625  13.297   8.236  1.00 20.00    -0.323 OA
HETATM    6  C6  UNL     1     -42.070  14.631   8.508  1.00 20.00     0.213 C 
ENDBRANCH   3   5
ENDBRANCH   1   3
BRANCH   2   7
HETATM    7  C7  UNL     1     -39.922  11.918   5.436  1.00 20.00    -0.000 C 
HETATM    8  C4  UNL     1     -39.279  11.439   4.134  1.00 20.00     0.013 C 
HETATM    9  C5  UNL     1     -38.856  12.176   6.500  1.00 20.00     0.013 C 
ENDBRANCH   2   7
TORSDOF 3
ENDMDL
