MODEL 1
REMARK VINA RESULT:      -4.0      0.000      0.000
REMARK  2 active torsions:
REMARK  status: ('A' for Active; 'I' for Inactive)
REMARK    1  A    between atoms: C2_2  and  C5_5 
REMARK    2  A    between atoms: C5_5  and  C6_6 
ROOT
HETATM    1  C1  UNL     1     -32.538   8.702   3.255  1.00 20.00     0.206 A 
HETATM    2  C2  UNL     1     -32.936   7.374   3.855  1.00 20.00     0.079 A 
HETATM    3  C3  UNL     1     -32.777   6.126   3.049  1.00 20.00     0.048 C 
HETATM    4  O7  UNL     1     -31.693   8.010   4.186  1.00 20.00    -0.375 OA
ENDROOT
BRANCH   2   5
HETATM    5  C5  UNL     1     -33.932   7.339   5.003  1.00 20.00     0.039 C 
BRANCH   5   6
HETATM    6  C6  UNL     1     -34.764   6.058   4.982  1.00 20.00    -0.002 C 
HETATM    7  C4  UNL     1     -34.599   5.265   6.268  1.00 20.00     0.005 C 
ENDBRANCH   5   6
ENDBRANCH   2   5
TORSDOF 2
ENDMDL
MODEL 2
REMARK VINA RESULT:      -3.9      1.249      1.787
REMARK  2 active torsions:
REMARK  status: ('A' for Active; 'I' for Inactive)
REMARK    1  A    between atoms: C2_2  and  C5_5 
REMARK    2  A    between atoms: C5_5  and  C6_6 
ROOT
HETATM    1  C1  UNL     1     -32.088   7.374   3.131  1.00 20.00     0.206 A 
HETATM    2  C2  UNL     1     -32.826   8.093   4.235  1.00 20.00     0.079 A 
HETATM    3  C3  UNL     1     -32.080   9.020   5.137  1.00 20.00     0.048 C 
HETATM    4  O7  UNL     1     -32.888   8.537   2.872  1.00 20.00    -0.375 OA
ENDROOT
BRANCH   2   5
HETATM    5  C5  UNL     1     -34.138   7.524   4.754  1.00 20.00     0.039 C 
BRANCH   5   6
HETATM    6  C6  UNL     1     -33.984   6.960   6.166  1.00 20.00    -0.002 C 
HETATM    7  C4  UNL     1     -34.517   5.540   6.260  1.00 20.00     0.005 C 
ENDBRANCH   5   6
ENDBRANCH   2   5
TORSDOF 2
ENDMDL
MODEL 3
REMARK VINA RESULT:      -3.8      1.670      3.423
REMARK  2 active torsions:
REMARK  status: ('A' for Active; 'I' for Inactive)
REMARK    1  A    between atoms: C2_2  and  C5_5 
REMARK    2  A    between atoms: C5_5  and  C6_6 
ROOT
HETATM    1  C1  UNL     1     -35.486   5.782   4.447  1.00 20.00     0.206 A 
HETATM    2  C2  UNL     1     -34.383   6.507   5.181  1.00 20.00     0.079 A 
HETATM    3  C3  UNL     1     -34.042   6.107   6.579  1.00 20.00     0.048 C 
HETATM    4  O7  UNL     1     -34.101   5.494   4.205  1.00 20.00    -0.375 OA
ENDROOT
BRANCH   2   5
HETATM    5  C5  UNL     1     -33.987   7.907   4.742  1.00 20.00     0.039 C 
BRANCH   5   6
HETATM    6  C6  UNL     1     -32.475   8.028   4.552  1.00 20.00    -0.002 C 
HETATM    7  C4  UNL     1     -32.076   7.807   3.103  1.00 20.00     0.005 C 
ENDBRANCH   5   6
ENDBRANCH   2   5
TORSDOF 2
ENDMDL
MODEL 4
REMARK VINA RESULT:      -3.8      1.928      3.408
REMARK  2 active torsions:
REMARK  status: ('A' for Active; 'I' for Inactive)
REMARK    1  A    between atoms: C2_2  and  C5_5 
REMARK    2  A    between atoms: C5_5  and  C6_6 
ROOT
HETATM    1  C1  UNL     1     -34.761   5.039   5.470  1.00 20.00     0.206 A 
HETATM    2  C2  UNL     1     -34.148   6.010   4.490  1.00 20.00     0.079 A 
HETATM    3  C3  UNL     1     -33.424   5.489   3.292  1.00 20.00     0.048 C 
HETATM    4  O7  UNL     1     -35.553   5.722   4.488  1.00 20.00    -0.375 OA
ENDROOT
BRANCH   2   5
HETATM    5  C5  UNL     1     -33.812   7.422   4.944  1.00 20.00     0.039 C 
BRANCH   5   6
HETATM    6  C6  UNL     1     -32.654   8.009   4.139  1.00 20.00    -0.002 C 
HETATM    7  C4  UNL     1     -32.048   9.218   4.834  1.00 20.00     0.005 C 
ENDBRANCH   5   6
ENDBRANCH   2   5
TORSDOF 2
ENDMDL
MODEL 5
REMARK VINA RESULT:      -3.7      2.094      3.298
REMARK  2 active torsions:
REMARK  status: ('A' for Active; 'I' for Inactive)
REMARK    1  A    between atoms: C2_2  and  C5_5 
REMARK    2  A    between atoms: C5_5  and  C6_6 
ROOT
HETATM    1  C1  UNL     1     -33.614   4.926   3.750  1.00 20.00     0.206 A 
HETATM    2  C2  UNL     1     -34.489   5.750   4.665  1.00 20.00     0.079 A 
HETATM    3  C3  UNL     1     -35.849   6.165   4.206  1.00 20.00     0.048 C 
HETATM    4  O7  UNL     1     -34.344   4.333   4.835  1.00 20.00    -0.375 OA
ENDROOT
BRANCH   2   5
HETATM    5  C5  UNL     1     -33.850   6.569   5.775  1.00 20.00     0.039 C 
BRANCH   5   6
HETATM    6  C6  UNL     1     -33.747   8.045   5.394  1.00 20.00    -0.002 C 
HETATM    7  C4  UNL     1     -32.480   8.328   4.604  1.00 20.00     0.005 C 
ENDBRANCH   5   6
ENDBRANCH   2   5
TORSDOF 2
ENDMDL
MODEL 6
REMARK VINA RESULT:      -3.6      2.088      3.585
REMARK  2 active torsions:
REMARK  status: ('A' for Active; 'I' for Inactive)
REMARK    1  A    between atoms: C2_2  and  C5_5 
REMARK    2  A    between atoms: C5_5  and  C6_6 
ROOT
HETATM    1  C1  UNL     1     -34.026   4.984   6.364  1.00 20.00     0.206 A 
HETATM    2  C2  UNL     1     -34.443   6.207   5.583  1.00 20.00     0.079 A 
HETATM    3  C3  UNL     1     -35.285   6.047   4.359  1.00 20.00     0.048 C 
HETATM    4  O7  UNL     1     -35.107   5.823   6.795  1.00 20.00    -0.375 OA
ENDROOT
BRANCH   2   5
HETATM    5  C5  UNL     1     -33.634   7.488   5.707  1.00 20.00     0.039 C 
BRANCH   5   6
HETATM    6  C6  UNL     1     -33.469   8.179   4.354  1.00 20.00    -0.002 C 
HETATM    7  C4  UNL     1     -32.137   7.834   3.710  1.00 20.00     0.005 C 
ENDBRANCH   5   6
ENDBRANCH   2   5
TORSDOF 2
ENDMDL
MODEL 7
REMARK VINA RESULT:      -3.4      1.554      2.137
REMARK  2 active torsions:
REMARK  status: ('A' for Active; 'I' for Inactive)
REMARK    1  A    between atoms: C2_2  and  C5_5 
REMARK    2  A    between atoms: C5_5  and  C6_6 
ROOT
HETATM    1  C1  UNL     1     -32.497   8.027   4.544  1.00 20.00     0.206 A 
HETATM    2  C2  UNL     1     -33.666   7.348   5.217  1.00 20.00     0.079 A 
HETATM    3  C3  UNL     1     -33.558   6.947   6.652  1.00 20.00     0.048 C 
HETATM    4  O7  UNL     1     -33.635   8.767   5.009  1.00 20.00    -0.375 OA
ENDROOT
BRANCH   2   5
HETATM    5  C5  UNL     1     -34.702   6.627   4.369  1.00 20.00     0.039 C 
BRANCH   5   6
HETATM    6  C6  UNL     1     -34.899   5.185   4.833  1.00 20.00    -0.002 C 
HETATM    7  C4  UNL     1     -33.887   4.250   4.189  1.00 20.00     0.005 C 
ENDBRANCH   5   6
ENDBRANCH   2   5
TORSDOF 2
ENDMDL
MODEL 8
REMARK VINA RESULT:      -3.3      1.695      3.008
REMARK  2 active torsions:
REMARK  status: ('A' for Active; 'I' for Inactive)
REMARK    1  A    between atoms: C2_2  and  C5_5 
REMARK    2  A    between atoms: C5_5  and  C6_6 
ROOT
HETATM    1  C1  UNL     1     -34.504   6.827   6.785  1.00 20.00     0.206 A 
HETATM    2  C2  UNL     1     -34.127   6.831   5.323  1.00 20.00     0.079 A 
HETATM    3  C3  UNL     1     -33.533   8.062   4.719  1.00 20.00     0.048 C 
HETATM    4  O7  UNL     1     -33.295   6.213   6.314  1.00 20.00    -0.375 OA
ENDROOT
BRANCH   2   5
HETATM    5  C5  UNL     1     -34.789   5.843   4.376  1.00 20.00     0.039 C 
BRANCH   5   6
HETATM    6  C6  UNL     1     -33.819   4.743   3.946  1.00 20.00    -0.002 C 
HETATM    7  C4  UNL     1     -33.034   5.145   2.708  1.00 20.00     0.005 C 
ENDBRANCH   5   6
ENDBRANCH   2   5
TORSDOF 2
ENDMDL
MODEL 9
REMARK VINA RESULT:      -3.2     12.009     12.905
REMARK  2 active torsions:
REMARK  status: ('A' for Active; 'I' for Inactive)
REMARK    1  A    between atoms: C2_2  and  C5_5 
REMARK    2  A    between atoms: C5_5  and  C6_6 
ROOT
HETATM    1  C1  UNL     1     -36.444  15.635  -6.311  1.00 20.00     0.206 A 
HETATM    2  C2  UNL     1     -35.458  14.687  -5.670  1.00 20.00     0.079 A 
HETATM    3  C3  UNL     1     -35.935  13.715  -4.640  1.00 20.00     0.048 C 
HETATM    4  O7  UNL     1     -35.991  14.449  -6.980  1.00 20.00    -0.375 OA
ENDROOT
BRANCH   2   5
HETATM    5  C5  UNL     1     -33.979  15.036  -5.663  1.00 20.00     0.039 C 
BRANCH   5   6
HETATM    6  C6  UNL     1     -33.346  14.767  -4.299  1.00 20.00    -0.002 C 
HETATM    7  C4  UNL     1     -33.294  16.028  -3.450  1.00 20.00     0.005 C 
ENDBRANCH   5   6
ENDBRANCH   2   5
TORSDOF 2
ENDMDL
