MODEL 1
REMARK VINA RESULT:      -4.0      0.000      0.000
REMARK  0 active torsions:
REMARK  status: ('A' for Active; 'I' for Inactive)
ROOT
HETATM    1  C1  UNL     1     -35.651  13.934  -4.829  1.00 20.00     0.085 C 
HETATM    2  C2  UNL     1     -36.614  15.738  -6.050  1.00 20.00     0.085 C 
HETATM    3  C3  UNL     1     -34.119  15.254  -6.344  1.00 20.00     0.030 A 
HETATM    4  C4  UNL     1     -35.403  15.163  -5.534  1.00 20.00     0.148 A 
HETATM    5  C5  UNL     1     -34.257  16.080  -5.078  1.00 20.00    -0.007 A 
HETATM    6  C6  UNL     1     -34.059  15.868  -7.703  1.00 20.00     0.014 C 
HETATM    7  C7  UNL     1     -33.396  15.668  -3.902  1.00 20.00     0.018 C 
HETATM    8  C8  UNL     1     -34.415  17.582  -5.167  1.00 20.00     0.018 C 
HETATM    9  N9  UNL     1     -35.851  12.943  -4.259  1.00 20.00    -0.195 NA
HETATM   10  N10 UNL     1     -37.593  16.203  -6.467  1.00 20.00    -0.195 NA
ENDROOT
TORSDOF 0
ENDMDL
MODEL 2
REMARK VINA RESULT:      -3.8     12.616     13.916
REMARK  0 active torsions:
REMARK  status: ('A' for Active; 'I' for Inactive)
ROOT
HETATM    1  C1  UNL     1     -32.882   7.962   4.237  1.00 20.00     0.085 C 
HETATM    2  C2  UNL     1     -33.217   5.769   3.369  1.00 20.00     0.085 C 
HETATM    3  C3  UNL     1     -35.157   6.917   4.580  1.00 20.00     0.030 A 
HETATM    4  C4  UNL     1     -33.670   6.760   4.307  1.00 20.00     0.148 A 
HETATM    5  C5  UNL     1     -34.264   6.320   5.654  1.00 20.00    -0.007 A 
HETATM    6  C6  UNL     1     -36.201   6.122   3.869  1.00 20.00     0.014 C 
HETATM    7  C7  UNL     1     -34.025   7.168   6.886  1.00 20.00     0.018 C 
HETATM    8  C8  UNL     1     -34.361   4.848   5.989  1.00 20.00     0.018 C 
HETATM    9  N9  UNL     1     -32.247   8.931   4.182  1.00 20.00    -0.195 NA
HETATM   10  N10 UNL     1     -32.852   4.969   2.612  1.00 20.00    -0.195 NA
ENDROOT
TORSDOF 0
ENDMDL
MODEL 3
REMARK VINA RESULT:      -3.6     12.214     13.549
REMARK  0 active torsions:
REMARK  status: ('A' for Active; 'I' for Inactive)
ROOT
HETATM    1  C1  UNL     1     -41.840  14.259   4.136  1.00 20.00     0.085 C 
HETATM    2  C2  UNL     1     -40.539  12.656   5.326  1.00 20.00     0.085 C 
HETATM    3  C3  UNL     1     -42.666  13.564   6.421  1.00 20.00     0.030 A 
HETATM    4  C4  UNL     1     -41.527  13.695   5.423  1.00 20.00     0.148 A 
HETATM    5  C5  UNL     1     -41.574  14.589   6.672  1.00 20.00    -0.007 A 
HETATM    6  C6  UNL     1     -42.854  12.360   7.284  1.00 20.00     0.014 C 
HETATM    7  C7  UNL     1     -41.966  16.046   6.533  1.00 20.00     0.018 C 
HETATM    8  C8  UNL     1     -40.576  14.374   7.789  1.00 20.00     0.018 C 
HETATM    9  N9  UNL     1     -42.092  14.713   3.099  1.00 20.00    -0.195 NA
HETATM   10  N10 UNL     1     -39.742  11.816   5.248  1.00 20.00    -0.195 NA
ENDROOT
TORSDOF 0
ENDMDL
MODEL 4
REMARK VINA RESULT:      -3.6     12.786     14.138
REMARK  0 active torsions:
REMARK  status: ('A' for Active; 'I' for Inactive)
ROOT
HETATM    1  C1  UNL     1     -39.816  12.731   5.965  1.00 20.00     0.085 C 
HETATM    2  C2  UNL     1     -40.497  13.786   7.989  1.00 20.00     0.085 C 
HETATM    3  C3  UNL     1     -42.281  12.691   6.518  1.00 20.00     0.030 A 
HETATM    4  C4  UNL     1     -40.908  13.320   6.693  1.00 20.00     0.148 A 
HETATM    5  C5  UNL     1     -42.013  14.066   5.929  1.00 20.00    -0.007 A 
HETATM    6  C6  UNL     1     -43.225  12.472   7.653  1.00 20.00     0.014 C 
HETATM    7  C7  UNL     1     -41.945  14.156   4.419  1.00 20.00     0.018 C 
HETATM    8  C8  UNL     1     -42.656  15.291   6.542  1.00 20.00     0.018 C 
HETATM    9  N9  UNL     1     -38.935  12.257   5.377  1.00 20.00    -0.195 NA
HETATM   10  N10 UNL     1     -40.166  14.163   9.036  1.00 20.00    -0.195 NA
ENDROOT
TORSDOF 0
ENDMDL
MODEL 5
REMARK VINA RESULT:      -3.6      4.588      5.601
REMARK  0 active torsions:
REMARK  status: ('A' for Active; 'I' for Inactive)
ROOT
HETATM    1  C1  UNL     1     -34.414  18.754   0.225  1.00 20.00     0.085 C 
HETATM    2  C2  UNL     1     -35.297  18.865  -1.985  1.00 20.00     0.085 C 
HETATM    3  C3  UNL     1     -33.311  17.315  -1.536  1.00 20.00     0.030 A 
HETATM    4  C4  UNL     1     -34.162  18.521  -1.173  1.00 20.00     0.148 A 
HETATM    5  C5  UNL     1     -32.742  18.710  -1.728  1.00 20.00    -0.007 A 
HETATM    6  C6  UNL     1     -33.631  16.412  -2.680  1.00 20.00     0.014 C 
HETATM    7  C7  UNL     1     -31.623  19.121  -0.792  1.00 20.00     0.018 C 
HETATM    8  C8  UNL     1     -32.546  19.263  -3.123  1.00 20.00     0.018 C 
HETATM    9  N9  UNL     1     -34.616  18.941   1.352  1.00 20.00    -0.195 NA
HETATM   10  N10 UNL     1     -36.213  19.142  -2.641  1.00 20.00    -0.195 NA
ENDROOT
TORSDOF 0
ENDMDL
MODEL 6
REMARK VINA RESULT:      -3.5      1.598      2.632
REMARK  0 active torsions:
REMARK  status: ('A' for Active; 'I' for Inactive)
ROOT
HETATM    1  C1  UNL     1     -37.138  16.067  -5.556  1.00 20.00     0.085 C 
HETATM    2  C2  UNL     1     -35.115  17.301  -5.308  1.00 20.00     0.085 C 
HETATM    3  C3  UNL     1     -35.040  15.059  -6.540  1.00 20.00     0.030 A 
HETATM    4  C4  UNL     1     -35.700  16.011  -5.556  1.00 20.00     0.148 A 
HETATM    5  C5  UNL     1     -34.991  14.743  -5.055  1.00 20.00    -0.007 A 
HETATM    6  C6  UNL     1     -33.823  15.419  -7.326  1.00 20.00     0.014 C 
HETATM    7  C7  UNL     1     -35.817  13.563  -4.585  1.00 20.00     0.018 C 
HETATM    8  C8  UNL     1     -33.686  14.860  -4.298  1.00 20.00     0.018 C 
HETATM    9  N9  UNL     1     -38.297  16.111  -5.555  1.00 20.00    -0.195 NA
HETATM   10  N10 UNL     1     -34.642  18.342  -5.108  1.00 20.00    -0.195 NA
ENDROOT
TORSDOF 0
ENDMDL
MODEL 7
REMARK VINA RESULT:      -3.5      1.643      2.780
REMARK  0 active torsions:
REMARK  status: ('A' for Active; 'I' for Inactive)
ROOT
HETATM    1  C1  UNL     1     -35.647  14.201  -5.030  1.00 20.00     0.085 C 
HETATM    2  C2  UNL     1     -34.428  15.250  -6.788  1.00 20.00     0.085 C 
HETATM    3  C3  UNL     1     -35.376  16.711  -4.914  1.00 20.00     0.030 A 
HETATM    4  C4  UNL     1     -35.386  15.430  -5.732  1.00 20.00     0.148 A 
HETATM    5  C5  UNL     1     -36.512  16.464  -5.892  1.00 20.00    -0.007 A 
HETATM    6  C6  UNL     1     -34.366  17.791  -5.110  1.00 20.00     0.014 C 
HETATM    7  C7  UNL     1     -37.874  16.182  -5.293  1.00 20.00     0.018 C 
HETATM    8  C8  UNL     1     -36.609  17.280  -7.162  1.00 20.00     0.018 C 
HETATM    9  N9  UNL     1     -35.857  13.210  -4.464  1.00 20.00    -0.195 NA
HETATM   10  N10 UNL     1     -33.654  15.105  -7.641  1.00 20.00    -0.195 NA
ENDROOT
TORSDOF 0
ENDMDL
MODEL 8
REMARK VINA RESULT:      -3.4      1.010      3.125
REMARK  0 active torsions:
REMARK  status: ('A' for Active; 'I' for Inactive)
ROOT
HETATM    1  C1  UNL     1     -37.418  15.920  -5.527  1.00 20.00     0.085 C 
HETATM    2  C2  UNL     1     -35.897  14.192  -4.912  1.00 20.00     0.085 C 
HETATM    3  C3  UNL     1     -35.037  16.599  -5.021  1.00 20.00     0.030 A 
HETATM    4  C4  UNL     1     -36.037  15.527  -5.424  1.00 20.00     0.148 A 
HETATM    5  C5  UNL     1     -35.020  16.064  -6.443  1.00 20.00    -0.007 A 
HETATM    6  C6  UNL     1     -33.927  16.351  -4.055  1.00 20.00     0.014 C 
HETATM    7  C7  UNL     1     -35.482  17.012  -7.530  1.00 20.00     0.018 C 
HETATM    8  C8  UNL     1     -33.881  15.182  -6.906  1.00 20.00     0.018 C 
HETATM    9  N9  UNL     1     -38.531  16.236  -5.611  1.00 20.00    -0.195 NA
HETATM   10  N10 UNL     1     -35.784  13.113  -4.498  1.00 20.00    -0.195 NA
ENDROOT
TORSDOF 0
ENDMDL
MODEL 9
REMARK VINA RESULT:      -3.4      2.084      3.341
REMARK  0 active torsions:
REMARK  status: ('A' for Active; 'I' for Inactive)
ROOT
HETATM    1  C1  UNL     1     -34.687  17.560  -5.701  1.00 20.00     0.085 C 
HETATM    2  C2  UNL     1     -34.078  15.587  -6.890  1.00 20.00     0.085 C 
HETATM    3  C3  UNL     1     -35.328  15.344  -4.671  1.00 20.00     0.030 A 
HETATM    4  C4  UNL     1     -34.448  16.144  -5.618  1.00 20.00     0.148 A 
HETATM    5  C5  UNL     1     -33.863  15.550  -4.327  1.00 20.00    -0.007 A 
HETATM    6  C6  UNL     1     -35.892  14.007  -5.022  1.00 20.00     0.014 C 
HETATM    7  C7  UNL     1     -33.563  16.461  -3.155  1.00 20.00     0.018 C 
HETATM    8  C8  UNL     1     -32.896  14.388  -4.404  1.00 20.00     0.018 C 
HETATM    9  N9  UNL     1     -34.879  18.702  -5.768  1.00 20.00    -0.195 NA
HETATM   10  N10 UNL     1     -33.780  15.138  -7.918  1.00 20.00    -0.195 NA
ENDROOT
TORSDOF 0
ENDMDL
