MODEL 1
REMARK VINA RESULT:      -4.5      0.000      0.000
REMARK  3 active torsions:
REMARK  status: ('A' for Active; 'I' for Inactive)
REMARK    1  A    between atoms: C4_4  and  C6_6 
REMARK    2  A    between atoms: C6_6  and  C8_8 
REMARK    3  A    between atoms: C7_7  and  C8_8 
ROOT
HETATM    1  C1  UNL     1     -34.789   5.781   6.341  1.00 20.00     0.011 C 
HETATM    2  C2  UNL     1     -33.786   6.923   6.260  1.00 20.00     0.016 C 
HETATM    3  C3  UNL     1     -34.431   4.815   5.226  1.00 20.00     0.074 C 
HETATM    4  C4  UNL     1     -33.790   7.396   4.809  1.00 20.00     0.047 C 
HETATM    5  S9  UNL     1     -33.945   5.866   3.829  1.00 20.00    -0.164 SA
ENDROOT
BRANCH   4   6
HETATM    6  C6  UNL     1     -32.536   8.170   4.441  1.00 20.00     0.015 C 
BRANCH   6   7
HETATM    7  C8  UNL     1     -32.167   7.972   2.972  1.00 20.00     0.001 C 
BRANCH   7   8
HETATM    8  C7  UNL     1     -32.690   9.119   2.107  1.00 20.00    -0.005 C 
HETATM    9  C5  UNL     1     -32.483   8.840   0.627  1.00 20.00     0.005 C 
ENDBRANCH   7   8
ENDBRANCH   6   7
ENDBRANCH   4   6
TORSDOF 3
ENDMDL
MODEL 2
REMARK VINA RESULT:      -3.9      1.190      1.525
REMARK  3 active torsions:
REMARK  status: ('A' for Active; 'I' for Inactive)
REMARK    1  A    between atoms: C4_4  and  C6_6 
REMARK    2  A    between atoms: C6_6  and  C8_8 
REMARK    3  A    between atoms: C7_7  and  C8_8 
ROOT
HETATM    1  C1  UNL     1     -34.444   4.915   4.811  1.00 20.00     0.011 C 
HETATM    2  C2  UNL     1     -34.017   6.003   3.838  1.00 20.00     0.016 C 
HETATM    3  C3  UNL     1     -34.946   5.624   6.057  1.00 20.00     0.074 C 
HETATM    4  C4  UNL     1     -33.087   6.932   4.615  1.00 20.00     0.047 C 
HETATM    5  S9  UNL     1     -33.828   7.035   6.277  1.00 20.00    -0.164 SA
ENDROOT
BRANCH   4   6
HETATM    6  C6  UNL     1     -32.959   8.304   3.975  1.00 20.00     0.015 C 
BRANCH   6   7
HETATM    7  C8  UNL     1     -32.399   8.210   2.557  1.00 20.00     0.001 C 
BRANCH   7   8
HETATM    8  C7  UNL     1     -32.820   9.412   1.712  1.00 20.00    -0.005 C 
HETATM    9  C5  UNL     1     -32.690   9.121   0.225  1.00 20.00     0.005 C 
ENDBRANCH   7   8
ENDBRANCH   6   7
ENDBRANCH   4   6
TORSDOF 3
ENDMDL
MODEL 3
REMARK VINA RESULT:      -3.7     11.644     12.293
REMARK  3 active torsions:
REMARK  status: ('A' for Active; 'I' for Inactive)
REMARK    1  A    between atoms: C4_4  and  C6_6 
REMARK    2  A    between atoms: C6_6  and  C8_8 
REMARK    3  A    between atoms: C7_7  and  C8_8 
ROOT
HETATM    1  C1  UNL     1     -31.210  19.073   0.365  1.00 20.00     0.011 C 
HETATM    2  C2  UNL     1     -31.822  18.367  -0.836  1.00 20.00     0.016 C 
HETATM    3  C3  UNL     1     -32.153  18.835   1.530  1.00 20.00     0.074 C 
HETATM    4  C4  UNL     1     -33.271  18.839  -0.919  1.00 20.00     0.047 C 
HETATM    5  S9  UNL     1     -33.818  18.941   0.817  1.00 20.00    -0.164 SA
ENDROOT
BRANCH   4   6
HETATM    6  C6  UNL     1     -34.150  17.899  -1.727  1.00 20.00     0.015 C 
BRANCH   6   7
HETATM    7  C8  UNL     1     -33.359  16.698  -2.242  1.00 20.00     0.001 C 
BRANCH   7   8
HETATM    8  C7  UNL     1     -33.610  16.465  -3.731  1.00 20.00    -0.005 C 
HETATM    9  C5  UNL     1     -33.741  14.983  -4.049  1.00 20.00     0.005 C 
ENDBRANCH   7   8
ENDBRANCH   6   7
ENDBRANCH   4   6
TORSDOF 3
ENDMDL
MODEL 4
REMARK VINA RESULT:      -3.5     11.838     12.538
REMARK  3 active torsions:
REMARK  status: ('A' for Active; 'I' for Inactive)
REMARK    1  A    between atoms: C4_4  and  C6_6 
REMARK    2  A    between atoms: C6_6  and  C8_8 
REMARK    3  A    between atoms: C7_7  and  C8_8 
ROOT
HETATM    1  C1  UNL     1     -33.897  14.999  -5.071  1.00 20.00     0.011 C 
HETATM    2  C2  UNL     1     -33.031  15.445  -3.903  1.00 20.00     0.016 C 
HETATM    3  C3  UNL     1     -34.404  16.266  -5.738  1.00 20.00     0.074 C 
HETATM    4  C4  UNL     1     -33.865  16.445  -3.107  1.00 20.00     0.047 C 
HETATM    5  S9  UNL     1     -34.755  17.408  -4.373  1.00 20.00    -0.164 SA
ENDROOT
BRANCH   4   6
HETATM    6  C6  UNL     1     -33.018  17.340  -2.218  1.00 20.00     0.015 C 
BRANCH   6   7
HETATM    7  C8  UNL     1     -33.720  17.640  -0.895  1.00 20.00     0.001 C 
BRANCH   7   8
HETATM    8  C7  UNL     1     -32.802  18.401   0.062  1.00 20.00    -0.005 C 
HETATM    9  C5  UNL     1     -31.382  18.485  -0.478  1.00 20.00     0.005 C 
ENDBRANCH   7   8
ENDBRANCH   6   7
ENDBRANCH   4   6
TORSDOF 3
ENDMDL
MODEL 5
REMARK VINA RESULT:      -3.5     11.853     12.669
REMARK  3 active torsions:
REMARK  status: ('A' for Active; 'I' for Inactive)
REMARK    1  A    between atoms: C4_4  and  C6_6 
REMARK    2  A    between atoms: C6_6  and  C8_8 
REMARK    3  A    between atoms: C7_7  and  C8_8 
ROOT
HETATM    1  C1  UNL     1     -33.812  16.606  -3.400  1.00 20.00     0.011 C 
HETATM    2  C2  UNL     1     -32.953  17.046  -2.224  1.00 20.00     0.016 C 
HETATM    3  C3  UNL     1     -34.605  17.826  -3.834  1.00 20.00     0.074 C 
HETATM    4  C4  UNL     1     -33.894  17.735  -1.239  1.00 20.00     0.047 C 
HETATM    5  S9  UNL     1     -35.054  18.669  -2.291  1.00 20.00    -0.164 SA
ENDROOT
BRANCH   4   6
HETATM    6  C6  UNL     1     -33.163  18.647  -0.269  1.00 20.00     0.015 C 
BRANCH   6   7
HETATM    7  C8  UNL     1     -31.663  18.680  -0.553  1.00 20.00     0.001 C 
BRANCH   7   8
HETATM    8  C7  UNL     1     -30.881  19.217   0.646  1.00 20.00    -0.005 C 
HETATM    9  C5  UNL     1     -30.861  18.216   1.791  1.00 20.00     0.005 C 
ENDBRANCH   7   8
ENDBRANCH   6   7
ENDBRANCH   4   6
TORSDOF 3
ENDMDL
MODEL 6
REMARK VINA RESULT:      -3.5      9.862     10.439
REMARK  3 active torsions:
REMARK  status: ('A' for Active; 'I' for Inactive)
REMARK    1  A    between atoms: C4_4  and  C6_6 
REMARK    2  A    between atoms: C6_6  and  C8_8 
REMARK    3  A    between atoms: C7_7  and  C8_8 
ROOT
HETATM    1  C1  UNL     1     -41.082  15.381   8.655  1.00 20.00     0.011 C 
HETATM    2  C2  UNL     1     -40.460  14.918   7.346  1.00 20.00     0.016 C 
HETATM    3  C3  UNL     1     -41.866  14.201   9.200  1.00 20.00     0.074 C 
HETATM    4  C4  UNL     1     -41.593  14.310   6.524  1.00 20.00     0.047 C 
HETATM    5  S9  UNL     1     -42.617  13.422   7.743  1.00 20.00    -0.164 SA
ENDROOT
BRANCH   4   6
HETATM    6  C6  UNL     1     -41.092  13.379   5.433  1.00 20.00     0.015 C 
BRANCH   6   7
HETATM    7  C8  UNL     1     -40.360  12.172   6.018  1.00 20.00     0.001 C 
BRANCH   7   8
HETATM    8  C7  UNL     1     -38.944  12.054   5.456  1.00 20.00    -0.005 C 
HETATM    9  C5  UNL     1     -38.960  11.665   3.985  1.00 20.00     0.005 C 
ENDBRANCH   7   8
ENDBRANCH   6   7
ENDBRANCH   4   6
TORSDOF 3
ENDMDL
MODEL 7
REMARK VINA RESULT:      -3.5     11.639     12.668
REMARK  3 active torsions:
REMARK  status: ('A' for Active; 'I' for Inactive)
REMARK    1  A    between atoms: C4_4  and  C6_6 
REMARK    2  A    between atoms: C6_6  and  C8_8 
REMARK    3  A    between atoms: C7_7  and  C8_8 
ROOT
HETATM    1  C1  UNL     1     -36.150  15.534  -6.053  1.00 20.00     0.011 C 
HETATM    2  C2  UNL     1     -35.651  16.760  -5.302  1.00 20.00     0.016 C 
HETATM    3  C3  UNL     1     -35.755  14.329  -5.218  1.00 20.00     0.074 C 
HETATM    4  C4  UNL     1     -34.181  16.500  -4.984  1.00 20.00     0.047 C 
HETATM    5  S9  UNL     1     -34.110  14.728  -4.564  1.00 20.00    -0.164 SA
ENDROOT
BRANCH   4   6
HETATM    6  C6  UNL     1     -33.665  17.364  -3.846  1.00 20.00     0.015 C 
BRANCH   6   7
HETATM    7  C8  UNL     1     -33.374  16.532  -2.599  1.00 20.00     0.001 C 
BRANCH   7   8
HETATM    8  C7  UNL     1     -33.537  17.363  -1.326  1.00 20.00    -0.005 C 
HETATM    9  C5  UNL     1     -32.287  18.175  -1.027  1.00 20.00     0.005 C 
ENDBRANCH   7   8
ENDBRANCH   6   7
ENDBRANCH   4   6
TORSDOF 3
ENDMDL
MODEL 8
REMARK VINA RESULT:      -3.4     10.174     10.842
REMARK  3 active torsions:
REMARK  status: ('A' for Active; 'I' for Inactive)
REMARK    1  A    between atoms: C4_4  and  C6_6 
REMARK    2  A    between atoms: C6_6  and  C8_8 
REMARK    3  A    between atoms: C7_7  and  C8_8 
ROOT
HETATM    1  C1  UNL     1     -41.740  16.414   7.240  1.00 20.00     0.011 C 
HETATM    2  C2  UNL     1     -42.010  15.191   6.376  1.00 20.00     0.016 C 
HETATM    3  C3  UNL     1     -40.441  16.141   7.978  1.00 20.00     0.074 C 
HETATM    4  C4  UNL     1     -41.895  13.979   7.297  1.00 20.00     0.047 C 
HETATM    5  S9  UNL     1     -40.504  14.379   8.406  1.00 20.00    -0.164 SA
ENDROOT
BRANCH   4   6
HETATM    6  C6  UNL     1     -41.650  12.686   6.538  1.00 20.00     0.015 C 
BRANCH   6   7
HETATM    7  C8  UNL     1     -40.635  12.881   5.412  1.00 20.00     0.001 C 
BRANCH   7   8
HETATM    8  C7  UNL     1     -39.594  11.763   5.403  1.00 20.00    -0.005 C 
HETATM    9  C5  UNL     1     -38.918  11.642   4.046  1.00 20.00     0.005 C 
ENDBRANCH   7   8
ENDBRANCH   6   7
ENDBRANCH   4   6
TORSDOF 3
ENDMDL
MODEL 9
REMARK VINA RESULT:      -3.4     11.688     12.475
REMARK  3 active torsions:
REMARK  status: ('A' for Active; 'I' for Inactive)
REMARK    1  A    between atoms: C4_4  and  C6_6 
REMARK    2  A    between atoms: C6_6  and  C8_8 
REMARK    3  A    between atoms: C7_7  and  C8_8 
ROOT
HETATM    1  C1  UNL     1     -33.378  17.769  -1.291  1.00 20.00     0.011 C 
HETATM    2  C2  UNL     1     -33.379  16.616  -2.284  1.00 20.00     0.016 C 
HETATM    3  C3  UNL     1     -34.617  18.594  -1.589  1.00 20.00     0.074 C 
HETATM    4  C4  UNL     1     -33.568  17.238  -3.665  1.00 20.00     0.047 C 
HETATM    5  S9  UNL     1     -34.762  18.589  -3.398  1.00 20.00    -0.164 SA
ENDROOT
BRANCH   4   6
HETATM    6  C6  UNL     1     -34.074  16.241  -4.693  1.00 20.00     0.015 C 
BRANCH   6   7
HETATM    7  C8  UNL     1     -33.916  14.802  -4.204  1.00 20.00     0.001 C 
BRANCH   7   8
HETATM    8  C7  UNL     1     -35.161  13.971  -4.509  1.00 20.00    -0.005 C 
HETATM    9  C5  UNL     1     -35.909  14.511  -5.719  1.00 20.00     0.005 C 
ENDBRANCH   7   8
ENDBRANCH   6   7
ENDBRANCH   4   6
TORSDOF 3
ENDMDL
