MODEL 1
REMARK VINA RESULT:      -4.1      0.000      0.000
REMARK  1 active torsions:
REMARK  status: ('A' for Active; 'I' for Inactive)
REMARK    1  A    between atoms: C7_7  and  C10_10 
ROOT
HETATM    1  C1  UNL     1     -42.299  16.082   5.779  1.00 20.00    -0.004 C 
HETATM    2  C2  UNL     1     -41.735  16.326   7.095  1.00 20.00    -0.004 C 
HETATM    3  C3  UNL     1     -42.367  14.928   5.090  1.00 20.00    -0.017 C 
HETATM    4  C4  UNL     1     -41.148  15.455   7.937  1.00 20.00    -0.017 C 
HETATM    5  C5  UNL     1     -42.668  12.962   6.578  1.00 20.00    -0.021 C 
HETATM    6  C6  UNL     1     -42.146  13.186   7.792  1.00 20.00    -0.021 C 
HETATM    7  C8  UNL     1     -41.813  13.587   5.504  1.00 20.00     0.042 C 
HETATM    8  C9  UNL     1     -40.876  13.991   7.690  1.00 20.00     0.042 C 
HETATM    9  C10 UNL     1     -40.464  13.722   6.231  1.00 20.00     0.077 C 
ENDROOT
BRANCH   9  10
HETATM   10  C7  UNL     1     -39.656  12.457   6.105  1.00 20.00     0.129 C 
HETATM   11  C11 UNL     1     -39.591  11.828   4.739  1.00 20.00     0.091 C 
HETATM   12  O12 UNL     1     -39.075  11.962   7.070  1.00 20.00    -0.298 OA
ENDBRANCH   9  10
TORSDOF 1
ENDMDL
MODEL 2
REMARK VINA RESULT:      -3.6      1.469      1.954
REMARK  1 active torsions:
REMARK  status: ('A' for Active; 'I' for Inactive)
REMARK    1  A    between atoms: C7_7  and  C10_10 
ROOT
HETATM    1  C1  UNL     1     -41.017  16.813   8.074  1.00 20.00    -0.004 C 
HETATM    2  C2  UNL     1     -40.445  15.882   9.032  1.00 20.00    -0.004 C 
HETATM    3  C3  UNL     1     -41.657  16.550   6.921  1.00 20.00    -0.017 C 
HETATM    4  C4  UNL     1     -40.423  14.536   8.992  1.00 20.00    -0.017 C 
HETATM    5  C5  UNL     1     -42.979  14.451   7.037  1.00 20.00    -0.021 C 
HETATM    6  C6  UNL     1     -42.453  13.591   7.919  1.00 20.00    -0.021 C 
HETATM    7  C8  UNL     1     -41.895  15.195   6.299  1.00 20.00     0.042 C 
HETATM    8  C9  UNL     1     -40.946  13.649   7.889  1.00 20.00     0.042 C 
HETATM    9  C10 UNL     1     -40.694  14.253   6.496  1.00 20.00     0.077 C 
ENDROOT
BRANCH   9  10
HETATM   10  C7  UNL     1     -40.660  13.193   5.427  1.00 20.00     0.129 C 
HETATM   11  C11 UNL     1     -40.027  11.879   5.796  1.00 20.00     0.091 C 
HETATM   12  O12 UNL     1     -41.129  13.391   4.306  1.00 20.00    -0.298 OA
ENDBRANCH   9  10
TORSDOF 1
ENDMDL
MODEL 3
REMARK VINA RESULT:      -3.6     12.659     13.771
REMARK  1 active torsions:
REMARK  status: ('A' for Active; 'I' for Inactive)
REMARK    1  A    between atoms: C7_7  and  C10_10 
ROOT
HETATM    1  C1  UNL     1     -33.232  15.094  -4.168  1.00 20.00    -0.004 C 
HETATM    2  C2  UNL     1     -33.293  16.315  -3.383  1.00 20.00    -0.004 C 
HETATM    3  C3  UNL     1     -33.931  14.763  -5.269  1.00 20.00    -0.017 C 
HETATM    4  C4  UNL     1     -34.062  17.404  -3.573  1.00 20.00    -0.017 C 
HETATM    5  C5  UNL     1     -34.417  16.733  -6.702  1.00 20.00    -0.021 C 
HETATM    6  C6  UNL     1     -34.475  17.859  -5.979  1.00 20.00    -0.021 C 
HETATM    7  C8  UNL     1     -35.012  15.575  -5.941  1.00 20.00     0.042 C 
HETATM    8  C9  UNL     1     -35.113  17.602  -4.637  1.00 20.00     0.042 C 
HETATM    9  C10 UNL     1     -35.898  16.308  -4.918  1.00 20.00     0.077 C 
ENDROOT
BRANCH   9  10
HETATM   10  C7  UNL     1     -37.259  16.596  -5.496  1.00 20.00     0.129 C 
HETATM   11  C11 UNL     1     -37.996  17.781  -4.932  1.00 20.00     0.091 C 
HETATM   12  O12 UNL     1     -37.745  15.899  -6.385  1.00 20.00    -0.298 OA
ENDBRANCH   9  10
TORSDOF 1
ENDMDL
MODEL 4
REMARK VINA RESULT:      -3.5      1.519      2.887
REMARK  1 active torsions:
REMARK  status: ('A' for Active; 'I' for Inactive)
REMARK    1  A    between atoms: C7_7  and  C10_10 
ROOT
HETATM    1  C1  UNL     1     -41.774  14.000   9.588  1.00 20.00    -0.004 C 
HETATM    2  C2  UNL     1     -43.019  13.464   9.065  1.00 20.00    -0.004 C 
HETATM    3  C3  UNL     1     -40.696  14.441   8.915  1.00 20.00    -0.017 C 
HETATM    4  C4  UNL     1     -43.387  13.282   7.783  1.00 20.00    -0.017 C 
HETATM    5  C5  UNL     1     -41.307  15.517   6.761  1.00 20.00    -0.021 C 
HETATM    6  C6  UNL     1     -42.454  15.022   6.277  1.00 20.00    -0.021 C 
HETATM    7  C8  UNL     1     -40.490  14.434   7.420  1.00 20.00     0.042 C 
HETATM    8  C9  UNL     1     -42.556  13.543   6.551  1.00 20.00     0.042 C 
HETATM    9  C10 UNL     1     -41.078  13.171   6.765  1.00 20.00     0.077 C 
ENDROOT
BRANCH   9  10
HETATM   10  C7  UNL     1     -40.385  12.869   5.462  1.00 20.00     0.129 C 
HETATM   11  C11 UNL     1     -39.047  12.185   5.550  1.00 20.00     0.091 C 
HETATM   12  O12 UNL     1     -40.887  13.164   4.378  1.00 20.00    -0.298 OA
ENDBRANCH   9  10
TORSDOF 1
ENDMDL
MODEL 5
REMARK VINA RESULT:      -3.4     12.614     14.051
REMARK  1 active torsions:
REMARK  status: ('A' for Active; 'I' for Inactive)
REMARK    1  A    between atoms: C7_7  and  C10_10 
ROOT
HETATM    1  C1  UNL     1     -34.922  17.676  -7.912  1.00 20.00    -0.004 C 
HETATM    2  C2  UNL     1     -35.718  18.431  -6.961  1.00 20.00    -0.004 C 
HETATM    3  C3  UNL     1     -34.386  16.449  -7.778  1.00 20.00    -0.017 C 
HETATM    4  C4  UNL     1     -36.109  18.082  -5.721  1.00 20.00    -0.017 C 
HETATM    5  C5  UNL     1     -35.805  14.949  -6.399  1.00 20.00    -0.021 C 
HETATM    6  C6  UNL     1     -36.540  15.644  -5.520  1.00 20.00    -0.021 C 
HETATM    7  C8  UNL     1     -34.437  15.561  -6.559  1.00 20.00     0.042 C 
HETATM    8  C9  UNL     1     -35.759  16.815  -4.979  1.00 20.00     0.042 C 
HETATM    9  C10 UNL     1     -34.313  16.368  -5.254  1.00 20.00     0.077 C 
ENDROOT
BRANCH   9  10
HETATM   10  C7  UNL     1     -33.772  15.511  -4.140  1.00 20.00     0.129 C 
HETATM   11  C11 UNL     1     -33.642  16.160  -2.789  1.00 20.00     0.091 C 
HETATM   12  O12 UNL     1     -33.454  14.337  -4.325  1.00 20.00    -0.298 OA
ENDBRANCH   9  10
TORSDOF 1
ENDMDL
MODEL 6
REMARK VINA RESULT:      -3.4      1.388      2.714
REMARK  1 active torsions:
REMARK  status: ('A' for Active; 'I' for Inactive)
REMARK    1  A    between atoms: C7_7  and  C10_10 
ROOT
HETATM    1  C1  UNL     1     -41.926  14.326   4.208  1.00 20.00    -0.004 C 
HETATM    2  C2  UNL     1     -42.789  15.387   4.698  1.00 20.00    -0.004 C 
HETATM    3  C3  UNL     1     -41.247  13.399   4.908  1.00 20.00    -0.017 C 
HETATM    4  C4  UNL     1     -43.113  15.693   5.968  1.00 20.00    -0.017 C 
HETATM    5  C5  UNL     1     -42.455  12.702   6.963  1.00 20.00    -0.021 C 
HETATM    6  C6  UNL     1     -43.250  13.680   7.417  1.00 20.00    -0.021 C 
HETATM    7  C8  UNL     1     -41.171  13.267   6.409  1.00 20.00     0.042 C 
HETATM    8  C9  UNL     1     -42.603  15.029   7.224  1.00 20.00     0.042 C 
HETATM    9  C10 UNL     1     -41.119  14.638   7.105  1.00 20.00     0.077 C 
ENDROOT
BRANCH   9  10
HETATM   10  C7  UNL     1     -40.461  14.532   8.456  1.00 20.00     0.129 C 
HETATM   11  C11 UNL     1     -40.538  15.744   9.344  1.00 20.00     0.091 C 
HETATM   12  O12 UNL     1     -39.890  13.503   8.818  1.00 20.00    -0.298 OA
ENDBRANCH   9  10
TORSDOF 1
ENDMDL
MODEL 7
REMARK VINA RESULT:      -3.4      1.611      3.465
REMARK  1 active torsions:
REMARK  status: ('A' for Active; 'I' for Inactive)
REMARK    1  A    between atoms: C7_7  and  C10_10 
ROOT
HETATM    1  C1  UNL     1     -40.839  13.049   5.053  1.00 20.00    -0.004 C 
HETATM    2  C2  UNL     1     -41.739  14.075   4.555  1.00 20.00    -0.004 C 
HETATM    3  C3  UNL     1     -40.407  12.843   6.310  1.00 20.00    -0.017 C 
HETATM    4  C4  UNL     1     -42.354  15.062   5.234  1.00 20.00    -0.017 C 
HETATM    5  C5  UNL     1     -42.126  13.434   8.003  1.00 20.00    -0.021 C 
HETATM    6  C6  UNL     1     -42.956  14.381   7.546  1.00 20.00    -0.021 C 
HETATM    7  C8  UNL     1     -40.716  13.679   7.528  1.00 20.00     0.042 C 
HETATM    8  C9  UNL     1     -42.210  15.384   6.702  1.00 20.00     0.042 C 
HETATM    9  C10 UNL     1     -40.766  15.181   7.196  1.00 20.00     0.077 C 
ENDROOT
BRANCH   9  10
HETATM   10  C7  UNL     1     -40.474  16.012   8.417  1.00 20.00     0.129 C 
HETATM   11  C11 UNL     1     -40.985  17.428   8.412  1.00 20.00     0.091 C 
HETATM   12  O12 UNL     1     -39.848  15.557   9.374  1.00 20.00    -0.298 OA
ENDBRANCH   9  10
TORSDOF 1
ENDMDL
MODEL 8
REMARK VINA RESULT:      -3.3      1.645      2.454
REMARK  1 active torsions:
REMARK  status: ('A' for Active; 'I' for Inactive)
REMARK    1  A    between atoms: C7_7  and  C10_10 
ROOT
HETATM    1  C1  UNL     1     -42.969  16.871   8.274  1.00 20.00    -0.004 C 
HETATM    2  C2  UNL     1     -41.691  17.346   7.773  1.00 20.00    -0.004 C 
HETATM    3  C3  UNL     1     -43.343  15.614   8.578  1.00 20.00    -0.017 C 
HETATM    4  C4  UNL     1     -40.578  16.641   7.495  1.00 20.00    -0.017 C 
HETATM    5  C5  UNL     1     -41.463  14.267   9.483  1.00 20.00    -0.021 C 
HETATM    6  C6  UNL     1     -40.283  14.703   9.020  1.00 20.00    -0.021 C 
HETATM    7  C8  UNL     1     -42.524  14.356   8.416  1.00 20.00     0.042 C 
HETATM    8  C9  UNL     1     -40.402  15.144   7.583  1.00 20.00     0.042 C 
HETATM    9  C10 UNL     1     -41.667  14.389   7.138  1.00 20.00     0.077 C 
ENDROOT
BRANCH   9  10
HETATM   10  C7  UNL     1     -41.347  12.994   6.669  1.00 20.00     0.129 C 
HETATM   11  C11 UNL     1     -40.063  12.814   5.907  1.00 20.00     0.091 C 
HETATM   12  O12 UNL     1     -42.098  12.047   6.899  1.00 20.00    -0.298 OA
ENDBRANCH   9  10
TORSDOF 1
ENDMDL
MODEL 9
REMARK VINA RESULT:      -3.3      2.368      4.007
REMARK  1 active torsions:
REMARK  status: ('A' for Active; 'I' for Inactive)
REMARK    1  A    between atoms: C7_7  and  C10_10 
ROOT
HETATM    1  C1  UNL     1     -41.256  12.630   6.319  1.00 20.00    -0.004 C 
HETATM    2  C2  UNL     1     -42.558  12.478   6.946  1.00 20.00    -0.004 C 
HETATM    3  C3  UNL     1     -40.335  13.593   6.507  1.00 20.00    -0.017 C 
HETATM    4  C4  UNL     1     -43.150  13.265   7.864  1.00 20.00    -0.017 C 
HETATM    5  C5  UNL     1     -40.312  14.427   8.847  1.00 20.00    -0.021 C 
HETATM    6  C6  UNL     1     -41.512  14.288   9.426  1.00 20.00    -0.021 C 
HETATM    7  C8  UNL     1     -40.456  14.808   7.395  1.00 20.00     0.042 C 
HETATM    8  C9  UNL     1     -42.618  14.557   8.436  1.00 20.00     0.042 C 
HETATM    9  C10 UNL     1     -41.879  15.394   7.376  1.00 20.00     0.077 C 
ENDROOT
BRANCH   9  10
HETATM   10  C7  UNL     1     -41.863  16.857   7.734  1.00 20.00     0.129 C 
HETATM   11  C11 UNL     1     -40.678  17.656   7.262  1.00 20.00     0.091 C 
HETATM   12  O12 UNL     1     -42.773  17.375   8.379  1.00 20.00    -0.298 OA
ENDBRANCH   9  10
TORSDOF 1
ENDMDL
