MODEL 1
REMARK VINA RESULT:      -4.0      0.000      0.000
REMARK  4 active torsions:
REMARK  status: ('A' for Active; 'I' for Inactive)
REMARK    1  A    between atoms: C5_5  and  C6_6 
REMARK    2  A    between atoms: C5_5  and  C7_7 
REMARK    3  A    between atoms: C6_6  and  C8_8 
REMARK    4  A    between atoms: C7_7  and  O9_9 
ROOT
HETATM    1  C5  UNL     1     -33.849   8.106   4.708  1.00 20.00     0.032 C 
ENDROOT
BRANCH   1   2
HETATM    2  C6  UNL     1     -33.613   6.829   5.529  1.00 20.00     0.011 C 
BRANCH   2   3
HETATM    3  C8  UNL     1     -34.519   5.620   5.171  1.00 20.00    -0.051 C 
HETATM    4  C2  UNL     1     -33.745   4.563   4.366  1.00 20.00     0.014 C 
HETATM    5  C3  UNL     1     -35.000   4.975   6.486  1.00 20.00     0.014 C 
HETATM    6  C4  UNL     1     -35.753   6.065   4.368  1.00 20.00     0.014 C 
ENDBRANCH   2   3
ENDBRANCH   1   2
BRANCH   1   7
HETATM    7  C7  UNL     1     -32.575   8.569   3.990  1.00 20.00     0.114 C 
HETATM    8  C1  UNL     1     -32.139   7.558   2.937  1.00 20.00     0.039 C 
BRANCH   7   9
HETATM    9  O9  UNL     1     -31.528   8.718   4.944  1.00 20.00    -0.396 OA
HETATM   10  H27 UNL     1     -31.732   9.514   5.457  1.00 20.00     0.210 HD
ENDBRANCH   7   9
ENDBRANCH   1   7
TORSDOF 4
ENDMDL
MODEL 2
REMARK VINA RESULT:      -4.0      0.041      1.446
REMARK  4 active torsions:
REMARK  status: ('A' for Active; 'I' for Inactive)
REMARK    1  A    between atoms: C5_5  and  C6_6 
REMARK    2  A    between atoms: C5_5  and  C7_7 
REMARK    3  A    between atoms: C6_6  and  C8_8 
REMARK    4  A    between atoms: C7_7  and  O9_9 
ROOT
HETATM    1  C5  UNL     1     -33.853   8.093   4.667  1.00 20.00     0.032 C 
ENDROOT
BRANCH   1   2
HETATM    2  C6  UNL     1     -33.609   6.851   5.539  1.00 20.00     0.011 C 
BRANCH   2   3
HETATM    3  C8  UNL     1     -34.499   5.618   5.222  1.00 20.00    -0.051 C 
HETATM    4  C2  UNL     1     -35.018   4.959   6.510  1.00 20.00     0.014 C 
HETATM    5  C3  UNL     1     -35.710   6.101   4.399  1.00 20.00     0.014 C 
HETATM    6  C4  UNL     1     -33.732   4.575   4.392  1.00 20.00     0.014 C 
ENDBRANCH   2   3
ENDBRANCH   1   2
BRANCH   1   7
HETATM    7  C7  UNL     1     -32.574   8.553   3.957  1.00 20.00     0.114 C 
HETATM    8  C1  UNL     1     -32.135   7.545   2.904  1.00 20.00     0.039 C 
BRANCH   7   9
HETATM    9  O9  UNL     1     -31.531   8.696   4.918  1.00 20.00    -0.396 OA
HETATM   10  H27 UNL     1     -31.776   8.144   5.676  1.00 20.00     0.210 HD
ENDBRANCH   7   9
ENDBRANCH   1   7
TORSDOF 4
ENDMDL
MODEL 3
REMARK VINA RESULT:      -3.9      0.035      1.439
REMARK  4 active torsions:
REMARK  status: ('A' for Active; 'I' for Inactive)
REMARK    1  A    between atoms: C5_5  and  C6_6 
REMARK    2  A    between atoms: C5_5  and  C7_7 
REMARK    3  A    between atoms: C6_6  and  C8_8 
REMARK    4  A    between atoms: C7_7  and  O9_9 
ROOT
HETATM    1  C5  UNL     1     -33.831   8.096   4.726  1.00 20.00     0.032 C 
ENDROOT
BRANCH   1   2
HETATM    2  C6  UNL     1     -33.575   6.809   5.525  1.00 20.00     0.011 C 
BRANCH   2   3
HETATM    3  C8  UNL     1     -34.527   5.622   5.215  1.00 20.00    -0.051 C 
HETATM    4  C2  UNL     1     -35.731   6.078   4.375  1.00 20.00     0.014 C 
HETATM    5  C3  UNL     1     -33.737   4.572   4.409  1.00 20.00     0.014 C 
HETATM    6  C4  UNL     1     -35.034   4.961   6.509  1.00 20.00     0.014 C 
ENDBRANCH   2   3
ENDBRANCH   1   2
BRANCH   1   7
HETATM    7  C7  UNL     1     -32.570   8.577   3.996  1.00 20.00     0.114 C 
HETATM    8  C1  UNL     1     -32.122   7.565   2.949  1.00 20.00     0.039 C 
BRANCH   7   9
HETATM    9  O9  UNL     1     -31.520   8.754   4.941  1.00 20.00    -0.396 OA
HETATM   10  H27 UNL     1     -30.972   7.956   4.899  1.00 20.00     0.210 HD
ENDBRANCH   7   9
ENDBRANCH   1   7
TORSDOF 4
ENDMDL
MODEL 4
REMARK VINA RESULT:      -3.8      1.902      4.026
REMARK  4 active torsions:
REMARK  status: ('A' for Active; 'I' for Inactive)
REMARK    1  A    between atoms: C5_5  and  C6_6 
REMARK    2  A    between atoms: C5_5  and  C7_7 
REMARK    3  A    between atoms: C6_6  and  C8_8 
REMARK    4  A    between atoms: C7_7  and  O9_9 
ROOT
HETATM    1  C5  UNL     1     -34.022   6.800   5.595  1.00 20.00     0.032 C 
ENDROOT
BRANCH   1   2
HETATM    2  C6  UNL     1     -34.145   7.835   4.466  1.00 20.00     0.011 C 
BRANCH   2   3
HETATM    3  C8  UNL     1     -32.809   8.276   3.807  1.00 20.00    -0.051 C 
HETATM    4  C2  UNL     1     -33.035   9.412   2.796  1.00 20.00     0.014 C 
HETATM    5  C3  UNL     1     -31.873   8.790   4.918  1.00 20.00     0.014 C 
HETATM    6  C4  UNL     1     -32.121   7.097   3.098  1.00 20.00     0.014 C 
ENDBRANCH   2   3
ENDBRANCH   1   2
BRANCH   1   7
HETATM    7  C7  UNL     1     -34.864   5.548   5.317  1.00 20.00     0.114 C 
HETATM    8  C1  UNL     1     -34.027   4.457   4.661  1.00 20.00     0.039 C 
BRANCH   7   9
HETATM    9  O9  UNL     1     -35.937   5.890   4.445  1.00 20.00    -0.396 OA
HETATM   10  H27 UNL     1     -35.719   6.753   4.063  1.00 20.00     0.210 HD
ENDBRANCH   7   9
ENDBRANCH   1   7
TORSDOF 4
ENDMDL
MODEL 5
REMARK VINA RESULT:      -3.7      1.972      4.022
REMARK  4 active torsions:
REMARK  status: ('A' for Active; 'I' for Inactive)
REMARK    1  A    between atoms: C5_5  and  C6_6 
REMARK    2  A    between atoms: C5_5  and  C7_7 
REMARK    3  A    between atoms: C6_6  and  C8_8 
REMARK    4  A    between atoms: C7_7  and  O9_9 
ROOT
HETATM    1  C5  UNL     1     -34.775   6.424   4.131  1.00 20.00     0.032 C 
ENDROOT
BRANCH   1   2
HETATM    2  C6  UNL     1     -34.080   7.645   4.751  1.00 20.00     0.011 C 
BRANCH   2   3
HETATM    3  C8  UNL     1     -32.846   8.184   3.976  1.00 20.00    -0.051 C 
HETATM    4  C2  UNL     1     -31.804   8.783   4.934  1.00 20.00     0.014 C 
HETATM    5  C3  UNL     1     -32.199   7.004   3.225  1.00 20.00     0.014 C 
HETATM    6  C4  UNL     1     -33.257   9.250   2.945  1.00 20.00     0.014 C 
ENDBRANCH   2   3
ENDBRANCH   1   2
BRANCH   1   7
HETATM    7  C7  UNL     1     -34.878   5.259   5.125  1.00 20.00     0.114 C 
HETATM    8  C1  UNL     1     -34.296   5.639   6.480  1.00 20.00     0.039 C 
BRANCH   7   9
HETATM    9  O9  UNL     1     -34.157   4.142   4.613  1.00 20.00    -0.396 OA
HETATM   10  H27 UNL     1     -33.588   4.481   3.905  1.00 20.00     0.210 HD
ENDBRANCH   7   9
ENDBRANCH   1   7
TORSDOF 4
ENDMDL
MODEL 6
REMARK VINA RESULT:      -3.7      1.966      4.064
REMARK  4 active torsions:
REMARK  status: ('A' for Active; 'I' for Inactive)
REMARK    1  A    between atoms: C5_5  and  C6_6 
REMARK    2  A    between atoms: C5_5  and  C7_7 
REMARK    3  A    between atoms: C6_6  and  C8_8 
REMARK    4  A    between atoms: C7_7  and  O9_9 
ROOT
HETATM    1  C5  UNL     1     -34.831   6.417   4.141  1.00 20.00     0.032 C 
ENDROOT
BRANCH   1   2
HETATM    2  C6  UNL     1     -34.094   7.617   4.756  1.00 20.00     0.011 C 
BRANCH   2   3
HETATM    3  C8  UNL     1     -32.849   8.117   3.974  1.00 20.00    -0.051 C 
HETATM    4  C2  UNL     1     -32.192   6.975   3.181  1.00 20.00     0.014 C 
HETATM    5  C3  UNL     1     -33.312   9.200   2.979  1.00 20.00     0.014 C 
HETATM    6  C4  UNL     1     -31.809   8.739   4.921  1.00 20.00     0.014 C 
ENDBRANCH   2   3
ENDBRANCH   1   2
BRANCH   1   7
HETATM    7  C7  UNL     1     -34.905   5.231   5.112  1.00 20.00     0.114 C 
HETATM    8  C1  UNL     1     -34.347   5.604   6.479  1.00 20.00     0.039 C 
BRANCH   7   9
HETATM    9  O9  UNL     1     -34.144   4.148   4.586  1.00 20.00    -0.396 OA
HETATM   10  H27 UNL     1     -34.753   3.399   4.500  1.00 20.00     0.210 HD
ENDBRANCH   7   9
ENDBRANCH   1   7
TORSDOF 4
ENDMDL
MODEL 7
REMARK VINA RESULT:      -3.6     11.772     12.995
REMARK  4 active torsions:
REMARK  status: ('A' for Active; 'I' for Inactive)
REMARK    1  A    between atoms: C5_5  and  C6_6 
REMARK    2  A    between atoms: C5_5  and  C7_7 
REMARK    3  A    between atoms: C6_6  and  C8_8 
REMARK    4  A    between atoms: C7_7  and  O9_9 
ROOT
HETATM    1  C5  UNL     1     -33.741  16.600  -4.026  1.00 20.00     0.032 C 
ENDROOT
BRANCH   1   2
HETATM    2  C6  UNL     1     -33.364  16.599  -2.537  1.00 20.00     0.011 C 
BRANCH   2   3
HETATM    3  C8  UNL     1     -33.662  17.913  -1.764  1.00 20.00    -0.051 C 
HETATM    4  C2  UNL     1     -33.768  17.658  -0.252  1.00 20.00     0.014 C 
HETATM    5  C3  UNL     1     -32.497  18.891  -2.015  1.00 20.00     0.014 C 
HETATM    6  C4  UNL     1     -34.963  18.568  -2.260  1.00 20.00     0.014 C 
ENDBRANCH   2   3
ENDBRANCH   1   2
BRANCH   1   7
HETATM    7  C7  UNL     1     -33.499  15.233  -4.679  1.00 20.00     0.114 C 
HETATM    8  C1  UNL     1     -34.431  14.175  -4.102  1.00 20.00     0.039 C 
BRANCH   7   9
HETATM    9  O9  UNL     1     -32.152  14.834  -4.445  1.00 20.00    -0.396 OA
HETATM   10  H27 UNL     1     -31.661  15.638  -4.216  1.00 20.00     0.210 HD
ENDBRANCH   7   9
ENDBRANCH   1   7
TORSDOF 4
ENDMDL
MODEL 8
REMARK VINA RESULT:      -3.6     11.768     13.009
REMARK  4 active torsions:
REMARK  status: ('A' for Active; 'I' for Inactive)
REMARK    1  A    between atoms: C5_5  and  C6_6 
REMARK    2  A    between atoms: C5_5  and  C7_7 
REMARK    3  A    between atoms: C6_6  and  C8_8 
REMARK    4  A    between atoms: C7_7  and  O9_9 
ROOT
HETATM    1  C5  UNL     1     -33.725  16.599  -4.053  1.00 20.00     0.032 C 
ENDROOT
BRANCH   1   2
HETATM    2  C6  UNL     1     -33.363  16.611  -2.560  1.00 20.00     0.011 C 
BRANCH   2   3
HETATM    3  C8  UNL     1     -33.642  17.941  -1.808  1.00 20.00    -0.051 C 
HETATM    4  C2  UNL     1     -34.958  18.583  -2.280  1.00 20.00     0.014 C 
HETATM    5  C3  UNL     1     -33.765  17.626  -0.304  1.00 20.00     0.014 C 
HETATM    6  C4  UNL     1     -32.492  18.944  -2.003  1.00 20.00     0.014 C 
ENDBRANCH   2   3
ENDBRANCH   1   2
BRANCH   1   7
HETATM    7  C7  UNL     1     -33.490  15.223  -4.688  1.00 20.00     0.114 C 
HETATM    8  C1  UNL     1     -34.425  14.176  -4.096  1.00 20.00     0.039 C 
BRANCH   7   9
HETATM    9  O9  UNL     1     -32.143  14.822  -4.450  1.00 20.00    -0.396 OA
HETATM   10  H27 UNL     1     -31.639  15.064  -5.241  1.00 20.00     0.210 HD
ENDBRANCH   7   9
ENDBRANCH   1   7
TORSDOF 4
ENDMDL
MODEL 9
REMARK VINA RESULT:      -3.5     12.286     13.331
REMARK  4 active torsions:
REMARK  status: ('A' for Active; 'I' for Inactive)
REMARK    1  A    between atoms: C5_5  and  C6_6 
REMARK    2  A    between atoms: C5_5  and  C7_7 
REMARK    3  A    between atoms: C6_6  and  C8_8 
REMARK    4  A    between atoms: C7_7  and  O9_9 
ROOT
HETATM    1  C5  UNL     1     -33.256  15.840  -3.649  1.00 20.00     0.032 C 
ENDROOT
BRANCH   1   2
HETATM    2  C6  UNL     1     -33.985  17.186  -3.781  1.00 20.00     0.011 C 
BRANCH   2   3
HETATM    3  C8  UNL     1     -33.912  18.117  -2.541  1.00 20.00    -0.051 C 
HETATM    4  C2  UNL     1     -32.817  19.183  -2.707  1.00 20.00     0.014 C 
HETATM    5  C3  UNL     1     -35.271  18.831  -2.397  1.00 20.00     0.014 C 
HETATM    6  C4  UNL     1     -33.646  17.315  -1.256  1.00 20.00     0.014 C 
ENDBRANCH   2   3
ENDBRANCH   1   2
BRANCH   1   7
HETATM    7  C7  UNL     1     -33.544  14.914  -4.838  1.00 20.00     0.114 C 
HETATM    8  C1  UNL     1     -35.041  14.796  -5.094  1.00 20.00     0.039 C 
BRANCH   7   9
HETATM    9  O9  UNL     1     -33.023  13.618  -4.559  1.00 20.00    -0.396 OA
HETATM   10  H27 UNL     1     -32.750  13.241  -5.409  1.00 20.00     0.210 HD
ENDBRANCH   7   9
ENDBRANCH   1   7
TORSDOF 4
ENDMDL
