MODEL 1
REMARK VINA RESULT:      -3.9      0.000      0.000
REMARK  2 active torsions:
REMARK  status: ('A' for Active; 'I' for Inactive)
REMARK    1  A    between atoms: C2_2  and  C5_5 
REMARK    2  A    between atoms: C5_5  and  C6_6 
ROOT
HETATM    1  C1  UNL     1     -34.391   4.680   4.502  1.00 20.00     0.206 A 
HETATM    2  C2  UNL     1     -34.307   6.068   5.088  1.00 20.00     0.079 A 
HETATM    3  C3  UNL     1     -34.469   6.257   6.562  1.00 20.00     0.048 C 
HETATM    4  O7  UNL     1     -35.493   5.598   4.433  1.00 20.00    -0.375 OA
ENDROOT
BRANCH   2   5
HETATM    5  C5  UNL     1     -33.578   7.161   4.324  1.00 20.00     0.039 C 
BRANCH   5   6
HETATM    6  C6  UNL     1     -33.384   8.410   5.181  1.00 20.00    -0.002 C 
HETATM    7  C4  UNL     1     -32.089   9.127   4.836  1.00 20.00     0.005 C 
ENDBRANCH   5   6
ENDBRANCH   2   5
TORSDOF 2
ENDMDL
MODEL 2
REMARK VINA RESULT:      -3.8      1.905      3.566
REMARK  2 active torsions:
REMARK  status: ('A' for Active; 'I' for Inactive)
REMARK    1  A    between atoms: C2_2  and  C5_5 
REMARK    2  A    between atoms: C5_5  and  C6_6 
ROOT
HETATM    1  C1  UNL     1     -31.729   8.176   4.147  1.00 20.00     0.206 A 
HETATM    2  C2  UNL     1     -32.936   7.313   3.871  1.00 20.00     0.079 A 
HETATM    3  C3  UNL     1     -32.794   6.105   3.001  1.00 20.00     0.048 C 
HETATM    4  O7  UNL     1     -32.722   8.550   3.179  1.00 20.00    -0.375 OA
ENDROOT
BRANCH   2   5
HETATM    5  C5  UNL     1     -34.114   7.343   4.831  1.00 20.00     0.039 C 
BRANCH   5   6
HETATM    6  C6  UNL     1     -34.797   5.980   4.922  1.00 20.00    -0.002 C 
HETATM    7  C4  UNL     1     -34.571   5.334   6.280  1.00 20.00     0.005 C 
ENDBRANCH   5   6
ENDBRANCH   2   5
TORSDOF 2
ENDMDL
MODEL 3
REMARK VINA RESULT:      -3.8      1.908      3.445
REMARK  2 active torsions:
REMARK  status: ('A' for Active; 'I' for Inactive)
REMARK    1  A    between atoms: C2_2  and  C5_5 
REMARK    2  A    between atoms: C5_5  and  C6_6 
ROOT
HETATM    1  C1  UNL     1     -32.669   8.313   2.669  1.00 20.00     0.206 A 
HETATM    2  C2  UNL     1     -32.894   7.995   4.127  1.00 20.00     0.079 A 
HETATM    3  C3  UNL     1     -32.370   8.926   5.173  1.00 20.00     0.048 C 
HETATM    4  O7  UNL     1     -31.866   7.348   3.365  1.00 20.00    -0.375 OA
ENDROOT
BRANCH   2   5
HETATM    5  C5  UNL     1     -34.034   7.073   4.526  1.00 20.00     0.039 C 
BRANCH   5   6
HETATM    6  C6  UNL     1     -34.038   6.805   6.029  1.00 20.00    -0.002 C 
HETATM    7  C4  UNL     1     -34.539   5.405   6.344  1.00 20.00     0.005 C 
ENDBRANCH   5   6
ENDBRANCH   2   5
TORSDOF 2
ENDMDL
MODEL 4
REMARK VINA RESULT:      -3.5      1.530      2.105
REMARK  2 active torsions:
REMARK  status: ('A' for Active; 'I' for Inactive)
REMARK    1  A    between atoms: C2_2  and  C5_5 
REMARK    2  A    between atoms: C5_5  and  C6_6 
ROOT
HETATM    1  C1  UNL     1     -34.713   6.455   6.698  1.00 20.00     0.206 A 
HETATM    2  C2  UNL     1     -34.195   6.554   5.283  1.00 20.00     0.079 A 
HETATM    3  C3  UNL     1     -34.458   5.438   4.323  1.00 20.00     0.048 C 
HETATM    4  O7  UNL     1     -33.340   6.187   6.374  1.00 20.00    -0.375 OA
ENDROOT
BRANCH   2   5
HETATM    5  C5  UNL     1     -33.884   7.919   4.693  1.00 20.00     0.039 C 
BRANCH   5   6
HETATM    6  C6  UNL     1     -32.398   8.065   4.371  1.00 20.00    -0.002 C 
HETATM    7  C4  UNL     1     -32.107   7.721   2.919  1.00 20.00     0.005 C 
ENDBRANCH   5   6
ENDBRANCH   2   5
TORSDOF 2
ENDMDL
MODEL 5
REMARK VINA RESULT:      -3.4      1.690      3.013
REMARK  2 active torsions:
REMARK  status: ('A' for Active; 'I' for Inactive)
REMARK    1  A    between atoms: C2_2  and  C5_5 
REMARK    2  A    between atoms: C5_5  and  C6_6 
ROOT
HETATM    1  C1  UNL     1     -34.037   8.182   5.477  1.00 20.00     0.206 A 
HETATM    2  C2  UNL     1     -34.172   6.680   5.394  1.00 20.00     0.079 A 
HETATM    3  C3  UNL     1     -34.311   5.882   6.651  1.00 20.00     0.048 C 
HETATM    4  O7  UNL     1     -32.901   7.330   5.261  1.00 20.00    -0.375 OA
ENDROOT
BRANCH   2   5
HETATM    5  C5  UNL     1     -34.672   6.043   4.108  1.00 20.00     0.039 C 
BRANCH   5   6
HETATM    6  C6  UNL     1     -33.821   4.839   3.712  1.00 20.00    -0.002 C 
HETATM    7  C4  UNL     1     -32.895   5.169   2.552  1.00 20.00     0.005 C 
ENDBRANCH   5   6
ENDBRANCH   2   5
TORSDOF 2
ENDMDL
MODEL 6
REMARK VINA RESULT:      -3.3      8.830      9.507
REMARK  2 active torsions:
REMARK  status: ('A' for Active; 'I' for Inactive)
REMARK    1  A    between atoms: C2_2  and  C5_5 
REMARK    2  A    between atoms: C5_5  and  C6_6 
ROOT
HETATM    1  C1  UNL     1     -40.844  14.502   7.427  1.00 20.00     0.206 A 
HETATM    2  C2  UNL     1     -41.204  13.246   6.672  1.00 20.00     0.079 A 
HETATM    3  C3  UNL     1     -42.477  12.532   6.995  1.00 20.00     0.048 C 
HETATM    4  O7  UNL     1     -40.248  13.233   7.741  1.00 20.00    -0.375 OA
ENDROOT
BRANCH   2   5
HETATM    5  C5  UNL     1     -40.595  12.994   5.302  1.00 20.00     0.039 C 
BRANCH   5   6
HETATM    6  C6  UNL     1     -39.679  11.773   5.313  1.00 20.00    -0.002 C 
HETATM    7  C4  UNL     1     -38.925  11.631   4.001  1.00 20.00     0.005 C 
ENDBRANCH   5   6
ENDBRANCH   2   5
TORSDOF 2
ENDMDL
MODEL 7
REMARK VINA RESULT:      -3.2      1.871      2.651
REMARK  2 active torsions:
REMARK  status: ('A' for Active; 'I' for Inactive)
REMARK    1  A    between atoms: C2_2  and  C5_5 
REMARK    2  A    between atoms: C5_5  and  C6_6 
ROOT
HETATM    1  C1  UNL     1     -34.115   6.514   6.112  1.00 20.00     0.206 A 
HETATM    2  C2  UNL     1     -34.596   5.676   4.953  1.00 20.00     0.079 A 
HETATM    3  C3  UNL     1     -35.829   6.081   4.211  1.00 20.00     0.048 C 
HETATM    4  O7  UNL     1     -34.840   5.291   6.312  1.00 20.00    -0.375 OA
ENDROOT
BRANCH   2   5
HETATM    5  C5  UNL     1     -33.615   4.770   4.226  1.00 20.00     0.039 C 
BRANCH   5   6
HETATM    6  C6  UNL     1     -33.292   5.299   2.831  1.00 20.00    -0.002 C 
HETATM    7  C4  UNL     1     -32.446   6.560   2.896  1.00 20.00     0.005 C 
ENDBRANCH   5   6
ENDBRANCH   2   5
TORSDOF 2
ENDMDL
MODEL 8
REMARK VINA RESULT:      -3.2     12.455     13.356
REMARK  2 active torsions:
REMARK  status: ('A' for Active; 'I' for Inactive)
REMARK    1  A    between atoms: C2_2  and  C5_5 
REMARK    2  A    between atoms: C5_5  and  C6_6 
ROOT
HETATM    1  C1  UNL     1     -36.331  15.622  -5.661  1.00 20.00     0.206 A 
HETATM    2  C2  UNL     1     -34.962  14.986  -5.702  1.00 20.00     0.079 A 
HETATM    3  C3  UNL     1     -34.033  15.308  -6.828  1.00 20.00     0.048 C 
HETATM    4  O7  UNL     1     -36.137  14.271  -6.109  1.00 20.00    -0.375 OA
ENDROOT
BRANCH   2   5
HETATM    5  C5  UNL     1     -34.341  14.463  -4.417  1.00 20.00     0.039 C 
BRANCH   5   6
HETATM    6  C6  UNL     1     -33.080  15.241  -4.048  1.00 20.00    -0.002 C 
HETATM    7  C4  UNL     1     -33.374  16.323  -3.020  1.00 20.00     0.005 C 
ENDBRANCH   5   6
ENDBRANCH   2   5
TORSDOF 2
ENDMDL
MODEL 9
REMARK VINA RESULT:      -3.0      8.874      9.545
REMARK  2 active torsions:
REMARK  status: ('A' for Active; 'I' for Inactive)
REMARK    1  A    between atoms: C2_2  and  C5_5 
REMARK    2  A    between atoms: C5_5  and  C6_6 
ROOT
HETATM    1  C1  UNL     1     -42.619  13.599   6.037  1.00 20.00     0.206 A 
HETATM    2  C2  UNL     1     -41.137  13.413   6.254  1.00 20.00     0.079 A 
HETATM    3  C3  UNL     1     -40.397  14.365   7.138  1.00 20.00     0.048 C 
HETATM    4  O7  UNL     1     -41.653  14.017   5.060  1.00 20.00    -0.375 OA
ENDROOT
BRANCH   2   5
HETATM    5  C5  UNL     1     -40.513  12.046   6.029  1.00 20.00     0.039 C 
BRANCH   5   6
HETATM    6  C6  UNL     1     -39.080  12.163   5.513  1.00 20.00    -0.002 C 
HETATM    7  C4  UNL     1     -38.963  11.670   4.079  1.00 20.00     0.005 C 
ENDBRANCH   5   6
ENDBRANCH   2   5
TORSDOF 2
ENDMDL
