MODEL 1
REMARK VINA RESULT:      -5.0      0.000      0.000
REMARK  0 active torsions:
REMARK  status: ('A' for Active; 'I' for Inactive)
ROOT
HETATM    1  C1  UNL     1     -32.215   7.611   3.366  1.00 20.00     0.166 A 
HETATM    2  C2  UNL     1     -33.451   7.111   5.061  1.00 20.00     0.048 A 
HETATM    3  C3  UNL     1     -33.732   6.035   4.266  1.00 20.00     0.008 A 
HETATM    4  C4  UNL     1     -34.177   7.059   6.345  1.00 20.00     0.061 C 
HETATM    5  C5  UNL     1     -34.682   5.078   4.863  1.00 20.00     0.048 C 
HETATM    6  C6  UNL     1     -34.714   5.588   6.345  1.00 20.00     0.011 C 
HETATM    7  N7  UNL     1     -32.581   8.034   4.566  1.00 20.00    -0.257 NA
HETATM    8  S8  UNL     1     -32.906   6.111   2.815  1.00 20.00    -0.085 SA
ENDROOT
TORSDOF 0
ENDMDL
MODEL 2
REMARK VINA RESULT:      -5.0      1.346      1.963
REMARK  0 active torsions:
REMARK  status: ('A' for Active; 'I' for Inactive)
ROOT
HETATM    1  C1  UNL     1     -32.260   7.472   3.029  1.00 20.00     0.166 A 
HETATM    2  C2  UNL     1     -33.512   6.137   4.169  1.00 20.00     0.048 A 
HETATM    3  C3  UNL     1     -33.389   7.147   5.082  1.00 20.00     0.008 A 
HETATM    4  C4  UNL     1     -34.344   5.028   4.676  1.00 20.00     0.061 C 
HETATM    5  C5  UNL     1     -34.105   6.904   6.348  1.00 20.00     0.048 C 
HETATM    6  C6  UNL     1     -34.989   5.672   5.950  1.00 20.00     0.011 C 
HETATM    7  N7  UNL     1     -32.871   6.299   2.979  1.00 20.00    -0.257 NA
HETATM    8  S8  UNL     1     -32.441   8.393   4.495  1.00 20.00    -0.085 SA
ENDROOT
TORSDOF 0
ENDMDL
MODEL 3
REMARK VINA RESULT:      -4.8      2.062      3.537
REMARK  0 active torsions:
REMARK  status: ('A' for Active; 'I' for Inactive)
ROOT
HETATM    1  C1  UNL     1     -34.779   5.239   5.921  1.00 20.00     0.166 A 
HETATM    2  C2  UNL     1     -33.746   5.719   4.090  1.00 20.00     0.048 A 
HETATM    3  C3  UNL     1     -33.523   6.882   4.772  1.00 20.00     0.008 A 
HETATM    4  C4  UNL     1     -33.141   5.738   2.744  1.00 20.00     0.061 C 
HETATM    5  C5  UNL     1     -32.740   7.880   4.020  1.00 20.00     0.048 C 
HETATM    6  C6  UNL     1     -32.219   7.003   2.830  1.00 20.00     0.011 C 
HETATM    7  N7  UNL     1     -34.467   4.756   4.729  1.00 20.00    -0.257 NA
HETATM    8  S8  UNL     1     -34.219   6.845   6.292  1.00 20.00    -0.085 SA
ENDROOT
TORSDOF 0
ENDMDL
MODEL 4
REMARK VINA RESULT:      -4.8      1.536      2.939
REMARK  0 active torsions:
REMARK  status: ('A' for Active; 'I' for Inactive)
ROOT
HETATM    1  C1  UNL     1     -34.749   5.777   6.197  1.00 20.00     0.166 A 
HETATM    2  C2  UNL     1     -33.500   7.305   5.331  1.00 20.00     0.048 A 
HETATM    3  C3  UNL     1     -33.506   6.419   4.290  1.00 20.00     0.008 A 
HETATM    4  C4  UNL     1     -32.694   8.506   5.034  1.00 20.00     0.061 C 
HETATM    5  C5  UNL     1     -32.717   6.857   3.123  1.00 20.00     0.048 C 
HETATM    6  C6  UNL     1     -32.461   8.358   3.492  1.00 20.00     0.011 C 
HETATM    7  N7  UNL     1     -34.208   6.960   6.441  1.00 20.00    -0.257 NA
HETATM    8  S8  UNL     1     -34.419   5.064   4.643  1.00 20.00    -0.085 SA
ENDROOT
TORSDOF 0
ENDMDL
MODEL 5
REMARK VINA RESULT:      -4.6      1.150      1.389
REMARK  0 active torsions:
REMARK  status: ('A' for Active; 'I' for Inactive)
ROOT
HETATM    1  C1  UNL     1     -32.567   8.707   4.729  1.00 20.00     0.166 A 
HETATM    2  C2  UNL     1     -33.825   7.026   5.220  1.00 20.00     0.048 A 
HETATM    3  C3  UNL     1     -33.327   6.579   4.028  1.00 20.00     0.008 A 
HETATM    4  C4  UNL     1     -34.758   6.059   5.830  1.00 20.00     0.061 C 
HETATM    5  C5  UNL     1     -33.828   5.252   3.626  1.00 20.00     0.048 C 
HETATM    6  C6  UNL     1     -34.504   4.781   4.960  1.00 20.00     0.011 C 
HETATM    7  N7  UNL     1     -33.403   8.248   5.647  1.00 20.00    -0.257 NA
HETATM    8  S8  UNL     1     -32.277   7.687   3.348  1.00 20.00    -0.085 SA
ENDROOT
TORSDOF 0
ENDMDL
MODEL 6
REMARK VINA RESULT:      -4.6      1.902      3.163
REMARK  0 active torsions:
REMARK  status: ('A' for Active; 'I' for Inactive)
ROOT
HETATM    1  C1  UNL     1     -34.201   4.733   4.114  1.00 20.00     0.166 A 
HETATM    2  C2  UNL     1     -33.142   6.582   3.789  1.00 20.00     0.048 A 
HETATM    3  C3  UNL     1     -33.797   6.912   4.943  1.00 20.00     0.008 A 
HETATM    4  C4  UNL     1     -32.300   7.689   3.292  1.00 20.00     0.061 C 
HETATM    5  C5  UNL     1     -33.519   8.278   5.423  1.00 20.00     0.048 C 
HETATM    6  C6  UNL     1     -32.295   8.659   4.522  1.00 20.00     0.011 C 
HETATM    7  N7  UNL     1     -33.357   5.334   3.291  1.00 20.00    -0.257 NA
HETATM    8  S8  UNL     1     -34.748   5.651   5.489  1.00 20.00    -0.085 SA
ENDROOT
TORSDOF 0
ENDMDL
MODEL 7
REMARK VINA RESULT:      -4.3      1.436      2.843
REMARK  0 active torsions:
REMARK  status: ('A' for Active; 'I' for Inactive)
ROOT
HETATM    1  C1  UNL     1     -34.733   5.076   4.839  1.00 20.00     0.166 A 
HETATM    2  C2  UNL     1     -33.793   7.007   5.023  1.00 20.00     0.048 A 
HETATM    3  C3  UNL     1     -33.165   6.571   3.890  1.00 20.00     0.008 A 
HETATM    4  C4  UNL     1     -33.344   8.355   5.424  1.00 20.00     0.061 C 
HETATM    5  C5  UNL     1     -32.194   7.531   3.332  1.00 20.00     0.048 C 
HETATM    6  C6  UNL     1     -32.556   8.817   4.151  1.00 20.00     0.011 C 
HETATM    7  N7  UNL     1     -34.701   6.165   5.589  1.00 20.00    -0.257 NA
HETATM    8  S8  UNL     1     -33.681   5.042   3.452  1.00 20.00    -0.085 SA
ENDROOT
TORSDOF 0
ENDMDL
MODEL 8
REMARK VINA RESULT:      -3.6     12.670     13.100
REMARK  0 active torsions:
REMARK  status: ('A' for Active; 'I' for Inactive)
ROOT
HETATM    1  C1  UNL     1     -30.497  19.263   1.151  1.00 20.00     0.166 A 
HETATM    2  C2  UNL     1     -31.860  18.455  -0.311  1.00 20.00     0.048 A 
HETATM    3  C3  UNL     1     -32.724  18.580   0.740  1.00 20.00     0.008 A 
HETATM    4  C4  UNL     1     -32.519  17.903  -1.511  1.00 20.00     0.061 C 
HETATM    5  C5  UNL     1     -34.101  18.142   0.443  1.00 20.00     0.048 C 
HETATM    6  C6  UNL     1     -34.032  18.009  -1.117  1.00 20.00     0.011 C 
HETATM    7  N7  UNL     1     -30.571  18.841  -0.101  1.00 20.00    -0.257 NA
HETATM    8  S8  UNL     1     -31.962  19.202   2.091  1.00 20.00    -0.085 SA
ENDROOT
TORSDOF 0
ENDMDL
MODEL 9
REMARK VINA RESULT:      -3.6     12.920     13.094
REMARK  0 active torsions:
REMARK  status: ('A' for Active; 'I' for Inactive)
ROOT
HETATM    1  C1  UNL     1     -31.883  18.507  -0.860  1.00 20.00     0.166 A 
HETATM    2  C2  UNL     1     -30.895  18.835   1.028  1.00 20.00     0.048 A 
HETATM    3  C3  UNL     1     -32.191  18.971   1.439  1.00 20.00     0.008 A 
HETATM    4  C4  UNL     1     -29.938  19.015   2.138  1.00 20.00     0.061 C 
HETATM    5  C5  UNL     1     -32.339  19.262   2.877  1.00 20.00     0.048 C 
HETATM    6  C6  UNL     1     -30.886  18.966   3.384  1.00 20.00     0.011 C 
HETATM    7  N7  UNL     1     -30.689  18.568  -0.291  1.00 20.00    -0.257 NA
HETATM    8  S8  UNL     1     -33.261  18.769   0.171  1.00 20.00    -0.085 SA
ENDROOT
TORSDOF 0
ENDMDL
