MODEL 1
REMARK VINA RESULT:      -4.1      0.000      0.000
REMARK  2 active torsions:
REMARK  status: ('A' for Active; 'I' for Inactive)
REMARK    1  A    between atoms: C1_1  and  O6_6 
REMARK    2  A    between atoms: C4_4  and  O6_6 
ROOT
HETATM    1  O6  UNL     1     -34.286   6.557   4.403  1.00 20.00    -0.301 OA
ENDROOT
BRANCH   1   2
HETATM    2  C1  UNL     1     -34.405   5.334   4.995  1.00 20.00     0.256 C 
HETATM    3  C2  UNL     1     -34.665   5.515   6.460  1.00 20.00     0.126 C 
HETATM    4  O5  UNL     1     -34.319   4.245   4.445  1.00 20.00    -0.266 OA
ENDBRANCH   1   2
BRANCH   1   5
HETATM    5  C4  UNL     1     -33.022   7.228   4.536  1.00 20.00     0.223 C 
HETATM    6  C3  UNL     1     -33.230   8.637   5.065  1.00 20.00     0.057 C 
HETATM    7 CL7  UNL     1     -32.272   7.300   2.918  1.00 20.00    -0.095 Cl
ENDBRANCH   1   5
TORSDOF 2
ENDMDL
MODEL 2
REMARK VINA RESULT:      -4.0      1.378      1.540
REMARK  2 active torsions:
REMARK  status: ('A' for Active; 'I' for Inactive)
REMARK    1  A    between atoms: C1_1  and  O6_6 
REMARK    2  A    between atoms: C4_4  and  O6_6 
ROOT
HETATM    1  O6  UNL     1     -34.051   7.296   4.531  1.00 20.00    -0.301 OA
ENDROOT
BRANCH   1   2
HETATM    2  C1  UNL     1     -34.394   6.379   5.481  1.00 20.00     0.256 C 
HETATM    3  C2  UNL     1     -34.680   5.064   4.822  1.00 20.00     0.126 C 
HETATM    4  O5  UNL     1     -34.465   6.570   6.687  1.00 20.00    -0.266 OA
ENDBRANCH   1   2
BRANCH   1   5
HETATM    5  C4  UNL     1     -32.653   7.589   4.378  1.00 20.00     0.223 C 
HETATM    6  C3  UNL     1     -32.361   9.008   4.838  1.00 20.00     0.057 C 
HETATM    7 CL7  UNL     1     -32.248   7.424   2.649  1.00 20.00    -0.095 Cl
ENDBRANCH   1   5
TORSDOF 2
ENDMDL
MODEL 3
REMARK VINA RESULT:      -4.0      2.415      3.747
REMARK  2 active torsions:
REMARK  status: ('A' for Active; 'I' for Inactive)
REMARK    1  A    between atoms: C1_1  and  O6_6 
REMARK    2  A    between atoms: C4_4  and  O6_6 
ROOT
HETATM    1  O6  UNL     1     -34.018   7.789   4.523  1.00 20.00    -0.301 OA
ENDROOT
BRANCH   1   2
HETATM    2  C1  UNL     1     -32.749   8.241   4.312  1.00 20.00     0.256 C 
HETATM    3  C2  UNL     1     -32.137   7.490   3.168  1.00 20.00     0.126 C 
HETATM    4  O5  UNL     1     -32.173   9.118   4.941  1.00 20.00    -0.266 OA
ENDBRANCH   1   2
BRANCH   1   5
HETATM    5  C4  UNL     1     -34.160   6.457   5.046  1.00 20.00     0.223 C 
HETATM    6  C3  UNL     1     -35.388   5.789   4.451  1.00 20.00     0.057 C 
HETATM    7 CL7  UNL     1     -34.346   6.585   6.816  1.00 20.00    -0.095 Cl
ENDBRANCH   1   5
TORSDOF 2
ENDMDL
MODEL 4
REMARK VINA RESULT:      -3.9      1.648      2.119
REMARK  2 active torsions:
REMARK  status: ('A' for Active; 'I' for Inactive)
REMARK    1  A    between atoms: C1_1  and  O6_6 
REMARK    2  A    between atoms: C4_4  and  O6_6 
ROOT
HETATM    1  O6  UNL     1     -34.051   6.575   4.234  1.00 20.00    -0.301 OA
ENDROOT
BRANCH   1   2
HETATM    2  C1  UNL     1     -33.852   5.270   3.891  1.00 20.00     0.256 C 
HETATM    3  C2  UNL     1     -32.973   5.202   2.680  1.00 20.00     0.126 C 
HETATM    4  O5  UNL     1     -34.307   4.288   4.462  1.00 20.00    -0.266 OA
ENDBRANCH   1   2
BRANCH   1   5
HETATM    5  C4  UNL     1     -33.305   7.078   5.355  1.00 20.00     0.223 C 
HETATM    6  C3  UNL     1     -34.193   7.144   6.587  1.00 20.00     0.057 C 
HETATM    7 CL7  UNL     1     -32.735   8.717   4.939  1.00 20.00    -0.095 Cl
ENDBRANCH   1   5
TORSDOF 2
ENDMDL
MODEL 5
REMARK VINA RESULT:      -3.8      1.788      1.822
REMARK  2 active torsions:
REMARK  status: ('A' for Active; 'I' for Inactive)
REMARK    1  A    between atoms: C1_1  and  O6_6 
REMARK    2  A    between atoms: C4_4  and  O6_6 
ROOT
HETATM    1  O6  UNL     1     -33.418   6.320   4.007  1.00 20.00    -0.301 OA
ENDROOT
BRANCH   1   2
HETATM    2  C1  UNL     1     -34.325   5.339   4.282  1.00 20.00     0.256 C 
HETATM    3  C2  UNL     1     -35.699   5.934   4.339  1.00 20.00     0.126 C 
HETATM    4  O5  UNL     1     -34.086   4.153   4.458  1.00 20.00    -0.266 OA
ENDBRANCH   1   2
BRANCH   1   5
HETATM    5  C4  UNL     1     -33.523   7.538   4.763  1.00 20.00     0.223 C 
HETATM    6  C3  UNL     1     -32.346   8.448   4.454  1.00 20.00     0.057 C 
HETATM    7 CL7  UNL     1     -33.509   7.108   6.494  1.00 20.00    -0.095 Cl
ENDBRANCH   1   5
TORSDOF 2
ENDMDL
MODEL 6
REMARK VINA RESULT:      -3.7      2.041      3.279
REMARK  2 active torsions:
REMARK  status: ('A' for Active; 'I' for Inactive)
REMARK    1  A    between atoms: C1_1  and  O6_6 
REMARK    2  A    between atoms: C4_4  and  O6_6 
ROOT
HETATM    1  O6  UNL     1     -33.243   6.394   4.272  1.00 20.00    -0.301 OA
ENDROOT
BRANCH   1   2
HETATM    2  C1  UNL     1     -32.622   7.492   3.752  1.00 20.00     0.256 C 
HETATM    3  C2  UNL     1     -32.545   8.562   4.798  1.00 20.00     0.126 C 
HETATM    4  O5  UNL     1     -32.186   7.613   2.616  1.00 20.00    -0.266 OA
ENDBRANCH   1   2
BRANCH   1   5
HETATM    5  C4  UNL     1     -34.400   6.625   5.093  1.00 20.00     0.223 C 
HETATM    6  C3  UNL     1     -34.261   5.886   6.413  1.00 20.00     0.057 C 
HETATM    7 CL7  UNL     1     -35.825   6.012   4.210  1.00 20.00    -0.095 Cl
ENDBRANCH   1   5
TORSDOF 2
ENDMDL
MODEL 7
REMARK VINA RESULT:      -3.7      2.319      3.611
REMARK  2 active torsions:
REMARK  status: ('A' for Active; 'I' for Inactive)
REMARK    1  A    between atoms: C1_1  and  O6_6 
REMARK    2  A    between atoms: C4_4  and  O6_6 
ROOT
HETATM    1  O6  UNL     1     -33.091   6.796   4.233  1.00 20.00    -0.301 OA
ENDROOT
BRANCH   1   2
HETATM    2  C1  UNL     1     -32.488   7.929   3.770  1.00 20.00     0.256 C 
HETATM    3  C2  UNL     1     -32.176   7.765   2.314  1.00 20.00     0.126 C 
HETATM    4  O5  UNL     1     -32.230   8.934   4.417  1.00 20.00    -0.266 OA
ENDBRANCH   1   2
BRANCH   1   5
HETATM    5  C4  UNL     1     -34.290   6.962   5.007  1.00 20.00     0.223 C 
HETATM    6  C3  UNL     1     -33.992   6.765   6.484  1.00 20.00     0.057 C 
HETATM    7 CL7  UNL     1     -35.464   5.733   4.464  1.00 20.00    -0.095 Cl
ENDBRANCH   1   5
TORSDOF 2
ENDMDL
MODEL 8
REMARK VINA RESULT:      -3.7      1.519      1.766
REMARK  2 active torsions:
REMARK  status: ('A' for Active; 'I' for Inactive)
REMARK    1  A    between atoms: C1_1  and  O6_6 
REMARK    2  A    between atoms: C4_4  and  O6_6 
ROOT
HETATM    1  O6  UNL     1     -33.449   6.945   5.372  1.00 20.00    -0.301 OA
ENDROOT
BRANCH   1   2
HETATM    2  C1  UNL     1     -34.530   6.120   5.268  1.00 20.00     0.256 C 
HETATM    3  C2  UNL     1     -34.543   5.169   6.426  1.00 20.00     0.126 C 
HETATM    4  O5  UNL     1     -35.373   6.131   4.382  1.00 20.00    -0.266 OA
ENDBRANCH   1   2
BRANCH   1   5
HETATM    5  C4  UNL     1     -33.187   7.824   4.265  1.00 20.00     0.223 C 
HETATM    6  C3  UNL     1     -32.382   7.099   3.200  1.00 20.00     0.057 C 
HETATM    7 CL7  UNL     1     -32.252   9.212   4.882  1.00 20.00    -0.095 Cl
ENDBRANCH   1   5
TORSDOF 2
ENDMDL
MODEL 9
REMARK VINA RESULT:      -3.5      2.050      2.852
REMARK  2 active torsions:
REMARK  status: ('A' for Active; 'I' for Inactive)
REMARK    1  A    between atoms: C1_1  and  O6_6 
REMARK    2  A    between atoms: C4_4  and  O6_6 
ROOT
HETATM    1  O6  UNL     1     -33.524   7.278   3.973  1.00 20.00    -0.301 OA
ENDROOT
BRANCH   1   2
HETATM    2  C1  UNL     1     -33.198   7.885   5.150  1.00 20.00     0.256 C 
HETATM    3  C2  UNL     1     -33.812   7.126   6.287  1.00 20.00     0.126 C 
HETATM    4  O5  UNL     1     -32.516   8.891   5.288  1.00 20.00    -0.266 OA
ENDBRANCH   1   2
BRANCH   1   5
HETATM    5  C4  UNL     1     -32.438   6.806   3.158  1.00 20.00     0.223 C 
HETATM    6  C3  UNL     1     -32.228   7.736   1.975  1.00 20.00     0.057 C 
HETATM    7 CL7  UNL     1     -32.868   5.177   2.570  1.00 20.00    -0.095 Cl
ENDBRANCH   1   5
TORSDOF 2
ENDMDL
