MODEL 1
REMARK VINA RESULT:      -4.2      0.000      0.000
REMARK  1 active torsions:
REMARK  status: ('A' for Active; 'I' for Inactive)
REMARK    1  A    between atoms: C3_3  and  C4_4 
ROOT
HETATM    1  C1  UNL     1     -34.667  18.141  -2.916  1.00 20.00    -0.018 A 
HETATM    2  C2  UNL     1     -34.011  19.263  -2.578  1.00 20.00    -0.024 A 
HETATM    3  C4  UNL     1     -33.831  16.940  -2.545  1.00 20.00     0.082 A 
HETATM    4  C5  UNL     1     -32.685  19.026  -1.983  1.00 20.00     0.022 A 
HETATM    5  C6  UNL     1     -32.552  17.510  -1.951  1.00 20.00     0.017 A 
HETATM    6  C7  UNL     1     -32.489  18.313  -0.662  1.00 20.00    -0.035 A 
HETATM    7  C9  UNL     1     -31.133  18.450  -0.012  1.00 20.00     0.016 C 
HETATM    8  C10 UNL     1     -33.613  18.230   0.342  1.00 20.00     0.016 C 
ENDROOT
BRANCH   3   9
HETATM    9  C3  UNL     1     -33.588  16.177  -3.806  1.00 20.00     0.131 C 
HETATM   10  C8  UNL     1     -34.501  16.478  -4.964  1.00 20.00     0.091 C 
HETATM   11  O11 UNL     1     -32.686  15.347  -3.894  1.00 20.00    -0.298 OA
ENDBRANCH   3   9
TORSDOF 1
ENDMDL
MODEL 2
REMARK VINA RESULT:      -3.9     11.354     12.606
REMARK  1 active torsions:
REMARK  status: ('A' for Active; 'I' for Inactive)
REMARK    1  A    between atoms: C3_3  and  C4_4 
ROOT
HETATM    1  C1  UNL     1     -41.155  13.553   7.553  1.00 20.00    -0.018 A 
HETATM    2  C2  UNL     1     -42.487  13.541   7.382  1.00 20.00    -0.024 A 
HETATM    3  C4  UNL     1     -40.477  13.643   6.208  1.00 20.00     0.082 A 
HETATM    4  C5  UNL     1     -42.910  13.589   5.972  1.00 20.00     0.022 A 
HETATM    5  C6  UNL     1     -41.606  13.659   5.190  1.00 20.00     0.017 A 
HETATM    6  C7  UNL     1     -42.634  14.772   5.068  1.00 20.00    -0.035 A 
HETATM    7  C9  UNL     1     -43.417  14.836   3.777  1.00 20.00     0.016 C 
HETATM    8  C10 UNL     1     -42.353  16.136   5.650  1.00 20.00     0.016 C 
ENDROOT
BRANCH   3   9
HETATM    9  C3  UNL     1     -39.607  12.435   6.081  1.00 20.00     0.131 C 
HETATM   10  C8  UNL     1     -39.453  11.855   4.701  1.00 20.00     0.091 C 
HETATM   11  O11 UNL     1     -39.041  11.942   7.055  1.00 20.00    -0.298 OA
ENDBRANCH   3   9
TORSDOF 1
ENDMDL
MODEL 3
REMARK VINA RESULT:      -3.9     11.165     12.643
REMARK  1 active torsions:
REMARK  status: ('A' for Active; 'I' for Inactive)
REMARK    1  A    between atoms: C3_3  and  C4_4 
ROOT
HETATM    1  C1  UNL     1     -42.017  12.511   6.752  1.00 20.00    -0.018 A 
HETATM    2  C2  UNL     1     -42.812  13.498   7.196  1.00 20.00    -0.024 A 
HETATM    3  C4  UNL     1     -40.640  13.061   6.474  1.00 20.00     0.082 A 
HETATM    4  C5  UNL     1     -42.153  14.814   7.262  1.00 20.00     0.022 A 
HETATM    5  C6  UNL     1     -40.728  14.545   6.795  1.00 20.00     0.017 A 
HETATM    6  C7  UNL     1     -40.987  15.107   8.183  1.00 20.00    -0.035 A 
HETATM    7  C9  UNL     1     -40.646  16.563   8.402  1.00 20.00     0.016 C 
HETATM    8  C10 UNL     1     -40.741  14.259   9.406  1.00 20.00     0.016 C 
ENDROOT
BRANCH   3   9
HETATM    9  C3  UNL     1     -40.355  12.802   5.031  1.00 20.00     0.131 C 
HETATM   10  C8  UNL     1     -39.275  11.800   4.724  1.00 20.00     0.091 C 
HETATM   11  O11 UNL     1     -40.975  13.376   4.137  1.00 20.00    -0.298 OA
ENDBRANCH   3   9
TORSDOF 1
ENDMDL
MODEL 4
REMARK VINA RESULT:      -3.9      1.286      1.665
REMARK  1 active torsions:
REMARK  status: ('A' for Active; 'I' for Inactive)
REMARK    1  A    between atoms: C3_3  and  C4_4 
ROOT
HETATM    1  C1  UNL     1     -34.787  17.219  -4.626  1.00 20.00    -0.018 A 
HETATM    2  C2  UNL     1     -34.099  18.360  -4.457  1.00 20.00    -0.024 A 
HETATM    3  C4  UNL     1     -34.212  16.148  -3.732  1.00 20.00     0.082 A 
HETATM    4  C5  UNL     1     -32.988  18.252  -3.496  1.00 20.00     0.022 A 
HETATM    5  C6  UNL     1     -33.049  16.810  -3.010  1.00 20.00     0.017 A 
HETATM    6  C7  UNL     1     -33.195  17.959  -2.025  1.00 20.00    -0.035 A 
HETATM    7  C9  UNL     1     -32.023  18.223  -1.109  1.00 20.00     0.016 C 
HETATM    8  C10 UNL     1     -34.525  18.232  -1.365  1.00 20.00     0.016 C 
ENDROOT
BRANCH   3   9
HETATM    9  C3  UNL     1     -33.773  15.032  -4.623  1.00 20.00     0.131 C 
HETATM   10  C8  UNL     1     -34.149  15.139  -6.076  1.00 20.00     0.091 C 
HETATM   11  O11 UNL     1     -33.133  14.075  -4.191  1.00 20.00    -0.298 OA
ENDBRANCH   3   9
TORSDOF 1
ENDMDL
MODEL 5
REMARK VINA RESULT:      -3.9      1.778      2.722
REMARK  1 active torsions:
REMARK  status: ('A' for Active; 'I' for Inactive)
REMARK    1  A    between atoms: C3_3  and  C4_4 
ROOT
HETATM    1  C1  UNL     1     -33.534  17.431  -3.783  1.00 20.00    -0.018 A 
HETATM    2  C2  UNL     1     -33.222  16.575  -2.796  1.00 20.00    -0.024 A 
HETATM    3  C4  UNL     1     -34.292  18.603  -3.209  1.00 20.00     0.082 A 
HETATM    4  C5  UNL     1     -33.712  16.985  -1.469  1.00 20.00     0.022 A 
HETATM    5  C6  UNL     1     -34.414  18.313  -1.721  1.00 20.00     0.017 A 
HETATM    6  C7  UNL     1     -33.235  18.238  -0.764  1.00 20.00    -0.035 A 
HETATM    7  C9  UNL     1     -33.549  18.347   0.710  1.00 20.00     0.016 C 
HETATM    8  C10 UNL     1     -31.915  18.871  -1.130  1.00 20.00     0.016 C 
ENDROOT
BRANCH   3   9
HETATM    9  C3  UNL     1     -35.618  18.638  -3.897  1.00 20.00     0.131 C 
HETATM   10  C8  UNL     1     -36.826  18.855  -3.027  1.00 20.00     0.091 C 
HETATM   11  O11 UNL     1     -35.717  18.501  -5.115  1.00 20.00    -0.298 OA
ENDBRANCH   3   9
TORSDOF 1
ENDMDL
MODEL 6
REMARK VINA RESULT:      -3.9     11.647     13.430
REMARK  1 active torsions:
REMARK  status: ('A' for Active; 'I' for Inactive)
REMARK    1  A    between atoms: C3_3  and  C4_4 
ROOT
HETATM    1  C1  UNL     1     -42.615  13.854   7.678  1.00 20.00    -0.018 A 
HETATM    2  C2  UNL     1     -42.681  12.665   7.057  1.00 20.00    -0.024 A 
HETATM    3  C4  UNL     1     -41.218  14.412   7.546  1.00 20.00     0.082 A 
HETATM    4  C5  UNL     1     -41.407  12.229   6.460  1.00 20.00     0.022 A 
HETATM    5  C6  UNL     1     -40.439  13.363   6.769  1.00 20.00     0.017 A 
HETATM    6  C7  UNL     1     -40.729  12.973   5.329  1.00 20.00    -0.035 A 
HETATM    7  C9  UNL     1     -39.636  12.235   4.591  1.00 20.00     0.016 C 
HETATM    8  C10 UNL     1     -41.518  13.897   4.434  1.00 20.00     0.016 C 
ENDROOT
BRANCH   3   9
HETATM    9  C3  UNL     1     -40.698  14.603   8.933  1.00 20.00     0.131 C 
HETATM   10  C8  UNL     1     -40.488  16.022   9.387  1.00 20.00     0.091 C 
HETATM   11  O11 UNL     1     -40.456  13.648   9.669  1.00 20.00    -0.298 OA
ENDBRANCH   3   9
TORSDOF 1
ENDMDL
MODEL 7
REMARK VINA RESULT:      -3.8     12.051     12.818
REMARK  1 active torsions:
REMARK  status: ('A' for Active; 'I' for Inactive)
REMARK    1  A    between atoms: C3_3  and  C4_4 
ROOT
HETATM    1  C1  UNL     1     -33.388   5.838   2.850  1.00 20.00    -0.018 A 
HETATM    2  C2  UNL     1     -32.169   6.390   2.730  1.00 20.00    -0.024 A 
HETATM    3  C4  UNL     1     -34.074   6.400   4.071  1.00 20.00     0.082 A 
HETATM    4  C5  UNL     1     -31.833   7.341   3.802  1.00 20.00     0.022 A 
HETATM    5  C6  UNL     1     -33.072   7.361   4.689  1.00 20.00     0.017 A 
HETATM    6  C7  UNL     1     -32.585   8.637   4.021  1.00 20.00    -0.035 A 
HETATM    7  C9  UNL     1     -31.924   9.662   4.913  1.00 20.00     0.016 C 
HETATM    8  C10 UNL     1     -33.382   9.263   2.902  1.00 20.00     0.016 C 
ENDROOT
BRANCH   3   9
HETATM    9  C3  UNL     1     -34.383   5.242   4.963  1.00 20.00     0.131 C 
HETATM   10  C8  UNL     1     -34.758   5.564   6.385  1.00 20.00     0.091 C 
HETATM   11  O11 UNL     1     -34.337   4.082   4.555  1.00 20.00    -0.298 OA
ENDBRANCH   3   9
TORSDOF 1
ENDMDL
MODEL 8
REMARK VINA RESULT:      -3.8      2.014      5.235
REMARK  1 active torsions:
REMARK  status: ('A' for Active; 'I' for Inactive)
REMARK    1  A    between atoms: C3_3  and  C4_4 
ROOT
HETATM    1  C1  UNL     1     -33.551  15.581  -3.550  1.00 20.00    -0.018 A 
HETATM    2  C2  UNL     1     -33.308  14.701  -4.534  1.00 20.00    -0.024 A 
HETATM    3  C4  UNL     1     -34.365  16.730  -4.094  1.00 20.00     0.082 A 
HETATM    4  C5  UNL     1     -33.860  15.095  -5.841  1.00 20.00     0.022 A 
HETATM    5  C6  UNL     1     -34.558  16.421  -5.570  1.00 20.00     0.017 A 
HETATM    6  C7  UNL     1     -35.345  15.235  -6.102  1.00 20.00    -0.035 A 
HETATM    7  C9  UNL     1     -35.777  15.298  -7.548  1.00 20.00     0.016 C 
HETATM    8  C10 UNL     1     -36.350  14.532  -5.221  1.00 20.00     0.016 C 
ENDROOT
BRANCH   3   9
HETATM    9  C3  UNL     1     -33.565  17.971  -3.867  1.00 20.00     0.131 C 
HETATM   10  C8  UNL     1     -32.951  18.140  -2.503  1.00 20.00     0.091 C 
HETATM   11  O11 UNL     1     -33.413  18.812  -4.751  1.00 20.00    -0.298 OA
ENDBRANCH   3   9
TORSDOF 1
ENDMDL
MODEL 9
REMARK VINA RESULT:      -3.7     12.171     13.091
REMARK  1 active torsions:
REMARK  status: ('A' for Active; 'I' for Inactive)
REMARK    1  A    between atoms: C3_3  and  C4_4 
ROOT
HETATM    1  C1  UNL     1     -34.172   8.310   5.785  1.00 20.00    -0.018 A 
HETATM    2  C2  UNL     1     -34.094   7.202   6.540  1.00 20.00    -0.024 A 
HETATM    3  C4  UNL     1     -33.757   7.984   4.371  1.00 20.00     0.082 A 
HETATM    4  C5  UNL     1     -33.613   6.014   5.814  1.00 20.00     0.022 A 
HETATM    5  C6  UNL     1     -33.390   6.508   4.391  1.00 20.00     0.017 A 
HETATM    6  C7  UNL     1     -34.374   5.384   4.668  1.00 20.00    -0.035 A 
HETATM    7  C9  UNL     1     -33.951   3.993   4.256  1.00 20.00     0.016 C 
HETATM    8  C10 UNL     1     -35.857   5.615   4.510  1.00 20.00     0.016 C 
ENDROOT
BRANCH   3   9
HETATM    9  C3  UNL     1     -32.591   8.861   4.051  1.00 20.00     0.131 C 
HETATM   10  C8  UNL     1     -32.297   9.089   2.593  1.00 20.00     0.091 C 
HETATM   11  O11 UNL     1     -31.908   9.375   4.935  1.00 20.00    -0.298 OA
ENDBRANCH   3   9
TORSDOF 1
ENDMDL
