MODEL 1
REMARK VINA RESULT:      -4.4      0.000      0.000
REMARK  2 active torsions:
REMARK  status: ('A' for Active; 'I' for Inactive)
REMARK    1  A    between atoms: C2_2  and  C5_5 
REMARK    2  A    between atoms: C5_5  and  C6_6 
ROOT
HETATM    1  C1  UNL     1     -32.677   7.043   3.559  1.00 20.00     0.223 C 
HETATM    2  C2  UNL     1     -32.887   7.797   4.605  1.00 20.00    -0.030 C 
HETATM    3  C3  UNL     1     -32.199   9.122   4.780  1.00 20.00     0.048 C 
HETATM    4  O7  UNL     1     -32.490   6.364   2.619  1.00 20.00    -0.284 OA
ENDROOT
BRANCH   2   5
HETATM    5  C5  UNL     1     -33.830   7.386   5.711  1.00 20.00     0.037 C 
BRANCH   5   6
HETATM    6  C6  UNL     1     -34.739   6.228   5.293  1.00 20.00    -0.000 C 
HETATM    7  C4  UNL     1     -34.523   5.006   6.172  1.00 20.00     0.005 C 
ENDBRANCH   5   6
ENDBRANCH   2   5
TORSDOF 2
ENDMDL
MODEL 2
REMARK VINA RESULT:      -4.2      1.586      3.172
REMARK  2 active torsions:
REMARK  status: ('A' for Active; 'I' for Inactive)
REMARK    1  A    between atoms: C2_2  and  C5_5 
REMARK    2  A    between atoms: C5_5  and  C6_6 
ROOT
HETATM    1  C1  UNL     1     -34.312   5.385   4.836  1.00 20.00     0.223 C 
HETATM    2  C2  UNL     1     -34.195   6.583   5.342  1.00 20.00    -0.030 C 
HETATM    3  C3  UNL     1     -34.322   6.839   6.818  1.00 20.00     0.048 C 
HETATM    4  O7  UNL     1     -34.417   4.306   4.380  1.00 20.00    -0.284 OA
ENDROOT
BRANCH   2   5
HETATM    5  C5  UNL     1     -33.930   7.794   4.478  1.00 20.00     0.037 C 
BRANCH   5   6
HETATM    6  C6  UNL     1     -32.439   7.979   4.187  1.00 20.00    -0.000 C 
HETATM    7  C4  UNL     1     -32.076   7.475   2.799  1.00 20.00     0.005 C 
ENDBRANCH   5   6
ENDBRANCH   2   5
TORSDOF 2
ENDMDL
MODEL 3
REMARK VINA RESULT:      -4.2      1.690      2.144
REMARK  2 active torsions:
REMARK  status: ('A' for Active; 'I' for Inactive)
REMARK    1  A    between atoms: C2_2  and  C5_5 
REMARK    2  A    between atoms: C5_5  and  C6_6 
ROOT
HETATM    1  C1  UNL     1     -32.427   8.587   4.672  1.00 20.00     0.223 C 
HETATM    2  C2  UNL     1     -33.002   7.537   4.151  1.00 20.00    -0.030 C 
HETATM    3  C3  UNL     1     -32.414   6.811   2.973  1.00 20.00     0.048 C 
HETATM    4  O7  UNL     1     -31.910   9.533   5.142  1.00 20.00    -0.284 OA
ENDROOT
BRANCH   2   5
HETATM    5  C5  UNL     1     -34.300   6.984   4.692  1.00 20.00     0.037 C 
BRANCH   5   6
HETATM    6  C6  UNL     1     -34.212   6.668   6.188  1.00 20.00    -0.000 C 
HETATM    7  C4  UNL     1     -34.454   5.192   6.459  1.00 20.00     0.005 C 
ENDBRANCH   5   6
ENDBRANCH   2   5
TORSDOF 2
ENDMDL
MODEL 4
REMARK VINA RESULT:      -4.2      1.816      2.815
REMARK  2 active torsions:
REMARK  status: ('A' for Active; 'I' for Inactive)
REMARK    1  A    between atoms: C2_2  and  C5_5 
REMARK    2  A    between atoms: C5_5  and  C6_6 
ROOT
HETATM    1  C1  UNL     1     -33.260   7.838   4.984  1.00 20.00     0.223 C 
HETATM    2  C2  UNL     1     -34.066   6.864   5.313  1.00 20.00    -0.030 C 
HETATM    3  C3  UNL     1     -34.396   6.554   6.746  1.00 20.00     0.048 C 
HETATM    4  O7  UNL     1     -32.535   8.714   4.687  1.00 20.00    -0.284 OA
ENDROOT
BRANCH   2   5
HETATM    5  C5  UNL     1     -34.718   5.980   4.274  1.00 20.00     0.037 C 
BRANCH   5   6
HETATM    6  C6  UNL     1     -33.815   4.815   3.861  1.00 20.00    -0.000 C 
HETATM    7  C4  UNL     1     -32.970   5.171   2.647  1.00 20.00     0.005 C 
ENDBRANCH   5   6
ENDBRANCH   2   5
TORSDOF 2
ENDMDL
MODEL 5
REMARK VINA RESULT:      -4.1      1.489      2.394
REMARK  2 active torsions:
REMARK  status: ('A' for Active; 'I' for Inactive)
REMARK    1  A    between atoms: C2_2  and  C5_5 
REMARK    2  A    between atoms: C5_5  and  C6_6 
ROOT
HETATM    1  C1  UNL     1     -32.782   7.235   3.849  1.00 20.00     0.223 C 
HETATM    2  C2  UNL     1     -33.434   6.132   3.595  1.00 20.00    -0.030 C 
HETATM    3  C3  UNL     1     -32.919   5.111   2.619  1.00 20.00     0.048 C 
HETATM    4  O7  UNL     1     -32.197   8.229   4.078  1.00 20.00    -0.284 OA
ENDROOT
BRANCH   2   5
HETATM    5  C5  UNL     1     -34.751   5.810   4.262  1.00 20.00     0.037 C 
BRANCH   5   6
HETATM    6  C6  UNL     1     -34.564   5.326   5.702  1.00 20.00    -0.000 C 
HETATM    7  C4  UNL     1     -34.453   6.493   6.671  1.00 20.00     0.005 C 
ENDBRANCH   5   6
ENDBRANCH   2   5
TORSDOF 2
ENDMDL
MODEL 6
REMARK VINA RESULT:      -4.1      1.147      3.093
REMARK  2 active torsions:
REMARK  status: ('A' for Active; 'I' for Inactive)
REMARK    1  A    between atoms: C2_2  and  C5_5 
REMARK    2  A    between atoms: C5_5  and  C6_6 
ROOT
HETATM    1  C1  UNL     1     -33.724   5.629   3.916  1.00 20.00     0.223 C 
HETATM    2  C2  UNL     1     -34.115   6.239   5.003  1.00 20.00    -0.030 C 
HETATM    3  C3  UNL     1     -34.747   5.499   6.148  1.00 20.00     0.048 C 
HETATM    4  O7  UNL     1     -33.371   5.080   2.938  1.00 20.00    -0.284 OA
ENDROOT
BRANCH   2   5
HETATM    5  C5  UNL     1     -33.963   7.733   5.180  1.00 20.00     0.037 C 
BRANCH   5   6
HETATM    6  C6  UNL     1     -32.554   8.214   4.827  1.00 20.00    -0.000 C 
HETATM    7  C4  UNL     1     -32.515   8.855   3.448  1.00 20.00     0.005 C 
ENDBRANCH   5   6
ENDBRANCH   2   5
TORSDOF 2
ENDMDL
MODEL 7
REMARK VINA RESULT:      -3.9      1.316      2.087
REMARK  2 active torsions:
REMARK  status: ('A' for Active; 'I' for Inactive)
REMARK    1  A    between atoms: C2_2  and  C5_5 
REMARK    2  A    between atoms: C5_5  and  C6_6 
ROOT
HETATM    1  C1  UNL     1     -32.691   6.104   2.833  1.00 20.00     0.223 C 
HETATM    2  C2  UNL     1     -32.401   7.370   2.969  1.00 20.00    -0.030 C 
HETATM    3  C3  UNL     1     -32.113   8.251   1.785  1.00 20.00     0.048 C 
HETATM    4  O7  UNL     1     -32.952   4.964   2.713  1.00 20.00    -0.284 OA
ENDROOT
BRANCH   2   5
HETATM    5  C5  UNL     1     -32.331   8.034   4.325  1.00 20.00     0.037 C 
BRANCH   5   6
HETATM    6  C6  UNL     1     -33.697   8.085   5.013  1.00 20.00    -0.000 C 
HETATM    7  C4  UNL     1     -33.781   7.084   6.156  1.00 20.00     0.005 C 
ENDBRANCH   5   6
ENDBRANCH   2   5
TORSDOF 2
ENDMDL
MODEL 8
REMARK VINA RESULT:      -3.8      1.643      2.544
REMARK  2 active torsions:
REMARK  status: ('A' for Active; 'I' for Inactive)
REMARK    1  A    between atoms: C2_2  and  C5_5 
REMARK    2  A    between atoms: C5_5  and  C6_6 
ROOT
HETATM    1  C1  UNL     1     -32.243   7.922   1.767  1.00 20.00     0.223 C 
HETATM    2  C2  UNL     1     -32.433   7.247   2.868  1.00 20.00    -0.030 C 
HETATM    3  C3  UNL     1     -32.766   5.781   2.855  1.00 20.00     0.048 C 
HETATM    4  O7  UNL     1     -32.071   8.531   0.776  1.00 20.00    -0.284 OA
ENDROOT
BRANCH   2   5
HETATM    5  C5  UNL     1     -32.337   7.895   4.230  1.00 20.00     0.037 C 
BRANCH   5   6
HETATM    6  C6  UNL     1     -33.704   8.012   4.910  1.00 20.00    -0.000 C 
HETATM    7  C4  UNL     1     -33.787   7.131   6.146  1.00 20.00     0.005 C 
ENDBRANCH   5   6
ENDBRANCH   2   5
TORSDOF 2
ENDMDL
MODEL 9
REMARK VINA RESULT:      -3.8      2.033      2.780
REMARK  2 active torsions:
REMARK  status: ('A' for Active; 'I' for Inactive)
REMARK    1  A    between atoms: C2_2  and  C5_5 
REMARK    2  A    between atoms: C5_5  and  C6_6 
ROOT
HETATM    1  C1  UNL     1     -33.736   7.289   5.773  1.00 20.00     0.223 C 
HETATM    2  C2  UNL     1     -32.988   7.787   4.826  1.00 20.00    -0.030 C 
HETATM    3  C3  UNL     1     -32.298   9.114   4.973  1.00 20.00     0.048 C 
HETATM    4  O7  UNL     1     -34.410   6.839   6.626  1.00 20.00    -0.284 OA
ENDROOT
BRANCH   2   5
HETATM    5  C5  UNL     1     -32.770   7.065   3.516  1.00 20.00     0.037 C 
BRANCH   5   6
HETATM    6  C6  UNL     1     -33.498   5.719   3.472  1.00 20.00    -0.000 C 
HETATM    7  C4  UNL     1     -32.906   4.802   2.413  1.00 20.00     0.005 C 
ENDBRANCH   5   6
ENDBRANCH   2   5
TORSDOF 2
ENDMDL
