MODEL 1
REMARK VINA RESULT:      -4.6      0.000      0.000
REMARK  2 active torsions:
REMARK  status: ('A' for Active; 'I' for Inactive)
REMARK    1  A    between atoms: C3_3  and  C8_8 
REMARK    2  A    between atoms: C4_4  and  O9_9 
ROOT
HETATM    1  C1  UNL     1     -33.639   8.214   4.725  1.00 20.00     0.037 C 
HETATM    2  C2  UNL     1     -32.645   6.873   3.394  1.00 20.00     0.037 C 
HETATM    3  C3  UNL     1     -33.240   6.721   4.816  1.00 20.00    -0.002 C 
HETATM    4  C4  UNL     1     -32.513   8.388   3.680  1.00 20.00     0.118 C 
ENDROOT
BRANCH   3   5
HETATM    5  C8  UNL     1     -34.371   5.725   4.975  1.00 20.00    -0.048 C 
HETATM    6  C5  UNL     1     -35.634   6.270   4.294  1.00 20.00     0.015 C 
HETATM    7  C6  UNL     1     -34.650   5.502   6.469  1.00 20.00     0.015 C 
HETATM    8  C7  UNL     1     -33.973   4.392   4.325  1.00 20.00     0.015 C 
ENDBRANCH   3   5
BRANCH   4   9
HETATM    9  O9  UNL     1     -32.806   9.267   2.581  1.00 20.00    -0.396 OA
HETATM   10  H25 UNL     1     -33.759   9.207   2.442  1.00 20.00     0.210 HD
ENDBRANCH   4   9
TORSDOF 2
ENDMDL
MODEL 2
REMARK VINA RESULT:      -4.5      0.006      1.448
REMARK  2 active torsions:
REMARK  status: ('A' for Active; 'I' for Inactive)
REMARK    1  A    between atoms: C3_3  and  C8_8 
REMARK    2  A    between atoms: C4_4  and  O9_9 
ROOT
HETATM    1  C1  UNL     1     -33.637   8.210   4.730  1.00 20.00     0.037 C 
HETATM    2  C2  UNL     1     -32.649   6.868   3.395  1.00 20.00     0.037 C 
HETATM    3  C3  UNL     1     -33.240   6.716   4.818  1.00 20.00    -0.002 C 
HETATM    4  C4  UNL     1     -32.513   8.382   3.683  1.00 20.00     0.118 C 
ENDROOT
BRANCH   3   5
HETATM    5  C8  UNL     1     -34.373   5.722   4.979  1.00 20.00    -0.048 C 
HETATM    6  C5  UNL     1     -34.653   5.501   6.472  1.00 20.00     0.015 C 
HETATM    7  C6  UNL     1     -33.979   4.388   4.328  1.00 20.00     0.015 C 
HETATM    8  C7  UNL     1     -35.635   6.270   4.297  1.00 20.00     0.015 C 
ENDBRANCH   3   5
BRANCH   4   9
HETATM    9  O9  UNL     1     -32.806   9.263   2.585  1.00 20.00    -0.396 OA
HETATM   10  H25 UNL     1     -31.968   9.405   2.129  1.00 20.00     0.210 HD
ENDBRANCH   4   9
TORSDOF 2
ENDMDL
MODEL 3
REMARK VINA RESULT:      -4.3      1.290      2.160
REMARK  2 active torsions:
REMARK  status: ('A' for Active; 'I' for Inactive)
REMARK    1  A    between atoms: C3_3  and  C8_8 
REMARK    2  A    between atoms: C4_4  and  O9_9 
ROOT
HETATM    1  C1  UNL     1     -32.529   7.520   3.921  1.00 20.00     0.037 C 
HETATM    2  C2  UNL     1     -33.734   8.309   5.497  1.00 20.00     0.037 C 
HETATM    3  C3  UNL     1     -34.014   7.340   4.322  1.00 20.00    -0.002 C 
HETATM    4  C4  UNL     1     -32.557   8.874   4.667  1.00 20.00     0.118 C 
ENDROOT
BRANCH   3   5
HETATM    5  C8  UNL     1     -34.451   5.937   4.690  1.00 20.00    -0.048 C 
HETATM    6  C5  UNL     1     -34.274   5.724   6.200  1.00 20.00     0.015 C 
HETATM    7  C6  UNL     1     -33.594   4.917   3.925  1.00 20.00     0.015 C 
HETATM    8  C7  UNL     1     -35.928   5.746   4.315  1.00 20.00     0.015 C 
ENDBRANCH   3   5
BRANCH   4   9
HETATM    9  O9  UNL     1     -31.368   9.209   5.403  1.00 20.00    -0.396 OA
HETATM   10  H25 UNL     1     -31.210   8.468   6.001  1.00 20.00     0.210 HD
ENDBRANCH   4   9
TORSDOF 2
ENDMDL
MODEL 4
REMARK VINA RESULT:      -4.1      2.259      3.838
REMARK  2 active torsions:
REMARK  status: ('A' for Active; 'I' for Inactive)
REMARK    1  A    between atoms: C3_3  and  C8_8 
REMARK    2  A    between atoms: C4_4  and  O9_9 
ROOT
HETATM    1  C1  UNL     1     -33.863   7.370   6.001  1.00 20.00     0.037 C 
HETATM    2  C2  UNL     1     -34.192   6.119   4.303  1.00 20.00     0.037 C 
HETATM    3  C3  UNL     1     -33.972   7.642   4.481  1.00 20.00    -0.002 C 
HETATM    4  C4  UNL     1     -34.688   6.084   5.768  1.00 20.00     0.118 C 
ENDROOT
BRANCH   3   5
HETATM    5  C8  UNL     1     -32.751   8.234   3.808  1.00 20.00    -0.048 C 
HETATM    6  C5  UNL     1     -33.187   9.329   2.825  1.00 20.00     0.015 C 
HETATM    7  C6  UNL     1     -32.000   7.131   3.047  1.00 20.00     0.015 C 
HETATM    8  C7  UNL     1     -31.825   8.841   4.873  1.00 20.00     0.015 C 
ENDBRANCH   3   5
BRANCH   4   9
HETATM    9  O9  UNL     1     -34.295   4.937   6.541  1.00 20.00    -0.396 OA
HETATM   10  H25 UNL     1     -35.048   4.730   7.108  1.00 20.00     0.210 HD
ENDBRANCH   4   9
TORSDOF 2
ENDMDL
MODEL 5
REMARK VINA RESULT:      -4.1      2.260      3.851
REMARK  2 active torsions:
REMARK  status: ('A' for Active; 'I' for Inactive)
REMARK    1  A    between atoms: C3_3  and  C8_8 
REMARK    2  A    between atoms: C4_4  and  O9_9 
ROOT
HETATM    1  C1  UNL     1     -33.856   7.381   6.011  1.00 20.00     0.037 C 
HETATM    2  C2  UNL     1     -34.172   6.110   4.325  1.00 20.00     0.037 C 
HETATM    3  C3  UNL     1     -33.967   7.636   4.488  1.00 20.00    -0.002 C 
HETATM    4  C4  UNL     1     -34.669   6.084   5.790  1.00 20.00     0.118 C 
ENDROOT
BRANCH   3   5
HETATM    5  C8  UNL     1     -32.751   8.233   3.810  1.00 20.00    -0.048 C 
HETATM    6  C5  UNL     1     -31.994   7.134   3.052  1.00 20.00     0.015 C 
HETATM    7  C6  UNL     1     -31.827   8.854   4.869  1.00 20.00     0.015 C 
HETATM    8  C7  UNL     1     -33.198   9.321   2.822  1.00 20.00     0.015 C 
ENDBRANCH   3   5
BRANCH   4   9
HETATM    9  O9  UNL     1     -34.265   4.950   6.575  1.00 20.00    -0.396 OA
HETATM   10  H25 UNL     1     -35.013   4.339   6.560  1.00 20.00     0.210 HD
ENDBRANCH   4   9
TORSDOF 2
ENDMDL
MODEL 6
REMARK VINA RESULT:      -3.6     12.027     13.175
REMARK  2 active torsions:
REMARK  status: ('A' for Active; 'I' for Inactive)
REMARK    1  A    between atoms: C3_3  and  C8_8 
REMARK    2  A    between atoms: C4_4  and  O9_9 
ROOT
HETATM    1  C1  UNL     1     -34.897  16.231  -4.759  1.00 20.00     0.037 C 
HETATM    2  C2  UNL     1     -33.158  15.474  -3.778  1.00 20.00     0.037 C 
HETATM    3  C3  UNL     1     -33.627  16.896  -4.173  1.00 20.00    -0.002 C 
HETATM    4  C4  UNL     1     -34.075  14.929  -4.900  1.00 20.00     0.118 C 
ENDROOT
BRANCH   3   5
HETATM    5  C8  UNL     1     -33.839  17.879  -3.039  1.00 20.00    -0.048 C 
HETATM    6  C5  UNL     1     -33.575  17.180  -1.698  1.00 20.00     0.015 C 
HETATM    7  C6  UNL     1     -35.285  18.395  -3.073  1.00 20.00     0.015 C 
HETATM    8  C7  UNL     1     -32.871  19.061  -3.200  1.00 20.00     0.015 C 
ENDBRANCH   3   5
BRANCH   4   9
HETATM    9  O9  UNL     1     -34.776  13.709  -4.606  1.00 20.00    -0.396 OA
HETATM   10  H25 UNL     1     -35.666  13.973  -4.342  1.00 20.00     0.210 HD
ENDBRANCH   4   9
TORSDOF 2
ENDMDL
MODEL 7
REMARK VINA RESULT:      -3.6     12.025     13.147
REMARK  2 active torsions:
REMARK  status: ('A' for Active; 'I' for Inactive)
REMARK    1  A    between atoms: C3_3  and  C8_8 
REMARK    2  A    between atoms: C4_4  and  O9_9 
ROOT
HETATM    1  C1  UNL     1     -34.900  16.234  -4.744  1.00 20.00     0.037 C 
HETATM    2  C2  UNL     1     -33.158  15.481  -3.767  1.00 20.00     0.037 C 
HETATM    3  C3  UNL     1     -33.631  16.902  -4.162  1.00 20.00    -0.002 C 
HETATM    4  C4  UNL     1     -34.076  14.933  -4.885  1.00 20.00     0.118 C 
ENDROOT
BRANCH   3   5
HETATM    5  C8  UNL     1     -33.841  17.886  -3.030  1.00 20.00    -0.048 C 
HETATM    6  C5  UNL     1     -32.877  19.069  -3.193  1.00 20.00     0.015 C 
HETATM    7  C6  UNL     1     -33.573  17.188  -1.688  1.00 20.00     0.015 C 
HETATM    8  C7  UNL     1     -35.289  18.398  -3.059  1.00 20.00     0.015 C 
ENDBRANCH   3   5
BRANCH   4   9
HETATM    9  O9  UNL     1     -34.774  13.712  -4.588  1.00 20.00    -0.396 OA
HETATM   10  H25 UNL     1     -35.334  13.535  -5.354  1.00 20.00     0.210 HD
ENDBRANCH   4   9
TORSDOF 2
ENDMDL
MODEL 8
REMARK VINA RESULT:      -3.6      8.971     10.079
REMARK  2 active torsions:
REMARK  status: ('A' for Active; 'I' for Inactive)
REMARK    1  A    between atoms: C3_3  and  C8_8 
REMARK    2  A    between atoms: C4_4  and  O9_9 
ROOT
HETATM    1  C1  UNL     1     -39.909  12.750   6.933  1.00 20.00     0.037 C 
HETATM    2  C2  UNL     1     -40.131  12.459   4.830  1.00 20.00     0.037 C 
HETATM    3  C3  UNL     1     -41.135  12.664   5.991  1.00 20.00    -0.002 C 
HETATM    4  C4  UNL     1     -39.120  11.939   5.880  1.00 20.00     0.118 C 
ENDROOT
BRANCH   3   5
HETATM    5  C8  UNL     1     -42.019  13.892   5.915  1.00 20.00    -0.048 C 
HETATM    6  C5  UNL     1     -43.416  13.551   6.451  1.00 20.00     0.015 C 
HETATM    7  C6  UNL     1     -42.128  14.354   4.454  1.00 20.00     0.015 C 
HETATM    8  C7  UNL     1     -41.406  15.017   6.762  1.00 20.00     0.015 C 
ENDBRANCH   3   5
BRANCH   4   9
HETATM    9  O9  UNL     1     -37.750  12.328   5.685  1.00 20.00    -0.396 OA
HETATM   10  H25 UNL     1     -37.221  11.553   5.911  1.00 20.00     0.210 HD
ENDBRANCH   4   9
TORSDOF 2
ENDMDL
MODEL 9
REMARK VINA RESULT:      -3.5      9.016     10.081
REMARK  2 active torsions:
REMARK  status: ('A' for Active; 'I' for Inactive)
REMARK    1  A    between atoms: C3_3  and  C8_8 
REMARK    2  A    between atoms: C4_4  and  O9_9 
ROOT
HETATM    1  C1  UNL     1     -39.914  12.849   6.926  1.00 20.00     0.037 C 
HETATM    2  C2  UNL     1     -40.186  12.437   4.849  1.00 20.00     0.037 C 
HETATM    3  C3  UNL     1     -41.161  12.732   6.015  1.00 20.00    -0.002 C 
HETATM    4  C4  UNL     1     -39.163  11.960   5.908  1.00 20.00     0.118 C 
ENDROOT
BRANCH   3   5
HETATM    5  C8  UNL     1     -42.023  13.971   5.882  1.00 20.00    -0.048 C 
HETATM    6  C5  UNL     1     -42.150  14.350   4.400  1.00 20.00     0.015 C 
HETATM    7  C6  UNL     1     -41.375  15.130   6.654  1.00 20.00     0.015 C 
HETATM    8  C7  UNL     1     -43.417  13.688   6.460  1.00 20.00     0.015 C 
ENDBRANCH   3   5
BRANCH   4   9
HETATM    9  O9  UNL     1     -37.790  12.309   5.663  1.00 20.00    -0.396 OA
HETATM   10  H25 UNL     1     -37.436  11.608   5.101  1.00 20.00     0.210 HD
ENDBRANCH   4   9
TORSDOF 2
ENDMDL
