MODEL 1
REMARK VINA RESULT:      -3.7      0.000      0.000
REMARK  1 active torsions:
REMARK  status: ('A' for Active; 'I' for Inactive)
REMARK    1  A    between atoms: C5_5  and  N10_10 
ROOT
HETATM    1  C1  UNL     1     -22.106  18.541  11.737  1.00 20.00    -0.026 C 
HETATM    2  C2  UNL     1     -24.824  16.201  11.706  1.00 20.00    -0.026 C 
HETATM    3  C3  UNL     1     -23.242  18.943  12.332  1.00 20.00    -0.005 C 
HETATM    4  C4  UNL     1     -23.999  16.167  10.645  1.00 20.00    -0.005 C 
HETATM    5  C6  UNL     1     -22.095  17.811  10.415  1.00 20.00     0.056 C 
HETATM    6  C7  UNL     1     -25.311  17.493  12.316  1.00 20.00     0.056 C 
HETATM    7  C8  UNL     1     -24.610  18.728  11.718  1.00 20.00     0.113 C 
HETATM    8  C9  UNL     1     -23.510  17.419   9.946  1.00 20.00     0.113 C 
HETATM    9  N10 UNL     1     -24.431  18.511  10.278  1.00 20.00    -0.343 N 
ENDROOT
BRANCH   9  10
HETATM   10  C5  UNL     1     -25.082  19.262   9.320  1.00 20.00     0.352 C 
HETATM   11  O11 UNL     1     -24.923  19.217   8.105  1.00 20.00    -0.283 OA
ENDBRANCH   9  10
TORSDOF 1
ENDMDL
MODEL 2
REMARK VINA RESULT:      -3.5     18.100     19.887
REMARK  1 active torsions:
REMARK  status: ('A' for Active; 'I' for Inactive)
REMARK    1  A    between atoms: C5_5  and  N10_10 
ROOT
HETATM    1  C1  UNL     1     -36.842  15.620  -5.445  1.00 20.00    -0.026 C 
HETATM    2  C2  UNL     1     -34.209  16.764  -7.595  1.00 20.00    -0.026 C 
HETATM    3  C3  UNL     1     -36.483  16.908  -5.309  1.00 20.00    -0.005 C 
HETATM    4  C4  UNL     1     -34.145  15.477  -7.211  1.00 20.00    -0.005 C 
HETATM    5  C6  UNL     1     -35.834  14.507  -5.603  1.00 20.00     0.056 C 
HETATM    6  C7  UNL     1     -34.570  17.879  -6.643  1.00 20.00     0.056 C 
HETATM    7  C8  UNL     1     -35.036  17.356  -5.271  1.00 20.00     0.113 C 
HETATM    8  C9  UNL     1     -34.398  15.034  -5.784  1.00 20.00     0.113 C 
HETATM    9  N10 UNL     1     -34.213  16.197  -4.910  1.00 20.00    -0.343 N 
ENDROOT
BRANCH   9  10
HETATM   10  C5  UNL     1     -33.333  16.205  -3.846  1.00 20.00     0.352 C 
HETATM   11  O11 UNL     1     -33.607  16.134  -2.654  1.00 20.00    -0.283 OA
ENDBRANCH   9  10
TORSDOF 1
ENDMDL
MODEL 3
REMARK VINA RESULT:      -3.4     18.119     19.874
REMARK  1 active torsions:
REMARK  status: ('A' for Active; 'I' for Inactive)
REMARK    1  A    between atoms: C5_5  and  N10_10 
ROOT
HETATM    1  C1  UNL     1     -34.181  16.668  -7.656  1.00 20.00    -0.026 C 
HETATM    2  C2  UNL     1     -36.831  15.676  -5.451  1.00 20.00    -0.026 C 
HETATM    3  C3  UNL     1     -34.149  15.395  -7.224  1.00 20.00    -0.005 C 
HETATM    4  C4  UNL     1     -36.436  16.958  -5.365  1.00 20.00    -0.005 C 
HETATM    5  C6  UNL     1     -34.506  17.827  -6.744  1.00 20.00     0.056 C 
HETATM    6  C7  UNL     1     -35.854  14.531  -5.572  1.00 20.00     0.056 C 
HETATM    7  C8  UNL     1     -34.405  15.012  -5.781  1.00 20.00     0.113 C 
HETATM    8  C9  UNL     1     -34.977  17.367  -5.351  1.00 20.00     0.113 C 
HETATM    9  N10 UNL     1     -34.184  16.200  -4.951  1.00 20.00    -0.343 N 
ENDROOT
BRANCH   9  10
HETATM   10  C5  UNL     1     -33.314  16.215  -3.880  1.00 20.00     0.352 C 
HETATM   11  O11 UNL     1     -33.597  16.135  -2.689  1.00 20.00    -0.283 OA
ENDBRANCH   9  10
TORSDOF 1
ENDMDL
MODEL 4
REMARK VINA RESULT:      -3.4     18.612     20.094
REMARK  1 active torsions:
REMARK  status: ('A' for Active; 'I' for Inactive)
REMARK    1  A    between atoms: C5_5  and  N10_10 
ROOT
HETATM    1  C1  UNL     1     -34.494  17.304  -4.248  1.00 20.00    -0.026 C 
HETATM    2  C2  UNL     1     -34.547  16.023  -7.598  1.00 20.00    -0.026 C 
HETATM    3  C3  UNL     1     -33.680  16.263  -4.499  1.00 20.00    -0.005 C 
HETATM    4  C4  UNL     1     -35.704  16.527  -7.137  1.00 20.00    -0.005 C 
HETATM    5  C6  UNL     1     -35.911  17.370  -4.765  1.00 20.00     0.056 C 
HETATM    6  C7  UNL     1     -33.655  15.138  -6.761  1.00 20.00     0.056 C 
HETATM    7  C8  UNL     1     -34.120  15.051  -5.294  1.00 20.00     0.113 C 
HETATM    8  C9  UNL     1     -36.234  16.229  -5.749  1.00 20.00     0.113 C 
HETATM    9  N10 UNL     1     -35.586  15.003  -5.273  1.00 20.00    -0.343 N 
ENDROOT
BRANCH   9  10
HETATM   10  C5  UNL     1     -36.293  13.895  -4.850  1.00 20.00     0.352 C 
HETATM   11  O11 UNL     1     -35.846  12.888  -4.312  1.00 20.00    -0.283 OA
ENDBRANCH   9  10
TORSDOF 1
ENDMDL
MODEL 5
REMARK VINA RESULT:      -3.4     19.043     20.450
REMARK  1 active torsions:
REMARK  status: ('A' for Active; 'I' for Inactive)
REMARK    1  A    between atoms: C5_5  and  N10_10 
ROOT
HETATM    1  C1  UNL     1     -34.629  15.655  -7.801  1.00 20.00    -0.026 C 
HETATM    2  C2  UNL     1     -35.263  17.627  -4.872  1.00 20.00    -0.026 C 
HETATM    3  C3  UNL     1     -35.910  16.002  -7.584  1.00 20.00    -0.005 C 
HETATM    4  C4  UNL     1     -34.252  16.745  -4.787  1.00 20.00    -0.005 C 
HETATM    5  C6  UNL     1     -33.719  15.178  -6.695  1.00 20.00     0.056 C 
HETATM    6  C7  UNL     1     -36.586  17.287  -5.517  1.00 20.00     0.056 C 
HETATM    7  C8  UNL     1     -36.564  15.916  -6.221  1.00 20.00     0.113 C 
HETATM    8  C9  UNL     1     -34.358  15.323  -5.300  1.00 20.00     0.113 C 
HETATM    9  N10 UNL     1     -35.782  14.985  -5.401  1.00 20.00    -0.343 N 
ENDROOT
BRANCH   9  10
HETATM   10  C5  UNL     1     -36.339  13.890  -4.771  1.00 20.00     0.352 C 
HETATM   11  O11 UNL     1     -35.749  12.942  -4.266  1.00 20.00    -0.283 OA
ENDBRANCH   9  10
TORSDOF 1
ENDMDL
MODEL 6
REMARK VINA RESULT:      -3.3     18.316     19.914
REMARK  1 active torsions:
REMARK  status: ('A' for Active; 'I' for Inactive)
REMARK    1  A    between atoms: C5_5  and  N10_10 
ROOT
HETATM    1  C1  UNL     1     -33.853  16.029  -3.767  1.00 20.00    -0.026 C 
HETATM    2  C2  UNL     1     -37.116  16.113  -5.253  1.00 20.00    -0.026 C 
HETATM    3  C3  UNL     1     -34.166  17.144  -4.449  1.00 20.00    -0.005 C 
HETATM    4  C4  UNL     1     -36.530  14.906  -5.177  1.00 20.00    -0.005 C 
HETATM    5  C6  UNL     1     -34.185  14.646  -4.275  1.00 20.00     0.056 C 
HETATM    6  C7  UNL     1     -36.367  17.356  -5.670  1.00 20.00     0.056 C 
HETATM    7  C8  UNL     1     -34.851  17.115  -5.799  1.00 20.00     0.113 C 
HETATM    8  C9  UNL     1     -35.075  14.678  -5.532  1.00 20.00     0.113 C 
HETATM    9  N10 UNL     1     -34.639  15.788  -6.386  1.00 20.00    -0.343 N 
ENDROOT
BRANCH   9  10
HETATM   10  C5  UNL     1     -34.086  15.601  -7.637  1.00 20.00     0.352 C 
HETATM   11  O11 UNL     1     -33.081  14.957  -7.918  1.00 20.00    -0.283 OA
ENDBRANCH   9  10
TORSDOF 1
ENDMDL
MODEL 7
REMARK VINA RESULT:      -3.3     18.516     20.122
REMARK  1 active torsions:
REMARK  status: ('A' for Active; 'I' for Inactive)
REMARK    1  A    between atoms: C5_5  and  N10_10 
ROOT
HETATM    1  C1  UNL     1     -33.683  15.777  -4.097  1.00 20.00    -0.026 C 
HETATM    2  C2  UNL     1     -34.224  16.991  -7.428  1.00 20.00    -0.026 C 
HETATM    3  C3  UNL     1     -34.050  14.861  -5.010  1.00 20.00    -0.005 C 
HETATM    4  C4  UNL     1     -34.520  17.842  -6.431  1.00 20.00    -0.005 C 
HETATM    5  C6  UNL     1     -34.324  17.141  -4.012  1.00 20.00     0.056 C 
HETATM    6  C7  UNL     1     -34.595  15.528  -7.386  1.00 20.00     0.056 C 
HETATM    7  C8  UNL     1     -35.157  15.102  -6.015  1.00 20.00     0.113 C 
HETATM    8  C9  UNL     1     -35.278  17.419  -5.190  1.00 20.00     0.113 C 
HETATM    9  N10 UNL     1     -36.005  16.184  -5.504  1.00 20.00    -0.343 N 
ENDROOT
BRANCH   9  10
HETATM   10  C5  UNL     1     -37.370  16.054  -5.342  1.00 20.00     0.352 C 
HETATM   11  O11 UNL     1     -37.985  15.051  -4.997  1.00 20.00    -0.283 OA
ENDBRANCH   9  10
TORSDOF 1
ENDMDL
MODEL 8
REMARK VINA RESULT:      -3.3     18.572     20.104
REMARK  1 active torsions:
REMARK  status: ('A' for Active; 'I' for Inactive)
REMARK    1  A    between atoms: C5_5  and  N10_10 
ROOT
HETATM    1  C1  UNL     1     -34.255  16.978  -7.484  1.00 20.00    -0.026 C 
HETATM    2  C2  UNL     1     -33.742  15.801  -4.134  1.00 20.00    -0.026 C 
HETATM    3  C3  UNL     1     -34.536  17.849  -6.499  1.00 20.00    -0.005 C 
HETATM    4  C4  UNL     1     -34.124  14.880  -5.035  1.00 20.00    -0.005 C 
HETATM    5  C6  UNL     1     -34.653  15.523  -7.420  1.00 20.00     0.056 C 
HETATM    6  C7  UNL     1     -34.358  17.179  -4.069  1.00 20.00     0.056 C 
HETATM    7  C8  UNL     1     -35.304  17.458  -5.253  1.00 20.00     0.113 C 
HETATM    8  C9  UNL     1     -35.226  15.128  -6.045  1.00 20.00     0.113 C 
HETATM    9  N10 UNL     1     -36.053  16.232  -5.549  1.00 20.00    -0.343 N 
ENDROOT
BRANCH   9  10
HETATM   10  C5  UNL     1     -37.417  16.125  -5.366  1.00 20.00     0.352 C 
HETATM   11  O11 UNL     1     -38.043  15.137  -4.998  1.00 20.00    -0.283 OA
ENDBRANCH   9  10
TORSDOF 1
ENDMDL
MODEL 9
REMARK VINA RESULT:      -3.2     16.681     18.055
REMARK  1 active torsions:
REMARK  status: ('A' for Active; 'I' for Inactive)
REMARK    1  A    between atoms: C5_5  and  N10_10 
ROOT
HETATM    1  C1  UNL     1     -33.698  15.938  -3.406  1.00 20.00    -0.026 C 
HETATM    2  C2  UNL     1     -32.934  19.249  -4.555  1.00 20.00    -0.026 C 
HETATM    3  C3  UNL     1     -34.348  16.349  -4.509  1.00 20.00    -0.005 C 
HETATM    4  C4  UNL     1     -32.876  19.053  -3.226  1.00 20.00    -0.005 C 
HETATM    5  C6  UNL     1     -33.494  16.828  -2.204  1.00 20.00     0.056 C 
HETATM    6  C7  UNL     1     -34.043  18.688  -5.412  1.00 20.00     0.056 C 
HETATM    7  C8  UNL     1     -34.962  17.728  -4.633  1.00 20.00     0.113 C 
HETATM    8  C9  UNL     1     -33.934  18.281  -2.465  1.00 20.00     0.113 C 
HETATM    9  N10 UNL     1     -35.153  18.261  -3.280  1.00 20.00    -0.343 N 
ENDROOT
BRANCH   9  10
HETATM   10  C5  UNL     1     -36.373  18.715  -2.819  1.00 20.00     0.352 C 
HETATM   11  O11 UNL     1     -37.483  18.449  -3.266  1.00 20.00    -0.283 OA
ENDBRANCH   9  10
TORSDOF 1
ENDMDL
