MODEL 1
REMARK VINA RESULT:      -4.0      0.000      0.000
REMARK  5 active torsions:
REMARK  status: ('A' for Active; 'I' for Inactive)
REMARK    1  A    between atoms: C1_1  and  C9_9 
REMARK    2  A    between atoms: C1_1  and  O11_11 
REMARK    3  A    between atoms: C6_6  and  C7_7 
REMARK    4  A    between atoms: C7_7  and  C9_9 
REMARK    5  A    between atoms: C8_8  and  O11_11 
ROOT
HETATM    1  C4  UNL     1     -42.562  12.488   6.977  1.00 20.00     0.025 C 
HETATM    2  C5  UNL     1     -41.585  13.884   5.158  1.00 20.00     0.025 C 
HETATM    3  C9  UNL     1     -41.244  13.020   6.384  1.00 20.00     0.041 C 
ENDROOT
BRANCH   3   4
HETATM    4  C1  UNL     1     -40.557  13.887   7.448  1.00 20.00     0.266 C 
HETATM    5  O10 UNL     1     -40.102  13.457   8.501  1.00 20.00    -0.264 OA
BRANCH   4   6
HETATM    6  O11 UNL     1     -40.520  15.193   7.051  1.00 20.00    -0.321 OA
BRANCH   6   7
HETATM    7  C8  UNL     1     -40.519  16.162   8.104  1.00 20.00     0.174 C 
HETATM    8  C3  UNL     1     -40.903  17.511   7.535  1.00 20.00     0.034 C 
ENDBRANCH   6   7
ENDBRANCH   4   6
ENDBRANCH   3   4
BRANCH   3   9
HETATM    9  C7  UNL     1     -40.344  11.822   5.982  1.00 20.00     0.018 C 
BRANCH   9  10
HETATM   10  C6  UNL     1     -39.019  12.207   5.315  1.00 20.00    -0.003 C 
HETATM   11  C2  UNL     1     -38.926  11.639   3.906  1.00 20.00     0.005 C 
ENDBRANCH   9  10
ENDBRANCH   3   9
TORSDOF 5
ENDMDL
MODEL 2
REMARK VINA RESULT:      -3.9      1.221      1.849
REMARK  5 active torsions:
REMARK  status: ('A' for Active; 'I' for Inactive)
REMARK    1  A    between atoms: C1_1  and  C9_9 
REMARK    2  A    between atoms: C1_1  and  O11_11 
REMARK    3  A    between atoms: C6_6  and  C7_7 
REMARK    4  A    between atoms: C7_7  and  C9_9 
REMARK    5  A    between atoms: C8_8  and  O11_11 
ROOT
HETATM    1  C4  UNL     1     -42.608  12.741   7.112  1.00 20.00     0.025 C 
HETATM    2  C5  UNL     1     -41.735  13.946   5.114  1.00 20.00     0.025 C 
HETATM    3  C9  UNL     1     -41.326  13.217   6.405  1.00 20.00     0.041 C 
ENDROOT
BRANCH   3   4
HETATM    4  C1  UNL     1     -40.599  14.194   7.339  1.00 20.00     0.266 C 
HETATM    5  O10 UNL     1     -40.311  15.347   7.043  1.00 20.00    -0.264 OA
BRANCH   4   6
HETATM    6  O11 UNL     1     -40.331  13.600   8.539  1.00 20.00    -0.321 OA
BRANCH   6   7
HETATM    7  C8  UNL     1     -40.412  14.454   9.685  1.00 20.00     0.174 C 
HETATM    8  C3  UNL     1     -41.617  14.059  10.511  1.00 20.00     0.034 C 
ENDBRANCH   6   7
ENDBRANCH   4   6
ENDBRANCH   3   4
BRANCH   3   9
HETATM    9  C7  UNL     1     -40.433  11.990   6.086  1.00 20.00     0.018 C 
BRANCH   9  10
HETATM   10  C6  UNL     1     -39.096  12.323   5.415  1.00 20.00    -0.003 C 
HETATM   11  C2  UNL     1     -38.975  11.642   4.059  1.00 20.00     0.005 C 
ENDBRANCH   9  10
ENDBRANCH   3   9
TORSDOF 5
ENDMDL
MODEL 3
REMARK VINA RESULT:      -3.7      9.286     10.709
REMARK  5 active torsions:
REMARK  status: ('A' for Active; 'I' for Inactive)
REMARK    1  A    between atoms: C1_1  and  C9_9 
REMARK    2  A    between atoms: C1_1  and  O11_11 
REMARK    3  A    between atoms: C6_6  and  C7_7 
REMARK    4  A    between atoms: C7_7  and  C9_9 
REMARK    5  A    between atoms: C8_8  and  O11_11 
ROOT
HETATM    1  C4  UNL     1     -32.212   9.088   4.867  1.00 20.00     0.025 C 
HETATM    2  C5  UNL     1     -34.560   8.416   4.374  1.00 20.00     0.025 C 
HETATM    3  C9  UNL     1     -33.142   7.882   4.644  1.00 20.00     0.041 C 
ENDROOT
BRANCH   3   4
HETATM    4  C1  UNL     1     -32.641   7.112   3.415  1.00 20.00     0.266 C 
HETATM    5  O10 UNL     1     -32.928   5.947   3.165  1.00 20.00    -0.264 OA
BRANCH   4   6
HETATM    6  O11 UNL     1     -31.841   7.907   2.645  1.00 20.00    -0.321 OA
BRANCH   6   7
HETATM    7  C8  UNL     1     -32.205   7.998   1.263  1.00 20.00     0.174 C 
HETATM    8  C3  UNL     1     -32.760   9.379   0.989  1.00 20.00     0.034 C 
ENDBRANCH   6   7
ENDBRANCH   4   6
ENDBRANCH   3   4
BRANCH   3   9
HETATM    9  C7  UNL     1     -33.123   6.982   5.906  1.00 20.00     0.018 C 
BRANCH   9  10
HETATM   10  C6  UNL     1     -34.495   6.458   6.345  1.00 20.00    -0.003 C 
HETATM   11  C2  UNL     1     -34.676   4.996   5.960  1.00 20.00     0.005 C 
ENDBRANCH   9  10
ENDBRANCH   3   9
TORSDOF 5
ENDMDL
MODEL 4
REMARK VINA RESULT:      -3.7     11.163     11.903
REMARK  5 active torsions:
REMARK  status: ('A' for Active; 'I' for Inactive)
REMARK    1  A    between atoms: C1_1  and  C9_9 
REMARK    2  A    between atoms: C1_1  and  O11_11 
REMARK    3  A    between atoms: C6_6  and  C7_7 
REMARK    4  A    between atoms: C7_7  and  C9_9 
REMARK    5  A    between atoms: C8_8  and  O11_11 
ROOT
HETATM    1  C4  UNL     1     -34.992  18.594  -1.932  1.00 20.00     0.025 C 
HETATM    2  C5  UNL     1     -32.660  18.987  -2.716  1.00 20.00     0.025 C 
HETATM    3  C9  UNL     1     -33.539  18.099  -1.819  1.00 20.00     0.041 C 
ENDROOT
BRANCH   3   4
HETATM    4  C1  UNL     1     -33.095  18.246  -0.358  1.00 20.00     0.266 C 
HETATM    5  O10 UNL     1     -33.864  18.312   0.594  1.00 20.00    -0.264 OA
BRANCH   4   6
HETATM    6  O11 UNL     1     -31.733  18.286  -0.272  1.00 20.00    -0.321 OA
BRANCH   6   7
HETATM    7  C8  UNL     1     -31.200  19.157   0.732  1.00 20.00     0.174 C 
HETATM    8  C3  UNL     1     -30.610  18.321   1.848  1.00 20.00     0.034 C 
ENDBRANCH   6   7
ENDBRANCH   4   6
ENDBRANCH   3   4
BRANCH   3   9
HETATM    9  C7  UNL     1     -33.467  16.617  -2.271  1.00 20.00     0.018 C 
BRANCH   9  10
HETATM   10  C6  UNL     1     -33.546  16.401  -3.787  1.00 20.00    -0.003 C 
HETATM   11  C2  UNL     1     -33.445  14.924  -4.139  1.00 20.00     0.005 C 
ENDBRANCH   9  10
ENDBRANCH   3   9
TORSDOF 5
ENDMDL
MODEL 5
REMARK VINA RESULT:      -3.6      1.894      2.643
REMARK  5 active torsions:
REMARK  status: ('A' for Active; 'I' for Inactive)
REMARK    1  A    between atoms: C1_1  and  C9_9 
REMARK    2  A    between atoms: C1_1  and  O11_11 
REMARK    3  A    between atoms: C6_6  and  C7_7 
REMARK    4  A    between atoms: C7_7  and  C9_9 
REMARK    5  A    between atoms: C8_8  and  O11_11 
ROOT
HETATM    1  C4  UNL     1     -41.674  13.847   4.980  1.00 20.00     0.025 C 
HETATM    2  C5  UNL     1     -40.353  14.229   7.058  1.00 20.00     0.025 C 
HETATM    3  C9  UNL     1     -41.211  13.202   6.300  1.00 20.00     0.041 C 
ENDROOT
BRANCH   3   4
HETATM    4  C1  UNL     1     -42.457  12.862   7.128  1.00 20.00     0.266 C 
HETATM    5  O10 UNL     1     -43.051  11.792   7.076  1.00 20.00    -0.264 OA
BRANCH   4   6
HETATM    6  O11 UNL     1     -42.800  13.913   7.931  1.00 20.00    -0.321 OA
BRANCH   6   7
HETATM    7  C8  UNL     1     -43.340  13.564   9.210  1.00 20.00     0.174 C 
HETATM    8  C3  UNL     1     -42.293  13.815  10.274  1.00 20.00     0.034 C 
ENDBRANCH   6   7
ENDBRANCH   4   6
ENDBRANCH   3   4
BRANCH   3   9
HETATM    9  C7  UNL     1     -40.392  11.925   5.984  1.00 20.00     0.018 C 
BRANCH   9  10
HETATM   10  C6  UNL     1     -38.997  12.181   5.401  1.00 20.00    -0.003 C 
HETATM   11  C2  UNL     1     -38.885  11.640   3.983  1.00 20.00     0.005 C 
ENDBRANCH   9  10
ENDBRANCH   3   9
TORSDOF 5
ENDMDL
MODEL 6
REMARK VINA RESULT:      -3.4     11.748     13.194
REMARK  5 active torsions:
REMARK  status: ('A' for Active; 'I' for Inactive)
REMARK    1  A    between atoms: C1_1  and  C9_9 
REMARK    2  A    between atoms: C1_1  and  O11_11 
REMARK    3  A    between atoms: C6_6  and  C7_7 
REMARK    4  A    between atoms: C7_7  and  C9_9 
REMARK    5  A    between atoms: C8_8  and  O11_11 
ROOT
HETATM    1  C4  UNL     1     -32.926  18.699  -3.665  1.00 20.00     0.025 C 
HETATM    2  C5  UNL     1     -35.321  18.071  -3.381  1.00 20.00     0.025 C 
HETATM    3  C9  UNL     1     -33.875  17.575  -3.209  1.00 20.00     0.041 C 
ENDROOT
BRANCH   3   4
HETATM    4  C1  UNL     1     -33.639  16.355  -4.110  1.00 20.00     0.266 C 
HETATM    5  O10 UNL     1     -32.852  15.451  -3.856  1.00 20.00    -0.264 OA
BRANCH   4   6
HETATM    6  O11 UNL     1     -34.431  16.419  -5.220  1.00 20.00    -0.321 OA
BRANCH   6   7
HETATM    7  C8  UNL     1     -34.581  15.195  -5.946  1.00 20.00     0.174 C 
HETATM    8  C3  UNL     1     -35.883  14.538  -5.542  1.00 20.00     0.034 C 
ENDBRANCH   6   7
ENDBRANCH   4   6
ENDBRANCH   3   4
BRANCH   3   9
HETATM    9  C7  UNL     1     -33.583  17.231  -1.725  1.00 20.00     0.018 C 
BRANCH   9  10
HETATM   10  C6  UNL     1     -32.477  18.069  -1.075  1.00 20.00    -0.003 C 
HETATM   11  C2  UNL     1     -32.869  18.504   0.330  1.00 20.00     0.005 C 
ENDBRANCH   9  10
ENDBRANCH   3   9
TORSDOF 5
ENDMDL
MODEL 7
REMARK VINA RESULT:      -3.4     12.023     12.976
REMARK  5 active torsions:
REMARK  status: ('A' for Active; 'I' for Inactive)
REMARK    1  A    between atoms: C1_1  and  C9_9 
REMARK    2  A    between atoms: C1_1  and  O11_11 
REMARK    3  A    between atoms: C6_6  and  C7_7 
REMARK    4  A    between atoms: C7_7  and  C9_9 
REMARK    5  A    between atoms: C8_8  and  O11_11 
ROOT
HETATM    1  C4  UNL     1     -34.616  14.186  -4.350  1.00 20.00     0.025 C 
HETATM    2  C5  UNL     1     -34.026  15.246  -6.527  1.00 20.00     0.025 C 
HETATM    3  C9  UNL     1     -34.727  15.480  -5.177  1.00 20.00     0.041 C 
ENDROOT
BRANCH   3   4
HETATM    4  C1  UNL     1     -36.214  15.770  -5.414  1.00 20.00     0.266 C 
HETATM    5  O10 UNL     1     -37.087  14.912  -5.465  1.00 20.00    -0.264 OA
BRANCH   4   6
HETATM    6  O11 UNL     1     -36.425  17.113  -5.552  1.00 20.00    -0.321 OA
BRANCH   6   7
HETATM    7  C8  UNL     1     -37.624  17.617  -4.954  1.00 20.00     0.174 C 
HETATM    8  C3  UNL     1     -37.262  18.413  -3.719  1.00 20.00     0.034 C 
ENDBRANCH   6   7
ENDBRANCH   4   6
ENDBRANCH   3   4
BRANCH   3   9
HETATM    9  C7  UNL     1     -34.053  16.641  -4.401  1.00 20.00     0.018 C 
BRANCH   9  10
HETATM   10  C6  UNL     1     -33.233  16.210  -3.180  1.00 20.00    -0.003 C 
HETATM   11  C2  UNL     1     -33.563  17.065  -1.965  1.00 20.00     0.005 C 
ENDBRANCH   9  10
ENDBRANCH   3   9
TORSDOF 5
ENDMDL
MODEL 8
REMARK VINA RESULT:      -3.3      9.535     10.315
REMARK  5 active torsions:
REMARK  status: ('A' for Active; 'I' for Inactive)
REMARK    1  A    between atoms: C1_1  and  C9_9 
REMARK    2  A    between atoms: C1_1  and  O11_11 
REMARK    3  A    between atoms: C6_6  and  C7_7 
REMARK    4  A    between atoms: C7_7  and  C9_9 
REMARK    5  A    between atoms: C8_8  and  O11_11 
ROOT
HETATM    1  C4  UNL     1     -35.048   5.205   6.575  1.00 20.00     0.025 C 
HETATM    2  C5  UNL     1     -35.717   6.130   4.360  1.00 20.00     0.025 C 
HETATM    3  C9  UNL     1     -34.512   5.771   5.247  1.00 20.00     0.041 C 
ENDROOT
BRANCH   3   4
HETATM    4  C1  UNL     1     -33.708   7.040   5.559  1.00 20.00     0.266 C 
HETATM    5  O10 UNL     1     -33.094   7.231   6.602  1.00 20.00    -0.264 OA
BRANCH   4   6
HETATM    6  O11 UNL     1     -33.767   7.915   4.511  1.00 20.00    -0.321 OA
BRANCH   6   7
HETATM    7  C8  UNL     1     -32.534   8.556   4.169  1.00 20.00     0.174 C 
HETATM    8  C3  UNL     1     -32.569   8.943   2.706  1.00 20.00     0.034 C 
ENDBRANCH   6   7
ENDBRANCH   4   6
ENDBRANCH   3   4
BRANCH   3   9
HETATM    9  C7  UNL     1     -33.619   4.705   4.560  1.00 20.00     0.018 C 
BRANCH   9  10
HETATM   10  C6  UNL     1     -33.759   4.633   3.036  1.00 20.00    -0.003 C 
HETATM   11  C2  UNL     1     -32.632   5.386   2.343  1.00 20.00     0.005 C 
ENDBRANCH   9  10
ENDBRANCH   3   9
TORSDOF 5
ENDMDL
MODEL 9
REMARK VINA RESULT:      -3.3      9.746     10.940
REMARK  5 active torsions:
REMARK  status: ('A' for Active; 'I' for Inactive)
REMARK    1  A    between atoms: C1_1  and  C9_9 
REMARK    2  A    between atoms: C1_1  and  O11_11 
REMARK    3  A    between atoms: C6_6  and  C7_7 
REMARK    4  A    between atoms: C7_7  and  C9_9 
REMARK    5  A    between atoms: C8_8  and  O11_11 
ROOT
HETATM    1  C4  UNL     1     -32.989   8.555   5.018  1.00 20.00     0.025 C 
HETATM    2  C5  UNL     1     -31.060   7.635   3.736  1.00 20.00     0.025 C 
HETATM    3  C9  UNL     1     -32.578   7.884   3.694  1.00 20.00     0.041 C 
ENDROOT
BRANCH   3   4
HETATM    4  C1  UNL     1     -33.316   6.543   3.588  1.00 20.00     0.266 C 
HETATM    5  O10 UNL     1     -32.935   5.596   2.911  1.00 20.00    -0.264 OA
BRANCH   4   6
HETATM    6  O11 UNL     1     -34.445   6.556   4.356  1.00 20.00    -0.321 OA
BRANCH   6   7
HETATM    7  C8  UNL     1     -34.805   5.304   4.949  1.00 20.00     0.174 C 
HETATM    8  C3  UNL     1     -34.508   5.356   6.433  1.00 20.00     0.034 C 
ENDBRANCH   6   7
ENDBRANCH   4   6
ENDBRANCH   3   4
BRANCH   3   9
HETATM    9  C7  UNL     1     -32.951   8.816   2.512  1.00 20.00     0.018 C 
BRANCH   9  10
HETATM   10  C6  UNL     1     -32.199   8.533   1.207  1.00 20.00    -0.003 C 
HETATM   11  C2  UNL     1     -32.861   9.231   0.027  1.00 20.00     0.005 C 
ENDBRANCH   9  10
ENDBRANCH   3   9
TORSDOF 5
ENDMDL
