MODEL 1
REMARK VINA RESULT:      -3.9      0.000      0.000
REMARK  3 active torsions:
REMARK  status: ('A' for Active; 'I' for Inactive)
REMARK    1  A    between atoms: C1_1  and  C6_6 
REMARK    2  A    between atoms: C1_1  and  O9_9 
REMARK    3  A    between atoms: C6_6  and  C7_7 
ROOT
HETATM    1  C2  UNL     1     -33.049   5.370   2.753  1.00 20.00     0.021 C 
HETATM    2  C6  UNL     1     -33.449   6.094   4.041  1.00 20.00     0.085 C 
ENDROOT
BRANCH   2   3
HETATM    3  C1  UNL     1     -34.847   5.654   4.453  1.00 20.00     0.262 C 
HETATM    4  O8  UNL     1     -35.884   6.102   3.982  1.00 20.00    -0.265 OA
BRANCH   3   5
HETATM    5  O9  UNL     1     -34.760   4.687   5.415  1.00 20.00    -0.326 OA
HETATM    6  C5  UNL     1     -34.345   5.137   6.707  1.00 20.00     0.213 C 
ENDBRANCH   3   5
ENDBRANCH   2   3
BRANCH   2   7
HETATM    7  C7  UNL     1     -33.315   7.630   3.922  1.00 20.00    -0.010 C 
HETATM    8  C3  UNL     1     -32.134   8.091   3.061  1.00 20.00     0.010 C 
HETATM    9  C4  UNL     1     -33.243   8.300   5.297  1.00 20.00     0.010 C 
ENDBRANCH   2   7
TORSDOF 3
ENDMDL
MODEL 2
REMARK VINA RESULT:      -3.9      1.978      3.343
REMARK  3 active torsions:
REMARK  status: ('A' for Active; 'I' for Inactive)
REMARK    1  A    between atoms: C1_1  and  C6_6 
REMARK    2  A    between atoms: C1_1  and  O9_9 
REMARK    3  A    between atoms: C6_6  and  C7_7 
ROOT
HETATM    1  C2  UNL     1     -34.833   5.174   4.544  1.00 20.00     0.021 C 
HETATM    2  C6  UNL     1     -34.041   6.428   4.164  1.00 20.00     0.085 C 
ENDROOT
BRANCH   2   3
HETATM    3  C1  UNL     1     -32.940   6.051   3.184  1.00 20.00     0.262 C 
HETATM    4  O8  UNL     1     -32.865   4.976   2.602  1.00 20.00    -0.265 OA
BRANCH   3   5
HETATM    5  O9  UNL     1     -32.064   7.090   3.054  1.00 20.00    -0.326 OA
HETATM    6  C5  UNL     1     -32.224   7.890   1.879  1.00 20.00     0.213 C 
ENDBRANCH   3   5
ENDBRANCH   2   3
BRANCH   2   7
HETATM    7  C7  UNL     1     -33.509   7.189   5.401  1.00 20.00    -0.010 C 
HETATM    8  C3  UNL     1     -34.176   6.785   6.720  1.00 20.00     0.010 C 
HETATM    9  C4  UNL     1     -33.608   8.706   5.218  1.00 20.00     0.010 C 
ENDBRANCH   2   7
TORSDOF 3
ENDMDL
MODEL 3
REMARK VINA RESULT:      -3.9      2.031      3.839
REMARK  3 active torsions:
REMARK  status: ('A' for Active; 'I' for Inactive)
REMARK    1  A    between atoms: C1_1  and  C6_6 
REMARK    2  A    between atoms: C1_1  and  O9_9 
REMARK    3  A    between atoms: C6_6  and  C7_7 
ROOT
HETATM    1  C2  UNL     1     -33.719   8.204   4.921  1.00 20.00     0.021 C 
HETATM    2  C6  UNL     1     -33.247   6.769   4.670  1.00 20.00     0.085 C 
ENDROOT
BRANCH   2   3
HETATM    3  C1  UNL     1     -32.703   6.657   3.253  1.00 20.00     0.262 C 
HETATM    4  O8  UNL     1     -32.731   5.636   2.577  1.00 20.00    -0.265 OA
BRANCH   3   5
HETATM    5  O9  UNL     1     -32.192   7.860   2.859  1.00 20.00    -0.326 OA
HETATM    6  C5  UNL     1     -32.167   8.088   1.447  1.00 20.00     0.213 C 
ENDBRANCH   3   5
ENDBRANCH   2   3
BRANCH   2   7
HETATM    7  C7  UNL     1     -34.346   5.724   4.975  1.00 20.00    -0.010 C 
HETATM    8  C3  UNL     1     -35.694   6.019   4.308  1.00 20.00     0.010 C 
HETATM    9  C4  UNL     1     -34.547   5.538   6.483  1.00 20.00     0.010 C 
ENDBRANCH   2   7
TORSDOF 3
ENDMDL
MODEL 4
REMARK VINA RESULT:      -3.8      2.373      4.235
REMARK  3 active torsions:
REMARK  status: ('A' for Active; 'I' for Inactive)
REMARK    1  A    between atoms: C1_1  and  C6_6 
REMARK    2  A    between atoms: C1_1  and  O9_9 
REMARK    3  A    between atoms: C6_6  and  C7_7 
ROOT
HETATM    1  C2  UNL     1     -32.419   8.981   5.167  1.00 20.00     0.021 C 
HETATM    2  C6  UNL     1     -32.662   7.634   4.483  1.00 20.00     0.085 C 
ENDROOT
BRANCH   2   3
HETATM    3  C1  UNL     1     -32.514   7.799   2.977  1.00 20.00     0.262 C 
HETATM    4  O8  UNL     1     -32.207   6.899   2.205  1.00 20.00    -0.265 OA
BRANCH   3   5
HETATM    5  O9  UNL     1     -32.782   9.092   2.627  1.00 20.00    -0.326 OA
HETATM    6  C5  UNL     1     -32.793   9.362   1.222  1.00 20.00     0.213 C 
ENDBRANCH   3   5
ENDBRANCH   2   3
BRANCH   2   7
HETATM    7  C7  UNL     1     -34.014   7.000   4.886  1.00 20.00    -0.010 C 
HETATM    8  C3  UNL     1     -34.218   6.872   6.400  1.00 20.00     0.010 C 
HETATM    9  C4  UNL     1     -34.220   5.636   4.221  1.00 20.00     0.010 C 
ENDBRANCH   2   7
TORSDOF 3
ENDMDL
MODEL 5
REMARK VINA RESULT:      -3.7      2.315      3.729
REMARK  3 active torsions:
REMARK  status: ('A' for Active; 'I' for Inactive)
REMARK    1  A    between atoms: C1_1  and  C6_6 
REMARK    2  A    between atoms: C1_1  and  O9_9 
REMARK    3  A    between atoms: C6_6  and  C7_7 
ROOT
HETATM    1  C2  UNL     1     -33.727   5.377   3.463  1.00 20.00     0.021 C 
HETATM    2  C6  UNL     1     -33.704   6.691   4.247  1.00 20.00     0.085 C 
ENDROOT
BRANCH   2   3
HETATM    3  C1  UNL     1     -32.524   7.534   3.784  1.00 20.00     0.262 C 
HETATM    4  O8  UNL     1     -31.983   8.402   4.457  1.00 20.00    -0.265 OA
BRANCH   3   5
HETATM    5  O9  UNL     1     -32.164   7.168   2.518  1.00 20.00    -0.326 OA
HETATM    6  C5  UNL     1     -32.175   8.217   1.545  1.00 20.00     0.213 C 
ENDBRANCH   3   5
ENDBRANCH   2   3
BRANCH   2   7
HETATM    7  C7  UNL     1     -33.717   6.467   5.777  1.00 20.00    -0.010 C 
HETATM    8  C3  UNL     1     -34.564   5.272   6.228  1.00 20.00     0.010 C 
HETATM    9  C4  UNL     1     -34.160   7.726   6.529  1.00 20.00     0.010 C 
ENDBRANCH   2   7
TORSDOF 3
ENDMDL
MODEL 6
REMARK VINA RESULT:      -3.7      2.296      3.982
REMARK  3 active torsions:
REMARK  status: ('A' for Active; 'I' for Inactive)
REMARK    1  A    between atoms: C1_1  and  C6_6 
REMARK    2  A    between atoms: C1_1  and  O9_9 
REMARK    3  A    between atoms: C6_6  and  C7_7 
ROOT
HETATM    1  C2  UNL     1     -34.156   7.364   6.303  1.00 20.00     0.021 C 
HETATM    2  C6  UNL     1     -33.349   6.726   5.170  1.00 20.00     0.085 C 
ENDROOT
BRANCH   2   3
HETATM    3  C1  UNL     1     -32.630   7.815   4.388  1.00 20.00     0.262 C 
HETATM    4  O8  UNL     1     -32.468   8.964   4.782  1.00 20.00    -0.265 OA
BRANCH   3   5
HETATM    5  O9  UNL     1     -32.193   7.314   3.195  1.00 20.00    -0.326 OA
HETATM    6  C5  UNL     1     -32.256   8.215   2.086  1.00 20.00     0.213 C 
ENDBRANCH   3   5
ENDBRANCH   2   3
BRANCH   2   7
HETATM    7  C7  UNL     1     -34.213   5.812   4.270  1.00 20.00    -0.010 C 
HETATM    8  C3  UNL     1     -35.717   6.099   4.348  1.00 20.00     0.010 C 
HETATM    9  C4  UNL     1     -33.956   4.330   4.556  1.00 20.00     0.010 C 
ENDBRANCH   2   7
TORSDOF 3
ENDMDL
MODEL 7
REMARK VINA RESULT:      -3.7      1.194      1.867
REMARK  3 active torsions:
REMARK  status: ('A' for Active; 'I' for Inactive)
REMARK    1  A    between atoms: C1_1  and  C6_6 
REMARK    2  A    between atoms: C1_1  and  O9_9 
REMARK    3  A    between atoms: C6_6  and  C7_7 
ROOT
HETATM    1  C2  UNL     1     -33.411   6.856   6.584  1.00 20.00     0.021 C 
HETATM    2  C6  UNL     1     -34.228   7.256   5.353  1.00 20.00     0.085 C 
ENDROOT
BRANCH   2   3
HETATM    3  C1  UNL     1     -34.970   6.038   4.823  1.00 20.00     0.262 C 
HETATM    4  O8  UNL     1     -35.927   6.084   4.059  1.00 20.00    -0.265 OA
BRANCH   3   5
HETATM    5  O9  UNL     1     -34.404   4.899   5.321  1.00 20.00    -0.326 OA
HETATM    6  C5  UNL     1     -33.852   4.007   4.349  1.00 20.00     0.213 C 
ENDBRANCH   3   5
ENDBRANCH   2   3
BRANCH   2   7
HETATM    7  C7  UNL     1     -33.367   7.951   4.273  1.00 20.00    -0.010 C 
HETATM    8  C3  UNL     1     -32.606   6.983   3.360  1.00 20.00     0.010 C 
HETATM    9  C4  UNL     1     -32.389   8.956   4.888  1.00 20.00     0.010 C 
ENDBRANCH   2   7
TORSDOF 3
ENDMDL
MODEL 8
REMARK VINA RESULT:      -3.7      0.976      2.119
REMARK  3 active torsions:
REMARK  status: ('A' for Active; 'I' for Inactive)
REMARK    1  A    between atoms: C1_1  and  C6_6 
REMARK    2  A    between atoms: C1_1  and  O9_9 
REMARK    3  A    between atoms: C6_6  and  C7_7 
ROOT
HETATM    1  C2  UNL     1     -32.918   8.521   5.180  1.00 20.00     0.021 C 
HETATM    2  C6  UNL     1     -33.550   7.602   4.132  1.00 20.00     0.085 C 
ENDROOT
BRANCH   2   3
HETATM    3  C1  UNL     1     -34.459   6.597   4.824  1.00 20.00     0.262 C 
HETATM    4  O8  UNL     1     -35.445   6.082   4.311  1.00 20.00    -0.265 OA
BRANCH   3   5
HETATM    5  O9  UNL     1     -34.002   6.357   6.089  1.00 20.00    -0.326 OA
HETATM    6  C5  UNL     1     -34.332   5.075   6.632  1.00 20.00     0.213 C 
ENDBRANCH   3   5
ENDBRANCH   2   3
BRANCH   2   7
HETATM    7  C7  UNL     1     -32.495   6.930   3.222  1.00 20.00    -0.010 C 
HETATM    8  C3  UNL     1     -32.117   7.755   1.987  1.00 20.00     0.010 C 
HETATM    9  C4  UNL     1     -32.932   5.527   2.790  1.00 20.00     0.010 C 
ENDBRANCH   2   7
TORSDOF 3
ENDMDL
MODEL 9
REMARK VINA RESULT:      -3.6      1.576      2.999
REMARK  3 active torsions:
REMARK  status: ('A' for Active; 'I' for Inactive)
REMARK    1  A    between atoms: C1_1  and  C6_6 
REMARK    2  A    between atoms: C1_1  and  O9_9 
REMARK    3  A    between atoms: C6_6  and  C7_7 
ROOT
HETATM    1  C2  UNL     1     -35.821   6.154   4.280  1.00 20.00     0.021 C 
HETATM    2  C6  UNL     1     -34.298   6.273   4.192  1.00 20.00     0.085 C 
ENDROOT
BRANCH   2   3
HETATM    3  C1  UNL     1     -33.706   4.917   3.833  1.00 20.00     0.262 C 
HETATM    4  O8  UNL     1     -33.952   3.873   4.424  1.00 20.00    -0.265 OA
BRANCH   3   5
HETATM    5  O9  UNL     1     -32.873   5.047   2.758  1.00 20.00    -0.326 OA
HETATM    6  C5  UNL     1     -32.451   6.382   2.462  1.00 20.00     0.213 C 
ENDBRANCH   3   5
ENDBRANCH   2   3
BRANCH   2   7
HETATM    7  C7  UNL     1     -33.676   6.879   5.472  1.00 20.00    -0.010 C 
HETATM    8  C3  UNL     1     -34.458   6.571   6.753  1.00 20.00     0.010 C 
HETATM    9  C4  UNL     1     -33.475   8.392   5.342  1.00 20.00     0.010 C 
ENDBRANCH   2   7
TORSDOF 3
ENDMDL
