MODEL 1
REMARK VINA RESULT:      -4.1      0.000      0.000
REMARK  2 active torsions:
REMARK  status: ('A' for Active; 'I' for Inactive)
REMARK    1  A    between atoms: C1_1  and  C3_3 
REMARK    2  A    between atoms: C2_2  and  C9_9 
ROOT
HETATM    1  C1  UNL     1     -33.369  16.125  -3.261  1.00 20.00    -0.071 C 
HETATM    2  C2  UNL     1     -33.510  17.049  -2.506  1.00 20.00    -0.095 C 
ENDROOT
BRANCH   1   3
HETATM    3  C3  UNL     1     -33.198  15.001  -4.179  1.00 20.00     0.229 A 
HETATM    4  C4  UNL     1     -34.201  14.743  -5.253  1.00 20.00     0.160 A 
HETATM    5  C5  UNL     1     -35.407  15.580  -5.497  1.00 20.00     0.043 C 
HETATM    6  O10 UNL     1     -34.219  14.022  -4.017  1.00 20.00    -0.363 OA
ENDBRANCH   1   3
BRANCH   2   7
HETATM    7  C9  UNL     1     -33.683  18.189  -1.577  1.00 20.00     0.013 C 
HETATM    8  C6  UNL     1     -34.989  18.925  -1.911  1.00 20.00     0.028 C 
HETATM    9  C7  UNL     1     -32.498  19.153  -1.728  1.00 20.00     0.028 C 
HETATM   10  C8  UNL     1     -33.740  17.667  -0.135  1.00 20.00     0.028 C 
ENDBRANCH   2   7
TORSDOF 2
ENDMDL
MODEL 2
REMARK VINA RESULT:      -4.1      0.014      1.374
REMARK  2 active torsions:
REMARK  status: ('A' for Active; 'I' for Inactive)
REMARK    1  A    between atoms: C1_1  and  C3_3 
REMARK    2  A    between atoms: C2_2  and  C9_9 
ROOT
HETATM    1  C1  UNL     1     -33.364  16.114  -3.255  1.00 20.00    -0.071 C 
HETATM    2  C2  UNL     1     -33.504  17.041  -2.503  1.00 20.00    -0.095 C 
ENDROOT
BRANCH   1   3
HETATM    3  C3  UNL     1     -33.194  14.987  -4.171  1.00 20.00     0.229 A 
HETATM    4  C4  UNL     1     -34.188  14.737  -5.254  1.00 20.00     0.160 A 
HETATM    5  C5  UNL     1     -35.383  15.585  -5.512  1.00 20.00     0.043 C 
HETATM    6  O10 UNL     1     -34.226  14.018  -4.018  1.00 20.00    -0.363 OA
ENDBRANCH   1   3
BRANCH   2   7
HETATM    7  C9  UNL     1     -33.679  18.182  -1.576  1.00 20.00     0.013 C 
HETATM    8  C6  UNL     1     -33.737  17.662  -0.133  1.00 20.00     0.028 C 
HETATM    9  C7  UNL     1     -34.986  18.913  -1.911  1.00 20.00     0.028 C 
HETATM   10  C8  UNL     1     -32.496  19.147  -1.729  1.00 20.00     0.028 C 
ENDBRANCH   2   7
TORSDOF 2
ENDMDL
MODEL 3
REMARK VINA RESULT:      -3.3      1.675      2.270
REMARK  2 active torsions:
REMARK  status: ('A' for Active; 'I' for Inactive)
REMARK    1  A    between atoms: C1_1  and  C3_3 
REMARK    2  A    between atoms: C2_2  and  C9_9 
ROOT
HETATM    1  C1  UNL     1     -34.515  16.796  -5.154  1.00 20.00    -0.071 C 
HETATM    2  C2  UNL     1     -34.265  17.350  -4.118  1.00 20.00    -0.095 C 
ENDROOT
BRANCH   1   3
HETATM    3  C3  UNL     1     -34.819  16.122  -6.415  1.00 20.00     0.229 A 
HETATM    4  C4  UNL     1     -35.560  14.828  -6.421  1.00 20.00     0.160 A 
HETATM    5  C5  UNL     1     -36.061  14.139  -5.201  1.00 20.00     0.043 C 
HETATM    6  O10 UNL     1     -34.135  14.879  -6.531  1.00 20.00    -0.363 OA
ENDBRANCH   1   3
BRANCH   2   7
HETATM    7  C9  UNL     1     -33.958  18.034  -2.842  1.00 20.00     0.013 C 
HETATM    8  C6  UNL     1     -32.869  19.091  -3.079  1.00 20.00     0.028 C 
HETATM    9  C7  UNL     1     -33.458  17.003  -1.820  1.00 20.00     0.028 C 
HETATM   10  C8  UNL     1     -35.226  18.713  -2.308  1.00 20.00     0.028 C 
ENDBRANCH   2   7
TORSDOF 2
ENDMDL
MODEL 4
REMARK VINA RESULT:      -3.3      1.705      1.997
REMARK  2 active torsions:
REMARK  status: ('A' for Active; 'I' for Inactive)
REMARK    1  A    between atoms: C1_1  and  C3_3 
REMARK    2  A    between atoms: C2_2  and  C9_9 
ROOT
HETATM    1  C1  UNL     1     -34.581  16.788  -5.189  1.00 20.00    -0.071 C 
HETATM    2  C2  UNL     1     -34.302  17.342  -4.160  1.00 20.00    -0.095 C 
ENDROOT
BRANCH   1   3
HETATM    3  C3  UNL     1     -34.921  16.114  -6.441  1.00 20.00     0.229 A 
HETATM    4  C4  UNL     1     -35.628  14.800  -6.423  1.00 20.00     0.160 A 
HETATM    5  C5  UNL     1     -36.058  14.092  -5.187  1.00 20.00     0.043 C 
HETATM    6  O10 UNL     1     -34.210  14.889  -6.594  1.00 20.00    -0.363 OA
ENDBRANCH   1   3
BRANCH   2   7
HETATM    7  C9  UNL     1     -33.958  18.024  -2.892  1.00 20.00     0.013 C 
HETATM    8  C6  UNL     1     -35.215  18.693  -2.316  1.00 20.00     0.028 C 
HETATM    9  C7  UNL     1     -32.888  19.090  -3.162  1.00 20.00     0.028 C 
HETATM   10  C8  UNL     1     -33.418  16.995  -1.890  1.00 20.00     0.028 C 
ENDBRANCH   2   7
TORSDOF 2
ENDMDL
MODEL 5
REMARK VINA RESULT:      -3.2     12.420     14.382
REMARK  2 active torsions:
REMARK  status: ('A' for Active; 'I' for Inactive)
REMARK    1  A    between atoms: C1_1  and  C3_3 
REMARK    2  A    between atoms: C2_2  and  C9_9 
ROOT
HETATM    1  C1  UNL     1     -40.514  14.575   8.413  1.00 20.00    -0.071 C 
HETATM    2  C2  UNL     1     -40.906  13.889   7.507  1.00 20.00    -0.095 C 
ENDROOT
BRANCH   1   3
HETATM    3  C3  UNL     1     -40.039  15.410   9.515  1.00 20.00     0.229 A 
HETATM    4  C4  UNL     1     -40.416  15.090  10.922  1.00 20.00     0.160 A 
HETATM    5  C5  UNL     1     -41.256  13.930  11.325  1.00 20.00     0.043 C 
HETATM    6  O10 UNL     1     -41.108  16.089  10.166  1.00 20.00    -0.363 OA
ENDBRANCH   1   3
BRANCH   2   7
HETATM    7  C9  UNL     1     -41.389  13.043   6.393  1.00 20.00     0.013 C 
HETATM    8  C6  UNL     1     -41.767  13.936   5.202  1.00 20.00     0.028 C 
HETATM    9  C7  UNL     1     -42.621  12.252   6.852  1.00 20.00     0.028 C 
HETATM   10  C8  UNL     1     -40.280  12.070   5.974  1.00 20.00     0.028 C 
ENDBRANCH   2   7
TORSDOF 2
ENDMDL
MODEL 6
REMARK VINA RESULT:      -3.1      1.820      4.788
REMARK  2 active torsions:
REMARK  status: ('A' for Active; 'I' for Inactive)
REMARK    1  A    between atoms: C1_1  and  C3_3 
REMARK    2  A    between atoms: C2_2  and  C9_9 
ROOT
HETATM    1  C1  UNL     1     -33.715  16.516  -3.328  1.00 20.00    -0.071 C 
HETATM    2  C2  UNL     1     -34.284  16.036  -4.272  1.00 20.00    -0.095 C 
ENDROOT
BRANCH   1   3
HETATM    3  C3  UNL     1     -33.024  17.099  -2.180  1.00 20.00     0.229 A 
HETATM    4  C4  UNL     1     -33.633  18.235  -1.428  1.00 20.00     0.160 A 
HETATM    5  C5  UNL     1     -34.954  18.842  -1.745  1.00 20.00     0.043 C 
HETATM    6  O10 UNL     1     -32.628  18.445  -2.425  1.00 20.00    -0.363 OA
ENDBRANCH   1   3
BRANCH   2   7
HETATM    7  C9  UNL     1     -34.982  15.446  -5.436  1.00 20.00     0.013 C 
HETATM    8  C6  UNL     1     -35.670  14.141  -5.009  1.00 20.00     0.028 C 
HETATM    9  C7  UNL     1     -33.963  15.150  -6.544  1.00 20.00     0.028 C 
HETATM   10  C8  UNL     1     -36.033  16.436  -5.955  1.00 20.00     0.028 C 
ENDBRANCH   2   7
TORSDOF 2
ENDMDL
MODEL 7
REMARK VINA RESULT:      -3.1     11.113     12.531
REMARK  2 active torsions:
REMARK  status: ('A' for Active; 'I' for Inactive)
REMARK    1  A    between atoms: C1_1  and  C3_3 
REMARK    2  A    between atoms: C2_2  and  C9_9 
ROOT
HETATM    1  C1  UNL     1     -41.060  13.552   6.668  1.00 20.00    -0.071 C 
HETATM    2  C2  UNL     1     -41.048  14.462   7.453  1.00 20.00    -0.095 C 
ENDROOT
BRANCH   1   3
HETATM    3  C3  UNL     1     -41.075  12.446   5.713  1.00 20.00     0.229 A 
HETATM    4  C4  UNL     1     -39.799  11.807   5.277  1.00 20.00     0.160 A 
HETATM    5  C5  UNL     1     -38.450  12.200   5.766  1.00 20.00     0.043 C 
HETATM    6  O10 UNL     1     -40.455  12.799   4.481  1.00 20.00    -0.363 OA
ENDBRANCH   1   3
BRANCH   2   7
HETATM    7  C9  UNL     1     -41.033  15.581   8.422  1.00 20.00     0.013 C 
HETATM    8  C6  UNL     1     -40.069  15.249   9.570  1.00 20.00     0.028 C 
HETATM    9  C7  UNL     1     -42.447  15.787   8.982  1.00 20.00     0.028 C 
HETATM   10  C8  UNL     1     -40.569  16.861   7.714  1.00 20.00     0.028 C 
ENDBRANCH   2   7
TORSDOF 2
ENDMDL
MODEL 8
REMARK VINA RESULT:      -3.1     24.059     24.981
REMARK  2 active torsions:
REMARK  status: ('A' for Active; 'I' for Inactive)
REMARK    1  A    between atoms: C1_1  and  C3_3 
REMARK    2  A    between atoms: C2_2  and  C9_9 
ROOT
HETATM    1  C1  UNL     1     -24.997  -2.533  10.830  1.00 20.00    -0.071 C 
HETATM    2  C2  UNL     1     -26.157  -2.217  10.800  1.00 20.00    -0.095 C 
ENDROOT
BRANCH   1   3
HETATM    3  C3  UNL     1     -23.588  -2.917  10.866  1.00 20.00     0.229 A 
HETATM    4  C4  UNL     1     -22.857  -3.229   9.604  1.00 20.00     0.160 A 
HETATM    5  C5  UNL     1     -23.458  -3.160   8.244  1.00 20.00     0.043 C 
HETATM    6  O10 UNL     1     -23.393  -4.261  10.438  1.00 20.00    -0.363 OA
ENDBRANCH   1   3
BRANCH   2   7
HETATM    7  C9  UNL     1     -27.584  -1.828  10.765  1.00 20.00     0.013 C 
HETATM    8  C6  UNL     1     -27.712  -0.410  10.190  1.00 20.00     0.028 C 
HETATM    9  C7  UNL     1     -28.154  -1.856  12.190  1.00 20.00     0.028 C 
HETATM   10  C8  UNL     1     -28.360  -2.813   9.882  1.00 20.00     0.028 C 
ENDBRANCH   2   7
TORSDOF 2
ENDMDL
MODEL 9
REMARK VINA RESULT:      -3.0     24.299     25.252
REMARK  2 active torsions:
REMARK  status: ('A' for Active; 'I' for Inactive)
REMARK    1  A    between atoms: C1_1  and  C3_3 
REMARK    2  A    between atoms: C2_2  and  C9_9 
ROOT
HETATM    1  C1  UNL     1     -25.159  -2.955   9.928  1.00 20.00    -0.071 C 
HETATM    2  C2  UNL     1     -26.236  -2.542  10.266  1.00 20.00    -0.095 C 
ENDROOT
BRANCH   1   3
HETATM    3  C3  UNL     1     -23.850  -3.458   9.516  1.00 20.00     0.229 A 
HETATM    4  C4  UNL     1     -22.833  -3.843  10.537  1.00 20.00     0.160 A 
HETATM    5  C5  UNL     1     -23.051  -3.779  12.008  1.00 20.00     0.043 C 
HETATM    6  O10 UNL     1     -22.800  -2.570   9.886  1.00 20.00    -0.363 OA
ENDBRANCH   1   3
BRANCH   2   7
HETATM    7  C9  UNL     1     -27.563  -2.034  10.681  1.00 20.00     0.013 C 
HETATM    8  C6  UNL     1     -27.701  -0.564  10.257  1.00 20.00     0.028 C 
HETATM    9  C7  UNL     1     -27.694  -2.142  12.207  1.00 20.00     0.028 C 
HETATM   10  C8  UNL     1     -28.662  -2.868  10.010  1.00 20.00     0.028 C 
ENDBRANCH   2   7
TORSDOF 2
ENDMDL
