MODEL 1
REMARK VINA RESULT:      -5.0      0.000      0.000
REMARK  0 active torsions:
REMARK  status: ('A' for Active; 'I' for Inactive)
ROOT
HETATM    1  C1  UNL     1     -33.115   8.609   4.785  1.00 20.00     0.014 A 
HETATM    2  C2  UNL     1     -32.538   8.885   3.545  1.00 20.00     0.024 A 
HETATM    3  C3  UNL     1     -34.158   7.007   6.322  1.00 20.00     0.031 A 
HETATM    4  C4  UNL     1     -32.861   6.588   2.876  1.00 20.00     0.039 A 
HETATM    5  C5  UNL     1     -34.587   5.708   6.545  1.00 20.00     0.119 A 
HETATM    6  C6  UNL     1     -33.574   7.316   5.088  1.00 20.00    -0.021 A 
HETATM    7  C7  UNL     1     -33.444   6.299   4.121  1.00 20.00     0.016 A 
HETATM    8  C8  UNL     1     -32.411   7.877   2.593  1.00 20.00     0.035 A 
HETATM    9  C9  UNL     1     -33.912   5.027   4.457  1.00 20.00     0.136 A 
HETATM   10  N10 UNL     1     -34.478   4.709   5.644  1.00 20.00    -0.248 NA
HETATM   11 CL11 UNL     1     -31.699   8.224   1.065  1.00 20.00    -0.084 Cl
HETATM   12 CL12 UNL     1     -33.836   3.663   3.400  1.00 20.00    -0.061 Cl
ENDROOT
TORSDOF 0
ENDMDL
MODEL 2
REMARK VINA RESULT:      -5.0     16.131     17.009
REMARK  0 active torsions:
REMARK  status: ('A' for Active; 'I' for Inactive)
ROOT
HETATM    1  C1  UNL     1     -22.673  18.279  11.664  1.00 20.00     0.014 A 
HETATM    2  C2  UNL     1     -23.900  18.489  12.296  1.00 20.00     0.024 A 
HETATM    3  C3  UNL     1     -21.342  18.199   9.605  1.00 20.00     0.031 A 
HETATM    4  C4  UNL     1     -24.928  18.951  10.161  1.00 20.00     0.039 A 
HETATM    5  C5  UNL     1     -21.309  18.340   8.227  1.00 20.00     0.119 A 
HETATM    6  C6  UNL     1     -22.558  18.403  10.269  1.00 20.00    -0.021 A 
HETATM    7  C7  UNL     1     -23.698  18.743   9.514  1.00 20.00     0.016 A 
HETATM    8  C8  UNL     1     -25.024  18.824  11.547  1.00 20.00     0.035 A 
HETATM    9  C9  UNL     1     -23.545  18.856   8.131  1.00 20.00     0.136 A 
HETATM   10  N10 UNL     1     -22.380  18.664   7.472  1.00 20.00    -0.248 NA
HETATM   11 CL11 UNL     1     -26.534  19.080  12.332  1.00 20.00    -0.084 Cl
HETATM   12 CL12 UNL     1     -24.830  19.263   7.051  1.00 20.00    -0.061 Cl
ENDROOT
TORSDOF 0
ENDMDL
MODEL 3
REMARK VINA RESULT:      -4.7      1.906      2.740
REMARK  0 active torsions:
REMARK  status: ('A' for Active; 'I' for Inactive)
ROOT
HETATM    1  C1  UNL     1     -33.320   5.088   2.919  1.00 20.00     0.014 A 
HETATM    2  C2  UNL     1     -32.708   5.904   1.966  1.00 20.00     0.024 A 
HETATM    3  C3  UNL     1     -34.330   4.821   5.138  1.00 20.00     0.031 A 
HETATM    4  C4  UNL     1     -32.867   7.788   3.467  1.00 20.00     0.039 A 
HETATM    5  C5  UNL     1     -34.689   5.413   6.339  1.00 20.00     0.119 A 
HETATM    6  C6  UNL     1     -33.714   5.613   4.161  1.00 20.00    -0.021 A 
HETATM    7  C7  UNL     1     -33.484   6.977   4.434  1.00 20.00     0.016 A 
HETATM    8  C8  UNL     1     -32.482   7.250   2.239  1.00 20.00     0.035 A 
HETATM    9  C9  UNL     1     -33.888   7.462   5.679  1.00 20.00     0.136 A 
HETATM   10  N10 UNL     1     -34.485   6.714   6.635  1.00 20.00    -0.248 NA
HETATM   11 CL11 UNL     1     -31.726   8.250   1.060  1.00 20.00    -0.084 Cl
HETATM   12 CL12 UNL     1     -33.686   9.101   6.184  1.00 20.00    -0.061 Cl
ENDROOT
TORSDOF 0
ENDMDL
MODEL 4
REMARK VINA RESULT:      -4.2     12.762     13.944
REMARK  0 active torsions:
REMARK  status: ('A' for Active; 'I' for Inactive)
ROOT
HETATM    1  C1  UNL     1     -33.292  16.013  -3.043  1.00 20.00     0.014 A 
HETATM    2  C2  UNL     1     -33.527  17.006  -2.091  1.00 20.00     0.024 A 
HETATM    3  C3  UNL     1     -33.732  15.065  -5.262  1.00 20.00     0.031 A 
HETATM    4  C4  UNL     1     -35.074  18.091  -3.595  1.00 20.00     0.039 A 
HETATM    5  C5  UNL     1     -34.416  15.167  -6.463  1.00 20.00     0.119 A 
HETATM    6  C6  UNL     1     -33.946  16.046  -4.286  1.00 20.00    -0.021 A 
HETATM    7  C7  UNL     1     -34.845  17.097  -4.560  1.00 20.00     0.016 A 
HETATM    8  C8  UNL     1     -34.415  18.042  -2.366  1.00 20.00     0.035 A 
HETATM    9  C9  UNL     1     -35.476  17.096  -5.806  1.00 20.00     0.136 A 
HETATM   10  N10 UNL     1     -35.283  16.158  -6.761  1.00 20.00    -0.248 NA
HETATM   11 CL11 UNL     1     -34.702  19.263  -1.187  1.00 20.00    -0.084 Cl
HETATM   12 CL12 UNL     1     -36.605  18.301  -6.313  1.00 20.00    -0.061 Cl
ENDROOT
TORSDOF 0
ENDMDL
MODEL 5
REMARK VINA RESULT:      -4.1     12.626     13.588
REMARK  0 active torsions:
REMARK  status: ('A' for Active; 'I' for Inactive)
ROOT
HETATM    1  C1  UNL     1     -33.289  15.128  -4.221  1.00 20.00     0.014 A 
HETATM    2  C2  UNL     1     -33.785  14.785  -5.480  1.00 20.00     0.024 A 
HETATM    3  C3  UNL     1     -33.292  16.638  -2.288  1.00 20.00     0.031 A 
HETATM    4  C4  UNL     1     -35.251  16.702  -5.434  1.00 20.00     0.039 A 
HETATM    5  C5  UNL     1     -33.815  17.775  -1.692  1.00 20.00     0.119 A 
HETATM    6  C6  UNL     1     -33.769  16.266  -3.551  1.00 20.00    -0.021 A 
HETATM    7  C7  UNL     1     -34.759  17.058  -4.167  1.00 20.00     0.016 A 
HETATM    8  C8  UNL     1     -34.764  15.569  -6.085  1.00 20.00     0.035 A 
HETATM    9  C9  UNL     1     -35.211  18.181  -3.471  1.00 20.00     0.136 A 
HETATM   10  N10 UNL     1     -34.764  18.556  -2.251  1.00 20.00    -0.248 NA
HETATM   11 CL11 UNL     1     -35.370  15.140  -7.637  1.00 20.00    -0.084 Cl
HETATM   12 CL12 UNL     1     -36.417  19.263  -4.069  1.00 20.00    -0.061 Cl
ENDROOT
TORSDOF 0
ENDMDL
MODEL 6
REMARK VINA RESULT:      -4.0     12.365     13.422
REMARK  0 active torsions:
REMARK  status: ('A' for Active; 'I' for Inactive)
ROOT
HETATM    1  C1  UNL     1     -35.314  18.899  -2.721  1.00 20.00     0.014 A 
HETATM    2  C2  UNL     1     -34.603  18.970  -1.522  1.00 20.00     0.024 A 
HETATM    3  C3  UNL     1     -35.720  17.799  -4.875  1.00 20.00     0.031 A 
HETATM    4  C4  UNL     1     -33.301  17.044  -2.172  1.00 20.00     0.039 A 
HETATM    5  C5  UNL     1     -35.378  16.783  -5.753  1.00 20.00     0.119 A 
HETATM    6  C6  UNL     1     -35.026  17.897  -3.663  1.00 20.00    -0.021 A 
HETATM    7  C7  UNL     1     -34.009  16.963  -3.382  1.00 20.00     0.016 A 
HETATM    8  C8  UNL     1     -33.600  18.045  -1.247  1.00 20.00     0.035 A 
HETATM    9  C9  UNL     1     -33.752  15.982  -4.342  1.00 20.00     0.136 A 
HETATM   10  N10 UNL     1     -34.411  15.871  -5.518  1.00 20.00    -0.248 NA
HETATM   11 CL11 UNL     1     -32.727  18.138   0.233  1.00 20.00    -0.084 Cl
HETATM   12 CL12 UNL     1     -32.545  14.759  -4.168  1.00 20.00    -0.061 Cl
ENDROOT
TORSDOF 0
ENDMDL
MODEL 7
REMARK VINA RESULT:      -3.9      2.043      3.887
REMARK  0 active torsions:
REMARK  status: ('A' for Active; 'I' for Inactive)
ROOT
HETATM    1  C1  UNL     1     -33.600   8.311   5.656  1.00 20.00     0.014 A 
HETATM    2  C2  UNL     1     -34.222   7.362   6.469  1.00 20.00     0.024 A 
HETATM    3  C3  UNL     1     -32.489   8.884   3.546  1.00 20.00     0.031 A 
HETATM    4  C4  UNL     1     -33.897   5.681   4.766  1.00 20.00     0.039 A 
HETATM    5  C5  UNL     1     -32.039   8.457   2.306  1.00 20.00     0.119 A 
HETATM    6  C6  UNL     1     -33.117   7.956   4.385  1.00 20.00    -0.021 A 
HETATM    7  C7  UNL     1     -33.269   6.627   3.940  1.00 20.00     0.016 A 
HETATM    8  C8  UNL     1     -34.371   6.050   6.025  1.00 20.00     0.035 A 
HETATM    9  C9  UNL     1     -32.777   6.313   2.672  1.00 20.00     0.136 A 
HETATM   10  N10 UNL     1     -32.168   7.194   1.847  1.00 20.00    -0.248 NA
HETATM   11 CL11 UNL     1     -35.138   4.885   7.033  1.00 20.00    -0.084 Cl
HETATM   12 CL12 UNL     1     -32.875   4.739   1.965  1.00 20.00    -0.061 Cl
ENDROOT
TORSDOF 0
ENDMDL
MODEL 8
REMARK VINA RESULT:      -3.9     12.553     13.886
REMARK  0 active torsions:
REMARK  status: ('A' for Active; 'I' for Inactive)
ROOT
HETATM    1  C1  UNL     1     -34.148  18.228  -5.649  1.00 20.00     0.014 A 
HETATM    2  C2  UNL     1     -33.579  18.358  -4.381  1.00 20.00     0.024 A 
HETATM    3  C3  UNL     1     -35.360  16.871  -7.293  1.00 20.00     0.031 A 
HETATM    4  C4  UNL     1     -34.258  16.106  -3.838  1.00 20.00     0.039 A 
HETATM    5  C5  UNL     1     -35.965  15.661  -7.593  1.00 20.00     0.119 A 
HETATM    6  C6  UNL     1     -34.780  17.033  -6.029  1.00 20.00    -0.021 A 
HETATM    7  C7  UNL     1     -34.834  15.964  -5.112  1.00 20.00     0.016 A 
HETATM    8  C8  UNL     1     -33.634  17.300  -3.478  1.00 20.00     0.035 A 
HETATM    9  C9  UNL     1     -35.470  14.792  -5.526  1.00 20.00     0.136 A 
HETATM   10  N10 UNL     1     -36.036  14.616  -6.741  1.00 20.00    -0.248 NA
HETATM   11 CL11 UNL     1     -32.930  17.466  -1.916  1.00 20.00    -0.084 Cl
HETATM   12 CL12 UNL     1     -35.629  13.384  -4.537  1.00 20.00    -0.061 Cl
ENDROOT
TORSDOF 0
ENDMDL
MODEL 9
REMARK VINA RESULT:      -3.8     11.095     11.705
REMARK  0 active torsions:
REMARK  status: ('A' for Active; 'I' for Inactive)
ROOT
HETATM    1  C1  UNL     1     -42.469  16.390   6.325  1.00 20.00     0.014 A 
HETATM    2  C2  UNL     1     -42.989  16.253   5.037  1.00 20.00     0.024 A 
HETATM    3  C3  UNL     1     -41.121  15.492   8.167  1.00 20.00     0.031 A 
HETATM    4  C4  UNL     1     -41.904  14.107   4.820  1.00 20.00     0.039 A 
HETATM    5  C5  UNL     1     -40.330  14.457   8.642  1.00 20.00     0.119 A 
HETATM    6  C6  UNL     1     -41.658  15.385   6.878  1.00 20.00    -0.021 A 
HETATM    7  C7  UNL     1     -41.375  14.234   6.115  1.00 20.00     0.016 A 
HETATM    8  C8  UNL     1     -42.707  15.115   4.286  1.00 20.00     0.035 A 
HETATM    9  C9  UNL     1     -40.567  13.257   6.698  1.00 20.00     0.136 A 
HETATM   10  N10 UNL     1     -40.038  13.342   7.940  1.00 20.00    -0.248 NA
HETATM   11 CL11 UNL     1     -43.353  14.952   2.699  1.00 20.00    -0.084 Cl
HETATM   12 CL12 UNL     1     -40.118  11.785   5.912  1.00 20.00    -0.061 Cl
ENDROOT
TORSDOF 0
ENDMDL
