MODEL 1
REMARK VINA RESULT:      -6.0      0.000      0.000
REMARK  1 active torsions:
REMARK  status: ('A' for Active; 'I' for Inactive)
REMARK    1  A    between atoms: C2_2  and  C4_4 
ROOT
HETATM    1  C1  UNL     1     -32.470   8.405   4.577  1.00 20.00     0.236 A 
HETATM    2  C2  UNL     1     -33.717   6.640   4.513  1.00 20.00     0.199 A 
HETATM    3  C3  UNL     1     -32.862   6.615   3.430  1.00 20.00     0.245 A 
HETATM    4  N5  UNL     1     -33.465   7.761   5.223  1.00 20.00    -0.233 NA
HETATM    5  N6  UNL     1     -32.088   7.720   3.479  1.00 20.00    -0.212 NA
HETATM    6  F7  UNL     1     -32.805   5.668   2.494  1.00 20.00    -0.182 F 
ENDROOT
BRANCH   2   7
HETATM    7  C4  UNL     1     -34.754   5.689   4.931  1.00 20.00     0.439 C 
HETATM    8  F8  UNL     1     -34.496   4.379   4.600  1.00 20.00    -0.164 F 
HETATM    9  F9  UNL     1     -34.980   5.652   6.287  1.00 20.00    -0.164 F 
HETATM   10  F10 UNL     1     -35.988   5.946   4.384  1.00 20.00    -0.164 F 
ENDBRANCH   2   7
TORSDOF 1
ENDMDL
MODEL 2
REMARK VINA RESULT:      -6.0      0.045      1.190
REMARK  1 active torsions:
REMARK  status: ('A' for Active; 'I' for Inactive)
REMARK    1  A    between atoms: C2_2  and  C4_4 
ROOT
HETATM    1  C1  UNL     1     -32.434   8.420   4.568  1.00 20.00     0.236 A 
HETATM    2  C2  UNL     1     -33.689   6.661   4.495  1.00 20.00     0.199 A 
HETATM    3  C3  UNL     1     -32.819   6.627   3.424  1.00 20.00     0.245 A 
HETATM    4  N5  UNL     1     -33.441   7.784   5.203  1.00 20.00    -0.233 NA
HETATM    5  N6  UNL     1     -32.040   7.729   3.479  1.00 20.00    -0.212 NA
HETATM    6  F7  UNL     1     -32.753   5.676   2.493  1.00 20.00    -0.182 F 
ENDROOT
BRANCH   2   7
HETATM    7  C4  UNL     1     -34.736   5.717   4.902  1.00 20.00     0.439 C 
HETATM    8  F8  UNL     1     -35.974   5.967   4.357  1.00 20.00    -0.164 F 
HETATM    9  F9  UNL     1     -34.483   4.406   4.571  1.00 20.00    -0.164 F 
HETATM   10  F10 UNL     1     -34.956   5.693   6.258  1.00 20.00    -0.164 F 
ENDBRANCH   2   7
TORSDOF 1
ENDMDL
MODEL 3
REMARK VINA RESULT:      -6.0      0.086      1.205
REMARK  1 active torsions:
REMARK  status: ('A' for Active; 'I' for Inactive)
REMARK    1  A    between atoms: C2_2  and  C4_4 
ROOT
HETATM    1  C1  UNL     1     -32.459   8.417   4.459  1.00 20.00     0.236 A 
HETATM    2  C2  UNL     1     -33.710   6.653   4.474  1.00 20.00     0.199 A 
HETATM    3  C3  UNL     1     -32.833   6.562   3.413  1.00 20.00     0.245 A 
HETATM    4  N5  UNL     1     -33.470   7.815   5.121  1.00 20.00    -0.233 NA
HETATM    5  N6  UNL     1     -32.056   7.667   3.412  1.00 20.00    -0.212 NA
HETATM    6  F7  UNL     1     -32.760   5.561   2.536  1.00 20.00    -0.182 F 
ENDROOT
BRANCH   2   7
HETATM    7  C4  UNL     1     -34.759   5.731   4.927  1.00 20.00     0.439 C 
HETATM    8  F8  UNL     1     -34.996   5.756   6.281  1.00 20.00    -0.164 F 
HETATM    9  F9  UNL     1     -35.995   5.955   4.367  1.00 20.00    -0.164 F 
HETATM   10  F10 UNL     1     -34.489   4.413   4.648  1.00 20.00    -0.164 F 
ENDBRANCH   2   7
TORSDOF 1
ENDMDL
MODEL 4
REMARK VINA RESULT:      -5.9      1.251      1.898
REMARK  1 active torsions:
REMARK  status: ('A' for Active; 'I' for Inactive)
REMARK    1  A    between atoms: C2_2  and  C4_4 
ROOT
HETATM    1  C1  UNL     1     -32.165   7.592   3.359  1.00 20.00     0.236 A 
HETATM    2  C2  UNL     1     -33.780   6.707   4.491  1.00 20.00     0.199 A 
HETATM    3  C3  UNL     1     -33.498   7.948   5.025  1.00 20.00     0.245 A 
HETATM    4  N5  UNL     1     -32.943   6.493   3.453  1.00 20.00    -0.233 NA
HETATM    5  N6  UNL     1     -32.488   8.493   4.311  1.00 20.00    -0.212 NA
HETATM    6  F7  UNL     1     -34.109   8.518   6.062  1.00 20.00    -0.182 F 
ENDROOT
BRANCH   2   7
HETATM    7  C4  UNL     1     -34.779   5.706   4.885  1.00 20.00     0.439 C 
HETATM    8  F8  UNL     1     -34.459   4.414   4.539  1.00 20.00    -0.164 F 
HETATM    9  F9  UNL     1     -35.017   5.640   6.238  1.00 20.00    -0.164 F 
HETATM   10  F10 UNL     1     -36.017   5.916   4.328  1.00 20.00    -0.164 F 
ENDBRANCH   2   7
TORSDOF 1
ENDMDL
MODEL 5
REMARK VINA RESULT:      -5.9      1.253      2.243
REMARK  1 active torsions:
REMARK  status: ('A' for Active; 'I' for Inactive)
REMARK    1  A    between atoms: C2_2  and  C4_4 
ROOT
HETATM    1  C1  UNL     1     -32.159   7.596   3.368  1.00 20.00     0.236 A 
HETATM    2  C2  UNL     1     -33.781   6.713   4.492  1.00 20.00     0.199 A 
HETATM    3  C3  UNL     1     -33.499   7.954   5.027  1.00 20.00     0.245 A 
HETATM    4  N5  UNL     1     -32.940   6.498   3.457  1.00 20.00    -0.233 NA
HETATM    5  N6  UNL     1     -32.485   8.497   4.318  1.00 20.00    -0.212 NA
HETATM    6  F7  UNL     1     -34.114   8.524   6.062  1.00 20.00    -0.182 F 
ENDROOT
BRANCH   2   7
HETATM    7  C4  UNL     1     -34.783   5.713   4.881  1.00 20.00     0.439 C 
HETATM    8  F8  UNL     1     -35.027   5.645   6.233  1.00 20.00    -0.164 F 
HETATM    9  F9  UNL     1     -36.026   5.906   4.326  1.00 20.00    -0.164 F 
HETATM   10  F10 UNL     1     -34.444   4.430   4.527  1.00 20.00    -0.164 F 
ENDBRANCH   2   7
TORSDOF 1
ENDMDL
MODEL 6
REMARK VINA RESULT:      -5.5      2.245      3.311
REMARK  1 active torsions:
REMARK  status: ('A' for Active; 'I' for Inactive)
REMARK    1  A    between atoms: C2_2  and  C4_4 
ROOT
HETATM    1  C1  UNL     1     -34.777   5.636   6.117  1.00 20.00     0.236 A 
HETATM    2  C2  UNL     1     -33.556   6.803   4.767  1.00 20.00     0.199 A 
HETATM    3  C3  UNL     1     -33.928   5.637   4.128  1.00 20.00     0.245 A 
HETATM    4  N5  UNL     1     -34.090   6.793   6.008  1.00 20.00    -0.233 NA
HETATM    5  N6  UNL     1     -34.691   4.916   4.979  1.00 20.00    -0.212 NA
HETATM    6  F7  UNL     1     -33.598   5.278   2.889  1.00 20.00    -0.182 F 
ENDROOT
BRANCH   2   7
HETATM    7  C4  UNL     1     -32.735   7.926   4.299  1.00 20.00     0.439 C 
HETATM    8  F8  UNL     1     -32.297   8.768   5.295  1.00 20.00    -0.164 F 
HETATM    9  F9  UNL     1     -31.583   7.556   3.644  1.00 20.00    -0.164 F 
HETATM   10  F10 UNL     1     -33.385   8.749   3.412  1.00 20.00    -0.164 F 
ENDBRANCH   2   7
TORSDOF 1
ENDMDL
MODEL 7
REMARK VINA RESULT:      -5.5      2.369      3.844
REMARK  1 active torsions:
REMARK  status: ('A' for Active; 'I' for Inactive)
REMARK    1  A    between atoms: C2_2  and  C4_4 
ROOT
HETATM    1  C1  UNL     1     -34.570   4.997   4.605  1.00 20.00     0.236 A 
HETATM    2  C2  UNL     1     -33.521   6.886   4.696  1.00 20.00     0.199 A 
HETATM    3  C3  UNL     1     -34.209   6.707   5.879  1.00 20.00     0.245 A 
HETATM    4  N5  UNL     1     -33.753   5.814   3.907  1.00 20.00    -0.233 NA
HETATM    5  N6  UNL     1     -34.860   5.525   5.812  1.00 20.00    -0.212 NA
HETATM    6  F7  UNL     1     -34.233   7.548   6.911  1.00 20.00    -0.182 F 
ENDROOT
BRANCH   2   7
HETATM    7  C4  UNL     1     -32.663   7.990   4.250  1.00 20.00     0.439 C 
HETATM    8  F8  UNL     1     -32.230   8.820   5.258  1.00 20.00    -0.164 F 
HETATM    9  F9  UNL     1     -31.504   7.594   3.623  1.00 20.00    -0.164 F 
HETATM   10  F10 UNL     1     -33.271   8.830   3.349  1.00 20.00    -0.164 F 
ENDBRANCH   2   7
TORSDOF 1
ENDMDL
MODEL 8
REMARK VINA RESULT:      -5.5      2.369      3.845
REMARK  1 active torsions:
REMARK  status: ('A' for Active; 'I' for Inactive)
REMARK    1  A    between atoms: C2_2  and  C4_4 
ROOT
HETATM    1  C1  UNL     1     -34.576   5.010   4.604  1.00 20.00     0.236 A 
HETATM    2  C2  UNL     1     -33.522   6.896   4.693  1.00 20.00     0.199 A 
HETATM    3  C3  UNL     1     -34.210   6.720   5.876  1.00 20.00     0.245 A 
HETATM    4  N5  UNL     1     -33.757   5.824   3.905  1.00 20.00    -0.233 NA
HETATM    5  N6  UNL     1     -34.864   5.539   5.811  1.00 20.00    -0.212 NA
HETATM    6  F7  UNL     1     -34.231   7.562   6.908  1.00 20.00    -0.182 F 
ENDROOT
BRANCH   2   7
HETATM    7  C4  UNL     1     -32.661   7.997   4.246  1.00 20.00     0.439 C 
HETATM    8  F8  UNL     1     -33.240   8.838   3.324  1.00 20.00    -0.164 F 
HETATM    9  F9  UNL     1     -32.244   8.838   5.250  1.00 20.00    -0.164 F 
HETATM   10  F10 UNL     1     -31.499   7.576   3.645  1.00 20.00    -0.164 F 
ENDBRANCH   2   7
TORSDOF 1
ENDMDL
MODEL 9
REMARK VINA RESULT:      -4.6      2.261      3.193
REMARK  1 active torsions:
REMARK  status: ('A' for Active; 'I' for Inactive)
REMARK    1  A    between atoms: C2_2  and  C4_4 
ROOT
HETATM    1  C1  UNL     1     -32.894   5.513   2.609  1.00 20.00     0.236 A 
HETATM    2  C2  UNL     1     -33.344   6.660   4.385  1.00 20.00     0.199 A 
HETATM    3  C3  UNL     1     -34.131   5.526   4.383  1.00 20.00     0.245 A 
HETATM    4  N5  UNL     1     -32.576   6.643   3.274  1.00 20.00    -0.233 NA
HETATM    5  N6  UNL     1     -33.842   4.816   3.270  1.00 20.00    -0.212 NA
HETATM    6  F7  UNL     1     -35.022   5.184   5.312  1.00 20.00    -0.182 F 
ENDROOT
BRANCH   2   7
HETATM    7  C4  UNL     1     -33.260   7.760   5.354  1.00 20.00     0.439 C 
HETATM    8  F8  UNL     1     -32.163   8.575   5.200  1.00 20.00    -0.164 F 
HETATM    9  F9  UNL     1     -34.327   8.627   5.326  1.00 20.00    -0.164 F 
HETATM   10  F10 UNL     1     -33.195   7.338   6.660  1.00 20.00    -0.164 F 
ENDBRANCH   2   7
TORSDOF 1
ENDMDL
