MODEL 1
REMARK VINA RESULT:      -3.8      0.000      0.000
REMARK  1 active torsions:
REMARK  status: ('A' for Active; 'I' for Inactive)
REMARK    1  A    between atoms: C3_3  and  C6_6 
ROOT
HETATM    1  C1  UNL     1     -24.595  16.184  11.995  1.00 20.00     0.282 C 
HETATM    2  C2  UNL     1     -25.504  17.354  12.332  1.00 20.00     0.106 C 
HETATM    3  C3  UNL     1     -23.051  17.935  11.538  1.00 20.00     0.201 C 
HETATM    4  C4  UNL     1     -22.033  18.755  12.332  1.00 20.00     0.061 C 
HETATM    5  N7  UNL     1     -23.213  16.627  12.190  1.00 20.00     0.103 N 
HETATM    6  S8  UNL     1     -24.678  18.774  11.582  1.00 20.00    -0.127 SA
HETATM    7  H21 UNL     1     -23.059  16.735  13.192  1.00 20.00     0.318 HD
ENDROOT
BRANCH   3   8
HETATM    8  C6  UNL     1     -22.599  17.782  10.082  1.00 20.00     0.048 C 
HETATM    9  C5  UNL     1     -22.570  19.096   9.376  1.00 20.00     0.009 C 
ENDBRANCH   3   8
TORSDOF 1
ENDMDL
MODEL 2
REMARK VINA RESULT:      -3.7      1.829      3.252
REMARK  1 active torsions:
REMARK  status: ('A' for Active; 'I' for Inactive)
REMARK    1  A    between atoms: C3_3  and  C6_6 
ROOT
HETATM    1  C1  UNL     1     -24.576  19.178   9.342  1.00 20.00     0.282 C 
HETATM    2  C2  UNL     1     -23.249  19.012   8.619  1.00 20.00     0.106 C 
HETATM    3  C3  UNL     1     -23.433  17.961  11.037  1.00 20.00     0.201 C 
HETATM    4  C4  UNL     1     -22.519  18.290  12.218  1.00 20.00     0.061 C 
HETATM    5  N7  UNL     1     -24.305  19.115  10.780  1.00 20.00     0.103 N 
HETATM    6  S8  UNL     1     -22.417  17.698   9.536  1.00 20.00    -0.127 SA
HETATM    7  H21 UNL     1     -23.812  19.968  11.042  1.00 20.00     0.318 HD
ENDROOT
BRANCH   3   8
HETATM    8  C6  UNL     1     -24.248  16.696  11.325  1.00 20.00     0.048 C 
HETATM    9  C5  UNL     1     -25.334  16.958  12.314  1.00 20.00     0.009 C 
ENDBRANCH   3   8
TORSDOF 1
ENDMDL
MODEL 3
REMARK VINA RESULT:      -3.5     19.640     20.366
REMARK  1 active torsions:
REMARK  status: ('A' for Active; 'I' for Inactive)
REMARK    1  A    between atoms: C3_3  and  C6_6 
ROOT
HETATM    1  C1  UNL     1     -34.125  15.705  -7.424  1.00 20.00     0.282 C 
HETATM    2  C2  UNL     1     -35.592  15.310  -7.412  1.00 20.00     0.106 C 
HETATM    3  C3  UNL     1     -34.350  15.371  -5.080  1.00 20.00     0.201 C 
HETATM    4  C4  UNL     1     -34.232  14.197  -4.108  1.00 20.00     0.061 C 
HETATM    5  N7  UNL     1     -33.496  15.105  -6.246  1.00 20.00     0.103 N 
HETATM    6  S8  UNL     1     -36.076  15.492  -5.681  1.00 20.00    -0.127 SA
HETATM    7  H21 UNL     1     -33.446  14.098  -6.398  1.00 20.00     0.318 HD
ENDROOT
BRANCH   3   8
HETATM    8  C6  UNL     1     -33.961  16.682  -4.389  1.00 20.00     0.048 C 
HETATM    9  C5  UNL     1     -33.342  16.434  -3.053  1.00 20.00     0.009 C 
ENDBRANCH   3   8
TORSDOF 1
ENDMDL
MODEL 4
REMARK VINA RESULT:      -3.4      1.467      3.163
REMARK  1 active torsions:
REMARK  status: ('A' for Active; 'I' for Inactive)
REMARK    1  A    between atoms: C3_3  and  C6_6 
ROOT
HETATM    1  C1  UNL     1     -21.895  18.419   9.116  1.00 20.00     0.282 C 
HETATM    2  C2  UNL     1     -23.171  18.845   8.409  1.00 20.00     0.106 C 
HETATM    3  C3  UNL     1     -23.435  17.780  10.814  1.00 20.00     0.201 C 
HETATM    4  C4  UNL     1     -24.271  16.544  11.149  1.00 20.00     0.061 C 
HETATM    5  N7  UNL     1     -22.247  17.355  10.059  1.00 20.00     0.103 N 
HETATM    6  S8  UNL     1     -24.403  18.894   9.730  1.00 20.00    -0.127 SA
HETATM    7  H21 UNL     1     -22.479  16.523   9.517  1.00 20.00     0.318 HD
ENDROOT
BRANCH   3   8
HETATM    8  C6  UNL     1     -23.046  18.529  12.093  1.00 20.00     0.048 C 
HETATM    9  C5  UNL     1     -21.574  18.477  12.332  1.00 20.00     0.009 C 
ENDBRANCH   3   8
TORSDOF 1
ENDMDL
MODEL 5
REMARK VINA RESULT:      -3.3     18.019     18.702
REMARK  1 active torsions:
REMARK  status: ('A' for Active; 'I' for Inactive)
REMARK    1  A    between atoms: C3_3  and  C6_6 
ROOT
HETATM    1  C1  UNL     1     -40.436  14.125   8.201  1.00 20.00     0.282 C 
HETATM    2  C2  UNL     1     -41.936  13.944   8.367  1.00 20.00     0.106 C 
HETATM    3  C3  UNL     1     -40.882  13.155   6.075  1.00 20.00     0.201 C 
HETATM    4  C4  UNL     1     -41.297  13.654   4.690  1.00 20.00     0.061 C 
HETATM    5  N7  UNL     1     -40.160  14.232   6.767  1.00 20.00     0.103 N 
HETATM    6  S8  UNL     1     -42.379  12.778   7.060  1.00 20.00    -0.127 SA
HETATM    7  H21 UNL     1     -40.520  15.132   6.447  1.00 20.00     0.318 HD
ENDROOT
BRANCH   3   8
HETATM    8  C6  UNL     1     -40.022  11.893   5.956  1.00 20.00     0.048 C 
HETATM    9  C5  UNL     1     -39.360  11.805   4.621  1.00 20.00     0.009 C 
ENDBRANCH   3   8
TORSDOF 1
ENDMDL
MODEL 6
REMARK VINA RESULT:      -3.3     19.782     20.491
REMARK  1 active torsions:
REMARK  status: ('A' for Active; 'I' for Inactive)
REMARK    1  A    between atoms: C3_3  and  C6_6 
ROOT
HETATM    1  C1  UNL     1     -33.586  14.726  -4.024  1.00 20.00     0.282 C 
HETATM    2  C2  UNL     1     -33.459  16.232  -3.867  1.00 20.00     0.106 C 
HETATM    3  C3  UNL     1     -34.474  15.347  -6.141  1.00 20.00     0.201 C 
HETATM    4  C4  UNL     1     -33.921  15.646  -7.535  1.00 20.00     0.061 C 
HETATM    5  N7  UNL     1     -33.556  14.426  -5.456  1.00 20.00     0.103 N 
HETATM    6  S8  UNL     1     -34.529  16.894  -5.163  1.00 20.00    -0.127 SA
HETATM    7  H21 UNL     1     -32.607  14.596  -5.790  1.00 20.00     0.318 HD
ENDROOT
BRANCH   3   8
HETATM    8  C6  UNL     1     -35.886  14.759  -6.238  1.00 20.00     0.048 C 
HETATM    9  C5  UNL     1     -36.894  15.645  -5.586  1.00 20.00     0.009 C 
ENDBRANCH   3   8
TORSDOF 1
ENDMDL
MODEL 7
REMARK VINA RESULT:      -3.2     23.927     25.077
REMARK  1 active torsions:
REMARK  status: ('A' for Active; 'I' for Inactive)
REMARK    1  A    between atoms: C3_3  and  C6_6 
ROOT
HETATM    1  C1  UNL     1     -40.489   6.637  -0.057  1.00 20.00     0.282 C 
HETATM    2  C2  UNL     1     -41.449   7.757  -0.422  1.00 20.00     0.106 C 
HETATM    3  C3  UNL     1     -42.497   5.363  -0.030  1.00 20.00     0.201 C 
HETATM    4  C4  UNL     1     -43.333   4.584  -1.047  1.00 20.00     0.061 C 
HETATM    5  N7  UNL     1     -41.099   5.376  -0.482  1.00 20.00     0.103 N 
HETATM    6  S8  UNL     1     -43.071   7.101   0.027  1.00 20.00    -0.127 SA
HETATM    7  H21 UNL     1     -41.079   5.349  -1.502  1.00 20.00     0.318 HD
ENDROOT
BRANCH   3   8
HETATM    8  C6  UNL     1     -42.629   4.739   1.364  1.00 20.00     0.048 C 
HETATM    9  C5  UNL     1     -43.417   5.613   2.281  1.00 20.00     0.009 C 
ENDBRANCH   3   8
TORSDOF 1
ENDMDL
MODEL 8
REMARK VINA RESULT:      -3.1     23.753     24.734
REMARK  1 active torsions:
REMARK  status: ('A' for Active; 'I' for Inactive)
REMARK    1  A    between atoms: C3_3  and  C6_6 
ROOT
HETATM    1  C1  UNL     1     -42.514   4.622   1.764  1.00 20.00     0.282 C 
HETATM    2  C2  UNL     1     -43.417   4.148   0.638  1.00 20.00     0.106 C 
HETATM    3  C3  UNL     1     -42.485   6.614   0.465  1.00 20.00     0.201 C 
HETATM    4  C4  UNL     1     -43.337   7.878   0.348  1.00 20.00     0.061 C 
HETATM    5  N7  UNL     1     -42.617   6.081   1.828  1.00 20.00     0.103 N 
HETATM    6  S8  UNL     1     -43.123   5.341  -0.686  1.00 20.00    -0.127 SA
HETATM    7  H21 UNL     1     -43.543   6.313   2.186  1.00 20.00     0.318 HD
ENDROOT
BRANCH   3   8
HETATM    8  C6  UNL     1     -41.022   6.919   0.122  1.00 20.00     0.048 C 
HETATM    9  C5  UNL     1     -40.793   8.385  -0.041  1.00 20.00     0.009 C 
ENDBRANCH   3   8
TORSDOF 1
ENDMDL
MODEL 9
REMARK VINA RESULT:      -3.1     19.489     20.141
REMARK  1 active torsions:
REMARK  status: ('A' for Active; 'I' for Inactive)
REMARK    1  A    between atoms: C3_3  and  C6_6 
ROOT
HETATM    1  C1  UNL     1     -36.314  14.769  -5.397  1.00 20.00     0.282 C 
HETATM    2  C2  UNL     1     -35.769  14.850  -6.814  1.00 20.00     0.106 C 
HETATM    3  C3  UNL     1     -34.494  16.238  -4.961  1.00 20.00     0.201 C 
HETATM    4  C4  UNL     1     -34.251  17.747  -4.994  1.00 20.00     0.061 C 
HETATM    5  N7  UNL     1     -35.920  15.996  -4.702  1.00 20.00     0.103 N 
HETATM    6  S8  UNL     1     -34.106  15.522  -6.601  1.00 20.00    -0.127 SA
HETATM    7  H21 UNL     1     -36.464  16.764  -5.095  1.00 20.00     0.318 HD
ENDROOT
BRANCH   3   8
HETATM    8  C6  UNL     1     -33.613  15.575  -3.897  1.00 20.00     0.048 C 
HETATM    9  C5  UNL     1     -33.336  16.501  -2.760  1.00 20.00     0.009 C 
ENDBRANCH   3   8
TORSDOF 1
ENDMDL
