MODEL 1
REMARK VINA RESULT:      -4.8      0.000      0.000
REMARK  1 active torsions:
REMARK  status: ('A' for Active; 'I' for Inactive)
REMARK    1  A    between atoms: C6_6  and  N7_7 
ROOT
HETATM    1  C1  UNL     1     -32.497   8.353   4.579  1.00 20.00     0.000 C 
HETATM    2  C2  UNL     1     -33.620   8.315   5.610  1.00 20.00     0.003 C 
HETATM    3  C3  UNL     1     -32.818   7.501   3.355  1.00 20.00     0.003 C 
HETATM    4  C4  UNL     1     -33.976   6.881   6.005  1.00 20.00     0.046 C 
HETATM    5  C5  UNL     1     -33.173   6.064   3.745  1.00 20.00     0.046 C 
HETATM    6  C6  UNL     1     -34.289   5.990   4.795  1.00 20.00     0.136 C 
HETATM    7 CL9  UNL     1     -35.859   6.465   4.066  1.00 20.00    -0.098 Cl
ENDROOT
BRANCH   6   8
HETATM    8  N7  UNL     1     -34.432   4.573   5.257  1.00 20.00    -0.037 NA
HETATM    9  O8  UNL     1     -33.998   3.782   4.422  1.00 20.00    -0.099 OA
ENDBRANCH   6   8
TORSDOF 1
ENDMDL
MODEL 2
REMARK VINA RESULT:      -4.7      1.128      1.257
REMARK  1 active torsions:
REMARK  status: ('A' for Active; 'I' for Inactive)
REMARK    1  A    between atoms: C6_6  and  N7_7 
ROOT
HETATM    1  C1  UNL     1     -32.257   7.583   3.418  1.00 20.00     0.000 C 
HETATM    2  C2  UNL     1     -33.213   8.127   4.475  1.00 20.00     0.003 C 
HETATM    3  C3  UNL     1     -32.867   6.418   2.644  1.00 20.00     0.003 C 
HETATM    4  C4  UNL     1     -33.699   7.025   5.417  1.00 20.00     0.046 C 
HETATM    5  C5  UNL     1     -33.353   5.311   3.582  1.00 20.00     0.046 C 
HETATM    6  C6  UNL     1     -34.304   5.827   4.671  1.00 20.00     0.136 C 
HETATM    7 CL9  UNL     1     -35.884   6.281   3.949  1.00 20.00    -0.098 Cl
ENDROOT
BRANCH   6   8
HETATM    8  N7  UNL     1     -34.570   4.726   5.649  1.00 20.00    -0.037 NA
HETATM    9  O8  UNL     1     -34.465   5.119   6.809  1.00 20.00    -0.099 OA
ENDBRANCH   6   8
TORSDOF 1
ENDMDL
MODEL 3
REMARK VINA RESULT:      -4.3      2.388      3.357
REMARK  1 active torsions:
REMARK  status: ('A' for Active; 'I' for Inactive)
REMARK    1  A    between atoms: C6_6  and  N7_7 
ROOT
HETATM    1  C1  UNL     1     -34.675   5.310   6.176  1.00 20.00     0.000 C 
HETATM    2  C2  UNL     1     -34.933   5.354   4.673  1.00 20.00     0.003 C 
HETATM    3  C3  UNL     1     -34.330   6.687   6.735  1.00 20.00     0.003 C 
HETATM    4  C4  UNL     1     -33.763   5.987   3.918  1.00 20.00     0.046 C 
HETATM    5  C5  UNL     1     -33.158   7.323   5.985  1.00 20.00     0.046 C 
HETATM    6  C6  UNL     1     -33.377   7.368   4.466  1.00 20.00     0.136 C 
HETATM    7 CL9  UNL     1     -34.644   8.572   4.058  1.00 20.00    -0.098 Cl
ENDROOT
BRANCH   6   8
HETATM    8  N7  UNL     1     -32.113   7.820   3.803  1.00 20.00    -0.037 NA
HETATM    9  O8  UNL     1     -32.070   7.466   2.627  1.00 20.00    -0.099 OA
ENDBRANCH   6   8
TORSDOF 1
ENDMDL
MODEL 4
REMARK VINA RESULT:      -4.3      0.935      1.242
REMARK  1 active torsions:
REMARK  status: ('A' for Active; 'I' for Inactive)
REMARK    1  A    between atoms: C6_6  and  N7_7 
ROOT
HETATM    1  C1  UNL     1     -33.334   8.023   6.038  1.00 20.00     0.000 C 
HETATM    2  C2  UNL     1     -34.348   7.109   6.718  1.00 20.00     0.003 C 
HETATM    3  C3  UNL     1     -33.470   7.996   4.518  1.00 20.00     0.003 C 
HETATM    4  C4  UNL     1     -34.272   5.681   6.176  1.00 20.00     0.046 C 
HETATM    5  C5  UNL     1     -33.392   6.569   3.972  1.00 20.00     0.046 C 
HETATM    6  C6  UNL     1     -34.389   5.616   4.646  1.00 20.00     0.136 C 
HETATM    7 CL9  UNL     1     -36.063   6.009   4.135  1.00 20.00    -0.098 Cl
ENDROOT
BRANCH   6   8
HETATM    8  N7  UNL     1     -34.110   4.217   4.194  1.00 20.00    -0.037 NA
HETATM    9  O8  UNL     1     -33.352   4.199   3.226  1.00 20.00    -0.099 OA
ENDBRANCH   6   8
TORSDOF 1
ENDMDL
MODEL 5
REMARK VINA RESULT:      -4.1     13.024     13.678
REMARK  1 active torsions:
REMARK  status: ('A' for Active; 'I' for Inactive)
REMARK    1  A    between atoms: C6_6  and  N7_7 
ROOT
HETATM    1  C1  UNL     1     -33.592  16.741  -3.461  1.00 20.00     0.000 C 
HETATM    2  C2  UNL     1     -34.258  17.465  -4.628  1.00 20.00     0.003 C 
HETATM    3  C3  UNL     1     -33.081  15.361  -3.864  1.00 20.00     0.003 C 
HETATM    4  C4  UNL     1     -35.367  16.620  -5.256  1.00 20.00     0.046 C 
HETATM    5  C5  UNL     1     -34.188  14.511  -4.491  1.00 20.00     0.046 C 
HETATM    6  C6  UNL     1     -34.892  15.216  -5.659  1.00 20.00     0.136 C 
HETATM    7 CL9  UNL     1     -33.794  15.316  -7.075  1.00 20.00    -0.098 Cl
ENDROOT
BRANCH   6   8
HETATM    8  N7  UNL     1     -36.075  14.402  -6.079  1.00 20.00    -0.037 NA
HETATM    9  O8  UNL     1     -36.115  14.261  -7.299  1.00 20.00    -0.099 OA
ENDBRANCH   6   8
TORSDOF 1
ENDMDL
MODEL 6
REMARK VINA RESULT:      -3.8      9.475      9.988
REMARK  1 active torsions:
REMARK  status: ('A' for Active; 'I' for Inactive)
REMARK    1  A    between atoms: C6_6  and  N7_7 
ROOT
HETATM    1  C1  UNL     1     -41.173   7.895   0.293  1.00 20.00     0.000 C 
HETATM    2  C2  UNL     1     -40.440   6.572   0.089  1.00 20.00     0.003 C 
HETATM    3  C3  UNL     1     -42.594   7.686   0.807  1.00 20.00     0.003 C 
HETATM    4  C4  UNL     1     -41.229   5.624  -0.816  1.00 20.00     0.046 C 
HETATM    5  C5  UNL     1     -43.388   6.740  -0.097  1.00 20.00     0.046 C 
HETATM    6  C6  UNL     1     -42.670   5.404  -0.337  1.00 20.00     0.136 C 
HETATM    7 CL9  UNL     1     -42.681   4.416   1.161  1.00 20.00    -0.098 Cl
ENDROOT
BRANCH   6   8
HETATM    8  N7  UNL     1     -43.417   4.629  -1.378  1.00 20.00    -0.037 NA
HETATM    9  O8  UNL     1     -42.678   4.281  -2.297  1.00 20.00    -0.099 OA
ENDBRANCH   6   8
TORSDOF 1
ENDMDL
MODEL 7
REMARK VINA RESULT:      -3.7     13.096     13.819
REMARK  1 active torsions:
REMARK  status: ('A' for Active; 'I' for Inactive)
REMARK    1  A    between atoms: C6_6  and  N7_7 
ROOT
HETATM    1  C1  UNL     1     -33.488  16.729  -3.698  1.00 20.00     0.000 C 
HETATM    2  C2  UNL     1     -33.591  15.208  -3.739  1.00 20.00     0.003 C 
HETATM    3  C3  UNL     1     -34.679  17.400  -4.376  1.00 20.00     0.003 C 
HETATM    4  C4  UNL     1     -33.783  14.694  -5.167  1.00 20.00     0.046 C 
HETATM    5  C5  UNL     1     -34.874  16.891  -5.806  1.00 20.00     0.046 C 
HETATM    6  C6  UNL     1     -34.964  15.361  -5.887  1.00 20.00     0.136 C 
HETATM    7 CL9  UNL     1     -36.516  14.794  -5.187  1.00 20.00    -0.098 Cl
ENDROOT
BRANCH   6   8
HETATM    8  N7  UNL     1     -34.956  14.947  -7.326  1.00 20.00    -0.037 NA
HETATM    9  O8  UNL     1     -35.998  14.373  -7.635  1.00 20.00    -0.099 OA
ENDBRANCH   6   8
TORSDOF 1
ENDMDL
MODEL 8
REMARK VINA RESULT:      -3.5      9.242      9.653
REMARK  1 active torsions:
REMARK  status: ('A' for Active; 'I' for Inactive)
REMARK    1  A    between atoms: C6_6  and  N7_7 
ROOT
HETATM    1  C1  UNL     1     -41.176   8.237  -0.150  1.00 20.00     0.000 C 
HETATM    2  C2  UNL     1     -42.685   8.190  -0.368  1.00 20.00     0.003 C 
HETATM    3  C3  UNL     1     -40.542   6.852  -0.245  1.00 20.00     0.003 C 
HETATM    4  C4  UNL     1     -43.361   7.200   0.582  1.00 20.00     0.046 C 
HETATM    5  C5  UNL     1     -41.214   5.859   0.705  1.00 20.00     0.046 C 
HETATM    6  C6  UNL     1     -42.738   5.798   0.525  1.00 20.00     0.136 C 
HETATM    7 CL9  UNL     1     -43.146   5.002  -1.031  1.00 20.00    -0.098 Cl
ENDROOT
BRANCH   6   8
HETATM    8  N7  UNL     1     -43.326   4.958   1.615  1.00 20.00    -0.037 NA
HETATM    9  O8  UNL     1     -43.416   5.586   2.668  1.00 20.00    -0.099 OA
ENDBRANCH   6   8
TORSDOF 1
ENDMDL
MODEL 9
REMARK VINA RESULT:      -3.5      9.964     10.268
REMARK  1 active torsions:
REMARK  status: ('A' for Active; 'I' for Inactive)
REMARK    1  A    between atoms: C6_6  and  N7_7 
ROOT
HETATM    1  C1  UNL     1     -43.382   4.616   1.409  1.00 20.00     0.000 C 
HETATM    2  C2  UNL     1     -43.393   5.932   2.180  1.00 20.00     0.003 C 
HETATM    3  C3  UNL     1     -42.240   4.556   0.399  1.00 20.00     0.003 C 
HETATM    4  C4  UNL     1     -43.416   7.137   1.239  1.00 20.00     0.046 C 
HETATM    5  C5  UNL     1     -42.260   5.759  -0.547  1.00 20.00     0.046 C 
HETATM    6  C6  UNL     1     -42.289   7.102   0.197  1.00 20.00     0.136 C 
HETATM    7 CL9  UNL     1     -40.706   7.407   0.986  1.00 20.00    -0.098 Cl
ENDROOT
BRANCH   6   8
HETATM    8  N7  UNL     1     -42.504   8.204  -0.793  1.00 20.00    -0.037 NA
HETATM    9  O8  UNL     1     -43.416   8.951  -0.444  1.00 20.00    -0.099 OA
ENDBRANCH   6   8
TORSDOF 1
ENDMDL
