MODEL 1
REMARK VINA RESULT:      -4.2      0.000      0.000
REMARK  0 active torsions:
REMARK  status: ('A' for Active; 'I' for Inactive)
ROOT
HETATM    1  C1  UNL     1     -32.255   8.921   4.774  1.00 20.00     0.094 C 
HETATM    2  C2  UNL     1     -34.775   5.537   6.479  1.00 20.00     0.003 C 
HETATM    3  C3  UNL     1     -34.342   4.633   5.329  1.00 20.00     0.003 C 
HETATM    4  C4  UNL     1     -33.945   6.806   6.271  1.00 20.00     0.042 C 
HETATM    5  C5  UNL     1     -34.216   5.591   4.141  1.00 20.00     0.042 C 
HETATM    6  C6  UNL     1     -32.976   7.921   4.050  1.00 20.00     0.263 A 
HETATM    7  C7  UNL     1     -33.804   6.886   4.778  1.00 20.00     0.101 A 
HETATM    8  N8  UNL     1     -31.669   9.732   5.361  1.00 20.00    -0.194 NA
HETATM    9  O9  UNL     1     -34.397   8.049   4.185  1.00 20.00    -0.354 OA
ENDROOT
TORSDOF 0
ENDMDL
MODEL 2
REMARK VINA RESULT:      -4.1      1.881      2.379
REMARK  0 active torsions:
REMARK  status: ('A' for Active; 'I' for Inactive)
ROOT
HETATM    1  C1  UNL     1     -32.701   8.845   2.432  1.00 20.00     0.094 C 
HETATM    2  C2  UNL     1     -34.160   5.143   4.638  1.00 20.00     0.003 C 
HETATM    3  C3  UNL     1     -34.771   6.027   5.721  1.00 20.00     0.003 C 
HETATM    4  C4  UNL     1     -33.663   6.145   3.594  1.00 20.00     0.042 C 
HETATM    5  C5  UNL     1     -33.804   7.210   5.815  1.00 20.00     0.042 C 
HETATM    6  C6  UNL     1     -32.802   8.656   3.845  1.00 20.00     0.263 A 
HETATM    7  C7  UNL     1     -33.271   7.338   4.417  1.00 20.00     0.101 A 
HETATM    8  N8  UNL     1     -32.619   9.000   1.285  1.00 20.00    -0.194 NA
HETATM    9  O9  UNL     1     -31.880   7.679   4.346  1.00 20.00    -0.354 OA
ENDROOT
TORSDOF 0
ENDMDL
MODEL 3
REMARK VINA RESULT:      -3.9      2.410      3.989
REMARK  0 active torsions:
REMARK  status: ('A' for Active; 'I' for Inactive)
ROOT
HETATM    1  C1  UNL     1     -34.163   4.656   4.881  1.00 20.00     0.094 C 
HETATM    2  C2  UNL     1     -32.370   8.587   3.455  1.00 20.00     0.003 C 
HETATM    3  C3  UNL     1     -32.296   9.079   4.898  1.00 20.00     0.003 C 
HETATM    4  C4  UNL     1     -32.841   7.138   3.593  1.00 20.00     0.042 C 
HETATM    5  C5  UNL     1     -33.533   8.461   5.556  1.00 20.00     0.042 C 
HETATM    6  C6  UNL     1     -34.366   5.958   5.435  1.00 20.00     0.263 A 
HETATM    7  C7  UNL     1     -33.721   7.174   4.808  1.00 20.00     0.101 A 
HETATM    8  N8  UNL     1     -33.999   3.599   4.432  1.00 20.00    -0.194 NA
HETATM    9  O9  UNL     1     -35.092   6.831   4.561  1.00 20.00    -0.354 OA
ENDROOT
TORSDOF 0
ENDMDL
MODEL 4
REMARK VINA RESULT:      -3.9     12.464     12.877
REMARK  0 active torsions:
REMARK  status: ('A' for Active; 'I' for Inactive)
ROOT
HETATM    1  C1  UNL     1     -33.450  16.957  -2.140  1.00 20.00     0.094 C 
HETATM    2  C2  UNL     1     -30.759  19.175   0.783  1.00 20.00     0.003 C 
HETATM    3  C3  UNL     1     -31.730  18.861   1.918  1.00 20.00     0.003 C 
HETATM    4  C4  UNL     1     -31.337  18.407  -0.408  1.00 20.00     0.042 C 
HETATM    5  C5  UNL     1     -33.103  18.899   1.243  1.00 20.00     0.042 C 
HETATM    6  C6  UNL     1     -33.847  17.735  -1.009  1.00 20.00     0.263 A 
HETATM    7  C7  UNL     1     -32.817  18.446  -0.159  1.00 20.00     0.101 A 
HETATM    8  N8  UNL     1     -33.129  16.325  -3.058  1.00 20.00    -0.194 NA
HETATM    9  O9  UNL     1     -33.572  19.133  -1.166  1.00 20.00    -0.354 OA
ENDROOT
TORSDOF 0
ENDMDL
MODEL 5
REMARK VINA RESULT:      -3.7     12.493     13.070
REMARK  0 active torsions:
REMARK  status: ('A' for Active; 'I' for Inactive)
ROOT
HETATM    1  C1  UNL     1     -31.790  18.652  -0.774  1.00 20.00     0.094 C 
HETATM    2  C2  UNL     1     -33.912  16.069  -3.862  1.00 20.00     0.003 C 
HETATM    3  C3  UNL     1     -34.648  17.298  -4.387  1.00 20.00     0.003 C 
HETATM    4  C4  UNL     1     -32.944  16.644  -2.826  1.00 20.00     0.042 C 
HETATM    5  C5  UNL     1     -34.874  18.149  -3.135  1.00 20.00     0.042 C 
HETATM    6  C6  UNL     1     -33.123  18.802  -1.268  1.00 20.00     0.263 A 
HETATM    7  C7  UNL     1     -33.691  17.822  -2.271  1.00 20.00     0.101 A 
HETATM    8  N8  UNL     1     -30.708  18.531  -0.374  1.00 20.00    -0.194 NA
HETATM    9  O9  UNL     1     -33.990  17.732  -0.871  1.00 20.00    -0.354 OA
ENDROOT
TORSDOF 0
ENDMDL
MODEL 6
REMARK VINA RESULT:      -3.7     12.397     13.497
REMARK  0 active torsions:
REMARK  status: ('A' for Active; 'I' for Inactive)
ROOT
HETATM    1  C1  UNL     1     -32.836  18.931  -2.887  1.00 20.00     0.094 C 
HETATM    2  C2  UNL     1     -33.850  14.685  -4.168  1.00 20.00     0.003 C 
HETATM    3  C3  UNL     1     -33.984  15.151  -5.615  1.00 20.00     0.003 C 
HETATM    4  C4  UNL     1     -33.352  15.931  -3.433  1.00 20.00     0.042 C 
HETATM    5  C5  UNL     1     -34.557  16.565  -5.490  1.00 20.00     0.042 C 
HETATM    6  C6  UNL     1     -33.736  18.524  -3.920  1.00 20.00     0.263 A 
HETATM    7  C7  UNL     1     -33.991  17.058  -4.190  1.00 20.00     0.101 A 
HETATM    8  N8  UNL     1     -32.106  19.263  -2.049  1.00 20.00    -0.194 NA
HETATM    9  O9  UNL     1     -34.899  17.855  -3.417  1.00 20.00    -0.354 OA
ENDROOT
TORSDOF 0
ENDMDL
MODEL 7
REMARK VINA RESULT:      -3.6      9.408      9.879
REMARK  0 active torsions:
REMARK  status: ('A' for Active; 'I' for Inactive)
ROOT
HETATM    1  C1  UNL     1     -39.263  11.978   4.459  1.00 20.00     0.094 C 
HETATM    2  C2  UNL     1     -42.384  14.832   6.138  1.00 20.00     0.003 C 
HETATM    3  C3  UNL     1     -41.384  15.311   7.187  1.00 20.00     0.003 C 
HETATM    4  C4  UNL     1     -41.558  13.892   5.257  1.00 20.00     0.042 C 
HETATM    5  C5  UNL     1     -40.567  14.058   7.510  1.00 20.00     0.042 C 
HETATM    6  C6  UNL     1     -39.451  12.359   5.824  1.00 20.00     0.263 A 
HETATM    7  C7  UNL     1     -40.572  13.293   6.218  1.00 20.00     0.101 A 
HETATM    8  N8  UNL     1     -39.109  11.670   3.351  1.00 20.00    -0.194 NA
HETATM    9  O9  UNL     1     -40.682  11.872   6.375  1.00 20.00    -0.354 OA
ENDROOT
TORSDOF 0
ENDMDL
MODEL 8
REMARK VINA RESULT:      -3.6     13.043     13.950
REMARK  0 active torsions:
REMARK  status: ('A' for Active; 'I' for Inactive)
ROOT
HETATM    1  C1  UNL     1     -35.795  15.420  -6.186  1.00 20.00     0.094 C 
HETATM    2  C2  UNL     1     -33.080  16.629  -2.740  1.00 20.00     0.003 C 
HETATM    3  C3  UNL     1     -34.128  17.631  -2.264  1.00 20.00     0.003 C 
HETATM    4  C4  UNL     1     -33.777  15.901  -3.892  1.00 20.00     0.042 C 
HETATM    5  C5  UNL     1     -34.763  18.138  -3.562  1.00 20.00     0.042 C 
HETATM    6  C6  UNL     1     -35.650  16.718  -5.605  1.00 20.00     0.263 A 
HETATM    7  C7  UNL     1     -34.664  16.958  -4.484  1.00 20.00     0.101 A 
HETATM    8  N8  UNL     1     -35.915  14.367  -6.657  1.00 20.00    -0.194 NA
HETATM    9  O9  UNL     1     -34.360  17.296  -5.843  1.00 20.00    -0.354 OA
ENDROOT
TORSDOF 0
ENDMDL
MODEL 9
REMARK VINA RESULT:      -3.6     13.081     14.127
REMARK  0 active torsions:
REMARK  status: ('A' for Active; 'I' for Inactive)
ROOT
HETATM    1  C1  UNL     1     -35.988  15.304  -7.206  1.00 20.00     0.094 C 
HETATM    2  C2  UNL     1     -32.747  15.203  -4.013  1.00 20.00     0.003 C 
HETATM    3  C3  UNL     1     -33.581  16.131  -3.135  1.00 20.00     0.003 C 
HETATM    4  C4  UNL     1     -33.668  14.906  -5.199  1.00 20.00     0.042 C 
HETATM    5  C5  UNL     1     -34.287  17.046  -4.139  1.00 20.00     0.042 C 
HETATM    6  C6  UNL     1     -35.595  16.363  -6.329  1.00 20.00     0.263 A 
HETATM    7  C7  UNL     1     -34.461  16.172  -5.346  1.00 20.00     0.101 A 
HETATM    8  N8  UNL     1     -36.307  14.446  -7.918  1.00 20.00    -0.194 NA
HETATM    9  O9  UNL     1     -34.274  16.850  -6.596  1.00 20.00    -0.354 OA
ENDROOT
TORSDOF 0
ENDMDL
