MODEL 1
REMARK VINA RESULT:      -4.5      0.000      0.000
REMARK  0 active torsions:
REMARK  status: ('A' for Active; 'I' for Inactive)
ROOT
HETATM    1  C1  UNL     1     -33.958   6.925   5.694  1.00 20.00     0.139 C 
HETATM    2  C2  UNL     1     -32.769   7.412   4.839  1.00 20.00     0.057 C 
HETATM    3  C3  UNL     1     -33.472   6.743   3.614  1.00 20.00     0.007 C 
HETATM    4  C4  UNL     1     -34.449   5.956   4.574  1.00 20.00     0.018 C 
HETATM    5  C5  UNL     1     -32.586   8.915   4.763  1.00 20.00     0.018 C 
HETATM    6  C6  UNL     1     -32.560   5.963   2.681  1.00 20.00     0.012 C 
HETATM    7  C7  UNL     1     -34.122   4.496   4.874  1.00 20.00     0.023 C 
HETATM    8  C8  UNL     1     -35.922   6.136   4.210  1.00 20.00     0.023 C 
HETATM    9  O9  UNL     1     -34.348   7.187   6.813  1.00 20.00    -0.297 OA
ENDROOT
TORSDOF 0
ENDMDL
MODEL 2
REMARK VINA RESULT:      -3.9     15.178     16.843
REMARK  0 active torsions:
REMARK  status: ('A' for Active; 'I' for Inactive)
ROOT
HETATM    1  C1  UNL     1     -24.183  18.579   9.852  1.00 20.00     0.139 C 
HETATM    2  C2  UNL     1     -22.692  18.972   9.932  1.00 20.00     0.057 C 
HETATM    3  C3  UNL     1     -22.580  18.001  11.153  1.00 20.00     0.007 C 
HETATM    4  C4  UNL     1     -24.154  17.926  11.269  1.00 20.00     0.018 C 
HETATM    5  C5  UNL     1     -21.853  18.617   8.722  1.00 20.00     0.018 C 
HETATM    6  C6  UNL     1     -21.774  18.522  12.332  1.00 20.00     0.012 C 
HETATM    7  C7  UNL     1     -24.828  18.791  12.330  1.00 20.00     0.023 C 
HETATM    8  C8  UNL     1     -24.686  16.494  11.293  1.00 20.00     0.023 C 
HETATM    9  O9  UNL     1     -25.046  18.735   9.013  1.00 20.00    -0.297 OA
ENDROOT
TORSDOF 0
ENDMDL
MODEL 3
REMARK VINA RESULT:      -3.9     12.308     13.361
REMARK  0 active torsions:
REMARK  status: ('A' for Active; 'I' for Inactive)
ROOT
HETATM    1  C1  UNL     1     -33.660  14.921  -4.453  1.00 20.00     0.139 C 
HETATM    2  C2  UNL     1     -33.430  16.359  -3.940  1.00 20.00     0.057 C 
HETATM    3  C3  UNL     1     -34.714  16.767  -4.734  1.00 20.00     0.007 C 
HETATM    4  C4  UNL     1     -34.689  15.399  -5.524  1.00 20.00     0.018 C 
HETATM    5  C5  UNL     1     -33.493  16.538  -2.437  1.00 20.00     0.018 C 
HETATM    6  C6  UNL     1     -34.619  18.072  -5.507  1.00 20.00     0.012 C 
HETATM    7  C7  UNL     1     -34.110  15.407  -6.936  1.00 20.00     0.023 C 
HETATM    8  C8  UNL     1     -36.020  14.650  -5.470  1.00 20.00     0.023 C 
HETATM    9  O9  UNL     1     -33.200  13.840  -4.148  1.00 20.00    -0.297 OA
ENDROOT
TORSDOF 0
ENDMDL
MODEL 4
REMARK VINA RESULT:      -3.6      1.905      2.779
REMARK  0 active torsions:
REMARK  status: ('A' for Active; 'I' for Inactive)
ROOT
HETATM    1  C1  UNL     1     -33.317   5.974   3.425  1.00 20.00     0.139 C 
HETATM    2  C2  UNL     1     -32.878   7.429   3.692  1.00 20.00     0.057 C 
HETATM    3  C3  UNL     1     -33.460   7.262   5.133  1.00 20.00     0.007 C 
HETATM    4  C4  UNL     1     -34.215   5.942   4.701  1.00 20.00     0.018 C 
HETATM    5  C5  UNL     1     -31.388   7.694   3.603  1.00 20.00     0.018 C 
HETATM    6  C6  UNL     1     -34.266   8.440   5.655  1.00 20.00     0.012 C 
HETATM    7  C7  UNL     1     -35.702   6.052   4.377  1.00 20.00     0.023 C 
HETATM    8  C8  UNL     1     -33.929   4.758   5.622  1.00 20.00     0.023 C 
HETATM    9  O9  UNL     1     -33.068   5.171   2.550  1.00 20.00    -0.297 OA
ENDROOT
TORSDOF 0
ENDMDL
MODEL 5
REMARK VINA RESULT:      -3.4      1.533      2.916
REMARK  0 active torsions:
REMARK  status: ('A' for Active; 'I' for Inactive)
ROOT
HETATM    1  C1  UNL     1     -34.387   5.785   4.375  1.00 20.00     0.139 C 
HETATM    2  C2  UNL     1     -33.513   5.943   3.113  1.00 20.00     0.057 C 
HETATM    3  C3  UNL     1     -32.665   6.977   3.921  1.00 20.00     0.007 C 
HETATM    4  C4  UNL     1     -33.787   7.068   5.030  1.00 20.00     0.018 C 
HETATM    5  C5  UNL     1     -32.783   4.694   2.658  1.00 20.00     0.018 C 
HETATM    6  C6  UNL     1     -32.268   8.234   3.163  1.00 20.00     0.012 C 
HETATM    7  C7  UNL     1     -34.740   8.258   4.977  1.00 20.00     0.023 C 
HETATM    8  C8  UNL     1     -33.253   6.841   6.443  1.00 20.00     0.023 C 
HETATM    9  O9  UNL     1     -35.229   4.980   4.716  1.00 20.00    -0.297 OA
ENDROOT
TORSDOF 0
ENDMDL
MODEL 6
REMARK VINA RESULT:      -3.4      1.833      3.082
REMARK  0 active torsions:
REMARK  status: ('A' for Active; 'I' for Inactive)
ROOT
HETATM    1  C1  UNL     1     -32.579   7.089   3.862  1.00 20.00     0.139 C 
HETATM    2  C2  UNL     1     -32.987   5.620   3.618  1.00 20.00     0.057 C 
HETATM    3  C3  UNL     1     -34.356   5.968   4.289  1.00 20.00     0.007 C 
HETATM    4  C4  UNL     1     -33.765   7.322   4.849  1.00 20.00     0.018 C 
HETATM    5  C5  UNL     1     -33.049   5.187   2.167  1.00 20.00     0.018 C 
HETATM    6  C6  UNL     1     -34.889   4.931   5.266  1.00 20.00     0.012 C 
HETATM    7  C7  UNL     1     -33.320   7.351   6.308  1.00 20.00     0.023 C 
HETATM    8  C8  UNL     1     -34.620   8.539   4.501  1.00 20.00     0.023 C 
HETATM    9  O9  UNL     1     -31.673   7.785   3.453  1.00 20.00    -0.297 OA
ENDROOT
TORSDOF 0
ENDMDL
MODEL 7
REMARK VINA RESULT:      -3.3      2.092      3.629
REMARK  0 active torsions:
REMARK  status: ('A' for Active; 'I' for Inactive)
ROOT
HETATM    1  C1  UNL     1     -33.077   6.288   3.372  1.00 20.00     0.139 C 
HETATM    2  C2  UNL     1     -33.935   6.334   4.654  1.00 20.00     0.057 C 
HETATM    3  C3  UNL     1     -33.838   7.892   4.573  1.00 20.00     0.007 C 
HETATM    4  C4  UNL     1     -32.672   7.788   3.511  1.00 20.00     0.018 C 
HETATM    5  C5  UNL     1     -35.328   5.748   4.535  1.00 20.00     0.018 C 
HETATM    6  C6  UNL     1     -33.578   8.603   5.892  1.00 20.00     0.012 C 
HETATM    7  C7  UNL     1     -31.242   7.969   4.010  1.00 20.00     0.023 C 
HETATM    8  C8  UNL     1     -32.934   8.611   2.251  1.00 20.00     0.023 C 
HETATM    9  O9  UNL     1     -32.810   5.413   2.574  1.00 20.00    -0.297 OA
ENDROOT
TORSDOF 0
ENDMDL
MODEL 8
REMARK VINA RESULT:      -3.3      9.802     10.900
REMARK  0 active torsions:
REMARK  status: ('A' for Active; 'I' for Inactive)
ROOT
HETATM    1  C1  UNL     1     -41.179  13.726   5.236  1.00 20.00     0.139 C 
HETATM    2  C2  UNL     1     -40.014  13.303   6.156  1.00 20.00     0.057 C 
HETATM    3  C3  UNL     1     -40.974  13.556   7.363  1.00 20.00     0.007 C 
HETATM    4  C4  UNL     1     -41.986  14.329   6.428  1.00 20.00     0.018 C 
HETATM    5  C5  UNL     1     -39.524  11.879   5.983  1.00 20.00     0.018 C 
HETATM    6  C6  UNL     1     -40.358  14.281   8.550  1.00 20.00     0.012 C 
HETATM    7  C7  UNL     1     -41.949  15.854   6.453  1.00 20.00     0.023 C 
HETATM    8  C8  UNL     1     -43.417  13.803   6.527  1.00 20.00     0.023 C 
HETATM    9  O9  UNL     1     -41.379  13.636   4.043  1.00 20.00    -0.297 OA
ENDROOT
TORSDOF 0
ENDMDL
MODEL 9
REMARK VINA RESULT:      -3.2     10.053     10.971
REMARK  0 active torsions:
REMARK  status: ('A' for Active; 'I' for Inactive)
ROOT
HETATM    1  C1  UNL     1     -41.092  13.952   7.649  1.00 20.00     0.139 C 
HETATM    2  C2  UNL     1     -41.318  15.186   6.750  1.00 20.00     0.057 C 
HETATM    3  C3  UNL     1     -42.251  14.286   5.877  1.00 20.00     0.007 C 
HETATM    4  C4  UNL     1     -41.701  12.986   6.586  1.00 20.00     0.018 C 
HETATM    5  C5  UNL     1     -41.977  16.376   7.420  1.00 20.00     0.018 C 
HETATM    6  C6  UNL     1     -42.088  14.437   4.373  1.00 20.00     0.012 C 
HETATM    7  C7  UNL     1     -40.638  12.175   5.850  1.00 20.00     0.023 C 
HETATM    8  C8  UNL     1     -42.807  12.088   7.137  1.00 20.00     0.023 C 
HETATM    9  O9  UNL     1     -40.611  13.796   8.752  1.00 20.00    -0.297 OA
ENDROOT
TORSDOF 0
ENDMDL
