MODEL 1
REMARK VINA RESULT:      -3.0      0.000      0.000
REMARK  2 active torsions:
REMARK  status: ('A' for Active; 'I' for Inactive)
REMARK    1  A    between atoms: C2_2  and  C4_4 
REMARK    2  A    between atoms: C4_4  and  S6_6 
ROOT
HETATM    1  C1  UNL     1     -34.530   4.869   4.989  1.00 20.00     0.201 A 
HETATM    2  C2  UNL     1     -34.170   6.252   4.522  1.00 20.00     0.154 A 
HETATM    3  O5  UNL     1     -35.535   5.836   4.644  1.00 20.00    -0.380 OA
ENDROOT
BRANCH   2   4
HETATM    4  C4  UNL     1     -33.758   7.307   5.485  1.00 20.00     0.107 C 
BRANCH   4   5
HETATM    5  S6  UNL     1     -32.547   8.452   4.744  1.00 20.00    -0.171 SA
HETATM    6  C3  UNL     1     -32.193   7.511   3.243  1.00 20.00     0.089 C 
ENDBRANCH   4   5
ENDBRANCH   2   4
TORSDOF 2
ENDMDL
MODEL 2
REMARK VINA RESULT:      -2.9      2.394      3.274
REMARK  2 active torsions:
REMARK  status: ('A' for Active; 'I' for Inactive)
REMARK    1  A    between atoms: C2_2  and  C4_4 
REMARK    2  A    between atoms: C4_4  and  S6_6 
ROOT
HETATM    1  C1  UNL     1     -32.472   8.751   4.748  1.00 20.00     0.201 A 
HETATM    2  C2  UNL     1     -33.625   7.825   5.023  1.00 20.00     0.154 A 
HETATM    3  O5  UNL     1     -32.529   7.428   4.192  1.00 20.00    -0.380 OA
ENDROOT
BRANCH   2   4
HETATM    4  C4  UNL     1     -33.728   7.083   6.307  1.00 20.00     0.107 C 
BRANCH   4   5
HETATM    5  S6  UNL     1     -34.538   5.465   6.080  1.00 20.00    -0.171 SA
HETATM    6  C3  UNL     1     -35.396   5.825   4.532  1.00 20.00     0.089 C 
ENDBRANCH   4   5
ENDBRANCH   2   4
TORSDOF 2
ENDMDL
MODEL 3
REMARK VINA RESULT:      -2.7      2.588      3.575
REMARK  2 active torsions:
REMARK  status: ('A' for Active; 'I' for Inactive)
REMARK    1  A    between atoms: C2_2  and  C4_4 
REMARK    2  A    between atoms: C4_4  and  S6_6 
ROOT
HETATM    1  C1  UNL     1     -32.249   8.657   4.809  1.00 20.00     0.201 A 
HETATM    2  C2  UNL     1     -33.485   7.930   4.356  1.00 20.00     0.154 A 
HETATM    3  O5  UNL     1     -32.702   8.711   3.447  1.00 20.00    -0.380 OA
ENDROOT
BRANCH   2   4
HETATM    4  C4  UNL     1     -33.465   6.468   4.092  1.00 20.00     0.107 C 
BRANCH   4   5
HETATM    5  S6  UNL     1     -34.982   5.658   4.698  1.00 20.00    -0.171 SA
HETATM    6  C3  UNL     1     -34.509   5.498   6.433  1.00 20.00     0.089 C 
ENDBRANCH   4   5
ENDBRANCH   2   4
TORSDOF 2
ENDMDL
MODEL 4
REMARK VINA RESULT:      -2.6     16.018     16.853
REMARK  2 active torsions:
REMARK  status: ('A' for Active; 'I' for Inactive)
REMARK    1  A    between atoms: C2_2  and  C4_4 
REMARK    2  A    between atoms: C4_4  and  S6_6 
ROOT
HETATM    1  C1  UNL     1     -21.746  17.919   7.918  1.00 20.00     0.201 A 
HETATM    2  C2  UNL     1     -22.364  17.627   9.257  1.00 20.00     0.154 A 
HETATM    3  O5  UNL     1     -21.293  16.830   8.739  1.00 20.00    -0.380 OA
ENDROOT
BRANCH   2   4
HETATM    4  C4  UNL     1     -22.013  18.428  10.459  1.00 20.00     0.107 C 
BRANCH   4   5
HETATM    5  S6  UNL     1     -23.105  18.037  11.866  1.00 20.00    -0.171 SA
HETATM    6  C3  UNL     1     -24.157  16.823  11.041  1.00 20.00     0.089 C 
ENDBRANCH   4   5
ENDBRANCH   2   4
TORSDOF 2
ENDMDL
MODEL 5
REMARK VINA RESULT:      -2.5      1.368      1.431
REMARK  2 active torsions:
REMARK  status: ('A' for Active; 'I' for Inactive)
REMARK    1  A    between atoms: C2_2  and  C4_4 
REMARK    2  A    between atoms: C4_4  and  S6_6 
ROOT
HETATM    1  C1  UNL     1     -34.578   5.319   6.350  1.00 20.00     0.201 A 
HETATM    2  C2  UNL     1     -34.710   6.201   5.140  1.00 20.00     0.154 A 
HETATM    3  O5  UNL     1     -34.381   6.740   6.425  1.00 20.00    -0.380 OA
ENDROOT
BRANCH   2   4
HETATM    4  C4  UNL     1     -33.621   6.296   4.133  1.00 20.00     0.107 C 
BRANCH   4   5
HETATM    5  S6  UNL     1     -32.763   7.903   4.224  1.00 20.00    -0.171 SA
HETATM    6  C3  UNL     1     -32.188   7.981   2.514  1.00 20.00     0.089 C 
ENDBRANCH   4   5
ENDBRANCH   2   4
TORSDOF 2
ENDMDL
MODEL 6
REMARK VINA RESULT:      -2.5     12.848     13.284
REMARK  2 active torsions:
REMARK  status: ('A' for Active; 'I' for Inactive)
REMARK    1  A    between atoms: C2_2  and  C4_4 
REMARK    2  A    between atoms: C4_4  and  S6_6 
ROOT
HETATM    1  C1  UNL     1     -30.972  18.594   0.913  1.00 20.00     0.201 A 
HETATM    2  C2  UNL     1     -31.819  19.206  -0.168  1.00 20.00     0.154 A 
HETATM    3  O5  UNL     1     -30.594  18.529  -0.471  1.00 20.00    -0.380 OA
ENDROOT
BRANCH   2   4
HETATM    4  C4  UNL     1     -33.042  18.524  -0.668  1.00 20.00     0.107 C 
BRANCH   4   5
HETATM    5  S6  UNL     1     -33.039  18.394  -2.487  1.00 20.00    -0.171 SA
HETATM    6  C3  UNL     1     -33.323  16.615  -2.615  1.00 20.00     0.089 C 
ENDBRANCH   4   5
ENDBRANCH   2   4
TORSDOF 2
ENDMDL
MODEL 7
REMARK VINA RESULT:      -2.4     12.966     13.769
REMARK  2 active torsions:
REMARK  status: ('A' for Active; 'I' for Inactive)
REMARK    1  A    between atoms: C2_2  and  C4_4 
REMARK    2  A    between atoms: C4_4  and  S6_6 
ROOT
HETATM    1  C1  UNL     1     -36.184  15.743  -7.537  1.00 20.00     0.201 A 
HETATM    2  C2  UNL     1     -35.593  15.122  -6.302  1.00 20.00     0.154 A 
HETATM    3  O5  UNL     1     -36.037  14.321  -7.403  1.00 20.00    -0.380 OA
ENDROOT
BRANCH   2   4
HETATM    4  C4  UNL     1     -34.123  15.103  -6.078  1.00 20.00     0.107 C 
BRANCH   4   5
HETATM    5  S6  UNL     1     -33.715  14.641  -4.361  1.00 20.00    -0.171 SA
HETATM    6  C3  UNL     1     -33.493  16.305  -3.696  1.00 20.00     0.089 C 
ENDBRANCH   4   5
ENDBRANCH   2   4
TORSDOF 2
ENDMDL
MODEL 8
REMARK VINA RESULT:      -2.4     15.700     16.211
REMARK  2 active torsions:
REMARK  status: ('A' for Active; 'I' for Inactive)
REMARK    1  A    between atoms: C2_2  and  C4_4 
REMARK    2  A    between atoms: C4_4  and  S6_6 
ROOT
HETATM    1  C1  UNL     1     -24.384  16.169  11.891  1.00 20.00     0.201 A 
HETATM    2  C2  UNL     1     -23.873  17.181  10.904  1.00 20.00     0.154 A 
HETATM    3  O5  UNL     1     -25.178  17.294  11.482  1.00 20.00    -0.380 OA
ENDROOT
BRANCH   2   4
HETATM    4  C4  UNL     1     -22.921  18.246  11.317  1.00 20.00     0.107 C 
BRANCH   4   5
HETATM    5  S6  UNL     1     -21.608  18.487  10.075  1.00 20.00    -0.171 SA
HETATM    6  C3  UNL     1     -22.188  17.287   8.856  1.00 20.00     0.089 C 
ENDBRANCH   4   5
ENDBRANCH   2   4
TORSDOF 2
ENDMDL
MODEL 9
REMARK VINA RESULT:      -2.4      8.725      9.360
REMARK  2 active torsions:
REMARK  status: ('A' for Active; 'I' for Inactive)
REMARK    1  A    between atoms: C2_2  and  C4_4 
REMARK    2  A    between atoms: C4_4  and  S6_6 
ROOT
HETATM    1  C1  UNL     1     -39.146  11.709   4.317  1.00 20.00     0.201 A 
HETATM    2  C2  UNL     1     -39.477  11.919   5.768  1.00 20.00     0.154 A 
HETATM    3  O5  UNL     1     -38.159  12.154   5.260  1.00 20.00    -0.380 OA
ENDROOT
BRANCH   2   4
HETATM    4  C4  UNL     1     -40.189  13.141   6.227  1.00 20.00     0.107 C 
BRANCH   4   5
HETATM    5  S6  UNL     1     -41.926  12.783   6.649  1.00 20.00    -0.171 SA
HETATM    6  C3  UNL     1     -42.080  13.900   8.060  1.00 20.00     0.089 C 
ENDBRANCH   4   5
ENDBRANCH   2   4
TORSDOF 2
ENDMDL
