MODEL 1
REMARK VINA RESULT:      -5.0      0.000      0.000
REMARK  0 active torsions:
REMARK  status: ('A' for Active; 'I' for Inactive)
ROOT
HETATM    1  C1  UNL     1     -34.899   5.220   4.856  1.00 20.00     0.003 C 
HETATM    2  C2  UNL     1     -34.517   5.458   6.315  1.00 20.00     0.003 C 
HETATM    3  C3  UNL     1     -33.848   6.012   4.073  1.00 20.00     0.040 C 
HETATM    4  C4  UNL     1     -34.105   6.933   6.350  1.00 20.00     0.040 C 
HETATM    5  C5  UNL     1     -32.446   8.159   4.699  1.00 20.00     0.207 A 
HETATM    6  C6  UNL     1     -33.541   7.163   4.981  1.00 20.00     0.082 A 
HETATM    7  O7  UNL     1     -33.822   8.457   4.430  1.00 20.00    -0.375 OA
ENDROOT
TORSDOF 0
ENDMDL
MODEL 2
REMARK VINA RESULT:      -4.7      0.767      1.731
REMARK  0 active torsions:
REMARK  status: ('A' for Active; 'I' for Inactive)
ROOT
HETATM    1  C1  UNL     1     -34.424   5.405   6.349  1.00 20.00     0.003 C 
HETATM    2  C2  UNL     1     -34.830   5.124   4.905  1.00 20.00     0.003 C 
HETATM    3  C3  UNL     1     -34.208   6.921   6.377  1.00 20.00     0.040 C 
HETATM    4  C4  UNL     1     -33.925   6.050   4.085  1.00 20.00     0.040 C 
HETATM    5  C5  UNL     1     -33.498   8.625   4.491  1.00 20.00     0.207 A 
HETATM    6  C6  UNL     1     -33.720   7.222   4.994  1.00 20.00     0.082 A 
HETATM    7  O7  UNL     1     -32.410   7.803   4.931  1.00 20.00    -0.375 OA
ENDROOT
TORSDOF 0
ENDMDL
MODEL 3
REMARK VINA RESULT:      -4.4      1.376      3.130
REMARK  0 active torsions:
REMARK  status: ('A' for Active; 'I' for Inactive)
ROOT
HETATM    1  C1  UNL     1     -33.077   8.428   4.836  1.00 20.00     0.003 C 
HETATM    2  C2  UNL     1     -32.299   7.609   3.809  1.00 20.00     0.003 C 
HETATM    3  C3  UNL     1     -33.782   7.367   5.686  1.00 20.00     0.040 C 
HETATM    4  C4  UNL     1     -33.258   6.471   3.446  1.00 20.00     0.040 C 
HETATM    5  C5  UNL     1     -34.589   4.920   5.119  1.00 20.00     0.207 A 
HETATM    6  C6  UNL     1     -34.031   6.258   4.711  1.00 20.00     0.082 A 
HETATM    7  O7  UNL     1     -35.413   5.926   4.517  1.00 20.00    -0.375 OA
ENDROOT
TORSDOF 0
ENDMDL
MODEL 4
REMARK VINA RESULT:      -4.1      1.596      2.878
REMARK  0 active torsions:
REMARK  status: ('A' for Active; 'I' for Inactive)
ROOT
HETATM    1  C1  UNL     1     -32.098   7.616   3.813  1.00 20.00     0.003 C 
HETATM    2  C2  UNL     1     -32.790   8.516   4.834  1.00 20.00     0.003 C 
HETATM    3  C3  UNL     1     -33.194   6.632   3.395  1.00 20.00     0.040 C 
HETATM    4  C4  UNL     1     -33.666   7.550   5.637  1.00 20.00     0.040 C 
HETATM    5  C5  UNL     1     -35.315   5.724   4.675  1.00 20.00     0.207 A 
HETATM    6  C6  UNL     1     -34.021   6.495   4.635  1.00 20.00     0.082 A 
HETATM    7  O7  UNL     1     -34.091   5.166   5.169  1.00 20.00    -0.375 OA
ENDROOT
TORSDOF 0
ENDMDL
MODEL 5
REMARK VINA RESULT:      -3.8      1.355      2.149
REMARK  0 active torsions:
REMARK  status: ('A' for Active; 'I' for Inactive)
ROOT
HETATM    1  C1  UNL     1     -34.016   4.717   4.092  1.00 20.00     0.003 C 
HETATM    2  C2  UNL     1     -33.296   5.256   2.859  1.00 20.00     0.003 C 
HETATM    3  C3  UNL     1     -34.558   5.976   4.775  1.00 20.00     0.040 C 
HETATM    4  C4  UNL     1     -32.609   6.529   3.365  1.00 20.00     0.040 C 
HETATM    5  C5  UNL     1     -33.705   8.473   4.778  1.00 20.00     0.207 A 
HETATM    6  C6  UNL     1     -33.535   7.015   4.437  1.00 20.00     0.082 A 
HETATM    7  O7  UNL     1     -32.880   7.606   5.567  1.00 20.00    -0.375 OA
ENDROOT
TORSDOF 0
ENDMDL
MODEL 6
REMARK VINA RESULT:      -3.7      1.398      2.207
REMARK  0 active torsions:
REMARK  status: ('A' for Active; 'I' for Inactive)
ROOT
HETATM    1  C1  UNL     1     -34.833   5.735   6.345  1.00 20.00     0.003 C 
HETATM    2  C2  UNL     1     -33.937   6.970   6.290  1.00 20.00     0.003 C 
HETATM    3  C3  UNL     1     -34.274   4.832   5.242  1.00 20.00     0.040 C 
HETATM    4  C4  UNL     1     -33.716   7.194   4.791  1.00 20.00     0.040 C 
HETATM    5  C5  UNL     1     -32.994   5.388   3.003  1.00 20.00     0.207 A 
HETATM    6  C6  UNL     1     -33.767   5.807   4.226  1.00 20.00     0.082 A 
HETATM    7  O7  UNL     1     -34.388   5.711   2.937  1.00 20.00    -0.375 OA
ENDROOT
TORSDOF 0
ENDMDL
MODEL 7
REMARK VINA RESULT:      -3.4      8.263      8.743
REMARK  0 active torsions:
REMARK  status: ('A' for Active; 'I' for Inactive)
ROOT
HETATM    1  C1  UNL     1     -39.397  11.848   4.277  1.00 20.00     0.003 C 
HETATM    2  C2  UNL     1     -38.300  11.945   5.334  1.00 20.00     0.003 C 
HETATM    3  C3  UNL     1     -40.455  12.844   4.759  1.00 20.00     0.040 C 
HETATM    4  C4  UNL     1     -39.073  12.067   6.652  1.00 20.00     0.040 C 
HETATM    5  C5  UNL     1     -41.075  13.710   7.173  1.00 20.00     0.207 A 
HETATM    6  C6  UNL     1     -40.324  12.787   6.249  1.00 20.00     0.082 A 
HETATM    7  O7  UNL     1     -41.506  12.363   6.942  1.00 20.00    -0.375 OA
ENDROOT
TORSDOF 0
ENDMDL
MODEL 8
REMARK VINA RESULT:      -3.3      9.359     10.361
REMARK  0 active torsions:
REMARK  status: ('A' for Active; 'I' for Inactive)
ROOT
HETATM    1  C1  UNL     1     -41.691   8.146  -0.418  1.00 20.00     0.003 C 
HETATM    2  C2  UNL     1     -40.608   7.263   0.195  1.00 20.00     0.003 C 
HETATM    3  C3  UNL     1     -42.965   7.308  -0.280  1.00 20.00     0.040 C 
HETATM    4  C4  UNL     1     -40.970   5.854  -0.287  1.00 20.00     0.040 C 
HETATM    5  C5  UNL     1     -43.343   4.698  -0.181  1.00 20.00     0.207 A 
HETATM    6  C6  UNL     1     -42.463   5.902  -0.396  1.00 20.00     0.082 A 
HETATM    7  O7  UNL     1     -43.005   5.158  -1.496  1.00 20.00    -0.375 OA
ENDROOT
TORSDOF 0
ENDMDL
MODEL 9
REMARK VINA RESULT:      -3.2     15.689     16.675
REMARK  0 active torsions:
REMARK  status: ('A' for Active; 'I' for Inactive)
ROOT
HETATM    1  C1  UNL     1     -22.690  18.217  12.096  1.00 20.00     0.003 C 
HETATM    2  C2  UNL     1     -24.123  18.396  11.602  1.00 20.00     0.003 C 
HETATM    3  C3  UNL     1     -21.842  18.452  10.843  1.00 20.00     0.040 C 
HETATM    4  C4  UNL     1     -24.119  17.730  10.222  1.00 20.00     0.040 C 
HETATM    5  C5  UNL     1     -22.367  18.102   8.281  1.00 20.00     0.207 A 
HETATM    6  C6  UNL     1     -22.719  17.952   9.738  1.00 20.00     0.082 A 
HETATM    7  O7  UNL     1     -22.172  16.866   8.978  1.00 20.00    -0.375 OA
ENDROOT
TORSDOF 0
ENDMDL
