MODEL 1
REMARK VINA RESULT:      -3.0      0.000      0.000
REMARK  2 active torsions:
REMARK  status: ('A' for Active; 'I' for Inactive)
REMARK    1  A    between atoms: C2_2  and  C4_4 
REMARK    2  A    between atoms: C4_4  and  S6_6 
ROOT
HETATM    1  C1  UNL     1     -32.208   7.652   3.715  1.00 20.00     0.201 A 
HETATM    2  C2  UNL     1     -33.434   7.745   4.581  1.00 20.00     0.154 A 
HETATM    3  O5  UNL     1     -32.610   8.889   4.327  1.00 20.00    -0.380 OA
ENDROOT
BRANCH   2   4
HETATM    4  C4  UNL     1     -33.417   7.272   5.990  1.00 20.00     0.107 C 
BRANCH   4   5
HETATM    5  S6  UNL     1     -34.471   5.801   6.213  1.00 20.00    -0.171 SA
HETATM    6  C3  UNL     1     -35.199   5.757   4.561  1.00 20.00     0.089 C 
ENDBRANCH   4   5
ENDBRANCH   2   4
TORSDOF 2
ENDMDL
MODEL 2
REMARK VINA RESULT:      -2.9      2.411      3.271
REMARK  2 active torsions:
REMARK  status: ('A' for Active; 'I' for Inactive)
REMARK    1  A    between atoms: C2_2  and  C4_4 
REMARK    2  A    between atoms: C4_4  and  S6_6 
ROOT
HETATM    1  C1  UNL     1     -35.431   5.746   4.644  1.00 20.00     0.201 A 
HETATM    2  C2  UNL     1     -34.007   6.219   4.741  1.00 20.00     0.154 A 
HETATM    3  O5  UNL     1     -34.461   5.064   5.456  1.00 20.00    -0.380 OA
ENDROOT
BRANCH   2   4
HETATM    4  C4  UNL     1     -33.637   7.372   5.603  1.00 20.00     0.107 C 
BRANCH   4   5
HETATM    5  S6  UNL     1     -32.512   8.517   4.738  1.00 20.00    -0.171 SA
HETATM    6  C3  UNL     1     -32.214   7.516   3.265  1.00 20.00     0.089 C 
ENDBRANCH   4   5
ENDBRANCH   2   4
TORSDOF 2
ENDMDL
MODEL 3
REMARK VINA RESULT:      -2.7      1.129      1.136
REMARK  2 active torsions:
REMARK  status: ('A' for Active; 'I' for Inactive)
REMARK    1  A    between atoms: C2_2  and  C4_4 
REMARK    2  A    between atoms: C4_4  and  S6_6 
ROOT
HETATM    1  C1  UNL     1     -32.364   8.646   3.294  1.00 20.00     0.201 A 
HETATM    2  C2  UNL     1     -32.591   8.012   4.638  1.00 20.00     0.154 A 
HETATM    3  O5  UNL     1     -32.446   7.220   3.454  1.00 20.00    -0.380 OA
ENDROOT
BRANCH   2   4
HETATM    4  C4  UNL     1     -33.946   7.968   5.248  1.00 20.00     0.107 C 
BRANCH   4   5
HETATM    5  S6  UNL     1     -34.175   6.463   6.254  1.00 20.00    -0.171 SA
HETATM    6  C3  UNL     1     -34.950   5.430   4.991  1.00 20.00     0.089 C 
ENDBRANCH   4   5
ENDBRANCH   2   4
TORSDOF 2
ENDMDL
MODEL 4
REMARK VINA RESULT:      -2.7      2.691      3.501
REMARK  2 active torsions:
REMARK  status: ('A' for Active; 'I' for Inactive)
REMARK    1  A    between atoms: C2_2  and  C4_4 
REMARK    2  A    between atoms: C4_4  and  S6_6 
ROOT
HETATM    1  C1  UNL     1     -34.550   5.500   5.935  1.00 20.00     0.201 A 
HETATM    2  C2  UNL     1     -34.274   6.506   4.852  1.00 20.00     0.154 A 
HETATM    3  O5  UNL     1     -35.474   5.724   4.857  1.00 20.00    -0.380 OA
ENDROOT
BRANCH   2   4
HETATM    4  C4  UNL     1     -33.341   6.198   3.737  1.00 20.00     0.107 C 
BRANCH   4   5
HETATM    5  S6  UNL     1     -32.281   7.628   3.339  1.00 20.00    -0.171 SA
HETATM    6  C3  UNL     1     -32.530   8.560   4.866  1.00 20.00     0.089 C 
ENDBRANCH   4   5
ENDBRANCH   2   4
TORSDOF 2
ENDMDL
MODEL 5
REMARK VINA RESULT:      -2.7     12.217     12.726
REMARK  2 active torsions:
REMARK  status: ('A' for Active; 'I' for Inactive)
REMARK    1  A    between atoms: C2_2  and  C4_4 
REMARK    2  A    between atoms: C4_4  and  S6_6 
ROOT
HETATM    1  C1  UNL     1     -32.015  18.806  -0.295  1.00 20.00     0.201 A 
HETATM    2  C2  UNL     1     -31.003  19.156   0.759  1.00 20.00     0.154 A 
HETATM    3  O5  UNL     1     -30.604  18.663  -0.525  1.00 20.00    -0.380 OA
ENDROOT
BRANCH   2   4
HETATM    4  C4  UNL     1     -30.719  18.234   1.890  1.00 20.00     0.107 C 
BRANCH   4   5
HETATM    5  S6  UNL     1     -30.335  19.152   3.419  1.00 20.00    -0.171 SA
HETATM    6  C3  UNL     1     -28.615  18.632   3.601  1.00 20.00     0.089 C 
ENDBRANCH   4   5
ENDBRANCH   2   4
TORSDOF 2
ENDMDL
MODEL 6
REMARK VINA RESULT:      -2.5     15.330     15.908
REMARK  2 active torsions:
REMARK  status: ('A' for Active; 'I' for Inactive)
REMARK    1  A    between atoms: C2_2  and  C4_4 
REMARK    2  A    between atoms: C4_4  and  S6_6 
ROOT
HETATM    1  C1  UNL     1     -21.547  17.848   7.933  1.00 20.00     0.201 A 
HETATM    2  C2  UNL     1     -21.810  17.771   9.411  1.00 20.00     0.154 A 
HETATM    3  O5  UNL     1     -22.057  16.654   8.549  1.00 20.00    -0.380 OA
ENDROOT
BRANCH   2   4
HETATM    4  C4  UNL     1     -23.032  18.373  10.006  1.00 20.00     0.107 C 
BRANCH   4   5
HETATM    5  S6  UNL     1     -23.211  17.919  11.764  1.00 20.00    -0.171 SA
HETATM    6  C3  UNL     1     -24.319  16.508  11.550  1.00 20.00     0.089 C 
ENDBRANCH   4   5
ENDBRANCH   2   4
TORSDOF 2
ENDMDL
MODEL 7
REMARK VINA RESULT:      -2.4     15.312     15.887
REMARK  2 active torsions:
REMARK  status: ('A' for Active; 'I' for Inactive)
REMARK    1  A    between atoms: C2_2  and  C4_4 
REMARK    2  A    between atoms: C4_4  and  S6_6 
ROOT
HETATM    1  C1  UNL     1     -25.279  16.977  12.101  1.00 20.00     0.201 A 
HETATM    2  C2  UNL     1     -24.086  17.193  11.211  1.00 20.00     0.154 A 
HETATM    3  O5  UNL     1     -24.263  15.973  11.940  1.00 20.00    -0.380 OA
ENDROOT
BRANCH   2   4
HETATM    4  C4  UNL     1     -22.933  18.017  11.659  1.00 20.00     0.107 C 
BRANCH   4   5
HETATM    5  S6  UNL     1     -21.891  18.527  10.251  1.00 20.00    -0.171 SA
HETATM    6  C3  UNL     1     -22.362  17.217   9.100  1.00 20.00     0.089 C 
ENDBRANCH   4   5
ENDBRANCH   2   4
TORSDOF 2
ENDMDL
MODEL 8
REMARK VINA RESULT:      -2.4     13.044     13.737
REMARK  2 active torsions:
REMARK  status: ('A' for Active; 'I' for Inactive)
REMARK    1  A    between atoms: C2_2  and  C4_4 
REMARK    2  A    between atoms: C4_4  and  S6_6 
ROOT
HETATM    1  C1  UNL     1     -35.818  15.518  -7.790  1.00 20.00     0.201 A 
HETATM    2  C2  UNL     1     -34.801  15.124  -6.755  1.00 20.00     0.154 A 
HETATM    3  O5  UNL     1     -35.945  14.307  -7.027  1.00 20.00    -0.380 OA
ENDROOT
BRANCH   2   4
HETATM    4  C4  UNL     1     -34.796  15.749  -5.406  1.00 20.00     0.107 C 
BRANCH   4   5
HETATM    5  S6  UNL     1     -33.612  14.920  -4.292  1.00 20.00    -0.171 SA
HETATM    6  C3  UNL     1     -33.374  16.275  -3.122  1.00 20.00     0.089 C 
ENDBRANCH   4   5
ENDBRANCH   2   4
TORSDOF 2
ENDMDL
MODEL 9
REMARK VINA RESULT:      -2.3      2.106      2.651
REMARK  2 active torsions:
REMARK  status: ('A' for Active; 'I' for Inactive)
REMARK    1  A    between atoms: C2_2  and  C4_4 
REMARK    2  A    between atoms: C4_4  and  S6_6 
ROOT
HETATM    1  C1  UNL     1     -32.606   6.343   2.882  1.00 20.00     0.201 A 
HETATM    2  C2  UNL     1     -33.247   5.281   3.731  1.00 20.00     0.154 A 
HETATM    3  O5  UNL     1     -33.184   5.161   2.306  1.00 20.00    -0.380 OA
ENDROOT
BRANCH   2   4
HETATM    4  C4  UNL     1     -34.619   5.457   4.275  1.00 20.00     0.107 C 
BRANCH   4   5
HETATM    5  S6  UNL     1     -34.614   5.494   6.099  1.00 20.00    -0.171 SA
HETATM    6  C3  UNL     1     -33.927   7.150   6.318  1.00 20.00     0.089 C 
ENDBRANCH   4   5
ENDBRANCH   2   4
TORSDOF 2
ENDMDL
