MODEL 1
REMARK VINA RESULT:      -3.4      0.000      0.000
REMARK  1 active torsions:
REMARK  status: ('A' for Active; 'I' for Inactive)
REMARK    1  A    between atoms: C5_5  and  O12_12 
ROOT
HETATM    1  C1  UNL     1     -35.385  15.496  -7.533  1.00 20.00     0.006 C 
HETATM    2  C2  UNL     1     -34.037  15.181  -6.870  1.00 20.00     0.012 C 
HETATM    3  C3  UNL     1     -35.799  14.922  -5.283  1.00 20.00     0.017 C 
HETATM    4  C4  UNL     1     -36.261  15.931  -6.345  1.00 20.00    -0.003 C 
HETATM    5  C5  UNL     1     -34.440  16.890  -5.064  1.00 20.00     0.137 C 
HETATM    6  C6  UNL     1     -34.334  15.366  -5.363  1.00 20.00    -0.017 C 
HETATM    7  C7  UNL     1     -35.792  17.293  -5.739  1.00 20.00    -0.017 C 
HETATM    8  C8  UNL     1     -33.387  14.593  -4.465  1.00 20.00     0.018 C 
HETATM    9  C9  UNL     1     -35.572  18.390  -6.793  1.00 20.00     0.018 C 
HETATM   10  C10 UNL     1     -36.851  17.815  -4.747  1.00 20.00     0.018 C 
ENDROOT
BRANCH   5  11
HETATM   11  O12 UNL     1     -34.442  17.123  -3.663  1.00 20.00    -0.389 OA
HETATM   12  C11 UNL     1     -33.434  18.052  -3.288  1.00 20.00     0.202 C 
ENDBRANCH   5  11
TORSDOF 1
ENDMDL
MODEL 2
REMARK VINA RESULT:      -3.3     13.630     14.647
REMARK  1 active torsions:
REMARK  status: ('A' for Active; 'I' for Inactive)
REMARK    1  A    between atoms: C5_5  and  O12_12 
ROOT
HETATM    1  C1  UNL     1     -43.067  14.014   5.206  1.00 20.00     0.006 C 
HETATM    2  C2  UNL     1     -41.543  13.903   5.075  1.00 20.00     0.012 C 
HETATM    3  C3  UNL     1     -42.330  12.350   6.706  1.00 20.00     0.017 C 
HETATM    4  C4  UNL     1     -43.329  13.515   6.638  1.00 20.00    -0.003 C 
HETATM    5  C5  UNL     1     -41.224  14.313   7.540  1.00 20.00     0.137 C 
HETATM    6  C6  UNL     1     -41.121  13.246   6.411  1.00 20.00    -0.017 C 
HETATM    7  C7  UNL     1     -42.767  14.501   7.714  1.00 20.00    -0.017 C 
HETATM    8  C8  UNL     1     -39.795  12.515   6.329  1.00 20.00     0.018 C 
HETATM    9  C9  UNL     1     -43.171  15.964   7.475  1.00 20.00     0.018 C 
HETATM   10  C10 UNL     1     -43.288  14.103   9.110  1.00 20.00     0.018 C 
ENDROOT
BRANCH   5  11
HETATM   11  O12 UNL     1     -40.598  13.845   8.725  1.00 20.00    -0.389 OA
HETATM   12  C11 UNL     1     -40.043  14.916   9.479  1.00 20.00     0.202 C 
ENDBRANCH   5  11
TORSDOF 1
ENDMDL
MODEL 3
REMARK VINA RESULT:      -3.3     14.000     15.075
REMARK  1 active torsions:
REMARK  status: ('A' for Active; 'I' for Inactive)
REMARK    1  A    between atoms: C5_5  and  O12_12 
ROOT
HETATM    1  C1  UNL     1     -40.907  13.578   5.502  1.00 20.00     0.006 C 
HETATM    2  C2  UNL     1     -41.258  12.350   6.352  1.00 20.00     0.012 C 
HETATM    3  C3  UNL     1     -43.207  13.684   6.014  1.00 20.00     0.017 C 
HETATM    4  C4  UNL     1     -41.979  14.602   5.914  1.00 20.00    -0.003 C 
HETATM    5  C5  UNL     1     -42.196  13.795   8.190  1.00 20.00     0.137 C 
HETATM    6  C6  UNL     1     -42.561  12.779   7.069  1.00 20.00    -0.017 C 
HETATM    7  C7  UNL     1     -41.797  15.079   7.391  1.00 20.00    -0.017 C 
HETATM    8  C8  UNL     1     -43.417  11.608   7.510  1.00 20.00     0.018 C 
HETATM    9  C9  UNL     1     -40.359  15.507   7.724  1.00 20.00     0.018 C 
HETATM   10  C10 UNL     1     -42.712  16.291   7.665  1.00 20.00     0.018 C 
ENDROOT
BRANCH   5  11
HETATM   11  O12 UNL     1     -43.308  14.012   9.046  1.00 20.00    -0.389 OA
HETATM   12  C11 UNL     1     -42.953  13.849  10.413  1.00 20.00     0.202 C 
ENDBRANCH   5  11
TORSDOF 1
ENDMDL
MODEL 4
REMARK VINA RESULT:      -3.3     14.075     15.399
REMARK  1 active torsions:
REMARK  status: ('A' for Active; 'I' for Inactive)
REMARK    1  A    between atoms: C5_5  and  O12_12 
ROOT
HETATM    1  C1  UNL     1     -41.145  16.648   7.856  1.00 20.00     0.006 C 
HETATM    2  C2  UNL     1     -42.153  16.176   8.912  1.00 20.00     0.012 C 
HETATM    3  C3  UNL     1     -40.297  14.680   8.839  1.00 20.00     0.017 C 
HETATM    4  C4  UNL     1     -40.423  15.348   7.461  1.00 20.00    -0.003 C 
HETATM    5  C5  UNL     1     -42.338  13.908   7.832  1.00 20.00     0.137 C 
HETATM    6  C6  UNL     1     -41.811  14.676   9.080  1.00 20.00    -0.017 C 
HETATM    7  C7  UNL     1     -41.365  14.363   6.696  1.00 20.00    -0.017 C 
HETATM    8  C8  UNL     1     -42.239  14.109  10.419  1.00 20.00     0.018 C 
HETATM    9  C9  UNL     1     -42.139  15.025   5.545  1.00 20.00     0.018 C 
HETATM   10  C10 UNL     1     -40.535  13.213   6.089  1.00 20.00     0.018 C 
ENDROOT
BRANCH   5  11
HETATM   11  O12 UNL     1     -42.292  12.506   8.057  1.00 20.00    -0.389 OA
HETATM   12  C11 UNL     1     -43.417  11.850   7.488  1.00 20.00     0.202 C 
ENDBRANCH   5  11
TORSDOF 1
ENDMDL
MODEL 5
REMARK VINA RESULT:      -3.2     13.212     14.672
REMARK  1 active torsions:
REMARK  status: ('A' for Active; 'I' for Inactive)
REMARK    1  A    between atoms: C5_5  and  O12_12 
ROOT
HETATM    1  C1  UNL     1     -40.254  15.027   8.610  1.00 20.00     0.006 C 
HETATM    2  C2  UNL     1     -40.541  16.214   7.682  1.00 20.00     0.012 C 
HETATM    3  C3  UNL     1     -42.590  15.175   8.324  1.00 20.00     0.017 C 
HETATM    4  C4  UNL     1     -41.477  14.118   8.399  1.00 20.00    -0.003 C 
HETATM    5  C5  UNL     1     -41.828  14.753   6.085  1.00 20.00     0.137 C 
HETATM    6  C6  UNL     1     -41.952  15.898   7.132  1.00 20.00    -0.017 C 
HETATM    7  C7  UNL     1     -41.507  13.500   6.964  1.00 20.00    -0.017 C 
HETATM    8  C8  UNL     1     -42.702  17.129   6.661  1.00 20.00     0.018 C 
HETATM    9  C9  UNL     1     -40.172  12.864   6.543  1.00 20.00     0.018 C 
HETATM   10  C10 UNL     1     -42.583  12.397   6.892  1.00 20.00     0.018 C 
ENDROOT
BRANCH   5  11
HETATM   11  O12 UNL     1     -43.040  14.610   5.359  1.00 20.00    -0.389 OA
HETATM   12  C11 UNL     1     -42.814  14.638   3.956  1.00 20.00     0.202 C 
ENDBRANCH   5  11
TORSDOF 1
ENDMDL
MODEL 6
REMARK VINA RESULT:      -3.2     12.159     14.033
REMARK  1 active torsions:
REMARK  status: ('A' for Active; 'I' for Inactive)
REMARK    1  A    between atoms: C5_5  and  O12_12 
ROOT
HETATM    1  C1  UNL     1     -33.168   8.650   5.837  1.00 20.00     0.006 C 
HETATM    2  C2  UNL     1     -32.027   8.436   4.835  1.00 20.00     0.012 C 
HETATM    3  C3  UNL     1     -34.117   8.473   3.686  1.00 20.00     0.017 C 
HETATM    4  C4  UNL     1     -34.376   8.013   5.129  1.00 20.00    -0.003 C 
HETATM    5  C5  UNL     1     -33.086   6.321   3.966  1.00 20.00     0.137 C 
HETATM    6  C6  UNL     1     -32.742   7.799   3.619  1.00 20.00    -0.017 C 
HETATM    7  C7  UNL     1     -34.237   6.460   5.015  1.00 20.00    -0.017 C 
HETATM    8  C8  UNL     1     -31.999   8.002   2.312  1.00 20.00     0.018 C 
HETATM    9  C9  UNL     1     -33.856   5.781   6.340  1.00 20.00     0.018 C 
HETATM   10  C10 UNL     1     -35.576   5.849   4.554  1.00 20.00     0.018 C 
ENDROOT
BRANCH   5  11
HETATM   11  O12 UNL     1     -33.494   5.619   2.802  1.00 20.00    -0.389 OA
HETATM   12  C11 UNL     1     -32.717   4.446   2.601  1.00 20.00     0.202 C 
ENDBRANCH   5  11
TORSDOF 1
ENDMDL
MODEL 7
REMARK VINA RESULT:      -3.0      1.635      3.816
REMARK  1 active torsions:
REMARK  status: ('A' for Active; 'I' for Inactive)
REMARK    1  A    between atoms: C5_5  and  O12_12 
ROOT
HETATM    1  C1  UNL     1     -33.881  18.548  -1.742  1.00 20.00     0.006 C 
HETATM    2  C2  UNL     1     -33.718  17.029  -1.881  1.00 20.00     0.012 C 
HETATM    3  C3  UNL     1     -32.922  18.112  -3.852  1.00 20.00     0.017 C 
HETATM    4  C4  UNL     1     -33.977  19.021  -3.203  1.00 20.00    -0.003 C 
HETATM    5  C5  UNL     1     -35.048  17.005  -4.020  1.00 20.00     0.137 C 
HETATM    6  C6  UNL     1     -33.627  16.823  -3.412  1.00 20.00    -0.017 C 
HETATM    7  C7  UNL     1     -35.298  18.543  -3.888  1.00 20.00    -0.017 C 
HETATM    8  C8  UNL     1     -32.912  15.544  -3.804  1.00 20.00     0.018 C 
HETATM    9  C9  UNL     1     -36.557  18.824  -3.053  1.00 20.00     0.018 C 
HETATM   10  C10 UNL     1     -35.474  19.263  -5.241  1.00 20.00     0.018 C 
ENDROOT
BRANCH   5  11
HETATM   11  O12 UNL     1     -35.071  16.566  -5.370  1.00 20.00    -0.389 OA
HETATM   12  C11 UNL     1     -36.111  15.623  -5.593  1.00 20.00     0.202 C 
ENDBRANCH   5  11
TORSDOF 1
ENDMDL
MODEL 8
REMARK VINA RESULT:      -3.0      1.149      3.132
REMARK  1 active torsions:
REMARK  status: ('A' for Active; 'I' for Inactive)
REMARK    1  A    between atoms: C5_5  and  O12_12 
ROOT
HETATM    1  C1  UNL     1     -37.561  16.824  -6.220  1.00 20.00     0.006 C 
HETATM    2  C2  UNL     1     -37.309  17.684  -4.975  1.00 20.00     0.012 C 
HETATM    3  C3  UNL     1     -35.525  17.972  -6.532  1.00 20.00     0.017 C 
HETATM    4  C4  UNL     1     -36.143  16.586  -6.770  1.00 20.00    -0.003 C 
HETATM    5  C5  UNL     1     -35.056  16.620  -4.602  1.00 20.00     0.137 C 
HETATM    6  C6  UNL     1     -35.782  17.932  -5.022  1.00 20.00    -0.017 C 
HETATM    7  C7  UNL     1     -35.294  15.675  -5.825  1.00 20.00    -0.017 C 
HETATM    8  C8  UNL     1     -35.354  19.179  -4.272  1.00 20.00     0.018 C 
HETATM    9  C9  UNL     1     -36.023  14.393  -5.392  1.00 20.00     0.018 C 
HETATM   10  C10 UNL     1     -33.997  15.246  -6.541  1.00 20.00     0.018 C 
ENDROOT
BRANCH   5  11
HETATM   11  O12 UNL     1     -33.678  16.868  -4.369  1.00 20.00    -0.389 OA
HETATM   12  C11 UNL     1     -33.268  16.376  -3.099  1.00 20.00     0.202 C 
ENDBRANCH   5  11
TORSDOF 1
ENDMDL
MODEL 9
REMARK VINA RESULT:      -2.9      1.471      3.480
REMARK  1 active torsions:
REMARK  status: ('A' for Active; 'I' for Inactive)
REMARK    1  A    between atoms: C5_5  and  O12_12 
ROOT
HETATM    1  C1  UNL     1     -35.882  19.263  -3.984  1.00 20.00     0.006 C 
HETATM    2  C2  UNL     1     -35.314  18.499  -2.782  1.00 20.00     0.012 C 
HETATM    3  C3  UNL     1     -33.621  18.770  -4.440  1.00 20.00     0.017 C 
HETATM    4  C4  UNL     1     -34.986  18.796  -5.145  1.00 20.00    -0.003 C 
HETATM    5  C5  UNL     1     -34.590  16.581  -4.244  1.00 20.00     0.137 C 
HETATM    6  C6  UNL     1     -34.085  17.770  -3.375  1.00 20.00    -0.017 C 
HETATM    7  C7  UNL     1     -35.212  17.289  -5.491  1.00 20.00    -0.017 C 
HETATM    8  C8  UNL     1     -33.037  17.416  -2.338  1.00 20.00     0.018 C 
HETATM    9  C9  UNL     1     -36.694  16.913  -5.652  1.00 20.00     0.018 C 
HETATM   10  C10 UNL     1     -34.506  16.946  -6.819  1.00 20.00     0.018 C 
ENDROOT
BRANCH   5  11
HETATM   11  O12 UNL     1     -33.510  15.725  -4.589  1.00 20.00    -0.389 OA
HETATM   12  C11 UNL     1     -33.819  14.363  -4.321  1.00 20.00     0.202 C 
ENDBRANCH   5  11
TORSDOF 1
ENDMDL
