MODEL 1
REMARK VINA RESULT:      -3.6      0.000      0.000
REMARK  0 active torsions:
REMARK  status: ('A' for Active; 'I' for Inactive)
ROOT
HETATM    1  C1  UNL     1     -24.768  18.788  11.381  1.00 20.00     0.116 C 
HETATM    2  C2  UNL     1     -24.421  16.246  11.951  1.00 20.00     0.344 C 
HETATM    3  C3  UNL     1     -23.356  18.223  11.148  1.00 20.00     0.159 C 
HETATM    4  C4  UNL     1     -22.747  18.845   9.882  1.00 20.00     0.049 C 
HETATM    5  C5  UNL     1     -22.414  18.509  12.332  1.00 20.00     0.049 C 
HETATM    6  N6  UNL     1     -23.500  16.764  10.937  1.00 20.00     0.102 N 
HETATM    7  S7  UNL     1     -25.646  17.519  12.327  1.00 20.00    -0.137 SA
HETATM    8  H18 UNL     1     -22.595  16.328  11.085  1.00 20.00     0.317 HD
ENDROOT
TORSDOF 0
ENDMDL
MODEL 2
REMARK VINA RESULT:      -3.4      2.167      2.975
REMARK  0 active torsions:
REMARK  status: ('A' for Active; 'I' for Inactive)
ROOT
HETATM    1  C1  UNL     1     -22.993  17.336   9.916  1.00 20.00     0.116 C 
HETATM    2  C2  UNL     1     -24.772  19.234   9.547  1.00 20.00     0.344 C 
HETATM    3  C3  UNL     1     -23.992  17.566  11.063  1.00 20.00     0.159 C 
HETATM    4  C4  UNL     1     -24.382  16.221  11.694  1.00 20.00     0.049 C 
HETATM    5  C5  UNL     1     -23.410  18.470  12.166  1.00 20.00     0.049 C 
HETATM    6  N6  UNL     1     -25.202  18.181  10.469  1.00 20.00     0.102 N 
HETATM    7  S7  UNL     1     -23.200  18.748   8.804  1.00 20.00    -0.137 SA
HETATM    8  H18 UNL     1     -25.738  18.616  11.214  1.00 20.00     0.317 HD
ENDROOT
TORSDOF 0
ENDMDL
MODEL 3
REMARK VINA RESULT:      -3.4      1.544      2.243
REMARK  0 active torsions:
REMARK  status: ('A' for Active; 'I' for Inactive)
ROOT
HETATM    1  C1  UNL     1     -23.943  17.034  10.491  1.00 20.00     0.116 C 
HETATM    2  C2  UNL     1     -22.664  18.463  12.288  1.00 20.00     0.344 C 
HETATM    3  C3  UNL     1     -22.798  17.919   9.970  1.00 20.00     0.159 C 
HETATM    4  C4  UNL     1     -22.042  17.189   8.849  1.00 20.00     0.049 C 
HETATM    5  C5  UNL     1     -23.308  19.263   9.418  1.00 20.00     0.049 C 
HETATM    6  N6  UNL     1     -21.868  18.140  11.102  1.00 20.00     0.102 N 
HETATM    7  S7  UNL     1     -24.232  17.572  12.195  1.00 20.00    -0.137 SA
HETATM    8  H18 UNL     1     -21.287  18.945  10.887  1.00 20.00     0.317 HD
ENDROOT
TORSDOF 0
ENDMDL
MODEL 4
REMARK VINA RESULT:      -3.4      2.313      3.232
REMARK  0 active torsions:
REMARK  status: ('A' for Active; 'I' for Inactive)
ROOT
HETATM    1  C1  UNL     1     -22.298  18.513  11.146  1.00 20.00     0.116 C 
HETATM    2  C2  UNL     1     -22.054  17.411   8.774  1.00 20.00     0.344 C 
HETATM    3  C3  UNL     1     -23.448  17.595  10.699  1.00 20.00     0.159 C 
HETATM    4  C4  UNL     1     -23.973  16.792  11.900  1.00 20.00     0.049 C 
HETATM    5  C5  UNL     1     -24.622  18.388  10.094  1.00 20.00     0.049 C 
HETATM    6  N6  UNL     1     -22.890  16.650   9.705  1.00 20.00     0.102 N 
HETATM    7  S7  UNL     1     -21.293  18.784   9.666  1.00 20.00    -0.137 SA
HETATM    8  H18 UNL     1     -23.659  16.248   9.177  1.00 20.00     0.317 HD
ENDROOT
TORSDOF 0
ENDMDL
MODEL 5
REMARK VINA RESULT:      -3.4      1.980      2.939
REMARK  0 active torsions:
REMARK  status: ('A' for Active; 'I' for Inactive)
ROOT
HETATM    1  C1  UNL     1     -24.661  18.832  10.181  1.00 20.00     0.116 C 
HETATM    2  C2  UNL     1     -22.400  18.513  11.483  1.00 20.00     0.344 C 
HETATM    3  C3  UNL     1     -24.777  18.491  11.677  1.00 20.00     0.159 C 
HETATM    4  C4  UNL     1     -25.951  19.263  12.299  1.00 20.00     0.049 C 
HETATM    5  C5  UNL     1     -25.003  16.987  11.914  1.00 20.00     0.049 C 
HETATM    6  N6  UNL     1     -23.521  18.938  12.324  1.00 20.00     0.102 N 
HETATM    7  S7  UNL     1     -22.924  18.550   9.756  1.00 20.00    -0.137 SA
HETATM    8  H18 UNL     1     -23.437  18.465  13.219  1.00 20.00     0.317 HD
ENDROOT
TORSDOF 0
ENDMDL
MODEL 6
REMARK VINA RESULT:      -3.3     16.227     17.312
REMARK  0 active torsions:
REMARK  status: ('A' for Active; 'I' for Inactive)
ROOT
HETATM    1  C1  UNL     1     -33.442   7.130   4.890  1.00 20.00     0.116 C 
HETATM    2  C2  UNL     1     -33.052   5.499   2.867  1.00 20.00     0.344 C 
HETATM    3  C3  UNL     1     -34.352   5.891   4.827  1.00 20.00     0.159 C 
HETATM    4  C4  UNL     1     -34.604   5.355   6.245  1.00 20.00     0.049 C 
HETATM    5  C5  UNL     1     -35.713   6.203   4.177  1.00 20.00     0.049 C 
HETATM    6  N6  UNL     1     -33.629   4.858   4.051  1.00 20.00     0.102 N 
HETATM    7  S7  UNL     1     -32.608   7.198   3.286  1.00 20.00    -0.137 SA
HETATM    8  H18 UNL     1     -34.301   4.165   3.735  1.00 20.00     0.317 HD
ENDROOT
TORSDOF 0
ENDMDL
MODEL 7
REMARK VINA RESULT:      -3.2     20.048     20.557
REMARK  0 active torsions:
REMARK  status: ('A' for Active; 'I' for Inactive)
ROOT
HETATM    1  C1  UNL     1     -34.671  16.738  -5.350  1.00 20.00     0.116 C 
HETATM    2  C2  UNL     1     -33.978  15.586  -7.609  1.00 20.00     0.344 C 
HETATM    3  C3  UNL     1     -34.404  15.225  -5.290  1.00 20.00     0.159 C 
HETATM    4  C4  UNL     1     -33.706  14.869  -3.968  1.00 20.00     0.049 C 
HETATM    5  C5  UNL     1     -35.702  14.402  -5.391  1.00 20.00     0.049 C 
HETATM    6  N6  UNL     1     -33.492  14.898  -6.411  1.00 20.00     0.102 N 
HETATM    7  S7  UNL     1     -34.740  17.147  -7.113  1.00 20.00    -0.137 SA
HETATM    8  H18 UNL     1     -33.542  13.898  -6.583  1.00 20.00     0.317 HD
ENDROOT
TORSDOF 0
ENDMDL
MODEL 8
REMARK VINA RESULT:      -3.1      1.705      2.296
REMARK  0 active torsions:
REMARK  status: ('A' for Active; 'I' for Inactive)
ROOT
HETATM    1  C1  UNL     1     -22.544  18.448  11.653  1.00 20.00     0.116 C 
HETATM    2  C2  UNL     1     -25.001  18.770  10.779  1.00 20.00     0.344 C 
HETATM    3  C3  UNL     1     -22.723  18.505  10.127  1.00 20.00     0.159 C 
HETATM    4  C4  UNL     1     -21.546  19.261   9.491  1.00 20.00     0.049 C 
HETATM    5  C5  UNL     1     -22.795  17.101   9.498  1.00 20.00     0.049 C 
HETATM    6  N6  UNL     1     -23.969  19.260   9.862  1.00 20.00     0.102 N 
HETATM    7  S7  UNL     1     -24.215  18.282  12.329  1.00 20.00    -0.137 SA
HETATM    8  H18 UNL     1     -24.272  19.056   8.914  1.00 20.00     0.317 HD
ENDROOT
TORSDOF 0
ENDMDL
MODEL 9
REMARK VINA RESULT:      -3.0      1.342      2.184
REMARK  0 active torsions:
REMARK  status: ('A' for Active; 'I' for Inactive)
ROOT
HETATM    1  C1  UNL     1     -23.917  16.858  11.961  1.00 20.00     0.116 C 
HETATM    2  C2  UNL     1     -25.575  18.863  12.332  1.00 20.00     0.344 C 
HETATM    3  C3  UNL     1     -23.439  18.237  11.476  1.00 20.00     0.159 C 
HETATM    4  C4  UNL     1     -21.933  18.391  11.740  1.00 20.00     0.049 C 
HETATM    5  C5  UNL     1     -23.692  18.444   9.971  1.00 20.00     0.049 C 
HETATM    6  N6  UNL     1     -24.166  19.254  12.272  1.00 20.00     0.102 N 
HETATM    7  S7  UNL     1     -25.677  17.060  12.331  1.00 20.00    -0.137 SA
HETATM    8  H18 UNL     1     -24.109  20.143  11.783  1.00 20.00     0.317 HD
ENDROOT
TORSDOF 0
ENDMDL
