MODEL 1
REMARK VINA RESULT:      -4.1      0.000      0.000
REMARK  3 active torsions:
REMARK  status: ('A' for Active; 'I' for Inactive)
REMARK    1  A    between atoms: C2_2  and  C6_6 
REMARK    2  A    between atoms: C2_2  and  O9_9 
REMARK    3  A    between atoms: C5_5  and  C6_6 
ROOT
HETATM    1  C1  UNL     1     -33.634   5.920   3.860  1.00 20.00     0.074 C 
HETATM    2  C6  UNL     1     -33.843   7.169   4.618  1.00 20.00     0.192 C 
HETATM    3  N7  UNL     1     -33.474   4.940   3.261  1.00 20.00    -0.196 NA
ENDROOT
BRANCH   2   4
HETATM    4  C2  UNL     1     -32.744   8.179   4.334  1.00 20.00     0.276 C 
HETATM    5  O8  UNL     1     -32.331   9.012   5.131  1.00 20.00    -0.264 OA
BRANCH   4   6
HETATM    6  O9  UNL     1     -32.298   8.020   3.051  1.00 20.00    -0.325 OA
HETATM    7  C4  UNL     1     -32.677   9.050   2.133  1.00 20.00     0.213 C 
ENDBRANCH   4   6
ENDBRANCH   2   4
BRANCH   2   8
HETATM    8  C5  UNL     1     -33.984   6.894   6.123  1.00 20.00     0.025 C 
HETATM    9  C3  UNL     1     -34.582   5.533   6.464  1.00 20.00     0.007 C 
ENDBRANCH   2   8
TORSDOF 3
ENDMDL
MODEL 2
REMARK VINA RESULT:      -3.7      1.235      3.427
REMARK  3 active torsions:
REMARK  status: ('A' for Active; 'I' for Inactive)
REMARK    1  A    between atoms: C2_2  and  C6_6 
REMARK    2  A    between atoms: C2_2  and  O9_9 
REMARK    3  A    between atoms: C5_5  and  C6_6 
ROOT
HETATM    1  C1  UNL     1     -32.625   6.347   2.867  1.00 20.00     0.074 C 
HETATM    2  C6  UNL     1     -32.237   7.723   3.231  1.00 20.00     0.192 C 
HETATM    3  N7  UNL     1     -32.925   5.262   2.582  1.00 20.00    -0.196 NA
ENDROOT
BRANCH   2   4
HETATM    4  C2  UNL     1     -32.807   8.120   4.582  1.00 20.00     0.276 C 
HETATM    5  O8  UNL     1     -32.391   9.038   5.279  1.00 20.00    -0.264 OA
BRANCH   4   6
HETATM    6  O9  UNL     1     -33.843   7.288   4.903  1.00 20.00    -0.325 OA
HETATM    7  C4  UNL     1     -33.965   6.959   6.291  1.00 20.00     0.213 C 
ENDBRANCH   4   6
ENDBRANCH   2   4
BRANCH   2   8
HETATM    8  C5  UNL     1     -32.632   8.725   2.134  1.00 20.00     0.025 C 
HETATM    9  C3  UNL     1     -32.105   8.381   0.744  1.00 20.00     0.007 C 
ENDBRANCH   2   8
TORSDOF 3
ENDMDL
MODEL 3
REMARK VINA RESULT:      -3.7      1.537      2.095
REMARK  3 active torsions:
REMARK  status: ('A' for Active; 'I' for Inactive)
REMARK    1  A    between atoms: C2_2  and  C6_6 
REMARK    2  A    between atoms: C2_2  and  O9_9 
REMARK    3  A    between atoms: C5_5  and  C6_6 
ROOT
HETATM    1  C1  UNL     1     -34.474   5.551   4.629  1.00 20.00     0.074 C 
HETATM    2  C6  UNL     1     -33.853   6.782   4.103  1.00 20.00     0.192 C 
HETATM    3  N7  UNL     1     -34.967   4.584   5.040  1.00 20.00    -0.196 NA
ENDROOT
BRANCH   2   4
HETATM    4  C2  UNL     1     -32.785   6.465   3.071  1.00 20.00     0.276 C 
HETATM    5  O8  UNL     1     -32.616   5.371   2.546  1.00 20.00    -0.264 OA
BRANCH   4   6
HETATM    6  O9  UNL     1     -32.038   7.584   2.828  1.00 20.00    -0.325 OA
HETATM    7  C4  UNL     1     -32.167   8.142   1.516  1.00 20.00     0.213 C 
ENDBRANCH   4   6
ENDBRANCH   2   4
BRANCH   2   8
HETATM    8  C5  UNL     1     -33.302   7.661   5.236  1.00 20.00     0.025 C 
HETATM    9  C3  UNL     1     -33.948   7.416   6.597  1.00 20.00     0.007 C 
ENDBRANCH   2   8
TORSDOF 3
ENDMDL
MODEL 4
REMARK VINA RESULT:      -3.6      9.879     10.391
REMARK  3 active torsions:
REMARK  status: ('A' for Active; 'I' for Inactive)
REMARK    1  A    between atoms: C2_2  and  C6_6 
REMARK    2  A    between atoms: C2_2  and  O9_9 
REMARK    3  A    between atoms: C5_5  and  C6_6 
ROOT
HETATM    1  C1  UNL     1     -41.404  13.590   4.789  1.00 20.00     0.074 C 
HETATM    2  C6  UNL     1     -40.906  12.811   5.939  1.00 20.00     0.192 C 
HETATM    3  N7  UNL     1     -41.799  14.200   3.884  1.00 20.00    -0.196 NA
ENDROOT
BRANCH   2   4
HETATM    4  C2  UNL     1     -41.082  13.573   7.241  1.00 20.00     0.276 C 
HETATM    5  O8  UNL     1     -41.772  13.204   8.184  1.00 20.00    -0.264 OA
BRANCH   4   6
HETATM    6  O9  UNL     1     -40.362  14.734   7.192  1.00 20.00    -0.325 OA
HETATM    7  C4  UNL     1     -40.312  15.482   8.411  1.00 20.00     0.213 C 
ENDBRANCH   4   6
ENDBRANCH   2   4
BRANCH   2   8
HETATM    8  C5  UNL     1     -39.448  12.374   5.731  1.00 20.00     0.025 C 
HETATM    9  C3  UNL     1     -39.174  11.700   4.389  1.00 20.00     0.007 C 
ENDBRANCH   2   8
TORSDOF 3
ENDMDL
MODEL 5
REMARK VINA RESULT:      -3.6     12.016     12.472
REMARK  3 active torsions:
REMARK  status: ('A' for Active; 'I' for Inactive)
REMARK    1  A    between atoms: C2_2  and  C6_6 
REMARK    2  A    between atoms: C2_2  and  O9_9 
REMARK    3  A    between atoms: C5_5  and  C6_6 
ROOT
HETATM    1  C1  UNL     1     -31.802  18.315  -0.696  1.00 20.00     0.074 C 
HETATM    2  C6  UNL     1     -33.125  17.767  -1.052  1.00 20.00     0.192 C 
HETATM    3  N7  UNL     1     -30.760  18.741  -0.414  1.00 20.00    -0.196 NA
ENDROOT
BRANCH   2   4
HETATM    4  C2  UNL     1     -33.206  17.433  -2.531  1.00 20.00     0.276 C 
HETATM    5  O8  UNL     1     -32.989  18.222  -3.443  1.00 20.00    -0.264 OA
BRANCH   4   6
HETATM    6  O9  UNL     1     -33.569  16.124  -2.686  1.00 20.00    -0.325 OA
HETATM    7  C4  UNL     1     -33.191  15.520  -3.927  1.00 20.00     0.213 C 
ENDBRANCH   4   6
ENDBRANCH   2   4
BRANCH   2   8
HETATM    8  C5  UNL     1     -34.258  18.712  -0.622  1.00 20.00     0.025 C 
HETATM    9  C3  UNL     1     -34.387  18.899   0.887  1.00 20.00     0.007 C 
ENDBRANCH   2   8
TORSDOF 3
ENDMDL
MODEL 6
REMARK VINA RESULT:      -3.6      2.490      3.763
REMARK  3 active torsions:
REMARK  status: ('A' for Active; 'I' for Inactive)
REMARK    1  A    between atoms: C2_2  and  C6_6 
REMARK    2  A    between atoms: C2_2  and  O9_9 
REMARK    3  A    between atoms: C5_5  and  C6_6 
ROOT
HETATM    1  C1  UNL     1     -32.266   7.809   1.996  1.00 20.00     0.074 C 
HETATM    2  C6  UNL     1     -32.414   7.147   3.307  1.00 20.00     0.192 C 
HETATM    3  N7  UNL     1     -32.145   8.328   0.965  1.00 20.00    -0.196 NA
ENDROOT
BRANCH   2   4
HETATM    4  C2  UNL     1     -33.146   5.822   3.178  1.00 20.00     0.276 C 
HETATM    5  O8  UNL     1     -32.783   4.883   2.480  1.00 20.00    -0.264 OA
BRANCH   4   6
HETATM    6  O9  UNL     1     -34.273   5.846   3.951  1.00 20.00    -0.325 OA
HETATM    7  C4  UNL     1     -34.428   4.746   4.853  1.00 20.00     0.213 C 
ENDBRANCH   4   6
ENDBRANCH   2   4
BRANCH   2   8
HETATM    8  C5  UNL     1     -33.094   8.073   4.328  1.00 20.00     0.025 C 
HETATM    9  C3  UNL     1     -32.177   9.135   4.928  1.00 20.00     0.007 C 
ENDBRANCH   2   8
TORSDOF 3
ENDMDL
MODEL 7
REMARK VINA RESULT:      -3.6     12.039     12.860
REMARK  3 active torsions:
REMARK  status: ('A' for Active; 'I' for Inactive)
REMARK    1  A    between atoms: C2_2  and  C6_6 
REMARK    2  A    between atoms: C2_2  and  O9_9 
REMARK    3  A    between atoms: C5_5  and  C6_6 
ROOT
HETATM    1  C1  UNL     1     -35.242  14.112  -4.578  1.00 20.00     0.074 C 
HETATM    2  C6  UNL     1     -34.560  15.408  -4.752  1.00 20.00     0.192 C 
HETATM    3  N7  UNL     1     -35.784  13.094  -4.439  1.00 20.00    -0.196 NA
ENDROOT
BRANCH   2   4
HETATM    4  C2  UNL     1     -34.279  15.693  -6.218  1.00 20.00     0.276 C 
HETATM    5  O8  UNL     1     -33.908  14.861  -7.037  1.00 20.00    -0.264 OA
BRANCH   4   6
HETATM    6  O9  UNL     1     -34.494  17.018  -6.475  1.00 20.00    -0.325 OA
HETATM    7  C4  UNL     1     -35.681  17.575  -5.901  1.00 20.00     0.213 C 
ENDBRANCH   4   6
ENDBRANCH   2   4
BRANCH   2   8
HETATM    8  C5  UNL     1     -33.280  15.487  -3.905  1.00 20.00     0.025 C 
HETATM    9  C3  UNL     1     -33.328  16.517  -2.781  1.00 20.00     0.007 C 
ENDBRANCH   2   8
TORSDOF 3
ENDMDL
MODEL 8
REMARK VINA RESULT:      -3.5     12.179     13.081
REMARK  3 active torsions:
REMARK  status: ('A' for Active; 'I' for Inactive)
REMARK    1  A    between atoms: C2_2  and  C6_6 
REMARK    2  A    between atoms: C2_2  and  O9_9 
REMARK    3  A    between atoms: C5_5  and  C6_6 
ROOT
HETATM    1  C1  UNL     1     -34.010  15.112  -6.715  1.00 20.00     0.074 C 
HETATM    2  C6  UNL     1     -34.422  14.930  -5.310  1.00 20.00     0.192 C 
HETATM    3  N7  UNL     1     -33.684  15.251  -7.820  1.00 20.00    -0.196 NA
ENDROOT
BRANCH   2   4
HETATM    4  C2  UNL     1     -35.843  14.401  -5.213  1.00 20.00     0.276 C 
HETATM    5  O8  UNL     1     -36.198  13.462  -4.512  1.00 20.00    -0.264 OA
BRANCH   4   6
HETATM    6  O9  UNL     1     -36.657  15.127  -6.038  1.00 20.00    -0.325 OA
HETATM    7  C4  UNL     1     -37.625  15.952  -5.381  1.00 20.00     0.213 C 
ENDBRANCH   4   6
ENDBRANCH   2   4
BRANCH   2   8
HETATM    8  C5  UNL     1     -34.243  16.224  -4.501  1.00 20.00     0.025 C 
HETATM    9  C3  UNL     1     -33.355  16.081  -3.268  1.00 20.00     0.007 C 
ENDBRANCH   2   8
TORSDOF 3
ENDMDL
MODEL 9
REMARK VINA RESULT:      -3.5     10.125     10.458
REMARK  3 active torsions:
REMARK  status: ('A' for Active; 'I' for Inactive)
REMARK    1  A    between atoms: C2_2  and  C6_6 
REMARK    2  A    between atoms: C2_2  and  O9_9 
REMARK    3  A    between atoms: C5_5  and  C6_6 
ROOT
HETATM    1  C1  UNL     1     -40.391  13.679   7.318  1.00 20.00     0.074 C 
HETATM    2  C6  UNL     1     -40.429  13.374   5.875  1.00 20.00     0.192 C 
HETATM    3  N7  UNL     1     -40.358  13.923   8.452  1.00 20.00    -0.196 NA
ENDROOT
BRANCH   2   4
HETATM    4  C2  UNL     1     -41.775  13.731   5.269  1.00 20.00     0.276 C 
HETATM    5  O8  UNL     1     -42.836  13.766   5.883  1.00 20.00    -0.264 OA
BRANCH   4   6
HETATM    6  O9  UNL     1     -41.622  13.996   3.937  1.00 20.00    -0.325 OA
HETATM    7  C4  UNL     1     -42.429  15.059   3.420  1.00 20.00     0.213 C 
ENDBRANCH   4   6
ENDBRANCH   2   4
BRANCH   2   8
HETATM    8  C5  UNL     1     -40.056  11.909   5.601  1.00 20.00     0.025 C 
HETATM    9  C3  UNL     1     -39.106  11.707   4.424  1.00 20.00     0.007 C 
ENDBRANCH   2   8
TORSDOF 3
ENDMDL
