MODEL 1
REMARK VINA RESULT:      -4.1      0.000      0.000
REMARK  0 active torsions:
REMARK  status: ('A' for Active; 'I' for Inactive)
ROOT
HETATM    1  C1  UNL     1     -25.440  19.238   9.025  1.00 20.00     0.033 A 
HETATM    2  C2  UNL     1     -24.814  19.260   7.790  1.00 20.00     0.117 A 
HETATM    3  C3  UNL     1     -22.738  18.686   8.654  1.00 20.00     0.136 A 
HETATM    4  C4  UNL     1     -23.916  18.471  12.323  1.00 20.00     0.070 A 
HETATM    5  C5  UNL     1     -24.647  18.917  10.143  1.00 20.00     0.002 A 
HETATM    6  C6  UNL     1     -23.293  18.643   9.934  1.00 20.00     0.034 A 
HETATM    7  C7  UNL     1     -24.988  18.812  11.534  1.00 20.00     0.029 A 
HETATM    8  N8  UNL     1     -23.509  18.995   7.589  1.00 20.00    -0.272 NA
HETATM    9  S9  UNL     1     -22.489  18.272  11.411  1.00 20.00    -0.098 SA
HETATM   10 BR10 UNL     1     -26.729  19.110  12.208  1.00 20.00    -0.050 Br
ENDROOT
TORSDOF 0
ENDMDL
MODEL 2
REMARK VINA RESULT:      -4.0     16.129     16.695
REMARK  0 active torsions:
REMARK  status: ('A' for Active; 'I' for Inactive)
ROOT
HETATM    1  C1  UNL     1     -34.005   7.024   6.118  1.00 20.00     0.033 A 
HETATM    2  C2  UNL     1     -34.779   5.967   6.565  1.00 20.00     0.117 A 
HETATM    3  C3  UNL     1     -34.473   4.718   4.633  1.00 20.00     0.136 A 
HETATM    4  C4  UNL     1     -32.239   7.321   2.865  1.00 20.00     0.070 A 
HETATM    5  C5  UNL     1     -33.432   6.907   4.838  1.00 20.00     0.002 A 
HETATM    6  C6  UNL     1     -33.680   5.740   4.109  1.00 20.00     0.034 A 
HETATM    7  C7  UNL     1     -32.595   7.810   4.100  1.00 20.00     0.029 A 
HETATM    8  N8  UNL     1     -35.017   4.842   5.863  1.00 20.00    -0.272 NA
HETATM    9  S9  UNL     1     -32.900   5.778   2.574  1.00 20.00    -0.098 SA
HETATM   10 BR10 UNL     1     -32.041   9.494   4.757  1.00 20.00    -0.050 Br
ENDROOT
TORSDOF 0
ENDMDL
MODEL 3
REMARK VINA RESULT:      -3.8     16.289     16.870
REMARK  0 active torsions:
REMARK  status: ('A' for Active; 'I' for Inactive)
ROOT
HETATM    1  C1  UNL     1     -34.396   5.122   4.858  1.00 20.00     0.033 A 
HETATM    2  C2  UNL     1     -34.926   5.372   6.113  1.00 20.00     0.117 A 
HETATM    3  C3  UNL     1     -33.954   7.474   6.278  1.00 20.00     0.136 A 
HETATM    4  C4  UNL     1     -32.219   7.346   2.833  1.00 20.00     0.070 A 
HETATM    5  C5  UNL     1     -33.592   6.126   4.286  1.00 20.00     0.002 A 
HETATM    6  C6  UNL     1     -33.383   7.299   5.016  1.00 20.00     0.034 A 
HETATM    7  C7  UNL     1     -32.909   6.173   3.024  1.00 20.00     0.029 A 
HETATM    8  N8  UNL     1     -34.724   6.503   6.816  1.00 20.00    -0.272 NA
HETATM    9  S9  UNL     1     -32.379   8.404   4.159  1.00 20.00    -0.098 SA
HETATM   10 BR10 UNL     1     -32.956   4.769   1.759  1.00 20.00    -0.050 Br
ENDROOT
TORSDOF 0
ENDMDL
MODEL 4
REMARK VINA RESULT:      -3.7      2.079      2.576
REMARK  0 active torsions:
REMARK  status: ('A' for Active; 'I' for Inactive)
ROOT
HETATM    1  C1  UNL     1     -22.464  18.891   9.085  1.00 20.00     0.033 A 
HETATM    2  C2  UNL     1     -23.016  19.094   7.831  1.00 20.00     0.117 A 
HETATM    3  C3  UNL     1     -25.194  19.184   8.629  1.00 20.00     0.136 A 
HETATM    4  C4  UNL     1     -24.249  18.644  12.332  1.00 20.00     0.070 A 
HETATM    5  C5  UNL     1     -23.350  18.833  10.177  1.00 20.00     0.002 A 
HETATM    6  C6  UNL     1     -24.717  18.983   9.926  1.00 20.00     0.034 A 
HETATM    7  C7  UNL     1     -23.100  18.638  11.577  1.00 20.00     0.029 A 
HETATM    8  N8  UNL     1     -24.333  19.239   7.589  1.00 20.00    -0.272 NA
HETATM    9  S9  UNL     1     -25.640  18.883  11.376  1.00 20.00    -0.098 SA
HETATM   10 BR10 UNL     1     -21.372  18.398  12.305  1.00 20.00    -0.050 Br
ENDROOT
TORSDOF 0
ENDMDL
MODEL 5
REMARK VINA RESULT:      -3.7     15.858     16.409
REMARK  0 active torsions:
REMARK  status: ('A' for Active; 'I' for Inactive)
ROOT
HETATM    1  C1  UNL     1     -33.797   5.584   3.765  1.00 20.00     0.033 A 
HETATM    2  C2  UNL     1     -34.471   4.792   4.680  1.00 20.00     0.117 A 
HETATM    3  C3  UNL     1     -34.348   6.371   6.377  1.00 20.00     0.136 A 
HETATM    4  C4  UNL     1     -32.442   9.001   4.293  1.00 20.00     0.070 A 
HETATM    5  C5  UNL     1     -33.376   6.855   4.200  1.00 20.00     0.002 A 
HETATM    6  C6  UNL     1     -33.663   7.230   5.516  1.00 20.00     0.034 A 
HETATM    7  C7  UNL     1     -32.669   7.895   3.509  1.00 20.00     0.029 A 
HETATM    8  N8  UNL     1     -34.747   5.154   5.948  1.00 20.00    -0.272 NA
HETATM    9  S9  UNL     1     -33.073   8.809   5.865  1.00 20.00    -0.098 SA
HETATM   10 BR10 UNL     1     -32.108   7.757   1.708  1.00 20.00    -0.050 Br
ENDROOT
TORSDOF 0
ENDMDL
MODEL 6
REMARK VINA RESULT:      -3.6     16.798     17.671
REMARK  0 active torsions:
REMARK  status: ('A' for Active; 'I' for Inactive)
ROOT
HETATM    1  C1  UNL     1     -33.506  15.519  -3.660  1.00 20.00     0.033 A 
HETATM    2  C2  UNL     1     -33.542  14.695  -4.772  1.00 20.00     0.117 A 
HETATM    3  C3  UNL     1     -34.581  16.281  -6.111  1.00 20.00     0.136 A 
HETATM    4  C4  UNL     1     -34.762  19.003  -3.380  1.00 20.00     0.070 A 
HETATM    5  C5  UNL     1     -34.048  16.811  -3.797  1.00 20.00     0.002 A 
HETATM    6  C6  UNL     1     -34.583  17.173  -5.037  1.00 20.00     0.034 A 
HETATM    7  C7  UNL     1     -34.161  17.885  -2.852  1.00 20.00     0.029 A 
HETATM    8  N8  UNL     1     -34.057  15.045  -5.967  1.00 20.00    -0.272 NA
HETATM    9  S9  UNL     1     -35.197  18.782  -5.013  1.00 20.00    -0.098 SA
HETATM   10 BR10 UNL     1     -33.548  17.773  -1.067  1.00 20.00    -0.050 Br
ENDROOT
TORSDOF 0
ENDMDL
MODEL 7
REMARK VINA RESULT:      -3.5     15.928     16.448
REMARK  0 active torsions:
REMARK  status: ('A' for Active; 'I' for Inactive)
ROOT
HETATM    1  C1  UNL     1     -32.366   7.585   3.388  1.00 20.00     0.033 A 
HETATM    2  C2  UNL     1     -32.155   8.806   4.005  1.00 20.00     0.117 A 
HETATM    3  C3  UNL     1     -33.486   8.291   5.835  1.00 20.00     0.136 A 
HETATM    4  C4  UNL     1     -34.436   4.756   4.613  1.00 20.00     0.070 A 
HETATM    5  C5  UNL     1     -33.198   6.663   4.051  1.00 20.00     0.002 A 
HETATM    6  C6  UNL     1     -33.750   7.038   5.279  1.00 20.00     0.034 A 
HETATM    7  C7  UNL     1     -33.607   5.337   3.683  1.00 20.00     0.029 A 
HETATM    8  N8  UNL     1     -32.687   9.167   5.189  1.00 20.00    -0.272 NA
HETATM    9  S9  UNL     1     -34.734   5.787   5.937  1.00 20.00    -0.098 SA
HETATM   10 BR10 UNL     1     -33.063   4.481   2.088  1.00 20.00    -0.050 Br
ENDROOT
TORSDOF 0
ENDMDL
MODEL 8
REMARK VINA RESULT:      -3.5      2.759      3.410
REMARK  0 active torsions:
REMARK  status: ('A' for Active; 'I' for Inactive)
ROOT
HETATM    1  C1  UNL     1     -24.720  19.058   9.502  1.00 20.00     0.033 A 
HETATM    2  C2  UNL     1     -25.880  19.262  10.230  1.00 20.00     0.117 A 
HETATM    3  C3  UNL     1     -24.840  18.939  12.280  1.00 20.00     0.136 A 
HETATM    4  C4  UNL     1     -21.332  18.284  10.810  1.00 20.00     0.070 A 
HETATM    5  C5  UNL     1     -23.546  18.776  10.226  1.00 20.00     0.002 A 
HETATM    6  C6  UNL     1     -23.629  18.721  11.620  1.00 20.00     0.034 A 
HETATM    7  C7  UNL     1     -22.207  18.520   9.777  1.00 20.00     0.029 A 
HETATM    8  N8  UNL     1     -25.959  19.209  11.574  1.00 20.00    -0.272 NA
HETATM    9  S9  UNL     1     -22.101  18.365  12.329  1.00 20.00    -0.098 SA
HETATM   10 BR10 UNL     1     -21.701  18.510   7.955  1.00 20.00    -0.050 Br
ENDROOT
TORSDOF 0
ENDMDL
MODEL 9
REMARK VINA RESULT:      -3.4     17.911     19.025
REMARK  0 active torsions:
REMARK  status: ('A' for Active; 'I' for Inactive)
ROOT
HETATM    1  C1  UNL     1     -34.976  14.860  -4.639  1.00 20.00     0.033 A 
HETATM    2  C2  UNL     1     -35.625  14.113  -5.609  1.00 20.00     0.117 A 
HETATM    3  C3  UNL     1     -35.707  15.864  -7.130  1.00 20.00     0.136 A 
HETATM    4  C4  UNL     1     -33.927  18.416  -4.846  1.00 20.00     0.070 A 
HETATM    5  C5  UNL     1     -34.679  16.200  -4.951  1.00 20.00     0.002 A 
HETATM    6  C6  UNL     1     -35.055  16.684  -6.207  1.00 20.00     0.034 A 
HETATM    7  C7  UNL     1     -34.027  17.219  -4.178  1.00 20.00     0.029 A 
HETATM    8  N8  UNL     1     -35.986  14.580  -6.820  1.00 20.00    -0.272 NA
HETATM    9  S9  UNL     1     -34.610  18.336  -6.405  1.00 20.00    -0.098 SA
HETATM   10 BR10 UNL     1     -33.374  16.942  -2.425  1.00 20.00    -0.050 Br
ENDROOT
TORSDOF 0
ENDMDL
