MODEL 1
REMARK VINA RESULT:      -4.0      0.000      0.000
REMARK  2 active torsions:
REMARK  status: ('A' for Active; 'I' for Inactive)
REMARK    1  A    between atoms: C3_3  and  C8_8 
REMARK       I    between atoms: C3_3  and  N10_10 
REMARK    2  A    between atoms: C9_9  and  N10_10 
ROOT
HETATM    1  C1  UNL     1     -33.903  15.482  -7.579  1.00 20.00     0.015 C 
HETATM    2  C2  UNL     1     -34.539  15.490  -6.560  1.00 20.00    -0.086 C 
HETATM    3  C6  UNL     1     -36.740  16.001  -5.591  1.00 20.00     0.052 C 
HETATM    4  C7  UNL     1     -35.377  14.084  -4.720  1.00 20.00     0.052 C 
HETATM    5  C9  UNL     1     -35.320  15.498  -5.306  1.00 20.00     0.088 C 
ENDROOT
BRANCH   5   6
HETATM    6  N10 UNL     1     -34.679  16.380  -4.358  1.00 20.00    -0.341 N 
HETATM    7  C3  UNL     1     -33.428  16.120  -3.820  1.00 20.00     0.222 C 
HETATM    8  O11 UNL     1     -32.743  15.133  -4.083  1.00 20.00    -0.273 OA
HETATM    9  H26 UNL     1     -35.165  17.226  -4.075  1.00 20.00     0.164 HD
BRANCH   7  10
HETATM   10  C8  UNL     1     -32.978  17.203  -2.841  1.00 20.00     0.070 C 
HETATM   11  C4  UNL     1     -33.198  18.587  -3.447  1.00 20.00     0.019 C 
HETATM   12  C5  UNL     1     -33.717  17.081  -1.509  1.00 20.00     0.019 C 
ENDBRANCH   7  10
ENDBRANCH   5   6
TORSDOF 2
ENDMDL
MODEL 2
REMARK VINA RESULT:      -3.9     12.539     13.616
REMARK  2 active torsions:
REMARK  status: ('A' for Active; 'I' for Inactive)
REMARK    1  A    between atoms: C3_3  and  C8_8 
REMARK       I    between atoms: C3_3  and  N10_10 
REMARK    2  A    between atoms: C9_9  and  N10_10 
ROOT
HETATM    1  C1  UNL     1     -39.076  12.084   5.668  1.00 20.00     0.015 C 
HETATM    2  C2  UNL     1     -40.086  12.715   5.823  1.00 20.00    -0.086 C 
HETATM    3  C6  UNL     1     -41.868  13.940   4.654  1.00 20.00     0.052 C 
HETATM    4  C7  UNL     1     -42.374  12.626   6.730  1.00 20.00     0.052 C 
HETATM    5  C9  UNL     1     -41.329  13.490   6.016  1.00 20.00     0.088 C 
ENDROOT
BRANCH   5   6
HETATM    6  N10 UNL     1     -41.039  14.650   6.826  1.00 20.00    -0.341 N 
HETATM    7  C3  UNL     1     -40.495  14.560   8.099  1.00 20.00     0.222 C 
HETATM    8  O11 UNL     1     -40.208  13.506   8.666  1.00 20.00    -0.273 OA
HETATM    9  H26 UNL     1     -41.241  15.571   6.448  1.00 20.00     0.164 HD
BRANCH   7  10
HETATM   10  C8  UNL     1     -40.290  15.929   8.744  1.00 20.00     0.070 C 
HETATM   11  C4  UNL     1     -40.751  17.033   7.797  1.00 20.00     0.019 C 
HETATM   12  C5  UNL     1     -41.032  16.025  10.076  1.00 20.00     0.019 C 
ENDBRANCH   7  10
ENDBRANCH   5   6
TORSDOF 2
ENDMDL
MODEL 3
REMARK VINA RESULT:      -3.8      0.403      1.800
REMARK  2 active torsions:
REMARK  status: ('A' for Active; 'I' for Inactive)
REMARK    1  A    between atoms: C3_3  and  C8_8 
REMARK       I    between atoms: C3_3  and  N10_10 
REMARK    2  A    between atoms: C9_9  and  N10_10 
ROOT
HETATM    1  C1  UNL     1     -37.704  16.283  -5.899  1.00 20.00     0.015 C 
HETATM    2  C2  UNL     1     -36.621  15.854  -5.607  1.00 20.00    -0.086 C 
HETATM    3  C6  UNL     1     -35.444  13.953  -4.583  1.00 20.00     0.052 C 
HETATM    4  C7  UNL     1     -34.424  15.199  -6.506  1.00 20.00     0.052 C 
HETATM    5  C9  UNL     1     -35.289  15.326  -5.248  1.00 20.00     0.088 C 
ENDROOT
BRANCH   5   6
HETATM    6  N10 UNL     1     -34.654  16.238  -4.326  1.00 20.00    -0.341 N 
HETATM    7  C3  UNL     1     -33.380  16.029  -3.821  1.00 20.00     0.222 C 
HETATM    8  O11 UNL     1     -32.666  15.066  -4.096  1.00 20.00    -0.273 OA
HETATM    9  H26 UNL     1     -35.163  17.068  -4.034  1.00 20.00     0.164 HD
BRANCH   7  10
HETATM   10  C8  UNL     1     -32.942  17.136  -2.863  1.00 20.00     0.070 C 
HETATM   11  C4  UNL     1     -33.121  18.502  -3.519  1.00 20.00     0.019 C 
HETATM   12  C5  UNL     1     -33.724  17.067  -1.552  1.00 20.00     0.019 C 
ENDBRANCH   7  10
ENDBRANCH   5   6
TORSDOF 2
ENDMDL
MODEL 4
REMARK VINA RESULT:      -3.7      1.702      4.544
REMARK  2 active torsions:
REMARK  status: ('A' for Active; 'I' for Inactive)
REMARK    1  A    between atoms: C3_3  and  C8_8 
REMARK       I    between atoms: C3_3  and  N10_10 
REMARK    2  A    between atoms: C9_9  and  N10_10 
ROOT
HETATM    1  C1  UNL     1     -33.717  17.767  -0.246  1.00 20.00     0.015 C 
HETATM    2  C2  UNL     1     -33.978  17.922  -1.408  1.00 20.00    -0.086 C 
HETATM    3  C6  UNL     1     -35.681  18.760  -2.971  1.00 20.00     0.052 C 
HETATM    4  C7  UNL     1     -33.240  19.009  -3.491  1.00 20.00     0.052 C 
HETATM    5  C9  UNL     1     -34.298  18.114  -2.838  1.00 20.00     0.088 C 
ENDROOT
BRANCH   5   6
HETATM    6  N10 UNL     1     -34.302  16.828  -3.495  1.00 20.00    -0.341 N 
HETATM    7  C3  UNL     1     -34.530  16.681  -4.855  1.00 20.00     0.222 C 
HETATM    8  O11 UNL     1     -34.750  17.608  -5.633  1.00 20.00    -0.273 OA
HETATM    9  H26 UNL     1     -34.131  15.995  -2.937  1.00 20.00     0.164 HD
BRANCH   7  10
HETATM   10  C8  UNL     1     -34.488  15.220  -5.299  1.00 20.00     0.070 C 
HETATM   11  C4  UNL     1     -33.926  14.345  -4.181  1.00 20.00     0.019 C 
HETATM   12  C5  UNL     1     -35.874  14.731  -5.713  1.00 20.00     0.019 C 
ENDBRANCH   7  10
ENDBRANCH   5   6
TORSDOF 2
ENDMDL
MODEL 5
REMARK VINA RESULT:      -3.7     11.777     13.753
REMARK  2 active torsions:
REMARK  status: ('A' for Active; 'I' for Inactive)
REMARK    1  A    between atoms: C3_3  and  C8_8 
REMARK       I    between atoms: C3_3  and  N10_10 
REMARK    2  A    between atoms: C9_9  and  N10_10 
ROOT
HETATM    1  C1  UNL     1     -40.409  14.434  10.407  1.00 20.00     0.015 C 
HETATM    2  C2  UNL     1     -40.611  14.457   9.223  1.00 20.00    -0.086 C 
HETATM    3  C6  UNL     1     -42.346  14.239   7.495  1.00 20.00     0.052 C 
HETATM    4  C7  UNL     1     -40.444  15.846   7.197  1.00 20.00     0.052 C 
HETATM    5  C9  UNL     1     -40.858  14.486   7.767  1.00 20.00     0.088 C 
ENDROOT
BRANCH   5   6
HETATM    6  N10 UNL     1     -40.075  13.449   7.136  1.00 20.00    -0.341 N 
HETATM    7  C3  UNL     1     -40.289  13.037   5.829  1.00 20.00     0.222 C 
HETATM    8  O11 UNL     1     -41.148  13.499   5.080  1.00 20.00    -0.273 OA
HETATM    9  H26 UNL     1     -39.337  13.001   7.673  1.00 20.00     0.164 HD
BRANCH   7  10
HETATM   10  C8  UNL     1     -39.333  11.924   5.404  1.00 20.00     0.070 C 
HETATM   11  C4  UNL     1     -39.234  11.867   3.882  1.00 20.00     0.019 C 
HETATM   12  C5  UNL     1     -37.950  12.123   6.021  1.00 20.00     0.019 C 
ENDBRANCH   7  10
ENDBRANCH   5   6
TORSDOF 2
ENDMDL
MODEL 6
REMARK VINA RESULT:      -3.6      1.900      4.474
REMARK  2 active torsions:
REMARK  status: ('A' for Active; 'I' for Inactive)
REMARK    1  A    between atoms: C3_3  and  C8_8 
REMARK       I    between atoms: C3_3  and  N10_10 
REMARK    2  A    between atoms: C9_9  and  N10_10 
ROOT
HETATM    1  C1  UNL     1     -36.425  19.209  -2.469  1.00 20.00     0.015 C 
HETATM    2  C2  UNL     1     -35.360  18.653  -2.456  1.00 20.00    -0.086 C 
HETATM    3  C6  UNL     1     -32.978  18.900  -3.012  1.00 20.00     0.052 C 
HETATM    4  C7  UNL     1     -33.688  17.578  -1.003  1.00 20.00     0.052 C 
HETATM    5  C9  UNL     1     -34.051  17.968  -2.439  1.00 20.00     0.088 C 
ENDROOT
BRANCH   5   6
HETATM    6  N10 UNL     1     -34.134  16.775  -3.249  1.00 20.00    -0.341 N 
HETATM    7  C3  UNL     1     -34.418  16.807  -4.606  1.00 20.00     0.222 C 
HETATM    8  O11 UNL     1     -34.625  17.832  -5.255  1.00 20.00    -0.273 OA
HETATM    9  H26 UNL     1     -33.979  15.874  -2.806  1.00 20.00     0.164 HD
BRANCH   7  10
HETATM   10  C8  UNL     1     -34.453  15.413  -5.228  1.00 20.00     0.070 C 
HETATM   11  C4  UNL     1     -33.966  14.373  -4.222  1.00 20.00     0.019 C 
HETATM   12  C5  UNL     1     -35.859  15.065  -5.715  1.00 20.00     0.019 C 
ENDBRANCH   7  10
ENDBRANCH   5   6
TORSDOF 2
ENDMDL
MODEL 7
REMARK VINA RESULT:      -3.6     11.452     12.690
REMARK  2 active torsions:
REMARK  status: ('A' for Active; 'I' for Inactive)
REMARK    1  A    between atoms: C3_3  and  C8_8 
REMARK       I    between atoms: C3_3  and  N10_10 
REMARK    2  A    between atoms: C9_9  and  N10_10 
ROOT
HETATM    1  C1  UNL     1     -43.088  15.486   3.139  1.00 20.00     0.015 C 
HETATM    2  C2  UNL     1     -42.715  14.965   4.155  1.00 20.00    -0.086 C 
HETATM    3  C6  UNL     1     -41.762  15.397   6.380  1.00 20.00     0.052 C 
HETATM    4  C7  UNL     1     -43.411  13.538   6.037  1.00 20.00     0.052 C 
HETATM    5  C9  UNL     1     -42.258  14.323   5.404  1.00 20.00     0.088 C 
ENDROOT
BRANCH   5   6
HETATM    6  N10 UNL     1     -41.177  13.416   5.098  1.00 20.00    -0.341 N 
HETATM    7  C3  UNL     1     -40.508  12.690   6.072  1.00 20.00     0.222 C 
HETATM    8  O11 UNL     1     -40.754  12.738   7.276  1.00 20.00    -0.273 OA
HETATM    9  H26 UNL     1     -40.894  13.304   4.128  1.00 20.00     0.164 HD
BRANCH   7  10
HETATM   10  C8  UNL     1     -39.404  11.809   5.489  1.00 20.00     0.070 C 
HETATM   11  C4  UNL     1     -39.378  11.935   3.967  1.00 20.00     0.019 C 
HETATM   12  C5  UNL     1     -38.042  12.173   6.077  1.00 20.00     0.019 C 
ENDBRANCH   7  10
ENDBRANCH   5   6
TORSDOF 2
ENDMDL
MODEL 8
REMARK VINA RESULT:      -3.6      2.204      4.106
REMARK  2 active torsions:
REMARK  status: ('A' for Active; 'I' for Inactive)
REMARK    1  A    between atoms: C3_3  and  C8_8 
REMARK       I    between atoms: C3_3  and  N10_10 
REMARK    2  A    between atoms: C9_9  and  N10_10 
ROOT
HETATM    1  C1  UNL     1     -32.987  15.114  -4.141  1.00 20.00     0.015 C 
HETATM    2  C2  UNL     1     -33.350  16.132  -3.617  1.00 20.00    -0.086 C 
HETATM    3  C6  UNL     1     -33.637  17.265  -1.453  1.00 20.00     0.052 C 
HETATM    4  C7  UNL     1     -32.960  18.560  -3.492  1.00 20.00     0.052 C 
HETATM    5  C9  UNL     1     -33.795  17.385  -2.973  1.00 20.00     0.088 C 
ENDROOT
BRANCH   5   6
HETATM    6  N10 UNL     1     -35.185  17.611  -3.296  1.00 20.00    -0.341 N 
HETATM    7  C3  UNL     1     -35.639  17.756  -4.598  1.00 20.00     0.222 C 
HETATM    8  O11 UNL     1     -34.925  17.709  -5.599  1.00 20.00    -0.273 OA
HETATM    9  H26 UNL     1     -35.858  17.667  -2.537  1.00 20.00     0.164 HD
BRANCH   7  10
HETATM   10  C8  UNL     1     -37.146  17.990  -4.668  1.00 20.00     0.070 C 
HETATM   11  C4  UNL     1     -37.859  16.712  -5.103  1.00 20.00     0.019 C 
HETATM   12  C5  UNL     1     -37.690  18.472  -3.324  1.00 20.00     0.019 C 
ENDBRANCH   7  10
ENDBRANCH   5   6
TORSDOF 2
ENDMDL
MODEL 9
REMARK VINA RESULT:      -3.5     12.621     14.016
REMARK  2 active torsions:
REMARK  status: ('A' for Active; 'I' for Inactive)
REMARK    1  A    between atoms: C3_3  and  C8_8 
REMARK       I    between atoms: C3_3  and  N10_10 
REMARK    2  A    between atoms: C9_9  and  N10_10 
ROOT
HETATM    1  C1  UNL     1     -43.302  11.949   7.269  1.00 20.00     0.015 C 
HETATM    2  C2  UNL     1     -42.317  12.430   6.778  1.00 20.00    -0.086 C 
HETATM    3  C6  UNL     1     -40.077  11.920   5.903  1.00 20.00     0.052 C 
HETATM    4  C7  UNL     1     -41.473  13.725   4.860  1.00 20.00     0.052 C 
HETATM    5  C9  UNL     1     -41.107  13.023   6.172  1.00 20.00     0.088 C 
ENDROOT
BRANCH   5   6
HETATM    6  N10 UNL     1     -40.548  13.990   7.088  1.00 20.00    -0.341 N 
HETATM    7  C3  UNL     1     -41.175  15.190   7.386  1.00 20.00     0.222 C 
HETATM    8  O11 UNL     1     -42.251  15.556   6.914  1.00 20.00    -0.273 OA
HETATM    9  H26 UNL     1     -39.658  13.782   7.532  1.00 20.00     0.164 HD
BRANCH   7  10
HETATM   10  C8  UNL     1     -40.377  16.035   8.377  1.00 20.00     0.070 C 
HETATM   11  C4  UNL     1     -41.117  17.337   8.677  1.00 20.00     0.019 C 
HETATM   12  C5  UNL     1     -40.112  15.264   9.668  1.00 20.00     0.019 C 
ENDBRANCH   7  10
ENDBRANCH   5   6
TORSDOF 2
ENDMDL
