MODEL 1
REMARK VINA RESULT:      -4.5      0.000      0.000
REMARK  2 active torsions:
REMARK  status: ('A' for Active; 'I' for Inactive)
REMARK    1  A    between atoms: C1_1  and  C6_6 
REMARK    2  A    between atoms: C1_1  and  O9_9 
ROOT
HETATM    1  C2  UNL     1     -33.923   4.717   4.801  1.00 20.00     0.024 C 
HETATM    2  C3  UNL     1     -34.175   6.325   6.160  1.00 20.00     0.024 C 
HETATM    3  C4  UNL     1     -35.512   6.097   4.530  1.00 20.00     0.024 C 
HETATM    4  C5  UNL     1     -35.118   5.152   5.718  1.00 20.00    -0.011 C 
HETATM    5  C6  UNL     1     -33.964   6.266   4.616  1.00 20.00     0.049 C 
ENDROOT
BRANCH   5   6
HETATM    6  C1  UNL     1     -33.081   7.114   3.776  1.00 20.00     0.267 C 
HETATM    7  O8  UNL     1     -32.313   6.676   2.930  1.00 20.00    -0.264 OA
BRANCH   6   8
HETATM    8  O9  UNL     1     -33.265   8.425   4.100  1.00 20.00    -0.326 OA
HETATM    9  C7  UNL     1     -32.188   9.039   4.815  1.00 20.00     0.213 C 
ENDBRANCH   6   8
ENDBRANCH   5   6
TORSDOF 2
ENDMDL
MODEL 2
REMARK VINA RESULT:      -4.5      0.046      1.228
REMARK  2 active torsions:
REMARK  status: ('A' for Active; 'I' for Inactive)
REMARK    1  A    between atoms: C1_1  and  C6_6 
REMARK    2  A    between atoms: C1_1  and  O9_9 
ROOT
HETATM    1  C2  UNL     1     -35.531   6.076   4.565  1.00 20.00     0.024 C 
HETATM    2  C3  UNL     1     -33.943   4.694   4.819  1.00 20.00     0.024 C 
HETATM    3  C4  UNL     1     -34.181   6.297   6.186  1.00 20.00     0.024 C 
HETATM    4  C5  UNL     1     -35.131   5.128   5.747  1.00 20.00    -0.011 C 
HETATM    5  C6  UNL     1     -33.982   6.242   4.641  1.00 20.00     0.049 C 
ENDROOT
BRANCH   5   6
HETATM    6  C1  UNL     1     -33.108   7.092   3.793  1.00 20.00     0.267 C 
HETATM    7  O8  UNL     1     -32.369   6.658   2.919  1.00 20.00    -0.264 OA
BRANCH   6   8
HETATM    8  O9  UNL     1     -33.265   8.400   4.144  1.00 20.00    -0.326 OA
HETATM    9  C7  UNL     1     -32.156   8.990   4.830  1.00 20.00     0.213 C 
ENDBRANCH   6   8
ENDBRANCH   5   6
TORSDOF 2
ENDMDL
MODEL 3
REMARK VINA RESULT:      -4.5      0.103      1.226
REMARK  2 active torsions:
REMARK  status: ('A' for Active; 'I' for Inactive)
REMARK    1  A    between atoms: C1_1  and  C6_6 
REMARK    2  A    between atoms: C1_1  and  O9_9 
ROOT
HETATM    1  C2  UNL     1     -34.113   6.268   6.243  1.00 20.00     0.024 C 
HETATM    2  C3  UNL     1     -35.496   6.015   4.655  1.00 20.00     0.024 C 
HETATM    3  C4  UNL     1     -33.879   4.662   4.878  1.00 20.00     0.024 C 
HETATM    4  C5  UNL     1     -35.050   5.080   5.833  1.00 20.00    -0.011 C 
HETATM    5  C6  UNL     1     -33.949   6.208   4.692  1.00 20.00     0.049 C 
ENDROOT
BRANCH   5   6
HETATM    6  C1  UNL     1     -33.109   7.072   3.824  1.00 20.00     0.267 C 
HETATM    7  O8  UNL     1     -32.364   6.649   2.951  1.00 20.00    -0.264 OA
BRANCH   6   8
HETATM    8  O9  UNL     1     -33.305   8.380   4.158  1.00 20.00    -0.326 OA
HETATM    9  C7  UNL     1     -32.197   9.024   4.796  1.00 20.00     0.213 C 
ENDBRANCH   6   8
ENDBRANCH   5   6
TORSDOF 2
ENDMDL
MODEL 4
REMARK VINA RESULT:      -4.3      0.837      1.546
REMARK  2 active torsions:
REMARK  status: ('A' for Active; 'I' for Inactive)
REMARK    1  A    between atoms: C1_1  and  C6_6 
REMARK    2  A    between atoms: C1_1  and  O9_9 
ROOT
HETATM    1  C2  UNL     1     -33.864   4.961   4.414  1.00 20.00     0.024 C 
HETATM    2  C3  UNL     1     -34.354   6.008   6.192  1.00 20.00     0.024 C 
HETATM    3  C4  UNL     1     -35.469   6.347   4.420  1.00 20.00     0.024 C 
HETATM    4  C5  UNL     1     -35.180   5.054   5.260  1.00 20.00    -0.011 C 
HETATM    5  C6  UNL     1     -33.953   6.479   4.760  1.00 20.00     0.049 C 
ENDROOT
BRANCH   5   6
HETATM    6  C1  UNL     1     -33.013   7.564   4.379  1.00 20.00     0.267 C 
HETATM    7  O8  UNL     1     -32.987   8.666   4.910  1.00 20.00    -0.264 OA
BRANCH   6   8
HETATM    8  O9  UNL     1     -32.208   7.134   3.366  1.00 20.00    -0.326 OA
HETATM    9  C7  UNL     1     -32.324   7.861   2.138  1.00 20.00     0.213 C 
ENDBRANCH   6   8
ENDBRANCH   5   6
TORSDOF 2
ENDMDL
MODEL 5
REMARK VINA RESULT:      -4.3      0.828      1.986
REMARK  2 active torsions:
REMARK  status: ('A' for Active; 'I' for Inactive)
REMARK    1  A    between atoms: C1_1  and  C6_6 
REMARK    2  A    between atoms: C1_1  and  O9_9 
ROOT
HETATM    1  C2  UNL     1     -35.482   6.320   4.441  1.00 20.00     0.024 C 
HETATM    2  C3  UNL     1     -33.867   4.947   4.397  1.00 20.00     0.024 C 
HETATM    3  C4  UNL     1     -34.334   5.977   6.191  1.00 20.00     0.024 C 
HETATM    4  C5  UNL     1     -35.170   5.025   5.267  1.00 20.00    -0.011 C 
HETATM    5  C6  UNL     1     -33.961   6.461   4.757  1.00 20.00     0.049 C 
ENDROOT
BRANCH   5   6
HETATM    6  C1  UNL     1     -33.040   7.558   4.363  1.00 20.00     0.267 C 
HETATM    7  O8  UNL     1     -33.045   8.672   4.870  1.00 20.00    -0.264 OA
BRANCH   6   8
HETATM    8  O9  UNL     1     -32.214   7.124   3.369  1.00 20.00    -0.326 OA
HETATM    9  C7  UNL     1     -32.312   7.838   2.133  1.00 20.00     0.213 C 
ENDBRANCH   6   8
ENDBRANCH   5   6
TORSDOF 2
ENDMDL
MODEL 6
REMARK VINA RESULT:      -3.7     12.334     13.164
REMARK  2 active torsions:
REMARK  status: ('A' for Active; 'I' for Inactive)
REMARK    1  A    between atoms: C1_1  and  C6_6 
REMARK    2  A    between atoms: C1_1  and  O9_9 
ROOT
HETATM    1  C2  UNL     1     -32.918  18.887  -2.687  1.00 20.00     0.024 C 
HETATM    2  C3  UNL     1     -33.387  16.988  -1.867  1.00 20.00     0.024 C 
HETATM    3  C4  UNL     1     -34.338  18.729  -1.119  1.00 20.00     0.024 C 
HETATM    4  C5  UNL     1     -34.264  18.094  -2.551  1.00 20.00    -0.011 C 
HETATM    5  C6  UNL     1     -32.842  18.307  -1.240  1.00 20.00     0.049 C 
ENDROOT
BRANCH   5   6
HETATM    6  C1  UNL     1     -31.754  18.470  -0.243  1.00 20.00     0.267 C 
HETATM    7  O8  UNL     1     -30.577  18.638  -0.533  1.00 20.00    -0.264 OA
BRANCH   6   8
HETATM    8  O9  UNL     1     -32.275  18.402   1.015  1.00 20.00    -0.326 OA
HETATM    9  C7  UNL     1     -31.326  18.510   2.081  1.00 20.00     0.213 C 
ENDBRANCH   6   8
ENDBRANCH   5   6
TORSDOF 2
ENDMDL
MODEL 7
REMARK VINA RESULT:      -3.6      1.629      3.284
REMARK  2 active torsions:
REMARK  status: ('A' for Active; 'I' for Inactive)
REMARK    1  A    between atoms: C1_1  and  C6_6 
REMARK    2  A    between atoms: C1_1  and  O9_9 
ROOT
HETATM    1  C2  UNL     1     -32.889   7.765   5.700  1.00 20.00     0.024 C 
HETATM    2  C3  UNL     1     -31.981   7.780   3.784  1.00 20.00     0.024 C 
HETATM    3  C4  UNL     1     -33.914   8.612   4.047  1.00 20.00     0.024 C 
HETATM    4  C5  UNL     1     -32.526   8.924   4.709  1.00 20.00    -0.011 C 
HETATM    5  C6  UNL     1     -33.325   7.194   4.315  1.00 20.00     0.049 C 
ENDROOT
BRANCH   5   6
HETATM    6  C1  UNL     1     -33.932   5.871   4.018  1.00 20.00     0.267 C 
HETATM    7  O8  UNL     1     -33.483   5.078   3.202  1.00 20.00    -0.264 OA
BRANCH   6   8
HETATM    8  O9  UNL     1     -35.044   5.698   4.787  1.00 20.00    -0.326 OA
HETATM    9  C7  UNL     1     -34.810   5.169   6.097  1.00 20.00     0.213 C 
ENDBRANCH   6   8
ENDBRANCH   5   6
TORSDOF 2
ENDMDL
MODEL 8
REMARK VINA RESULT:      -3.6      1.752      3.739
REMARK  2 active torsions:
REMARK  status: ('A' for Active; 'I' for Inactive)
REMARK    1  A    between atoms: C1_1  and  C6_6 
REMARK    2  A    between atoms: C1_1  and  O9_9 
ROOT
HETATM    1  C2  UNL     1     -32.394   7.263   3.463  1.00 20.00     0.024 C 
HETATM    2  C3  UNL     1     -33.871   8.776   3.625  1.00 20.00     0.024 C 
HETATM    3  C4  UNL     1     -32.264   8.711   5.008  1.00 20.00     0.024 C 
HETATM    4  C5  UNL     1     -32.314   8.828   3.445  1.00 20.00    -0.011 C 
HETATM    5  C6  UNL     1     -33.365   7.679   4.612  1.00 20.00     0.049 C 
ENDROOT
BRANCH   5   6
HETATM    6  C1  UNL     1     -34.167   6.800   5.499  1.00 20.00     0.267 C 
HETATM    7  O8  UNL     1     -34.160   6.868   6.721  1.00 20.00    -0.264 OA
BRANCH   6   8
HETATM    8  O9  UNL     1     -34.892   5.928   4.741  1.00 20.00    -0.326 OA
HETATM    9  C7  UNL     1     -34.408   4.582   4.720  1.00 20.00     0.213 C 
ENDBRANCH   6   8
ENDBRANCH   5   6
TORSDOF 2
ENDMDL
MODEL 9
REMARK VINA RESULT:      -3.5      9.057      9.982
REMARK  2 active torsions:
REMARK  status: ('A' for Active; 'I' for Inactive)
REMARK    1  A    between atoms: C1_1  and  C6_6 
REMARK    2  A    between atoms: C1_1  and  O9_9 
ROOT
HETATM    1  C2  UNL     1     -42.235  13.959   5.609  1.00 20.00     0.024 C 
HETATM    2  C3  UNL     1     -42.636  12.353   6.935  1.00 20.00     0.024 C 
HETATM    3  C4  UNL     1     -41.495  14.014   7.596  1.00 20.00     0.024 C 
HETATM    4  C5  UNL     1     -42.943  13.889   7.006  1.00 20.00    -0.011 C 
HETATM    5  C6  UNL     1     -41.312  13.001   6.425  1.00 20.00     0.049 C 
ENDROOT
BRANCH   5   6
HETATM    6  C1  UNL     1     -40.069  12.323   5.977  1.00 20.00     0.267 C 
HETATM    7  O8  UNL     1     -39.237  11.846   6.737  1.00 20.00    -0.264 OA
BRANCH   6   8
HETATM    8  O9  UNL     1     -40.015  12.324   4.615  1.00 20.00    -0.326 OA
HETATM    9  C7  UNL     1     -38.890  11.648   4.044  1.00 20.00     0.213 C 
ENDBRANCH   6   8
ENDBRANCH   5   6
TORSDOF 2
ENDMDL
