MODEL 1
REMARK VINA RESULT:      -4.2      0.000      0.000
REMARK  0 active torsions:
REMARK  status: ('A' for Active; 'I' for Inactive)
ROOT
HETATM    1  C1  UNL     1     -32.603   6.805   3.095  1.00 20.00     0.045 C 
HETATM    2  C2  UNL     1     -32.824   7.557   4.191  1.00 20.00     0.011 C 
HETATM    3  C3  UNL     1     -33.039   5.388   3.016  1.00 20.00     0.028 C 
HETATM    4  C4  UNL     1     -33.565   6.974   5.390  1.00 20.00     0.059 C 
HETATM    5  C5  UNL     1     -33.679   4.747   4.228  1.00 20.00     0.067 C 
HETATM    6  C6  UNL     1     -34.470   5.761   5.064  1.00 20.00    -0.038 C 
HETATM    7  C7  UNL     1     -34.914   5.095   6.379  1.00 20.00     0.015 C 
HETATM    8  C8  UNL     1     -35.738   6.214   4.308  1.00 20.00     0.015 C 
HETATM    9  N9  UNL     1     -32.860   4.664   1.959  1.00 20.00    -0.305 NA
HETATM   10  S10 UNL     1     -32.318   9.222   4.400  1.00 20.00    -0.085 SA
HETATM   11  H22 UNL     1     -33.235   3.727   2.128  1.00 20.00     0.186 HD
ENDROOT
TORSDOF 0
ENDMDL
MODEL 2
REMARK VINA RESULT:      -4.0     12.538     13.645
REMARK  0 active torsions:
REMARK  status: ('A' for Active; 'I' for Inactive)
ROOT
HETATM    1  C1  UNL     1     -33.222  16.043  -3.785  1.00 20.00     0.045 C 
HETATM    2  C2  UNL     1     -33.883  17.217  -3.763  1.00 20.00     0.011 C 
HETATM    3  C3  UNL     1     -33.755  14.856  -4.499  1.00 20.00     0.028 C 
HETATM    4  C4  UNL     1     -35.205  17.371  -4.508  1.00 20.00     0.059 C 
HETATM    5  C5  UNL     1     -35.115  14.943  -5.156  1.00 20.00     0.067 C 
HETATM    6  C6  UNL     1     -35.421  16.360  -5.660  1.00 20.00    -0.038 C 
HETATM    7  C7  UNL     1     -36.888  16.426  -6.121  1.00 20.00     0.015 C 
HETATM    8  C8  UNL     1     -34.525  16.709  -6.867  1.00 20.00     0.015 C 
HETATM    9  N9  UNL     1     -33.115  13.733  -4.554  1.00 20.00    -0.305 NA
HETATM   10  S10 UNL     1     -33.361  18.662  -2.920  1.00 20.00    -0.085 SA
HETATM   11  H22 UNL     1     -33.666  13.061  -5.093  1.00 20.00     0.186 HD
ENDROOT
TORSDOF 0
ENDMDL
MODEL 3
REMARK VINA RESULT:      -3.7     12.749     13.859
REMARK  0 active torsions:
REMARK  status: ('A' for Active; 'I' for Inactive)
ROOT
HETATM    1  C1  UNL     1     -33.226  16.054  -3.560  1.00 20.00     0.045 C 
HETATM    2  C2  UNL     1     -33.640  17.171  -2.932  1.00 20.00     0.011 C 
HETATM    3  C3  UNL     1     -33.957  15.493  -4.725  1.00 20.00     0.028 C 
HETATM    4  C4  UNL     1     -34.874  17.920  -3.424  1.00 20.00     0.059 C 
HETATM    5  C5  UNL     1     -35.245  16.149  -5.170  1.00 20.00     0.067 C 
HETATM    6  C6  UNL     1     -35.241  17.660  -4.905  1.00 20.00    -0.038 C 
HETATM    7  C7  UNL     1     -36.646  18.224  -5.183  1.00 20.00     0.015 C 
HETATM    8  C8  UNL     1     -34.247  18.372  -5.847  1.00 20.00     0.015 C 
HETATM    9  N9  UNL     1     -33.552  14.438  -5.356  1.00 20.00    -0.305 NA
HETATM   10  S10 UNL     1     -32.874  17.892  -1.529  1.00 20.00    -0.085 SA
HETATM   11  H22 UNL     1     -34.205  14.234  -6.117  1.00 20.00     0.186 HD
ENDROOT
TORSDOF 0
ENDMDL
MODEL 4
REMARK VINA RESULT:      -3.6     12.783     13.807
REMARK  0 active torsions:
REMARK  status: ('A' for Active; 'I' for Inactive)
ROOT
HETATM    1  C1  UNL     1     -34.607  17.233  -4.351  1.00 20.00     0.045 C 
HETATM    2  C2  UNL     1     -33.828  16.361  -3.681  1.00 20.00     0.011 C 
HETATM    3  C3  UNL     1     -35.231  18.401  -3.681  1.00 20.00     0.028 C 
HETATM    4  C4  UNL     1     -33.537  16.568  -2.199  1.00 20.00     0.059 C 
HETATM    5  C5  UNL     1     -35.052  18.575  -2.189  1.00 20.00     0.067 C 
HETATM    6  C6  UNL     1     -33.704  18.025  -1.704  1.00 20.00    -0.038 C 
HETATM    7  C7  UNL     1     -33.677  18.041  -0.165  1.00 20.00     0.015 C 
HETATM    8  C8  UNL     1     -32.545  18.911  -2.210  1.00 20.00     0.015 C 
HETATM    9  N9  UNL     1     -35.956  19.263  -4.318  1.00 20.00    -0.305 NA
HETATM   10  S10 UNL     1     -33.077  14.934  -4.368  1.00 20.00    -0.085 SA
HETATM   11  H22 UNL     1     -36.281  19.977  -3.662  1.00 20.00     0.186 HD
ENDROOT
TORSDOF 0
ENDMDL
MODEL 5
REMARK VINA RESULT:      -3.5     13.047     14.046
REMARK  0 active torsions:
REMARK  status: ('A' for Active; 'I' for Inactive)
ROOT
HETATM    1  C1  UNL     1     -34.394  16.884  -5.060  1.00 20.00     0.045 C 
HETATM    2  C2  UNL     1     -34.036  18.181  -5.132  1.00 20.00     0.011 C 
HETATM    3  C3  UNL     1     -34.019  16.031  -3.904  1.00 20.00     0.028 C 
HETATM    4  C4  UNL     1     -33.250  18.828  -3.997  1.00 20.00     0.059 C 
HETATM    5  C5  UNL     1     -33.146  16.611  -2.814  1.00 20.00     0.067 C 
HETATM    6  C6  UNL     1     -33.383  18.116  -2.629  1.00 20.00    -0.038 C 
HETATM    7  C7  UNL     1     -32.325  18.679  -1.663  1.00 20.00     0.015 C 
HETATM    8  C8  UNL     1     -34.775  18.373  -2.013  1.00 20.00     0.015 C 
HETATM    9  N9  UNL     1     -34.382  14.792  -3.809  1.00 20.00    -0.305 NA
HETATM   10  S10 UNL     1     -34.394  19.261  -6.466  1.00 20.00    -0.085 SA
HETATM   11  H22 UNL     1     -34.013  14.403  -2.937  1.00 20.00     0.186 HD
ENDROOT
TORSDOF 0
ENDMDL
MODEL 6
REMARK VINA RESULT:      -3.4     10.046     11.183
REMARK  0 active torsions:
REMARK  status: ('A' for Active; 'I' for Inactive)
ROOT
HETATM    1  C1  UNL     1     -39.727  12.940   6.716  1.00 20.00     0.045 C 
HETATM    2  C2  UNL     1     -40.111  12.739   5.441  1.00 20.00     0.011 C 
HETATM    3  C3  UNL     1     -40.419  13.912   7.599  1.00 20.00     0.028 C 
HETATM    4  C4  UNL     1     -41.305  13.494   4.867  1.00 20.00     0.059 C 
HETATM    5  C5  UNL     1     -41.537  14.757   7.029  1.00 20.00     0.067 C 
HETATM    6  C6  UNL     1     -42.306  14.022   5.923  1.00 20.00    -0.038 C 
HETATM    7  C7  UNL     1     -43.281  15.003   5.249  1.00 20.00     0.015 C 
HETATM    8  C8  UNL     1     -43.133  12.862   6.519  1.00 20.00     0.015 C 
HETATM    9  N9  UNL     1     -40.079  14.093   8.835  1.00 20.00    -0.305 NA
HETATM   10  S10 UNL     1     -39.340  11.646   4.307  1.00 20.00    -0.085 SA
HETATM   11  H22 UNL     1     -40.687  14.804   9.247  1.00 20.00     0.186 HD
ENDROOT
TORSDOF 0
ENDMDL
MODEL 7
REMARK VINA RESULT:      -3.4     12.555     13.638
REMARK  0 active torsions:
REMARK  status: ('A' for Active; 'I' for Inactive)
ROOT
HETATM    1  C1  UNL     1     -33.302  18.835   1.293  1.00 20.00     0.045 C 
HETATM    2  C2  UNL     1     -32.076  18.712   0.750  1.00 20.00     0.011 C 
HETATM    3  C3  UNL     1     -34.508  19.075   0.461  1.00 20.00     0.028 C 
HETATM    4  C4  UNL     1     -31.891  18.786  -0.762  1.00 20.00     0.059 C 
HETATM    5  C5  UNL     1     -34.346  19.263  -1.031  1.00 20.00     0.067 C 
HETATM    6  C6  UNL     1     -33.161  18.461  -1.586  1.00 20.00    -0.038 C 
HETATM    7  C7  UNL     1     -32.925  18.858  -3.054  1.00 20.00     0.015 C 
HETATM    8  C8  UNL     1     -33.466  16.948  -1.545  1.00 20.00     0.015 C 
HETATM    9  N9  UNL     1     -35.695  19.165   0.967  1.00 20.00    -0.305 NA
HETATM   10  S10 UNL     1     -30.588  18.466   1.644  1.00 20.00    -0.085 SA
HETATM   11  H22 UNL     1     -36.367  19.332   0.214  1.00 20.00     0.186 HD
ENDROOT
TORSDOF 0
ENDMDL
MODEL 8
REMARK VINA RESULT:      -3.3     10.664     11.669
REMARK  0 active torsions:
REMARK  status: ('A' for Active; 'I' for Inactive)
ROOT
HETATM    1  C1  UNL     1     -42.086  15.724   6.252  1.00 20.00     0.045 C 
HETATM    2  C2  UNL     1     -41.202  15.357   7.199  1.00 20.00     0.011 C 
HETATM    3  C3  UNL     1     -42.320  14.903   5.037  1.00 20.00     0.028 C 
HETATM    4  C4  UNL     1     -40.425  14.052   7.064  1.00 20.00     0.059 C 
HETATM    5  C5  UNL     1     -41.487  13.660   4.818  1.00 20.00     0.067 C 
HETATM    6  C6  UNL     1     -41.086  12.997   6.143  1.00 20.00    -0.038 C 
HETATM    7  C7  UNL     1     -40.075  11.872   5.858  1.00 20.00     0.015 C 
HETATM    8  C8  UNL     1     -42.318  12.369   6.829  1.00 20.00     0.015 C 
HETATM    9  N9  UNL     1     -43.188  15.229   4.135  1.00 20.00    -0.305 NA
HETATM   10  S10 UNL     1     -40.824  16.271   8.647  1.00 20.00    -0.085 SA
HETATM   11  H22 UNL     1     -43.180  14.525   3.393  1.00 20.00     0.186 HD
ENDROOT
TORSDOF 0
ENDMDL
MODEL 9
REMARK VINA RESULT:      -3.3     10.675     11.657
REMARK  0 active torsions:
REMARK  status: ('A' for Active; 'I' for Inactive)
ROOT
HETATM    1  C1  UNL     1     -40.984  13.399   5.412  1.00 20.00     0.045 C 
HETATM    2  C2  UNL     1     -41.952  14.332   5.329  1.00 20.00     0.011 C 
HETATM    3  C3  UNL     1     -40.209  13.183   6.659  1.00 20.00     0.028 C 
HETATM    4  C4  UNL     1     -42.306  15.187   6.541  1.00 20.00     0.059 C 
HETATM    5  C5  UNL     1     -40.459  14.086   7.846  1.00 20.00     0.067 C 
HETATM    6  C6  UNL     1     -41.915  14.568   7.905  1.00 20.00    -0.038 C 
HETATM    7  C7  UNL     1     -42.048  15.640   9.002  1.00 20.00     0.015 C 
HETATM    8  C8  UNL     1     -42.857  13.399   8.265  1.00 20.00     0.015 C 
HETATM    9  N9  UNL     1     -39.298  12.270   6.762  1.00 20.00    -0.305 NA
HETATM   10  S10 UNL     1     -42.897  14.692   3.896  1.00 20.00    -0.085 SA
HETATM   11  H22 UNL     1     -38.897  12.302   7.703  1.00 20.00     0.186 HD
ENDROOT
TORSDOF 0
ENDMDL
