MODEL 1
REMARK VINA RESULT:      -3.6      0.000      0.000
REMARK  2 active torsions:
REMARK  status: ('A' for Active; 'I' for Inactive)
REMARK    1  A    between atoms: C2_2  and  C4_4 
REMARK    2  A    between atoms: C4_4  and  S5_5 
ROOT
HETATM    1  C1  UNL     1     -34.634   5.787   6.476  1.00 20.00     0.051 A 
HETATM    2  C2  UNL     1     -33.654   6.552   5.630  1.00 20.00     0.036 A 
HETATM    3  C3  UNL     1     -34.616   5.584   4.981  1.00 20.00     0.118 A 
HETATM    4 CL6  UNL     1     -33.959   4.066   4.367  1.00 20.00    -0.101 Cl
HETATM    5 CL7  UNL     1     -35.986   6.172   4.049  1.00 20.00    -0.101 Cl
ENDROOT
BRANCH   2   6
HETATM    6  C4  UNL     1     -33.784   8.032   5.495  1.00 20.00     0.078 C 
BRANCH   6   7
HETATM    7  S5  UNL     1     -32.410   8.732   4.524  1.00 20.00    -0.182 SA
HETATM    8  H13 UNL     1     -31.869   7.554   4.188  1.00 20.00     0.101 HD
ENDBRANCH   6   7
ENDBRANCH   2   6
TORSDOF 2
ENDMDL
MODEL 2
REMARK VINA RESULT:      -3.2      1.371      1.430
REMARK  2 active torsions:
REMARK  status: ('A' for Active; 'I' for Inactive)
REMARK    1  A    between atoms: C2_2  and  C4_4 
REMARK    2  A    between atoms: C4_4  and  S5_5 
ROOT
HETATM    1  C1  UNL     1     -34.311   7.402   6.522  1.00 20.00     0.051 A 
HETATM    2  C2  UNL     1     -33.239   7.196   5.487  1.00 20.00     0.036 A 
HETATM    3  C3  UNL     1     -34.381   6.211   5.597  1.00 20.00     0.118 A 
HETATM    4 CL6  UNL     1     -34.028   4.622   6.277  1.00 20.00    -0.101 Cl
HETATM    5 CL7  UNL     1     -35.655   6.179   4.386  1.00 20.00    -0.101 Cl
ENDROOT
BRANCH   2   6
HETATM    6  C4  UNL     1     -33.106   8.154   4.352  1.00 20.00     0.078 C 
BRANCH   6   7
HETATM    7  S5  UNL     1     -32.179   7.418   2.967  1.00 20.00    -0.182 SA
HETATM    8  H13 UNL     1     -33.250   7.187   2.196  1.00 20.00     0.101 HD
ENDBRANCH   6   7
ENDBRANCH   2   6
TORSDOF 2
ENDMDL
MODEL 3
REMARK VINA RESULT:      -3.1      2.853      3.572
REMARK  2 active torsions:
REMARK  status: ('A' for Active; 'I' for Inactive)
REMARK    1  A    between atoms: C2_2  and  C4_4 
REMARK    2  A    between atoms: C4_4  and  S5_5 
ROOT
HETATM    1  C1  UNL     1     -32.796   7.768   5.265  1.00 20.00     0.051 A 
HETATM    2  C2  UNL     1     -34.161   7.609   4.653  1.00 20.00     0.036 A 
HETATM    3  C3  UNL     1     -32.951   7.783   3.764  1.00 20.00     0.118 A 
HETATM    4 CL6  UNL     1     -32.760   9.329   2.936  1.00 20.00    -0.101 Cl
HETATM    5 CL7  UNL     1     -32.307   6.425   2.852  1.00 20.00    -0.101 Cl
ENDROOT
BRANCH   2   6
HETATM    6  C4  UNL     1     -34.888   6.314   4.782  1.00 20.00     0.078 C 
BRANCH   6   7
HETATM    7  S5  UNL     1     -34.497   5.488   6.359  1.00 20.00    -0.182 SA
HETATM    8  H13 UNL     1     -33.249   5.139   6.022  1.00 20.00     0.101 HD
ENDBRANCH   6   7
ENDBRANCH   2   6
TORSDOF 2
ENDMDL
MODEL 4
REMARK VINA RESULT:      -2.9      1.427      1.968
REMARK  2 active torsions:
REMARK  status: ('A' for Active; 'I' for Inactive)
REMARK    1  A    between atoms: C2_2  and  C4_4 
REMARK    2  A    between atoms: C4_4  and  S5_5 
ROOT
HETATM    1  C1  UNL     1     -35.457   6.304   4.434  1.00 20.00     0.051 A 
HETATM    2  C2  UNL     1     -34.127   6.840   4.885  1.00 20.00     0.036 A 
HETATM    3  C3  UNL     1     -34.497   5.403   5.173  1.00 20.00     0.118 A 
HETATM    4 CL6  UNL     1     -34.890   4.977   6.839  1.00 20.00    -0.101 Cl
HETATM    5 CL7  UNL     1     -33.743   4.089   4.281  1.00 20.00    -0.101 Cl
ENDROOT
BRANCH   2   6
HETATM    6  C4  UNL     1     -33.097   7.222   3.877  1.00 20.00     0.078 C 
BRANCH   6   7
HETATM    7  S5  UNL     1     -32.215   8.738   4.371  1.00 20.00    -0.182 SA
HETATM    8  H13 UNL     1     -32.836   8.877   5.549  1.00 20.00     0.101 HD
ENDBRANCH   6   7
ENDBRANCH   2   6
TORSDOF 2
ENDMDL
MODEL 5
REMARK VINA RESULT:      -2.8     13.025     13.556
REMARK  2 active torsions:
REMARK  status: ('A' for Active; 'I' for Inactive)
REMARK    1  A    between atoms: C2_2  and  C4_4 
REMARK    2  A    between atoms: C4_4  and  S5_5 
ROOT
HETATM    1  C1  UNL     1     -32.513  19.263  -1.539  1.00 20.00     0.051 A 
HETATM    2  C2  UNL     1     -32.456  17.760  -1.534  1.00 20.00     0.036 A 
HETATM    3  C3  UNL     1     -32.400  18.521  -0.229  1.00 20.00     0.118 A 
HETATM    4 CL6  UNL     1     -30.853  18.582   0.617  1.00 20.00    -0.101 Cl
HETATM    5 CL7  UNL     1     -33.785  18.541   0.855  1.00 20.00    -0.101 Cl
ENDROOT
BRANCH   2   6
HETATM    6  C4  UNL     1     -33.647  16.968  -1.957  1.00 20.00     0.078 C 
BRANCH   6   7
HETATM    7  S5  UNL     1     -33.347  16.113  -3.538  1.00 20.00    -0.182 SA
HETATM    8  H13 UNL     1     -32.114  16.600  -3.723  1.00 20.00     0.101 HD
ENDBRANCH   6   7
ENDBRANCH   2   6
TORSDOF 2
ENDMDL
MODEL 6
REMARK VINA RESULT:      -2.8     13.040     13.642
REMARK  2 active torsions:
REMARK  status: ('A' for Active; 'I' for Inactive)
REMARK    1  A    between atoms: C2_2  and  C4_4 
REMARK    2  A    between atoms: C4_4  and  S5_5 
ROOT
HETATM    1  C1  UNL     1     -34.067  17.965  -1.357  1.00 20.00     0.051 A 
HETATM    2  C2  UNL     1     -32.582  17.805  -1.181  1.00 20.00     0.036 A 
HETATM    3  C3  UNL     1     -33.198  17.666  -2.555  1.00 20.00     0.118 A 
HETATM    4 CL6  UNL     1     -33.289  16.048  -3.250  1.00 20.00    -0.101 Cl
HETATM    5 CL7  UNL     1     -32.990  18.928  -3.761  1.00 20.00    -0.101 Cl
ENDROOT
BRANCH   2   6
HETATM    6  C4  UNL     1     -31.749  18.977  -0.785  1.00 20.00     0.078 C 
BRANCH   6   7
HETATM    7  S5  UNL     1     -31.050  18.761   0.884  1.00 20.00    -0.182 SA
HETATM    8  H13 UNL     1     -31.206  17.431   0.923  1.00 20.00     0.101 HD
ENDBRANCH   6   7
ENDBRANCH   2   6
TORSDOF 2
ENDMDL
MODEL 7
REMARK VINA RESULT:      -2.7      9.472     10.042
REMARK  2 active torsions:
REMARK  status: ('A' for Active; 'I' for Inactive)
REMARK    1  A    between atoms: C2_2  and  C4_4 
REMARK    2  A    between atoms: C4_4  and  S5_5 
ROOT
HETATM    1  C1  UNL     1     -41.567  12.598   6.609  1.00 20.00     0.051 A 
HETATM    2  C2  UNL     1     -40.475  13.617   6.783  1.00 20.00     0.036 A 
HETATM    3  C3  UNL     1     -40.824  13.115   5.401  1.00 20.00     0.118 A 
HETATM    4 CL6  UNL     1     -39.682  12.026   4.612  1.00 20.00    -0.101 Cl
HETATM    5 CL7  UNL     1     -41.697  14.141   4.270  1.00 20.00    -0.101 Cl
ENDROOT
BRANCH   2   6
HETATM    6  C4  UNL     1     -40.809  14.993   7.251  1.00 20.00     0.078 C 
BRANCH   6   7
HETATM    7  S5  UNL     1     -40.330  15.236   8.992  1.00 20.00    -0.182 SA
HETATM    8  H13 UNL     1     -39.139  15.789   8.728  1.00 20.00     0.101 HD
ENDBRANCH   6   7
ENDBRANCH   2   6
TORSDOF 2
ENDMDL
MODEL 8
REMARK VINA RESULT:      -2.7     12.939     13.517
REMARK  2 active torsions:
REMARK  status: ('A' for Active; 'I' for Inactive)
REMARK    1  A    between atoms: C2_2  and  C4_4 
REMARK    2  A    between atoms: C4_4  and  S5_5 
ROOT
HETATM    1  C1  UNL     1     -32.588  18.317  -1.992  1.00 20.00     0.051 A 
HETATM    2  C2  UNL     1     -33.301  17.021  -2.261  1.00 20.00     0.036 A 
HETATM    3  C3  UNL     1     -33.930  18.054  -1.355  1.00 20.00     0.118 A 
HETATM    4 CL6  UNL     1     -33.963  17.712   0.376  1.00 20.00    -0.101 Cl
HETATM    5 CL7  UNL     1     -35.305  19.004  -1.900  1.00 20.00    -0.101 Cl
ENDROOT
BRANCH   2   6
HETATM    6  C4  UNL     1     -33.817  16.725  -3.628  1.00 20.00     0.078 C 
BRANCH   6   7
HETATM    7  S5  UNL     1     -33.331  15.056  -4.174  1.00 20.00    -0.182 SA
HETATM    8  H13 UNL     1     -34.467  14.793  -4.832  1.00 20.00     0.101 HD
ENDBRANCH   6   7
ENDBRANCH   2   6
TORSDOF 2
ENDMDL
MODEL 9
REMARK VINA RESULT:      -2.7      9.046      9.991
REMARK  2 active torsions:
REMARK  status: ('A' for Active; 'I' for Inactive)
REMARK    1  A    between atoms: C2_2  and  C4_4 
REMARK    2  A    between atoms: C4_4  and  S5_5 
ROOT
HETATM    1  C1  UNL     1     -41.477  13.709   5.282  1.00 20.00     0.051 A 
HETATM    2  C2  UNL     1     -40.389  13.132   6.144  1.00 20.00     0.036 A 
HETATM    3  C3  UNL     1     -41.763  13.374   6.725  1.00 20.00     0.118 A 
HETATM    4 CL6  UNL     1     -41.948  14.714   7.857  1.00 20.00    -0.101 Cl
HETATM    5 CL7  UNL     1     -42.842  12.027   7.063  1.00 20.00    -0.101 Cl
ENDROOT
BRANCH   2   6
HETATM    6  C4  UNL     1     -39.861  11.766   5.862  1.00 20.00     0.078 C 
BRANCH   6   7
HETATM    7  S5  UNL     1     -39.076  11.685   4.219  1.00 20.00    -0.182 SA
HETATM    8  H13 UNL     1     -40.212  11.493   3.537  1.00 20.00     0.101 HD
ENDBRANCH   6   7
ENDBRANCH   2   6
TORSDOF 2
ENDMDL
