MODEL 1
REMARK VINA RESULT:      -4.2      0.000      0.000
REMARK  4 active torsions:
REMARK  status: ('A' for Active; 'I' for Inactive)
REMARK    1  A    between atoms: C1_1  and  C6_6 
REMARK    2  A    between atoms: C1_1  and  C9_9 
REMARK    3  A    between atoms: C7_7  and  C8_8 
REMARK    4  A    between atoms: C8_8  and  N10_10 
ROOT
HETATM    1  C1  UNL     1     -33.608   6.967   4.231  1.00 20.00     0.009 C 
HETATM    2  N10 UNL     1     -32.781   6.636   3.296  1.00 20.00    -0.298 NA
ENDROOT
BRANCH   1   3
HETATM    3  C6  UNL     1     -33.776   8.369   4.794  1.00 20.00     0.050 C 
HETATM    4  C2  UNL     1     -32.449   8.901   5.303  1.00 20.00     0.011 C 
ENDBRANCH   1   3
BRANCH   1   5
HETATM    5  C9  UNL     1     -34.507   5.875   4.818  1.00 20.00     0.025 C 
HETATM    6  C4  UNL     1     -34.481   5.942   6.341  1.00 20.00     0.016 C 
HETATM    7  C5  UNL     1     -34.091   4.498   4.311  1.00 20.00     0.016 C 
ENDBRANCH   1   5
BRANCH   2   8
HETATM    8  C8  UNL     1     -31.924   7.647   2.703  1.00 20.00     0.148 C 
BRANCH   8   9
HETATM    9  C7  UNL     1     -32.338   7.894   1.259  1.00 20.00     0.017 C 
HETATM   10  C3  UNL     1     -32.747   9.338   1.005  1.00 20.00     0.007 C 
ENDBRANCH   8   9
ENDBRANCH   2   8
TORSDOF 4
ENDMDL
MODEL 2
REMARK VINA RESULT:      -4.0      9.404     10.690
REMARK  4 active torsions:
REMARK  status: ('A' for Active; 'I' for Inactive)
REMARK    1  A    between atoms: C1_1  and  C6_6 
REMARK    2  A    between atoms: C1_1  and  C9_9 
REMARK    3  A    between atoms: C7_7  and  C8_8 
REMARK    4  A    between atoms: C8_8  and  N10_10 
ROOT
HETATM    1  C1  UNL     1     -40.987  14.002   6.923  1.00 20.00     0.009 C 
HETATM    2  N10 UNL     1     -40.228  12.973   7.100  1.00 20.00    -0.298 NA
ENDROOT
BRANCH   1   3
HETATM    3  C6  UNL     1     -41.835  14.260   5.687  1.00 20.00     0.050 C 
HETATM    4  C2  UNL     1     -43.310  14.123   6.016  1.00 20.00     0.011 C 
ENDBRANCH   1   3
BRANCH   1   5
HETATM    5  C9  UNL     1     -41.061  15.046   8.041  1.00 20.00     0.025 C 
HETATM    6  C4  UNL     1     -40.593  16.400   7.520  1.00 20.00     0.016 C 
HETATM    7  C5  UNL     1     -40.249  14.601   9.252  1.00 20.00     0.016 C 
ENDBRANCH   1   5
BRANCH   2   8
HETATM    8  C8  UNL     1     -40.144  11.953   6.070  1.00 20.00     0.148 C 
BRANCH   8   9
HETATM    9  C7  UNL     1     -38.817  12.070   5.333  1.00 20.00     0.017 C 
HETATM   10  C3  UNL     1     -38.926  11.681   3.865  1.00 20.00     0.007 C 
ENDBRANCH   8   9
ENDBRANCH   2   8
TORSDOF 4
ENDMDL
MODEL 3
REMARK VINA RESULT:      -4.0      1.154      1.795
REMARK  4 active torsions:
REMARK  status: ('A' for Active; 'I' for Inactive)
REMARK    1  A    between atoms: C1_1  and  C6_6 
REMARK    2  A    between atoms: C1_1  and  C9_9 
REMARK    3  A    between atoms: C7_7  and  C8_8 
REMARK    4  A    between atoms: C8_8  and  N10_10 
ROOT
HETATM    1  C1  UNL     1     -33.277   7.171   4.059  1.00 20.00     0.009 C 
HETATM    2  N10 UNL     1     -32.634   7.625   3.036  1.00 20.00    -0.298 NA
ENDROOT
BRANCH   1   3
HETATM    3  C6  UNL     1     -33.747   8.009   5.238  1.00 20.00     0.050 C 
HETATM    4  C2  UNL     1     -33.657   7.212   6.526  1.00 20.00     0.011 C 
ENDBRANCH   1   3
BRANCH   1   5
HETATM    5  C9  UNL     1     -33.613   5.677   4.096  1.00 20.00     0.025 C 
HETATM    6  C4  UNL     1     -33.180   5.014   2.794  1.00 20.00     0.016 C 
HETATM    7  C5  UNL     1     -35.098   5.462   4.367  1.00 20.00     0.016 C 
ENDBRANCH   1   5
BRANCH   2   8
HETATM    8  C8  UNL     1     -32.312   9.039   2.957  1.00 20.00     0.148 C 
BRANCH   8   9
HETATM    9  C7  UNL     1     -32.974   9.652   1.731  1.00 20.00     0.017 C 
HETATM   10  C3  UNL     1     -32.551   8.974   0.435  1.00 20.00     0.007 C 
ENDBRANCH   8   9
ENDBRANCH   2   8
TORSDOF 4
ENDMDL
MODEL 4
REMARK VINA RESULT:      -4.0      1.300      2.350
REMARK  4 active torsions:
REMARK  status: ('A' for Active; 'I' for Inactive)
REMARK    1  A    between atoms: C1_1  and  C6_6 
REMARK    2  A    between atoms: C1_1  and  C9_9 
REMARK    3  A    between atoms: C7_7  and  C8_8 
REMARK    4  A    between atoms: C8_8  and  N10_10 
ROOT
HETATM    1  C1  UNL     1     -33.312   6.749   4.363  1.00 20.00     0.009 C 
HETATM    2  N10 UNL     1     -32.520   7.718   4.049  1.00 20.00    -0.298 NA
ENDROOT
BRANCH   1   3
HETATM    3  C6  UNL     1     -33.937   5.777   3.375  1.00 20.00     0.050 C 
HETATM    4  C2  UNL     1     -32.875   4.881   2.765  1.00 20.00     0.011 C 
ENDBRANCH   1   3
BRANCH   1   5
HETATM    5  C9  UNL     1     -33.645   6.538   5.843  1.00 20.00     0.025 C 
HETATM    6  C4  UNL     1     -34.726   5.472   5.987  1.00 20.00     0.016 C 
HETATM    7  C5  UNL     1     -34.062   7.851   6.497  1.00 20.00     0.016 C 
ENDBRANCH   1   5
BRANCH   2   8
HETATM    8  C8  UNL     1     -32.168   7.940   2.658  1.00 20.00     0.148 C 
BRANCH   8   9
HETATM    9  C7  UNL     1     -32.815   9.225   2.159  1.00 20.00     0.017 C 
HETATM   10  C3  UNL     1     -32.738   9.369   0.646  1.00 20.00     0.007 C 
ENDBRANCH   8   9
ENDBRANCH   2   8
TORSDOF 4
ENDMDL
MODEL 5
REMARK VINA RESULT:      -3.8      1.370      4.422
REMARK  4 active torsions:
REMARK  status: ('A' for Active; 'I' for Inactive)
REMARK    1  A    between atoms: C1_1  and  C6_6 
REMARK    2  A    between atoms: C1_1  and  C9_9 
REMARK    3  A    between atoms: C7_7  and  C8_8 
REMARK    4  A    between atoms: C8_8  and  N10_10 
ROOT
HETATM    1  C1  UNL     1     -33.067   6.586   3.651  1.00 20.00     0.009 C 
HETATM    2  N10 UNL     1     -34.180   6.846   4.251  1.00 20.00    -0.298 NA
ENDROOT
BRANCH   1   3
HETATM    3  C6  UNL     1     -32.611   5.202   3.218  1.00 20.00     0.050 C 
HETATM    4  C2  UNL     1     -33.060   4.913   1.798  1.00 20.00     0.011 C 
ENDBRANCH   1   3
BRANCH   1   5
HETATM    5  C9  UNL     1     -32.130   7.753   3.330  1.00 20.00     0.025 C 
HETATM    6  C4  UNL     1     -32.199   8.797   4.440  1.00 20.00     0.016 C 
HETATM    7  C5  UNL     1     -32.463   8.359   1.971  1.00 20.00     0.016 C 
ENDBRANCH   1   5
BRANCH   2   8
HETATM    8  C8  UNL     1     -35.102   5.767   4.557  1.00 20.00     0.148 C 
BRANCH   8   9
HETATM    9  C7  UNL     1     -34.947   5.352   6.014  1.00 20.00     0.017 C 
HETATM   10  C3  UNL     1     -34.272   6.423   6.859  1.00 20.00     0.007 C 
ENDBRANCH   8   9
ENDBRANCH   2   8
TORSDOF 4
ENDMDL
MODEL 6
REMARK VINA RESULT:      -3.8      9.644     10.897
REMARK  4 active torsions:
REMARK  status: ('A' for Active; 'I' for Inactive)
REMARK    1  A    between atoms: C1_1  and  C6_6 
REMARK    2  A    between atoms: C1_1  and  C9_9 
REMARK    3  A    between atoms: C7_7  and  C8_8 
REMARK    4  A    between atoms: C8_8  and  N10_10 
ROOT
HETATM    1  C1  UNL     1     -41.952  13.526   6.017  1.00 20.00     0.009 C 
HETATM    2  N10 UNL     1     -40.861  13.155   5.437  1.00 20.00    -0.298 NA
ENDROOT
BRANCH   1   3
HETATM    3  C6  UNL     1     -42.407  13.074   7.396  1.00 20.00     0.050 C 
HETATM    4  C2  UNL     1     -43.401  11.933   7.281  1.00 20.00     0.011 C 
ENDBRANCH   1   3
BRANCH   1   5
HETATM    5  C9  UNL     1     -42.864  14.510   5.278  1.00 20.00     0.025 C 
HETATM    6  C4  UNL     1     -42.381  14.690   3.843  1.00 20.00     0.016 C 
HETATM    7  C5  UNL     1     -42.936  15.842   6.016  1.00 20.00     0.016 C 
ENDBRANCH   1   5
BRANCH   2   8
HETATM    8  C8  UNL     1     -39.962  12.236   6.114  1.00 20.00     0.148 C 
BRANCH   8   9
HETATM    9  C7  UNL     1     -38.670  12.097   5.319  1.00 20.00     0.017 C 
HETATM   10  C3  UNL     1     -38.912  11.671   3.878  1.00 20.00     0.007 C 
ENDBRANCH   8   9
ENDBRANCH   2   8
TORSDOF 4
ENDMDL
MODEL 7
REMARK VINA RESULT:      -3.7      9.947     11.036
REMARK  4 active torsions:
REMARK  status: ('A' for Active; 'I' for Inactive)
REMARK    1  A    between atoms: C1_1  and  C6_6 
REMARK    2  A    between atoms: C1_1  and  C9_9 
REMARK    3  A    between atoms: C7_7  and  C8_8 
REMARK    4  A    between atoms: C8_8  and  N10_10 
ROOT
HETATM    1  C1  UNL     1     -40.981  14.382   8.111  1.00 20.00     0.009 C 
HETATM    2  N10 UNL     1     -40.910  13.287   7.431  1.00 20.00    -0.298 NA
ENDROOT
BRANCH   1   3
HETATM    3  C6  UNL     1     -40.297  15.688   7.739  1.00 20.00     0.050 C 
HETATM    4  C2  UNL     1     -41.322  16.724   7.319  1.00 20.00     0.011 C 
ENDBRANCH   1   3
BRANCH   1   5
HETATM    5  C9  UNL     1     -41.828  14.386   9.387  1.00 20.00     0.025 C 
HETATM    6  C4  UNL     1     -40.937  14.166  10.605  1.00 20.00     0.016 C 
HETATM    7  C5  UNL     1     -42.934  13.339   9.307  1.00 20.00     0.016 C 
ENDBRANCH   1   5
BRANCH   2   8
HETATM    8  C8  UNL     1     -40.130  13.249   6.207  1.00 20.00     0.148 C 
BRANCH   8   9
HETATM    9  C7  UNL     1     -39.754  11.810   5.878  1.00 20.00     0.017 C 
HETATM   10  C3  UNL     1     -39.205  11.657   4.467  1.00 20.00     0.007 C 
ENDBRANCH   8   9
ENDBRANCH   2   8
TORSDOF 4
ENDMDL
MODEL 8
REMARK VINA RESULT:      -3.7     11.314     13.018
REMARK  4 active torsions:
REMARK  status: ('A' for Active; 'I' for Inactive)
REMARK    1  A    between atoms: C1_1  and  C6_6 
REMARK    2  A    between atoms: C1_1  and  C9_9 
REMARK    3  A    between atoms: C7_7  and  C8_8 
REMARK    4  A    between atoms: C8_8  and  N10_10 
ROOT
HETATM    1  C1  UNL     1     -34.100  16.963  -3.761  1.00 20.00     0.009 C 
HETATM    2  N10 UNL     1     -34.121  17.775  -2.758  1.00 20.00    -0.298 NA
ENDROOT
BRANCH   1   3
HETATM    3  C6  UNL     1     -33.225  15.724  -3.864  1.00 20.00     0.050 C 
HETATM    4  C2  UNL     1     -34.062  14.510  -4.223  1.00 20.00     0.011 C 
ENDBRANCH   1   3
BRANCH   1   5
HETATM    5  C9  UNL     1     -35.036  17.248  -4.940  1.00 20.00     0.025 C 
HETATM    6  C4  UNL     1     -34.348  18.172  -5.939  1.00 20.00     0.016 C 
HETATM    7  C5  UNL     1     -36.357  17.833  -4.454  1.00 20.00     0.016 C 
ENDBRANCH   1   5
BRANCH   2   8
HETATM    8  C8  UNL     1     -33.260  17.529  -1.615  1.00 20.00     0.148 C 
BRANCH   8   9
HETATM    9  C7  UNL     1     -32.269  18.675  -1.457  1.00 20.00     0.017 C 
HETATM   10  C3  UNL     1     -31.349  18.492  -0.258  1.00 20.00     0.007 C 
ENDBRANCH   8   9
ENDBRANCH   2   8
TORSDOF 4
ENDMDL
MODEL 9
REMARK VINA RESULT:      -3.7     10.992     12.577
REMARK  4 active torsions:
REMARK  status: ('A' for Active; 'I' for Inactive)
REMARK    1  A    between atoms: C1_1  and  C6_6 
REMARK    2  A    between atoms: C1_1  and  C9_9 
REMARK    3  A    between atoms: C7_7  and  C8_8 
REMARK    4  A    between atoms: C8_8  and  N10_10 
ROOT
HETATM    1  C1  UNL     1     -33.717  17.309  -3.388  1.00 20.00     0.009 C 
HETATM    2  N10 UNL     1     -33.307  16.099  -3.208  1.00 20.00    -0.298 NA
ENDROOT
BRANCH   1   3
HETATM    3  C6  UNL     1     -34.207  17.878  -4.709  1.00 20.00     0.050 C 
HETATM    4  C2  UNL     1     -35.695  18.170  -4.644  1.00 20.00     0.011 C 
ENDBRANCH   1   3
BRANCH   1   5
HETATM    5  C9  UNL     1     -33.729  18.254  -2.182  1.00 20.00     0.025 C 
HETATM    6  C4  UNL     1     -32.565  19.234  -2.276  1.00 20.00     0.016 C 
HETATM    7  C5  UNL     1     -33.695  17.467  -0.876  1.00 20.00     0.016 C 
ENDBRANCH   1   5
BRANCH   2   8
HETATM    8  C8  UNL     1     -33.296  15.169  -4.323  1.00 20.00     0.148 C 
BRANCH   8   9
HETATM    9  C7  UNL     1     -34.475  14.211  -4.210  1.00 20.00     0.017 C 
HETATM   10  C3  UNL     1     -35.532  14.455  -5.278  1.00 20.00     0.007 C 
ENDBRANCH   8   9
ENDBRANCH   2   8
TORSDOF 4
ENDMDL
