MODEL 1
REMARK VINA RESULT:      -4.0      0.000      0.000
REMARK  1 active torsions:
REMARK  status: ('A' for Active; 'I' for Inactive)
REMARK    1  A    between atoms: C4_4  and  C5_5 
ROOT
HETATM    1  C1  UNL     1     -34.396   5.975   5.827  1.00 20.00     0.127 C 
HETATM    2  C2  UNL     1     -33.681   7.262   6.288  1.00 20.00     0.084 C 
HETATM    3  C3  UNL     1     -34.008   6.233   4.357  1.00 20.00     0.084 C 
HETATM    4  C4  UNL     1     -33.680   7.692   4.792  1.00 20.00     0.013 C 
HETATM    5  O6  UNL     1     -35.027   5.110   6.395  1.00 20.00    -0.298 OA
ENDROOT
BRANCH   4   6
HETATM    6  C5  UNL     1     -32.378   8.264   4.267  1.00 20.00     0.120 C 
HETATM    7 CL7  UNL     1     -32.615   8.963   2.651  1.00 20.00    -0.130 Cl
ENDBRANCH   4   6
TORSDOF 1
ENDMDL
MODEL 2
REMARK VINA RESULT:      -4.0      3.131      3.793
REMARK  1 active torsions:
REMARK  status: ('A' for Active; 'I' for Inactive)
REMARK    1  A    between atoms: C4_4  and  C5_5 
ROOT
HETATM    1  C1  UNL     1     -32.484   7.571   3.194  1.00 20.00     0.127 C 
HETATM    2  C2  UNL     1     -33.361   6.447   3.783  1.00 20.00     0.084 C 
HETATM    3  C3  UNL     1     -32.561   8.378   4.506  1.00 20.00     0.084 C 
HETATM    4  C4  UNL     1     -33.754   7.459   4.899  1.00 20.00     0.013 C 
HETATM    5  O6  UNL     1     -31.955   7.754   2.119  1.00 20.00    -0.298 OA
ENDROOT
BRANCH   4   6
HETATM    6  C5  UNL     1     -33.740   6.922   6.317  1.00 20.00     0.120 C 
HETATM    7 CL7  UNL     1     -34.778   5.486   6.447  1.00 20.00    -0.130 Cl
ENDBRANCH   4   6
TORSDOF 1
ENDMDL
MODEL 3
REMARK VINA RESULT:      -3.7      3.089      3.726
REMARK  1 active torsions:
REMARK  status: ('A' for Active; 'I' for Inactive)
REMARK    1  A    between atoms: C4_4  and  C5_5 
ROOT
HETATM    1  C1  UNL     1     -32.642   8.358   4.794  1.00 20.00     0.127 C 
HETATM    2  C2  UNL     1     -32.798   7.305   3.678  1.00 20.00     0.084 C 
HETATM    3  C3  UNL     1     -33.684   7.641   5.677  1.00 20.00     0.084 C 
HETATM    4  C4  UNL     1     -34.110   6.870   4.393  1.00 20.00     0.013 C 
HETATM    5  O6  UNL     1     -31.974   9.361   4.922  1.00 20.00    -0.298 OA
ENDROOT
BRANCH   4   6
HETATM    6  C5  UNL     1     -34.315   5.376   4.554  1.00 20.00     0.120 C 
HETATM    7 CL7  UNL     1     -34.740   4.986   6.234  1.00 20.00    -0.130 Cl
ENDBRANCH   4   6
TORSDOF 1
ENDMDL
MODEL 4
REMARK VINA RESULT:      -3.6      1.394      1.786
REMARK  1 active torsions:
REMARK  status: ('A' for Active; 'I' for Inactive)
REMARK    1  A    between atoms: C4_4  and  C5_5 
ROOT
HETATM    1  C1  UNL     1     -34.470   5.400   5.023  1.00 20.00     0.127 C 
HETATM    2  C2  UNL     1     -33.690   6.423   4.171  1.00 20.00     0.084 C 
HETATM    3  C3  UNL     1     -34.478   6.352   6.236  1.00 20.00     0.084 C 
HETATM    4  C4  UNL     1     -33.359   7.151   5.507  1.00 20.00     0.013 C 
HETATM    5  O6  UNL     1     -34.895   4.284   4.822  1.00 20.00    -0.298 OA
ENDROOT
BRANCH   4   6
HETATM    6  C5  UNL     1     -33.518   8.659   5.497  1.00 20.00     0.120 C 
HETATM    7 CL7  UNL     1     -32.058   9.432   4.845  1.00 20.00    -0.130 Cl
ENDBRANCH   4   6
TORSDOF 1
ENDMDL
MODEL 5
REMARK VINA RESULT:      -3.6      2.042      2.750
REMARK  1 active torsions:
REMARK  status: ('A' for Active; 'I' for Inactive)
REMARK    1  A    between atoms: C4_4  and  C5_5 
ROOT
HETATM    1  C1  UNL     1     -34.266   6.896   6.229  1.00 20.00     0.127 C 
HETATM    2  C2  UNL     1     -33.801   6.898   4.759  1.00 20.00     0.084 C 
HETATM    3  C3  UNL     1     -34.665   5.408   6.147  1.00 20.00     0.084 C 
HETATM    4  C4  UNL     1     -34.588   5.564   4.600  1.00 20.00     0.013 C 
HETATM    5  O6  UNL     1     -34.313   7.737   7.101  1.00 20.00    -0.298 OA
ENDROOT
BRANCH   4   6
HETATM    6  C5  UNL     1     -33.870   4.454   3.856  1.00 20.00     0.120 C 
HETATM    7 CL7  UNL     1     -32.926   5.121   2.508  1.00 20.00    -0.130 Cl
ENDBRANCH   4   6
TORSDOF 1
ENDMDL
MODEL 6
REMARK VINA RESULT:      -3.5      3.206      3.708
REMARK  1 active torsions:
REMARK  status: ('A' for Active; 'I' for Inactive)
REMARK    1  A    between atoms: C4_4  and  C5_5 
ROOT
HETATM    1  C1  UNL     1     -32.854   8.366   3.730  1.00 20.00     0.127 C 
HETATM    2  C2  UNL     1     -33.085   8.804   5.191  1.00 20.00     0.084 C 
HETATM    3  C3  UNL     1     -33.340   6.935   4.035  1.00 20.00     0.084 C 
HETATM    4  C4  UNL     1     -33.157   7.288   5.540  1.00 20.00     0.013 C 
HETATM    5  O6  UNL     1     -32.440   8.924   2.737  1.00 20.00    -0.298 OA
ENDROOT
BRANCH   4   6
HETATM    6  C5  UNL     1     -34.288   6.872   6.462  1.00 20.00     0.120 C 
HETATM    7 CL7  UNL     1     -34.487   5.107   6.441  1.00 20.00    -0.130 Cl
ENDBRANCH   4   6
TORSDOF 1
ENDMDL
MODEL 7
REMARK VINA RESULT:      -3.5      0.695      1.362
REMARK  1 active torsions:
REMARK  status: ('A' for Active; 'I' for Inactive)
REMARK    1  A    between atoms: C4_4  and  C5_5 
ROOT
HETATM    1  C1  UNL     1     -34.416   6.142   5.782  1.00 20.00     0.127 C 
HETATM    2  C2  UNL     1     -34.035   6.109   4.288  1.00 20.00     0.084 C 
HETATM    3  C3  UNL     1     -33.677   7.480   5.986  1.00 20.00     0.084 C 
HETATM    4  C4  UNL     1     -32.976   7.200   4.625  1.00 20.00     0.013 C 
HETATM    5  O6  UNL     1     -35.040   5.401   6.510  1.00 20.00    -0.298 OA
ENDROOT
BRANCH   4   6
HETATM    6  C5  UNL     1     -32.901   8.371   3.664  1.00 20.00     0.120 C 
HETATM    7 CL7  UNL     1     -32.141   7.872   2.138  1.00 20.00    -0.130 Cl
ENDBRANCH   4   6
TORSDOF 1
ENDMDL
MODEL 8
REMARK VINA RESULT:      -3.3     12.679     13.518
REMARK  1 active torsions:
REMARK  status: ('A' for Active; 'I' for Inactive)
REMARK    1  A    between atoms: C4_4  and  C5_5 
ROOT
HETATM    1  C1  UNL     1     -35.584  14.727  -6.774  1.00 20.00     0.127 C 
HETATM    2  C2  UNL     1     -35.742  14.489  -5.258  1.00 20.00     0.084 C 
HETATM    3  C3  UNL     1     -34.202  15.379  -6.572  1.00 20.00     0.084 C 
HETATM    4  C4  UNL     1     -34.578  15.505  -5.067  1.00 20.00     0.013 C 
HETATM    5  O6  UNL     1     -36.280  14.502  -7.741  1.00 20.00    -0.298 OA
ENDROOT
BRANCH   4   6
HETATM    6  C5  UNL     1     -33.502  15.104  -4.078  1.00 20.00     0.120 C 
HETATM    7 CL7  UNL     1     -33.421  16.272  -2.742  1.00 20.00    -0.130 Cl
ENDBRANCH   4   6
TORSDOF 1
ENDMDL
MODEL 9
REMARK VINA RESULT:      -3.2     12.454     13.039
REMARK  1 active torsions:
REMARK  status: ('A' for Active; 'I' for Inactive)
REMARK    1  A    between atoms: C4_4  and  C5_5 
ROOT
HETATM    1  C1  UNL     1     -34.056  15.310  -5.416  1.00 20.00     0.127 C 
HETATM    2  C2  UNL     1     -34.429  16.636  -4.724  1.00 20.00     0.084 C 
HETATM    3  C3  UNL     1     -33.219  14.860  -4.201  1.00 20.00     0.084 C 
HETATM    4  C4  UNL     1     -33.266  16.344  -3.731  1.00 20.00     0.013 C 
HETATM    5  O6  UNL     1     -34.309  14.820  -6.495  1.00 20.00    -0.298 OA
ENDROOT
BRANCH   4   6
HETATM    6  C5  UNL     1     -33.575  16.565  -2.263  1.00 20.00     0.120 C 
HETATM    7 CL7  UNL     1     -32.537  17.844  -1.597  1.00 20.00    -0.130 Cl
ENDBRANCH   4   6
TORSDOF 1
ENDMDL
