MODEL 1
REMARK VINA RESULT:      -4.1      0.000      0.000
REMARK  2 active torsions:
REMARK  status: ('A' for Active; 'I' for Inactive)
REMARK    1  A    between atoms: C1_1  and  C7_7 
REMARK    2  A    between atoms: C6_6  and  N8_8 
ROOT
HETATM    1  C1  UNL     1     -33.645   6.873   4.622  1.00 20.00     0.108 C 
HETATM    2  N8  UNL     1     -32.849   6.927   3.610  1.00 20.00    -0.299 NA
ENDROOT
BRANCH   1   3
HETATM    3  C7  UNL     1     -34.510   5.659   4.908  1.00 20.00     0.063 C 
HETATM    4  C4  UNL     1     -34.677   5.514   6.418  1.00 20.00     0.038 C 
HETATM    5  C5  UNL     1     -33.967   4.371   4.294  1.00 20.00     0.038 C 
HETATM    6 CL9  UNL     1     -36.103   6.029   4.174  1.00 20.00    -0.114 Cl
ENDBRANCH   1   3
BRANCH   2   7
HETATM    7  C6  UNL     1     -32.118   8.188   3.525  1.00 20.00     0.099 C 
HETATM    8  C2  UNL     1     -32.636   8.980   2.335  1.00 20.00     0.034 C 
HETATM    9  C3  UNL     1     -32.296   8.950   4.830  1.00 20.00     0.034 C 
ENDBRANCH   2   7
TORSDOF 2
ENDMDL
MODEL 2
REMARK VINA RESULT:      -4.0      1.106      1.525
REMARK  2 active torsions:
REMARK  status: ('A' for Active; 'I' for Inactive)
REMARK    1  A    between atoms: C1_1  and  C7_7 
REMARK    2  A    between atoms: C6_6  and  N8_8 
ROOT
HETATM    1  C1  UNL     1     -33.647   6.871   4.634  1.00 20.00     0.108 C 
HETATM    2  N8  UNL     1     -32.883   6.890   3.596  1.00 20.00    -0.299 NA
ENDROOT
BRANCH   1   3
HETATM    3  C7  UNL     1     -34.556   5.697   4.948  1.00 20.00     0.063 C 
HETATM    4  C4  UNL     1     -35.920   5.941   4.306  1.00 20.00     0.038 C 
HETATM    5  C5  UNL     1     -34.699   5.425   6.443  1.00 20.00     0.038 C 
HETATM    6 CL9  UNL     1     -33.785   4.279   4.168  1.00 20.00    -0.114 Cl
ENDBRANCH   1   3
BRANCH   2   7
HETATM    7  C6  UNL     1     -32.099   8.117   3.487  1.00 20.00     0.099 C 
HETATM    8  C2  UNL     1     -32.577   8.904   2.277  1.00 20.00     0.034 C 
HETATM    9  C3  UNL     1     -32.249   8.914   4.775  1.00 20.00     0.034 C 
ENDBRANCH   2   7
TORSDOF 2
ENDMDL
MODEL 3
REMARK VINA RESULT:      -3.8      1.103      1.530
REMARK  2 active torsions:
REMARK  status: ('A' for Active; 'I' for Inactive)
REMARK    1  A    between atoms: C1_1  and  C7_7 
REMARK    2  A    between atoms: C6_6  and  N8_8 
ROOT
HETATM    1  C1  UNL     1     -33.666   6.865   4.567  1.00 20.00     0.108 C 
HETATM    2  N8  UNL     1     -32.840   6.901   3.578  1.00 20.00    -0.299 NA
ENDROOT
BRANCH   1   3
HETATM    3  C7  UNL     1     -34.566   5.671   4.827  1.00 20.00     0.063 C 
HETATM    4  C4  UNL     1     -33.908   4.420   4.249  1.00 20.00     0.038 C 
HETATM    5  C5  UNL     1     -35.979   5.847   4.277  1.00 20.00     0.038 C 
HETATM    6 CL9  UNL     1     -34.648   5.519   6.611  1.00 20.00    -0.114 Cl
ENDBRANCH   1   3
BRANCH   2   7
HETATM    7  C6  UNL     1     -32.079   8.146   3.516  1.00 20.00     0.099 C 
HETATM    8  C2  UNL     1     -32.557   8.958   2.322  1.00 20.00     0.034 C 
HETATM    9  C3  UNL     1     -32.263   8.903   4.823  1.00 20.00     0.034 C 
ENDBRANCH   2   7
TORSDOF 2
ENDMDL
MODEL 4
REMARK VINA RESULT:      -3.6      0.773      1.356
REMARK  2 active torsions:
REMARK  status: ('A' for Active; 'I' for Inactive)
REMARK    1  A    between atoms: C1_1  and  C7_7 
REMARK    2  A    between atoms: C6_6  and  N8_8 
ROOT
HETATM    1  C1  UNL     1     -33.551   6.663   4.405  1.00 20.00     0.108 C 
HETATM    2  N8  UNL     1     -33.857   7.915   4.419  1.00 20.00    -0.299 NA
ENDROOT
BRANCH   1   3
HETATM    3  C7  UNL     1     -34.491   5.595   4.933  1.00 20.00     0.063 C 
HETATM    4  C4  UNL     1     -34.593   5.729   6.450  1.00 20.00     0.038 C 
HETATM    5  C5  UNL     1     -34.080   4.179   4.538  1.00 20.00     0.038 C 
HETATM    6 CL9  UNL     1     -36.086   5.964   4.203  1.00 20.00    -0.114 Cl
ENDBRANCH   1   3
BRANCH   2   7
HETATM    7  C6  UNL     1     -32.805   8.766   3.868  1.00 20.00     0.099 C 
HETATM    8  C2  UNL     1     -31.922   9.257   5.004  1.00 20.00     0.034 C 
HETATM    9  C3  UNL     1     -32.014   7.969   2.842  1.00 20.00     0.034 C 
ENDBRANCH   2   7
TORSDOF 2
ENDMDL
MODEL 5
REMARK VINA RESULT:      -3.3     10.500     10.927
REMARK  2 active torsions:
REMARK  status: ('A' for Active; 'I' for Inactive)
REMARK    1  A    between atoms: C1_1  and  C7_7 
REMARK    2  A    between atoms: C6_6  and  N8_8 
ROOT
HETATM    1  C1  UNL     1     -40.764  14.088   7.250  1.00 20.00     0.108 C 
HETATM    2  N8  UNL     1     -40.488  13.819   8.479  1.00 20.00    -0.299 NA
ENDROOT
BRANCH   1   3
HETATM    3  C7  UNL     1     -41.222  13.021   6.271  1.00 20.00     0.063 C 
HETATM    4  C4  UNL     1     -42.462  12.331   6.834  1.00 20.00     0.038 C 
HETATM    5  C5  UNL     1     -40.136  12.002   5.937  1.00 20.00     0.038 C 
HETATM    6 CL9  UNL     1     -41.670  13.908   4.779  1.00 20.00    -0.114 Cl
ENDBRANCH   1   3
BRANCH   2   7
HETATM    7  C6  UNL     1     -40.064  14.992   9.238  1.00 20.00     0.099 C 
HETATM    8  C2  UNL     1     -40.644  16.238   8.587  1.00 20.00     0.034 C 
HETATM    9  C3  UNL     1     -40.527  14.842  10.680  1.00 20.00     0.034 C 
ENDBRANCH   2   7
TORSDOF 2
ENDMDL
MODEL 6
REMARK VINA RESULT:      -3.3     10.446     10.940
REMARK  2 active torsions:
REMARK  status: ('A' for Active; 'I' for Inactive)
REMARK    1  A    between atoms: C1_1  and  C7_7 
REMARK    2  A    between atoms: C6_6  and  N8_8 
ROOT
HETATM    1  C1  UNL     1     -40.727  14.117   7.279  1.00 20.00     0.108 C 
HETATM    2  N8  UNL     1     -40.411  13.765   8.477  1.00 20.00    -0.299 NA
ENDROOT
BRANCH   1   3
HETATM    3  C7  UNL     1     -41.106  13.107   6.211  1.00 20.00     0.063 C 
HETATM    4  C4  UNL     1     -39.941  12.141   6.008  1.00 20.00     0.038 C 
HETATM    5  C5  UNL     1     -41.518  13.748   4.889  1.00 20.00     0.038 C 
HETATM    6 CL9  UNL     1     -42.503  12.208   6.885  1.00 20.00    -0.114 Cl
ENDBRANCH   1   3
BRANCH   2   7
HETATM    7  C6  UNL     1     -40.078  14.898   9.336  1.00 20.00     0.099 C 
HETATM    8  C2  UNL     1     -40.636  16.169   8.715  1.00 20.00     0.034 C 
HETATM    9  C3  UNL     1     -40.649  14.651  10.724  1.00 20.00     0.034 C 
ENDBRANCH   2   7
TORSDOF 2
ENDMDL
MODEL 7
REMARK VINA RESULT:      -3.2     11.992     12.919
REMARK  2 active torsions:
REMARK  status: ('A' for Active; 'I' for Inactive)
REMARK    1  A    between atoms: C1_1  and  C7_7 
REMARK    2  A    between atoms: C6_6  and  N8_8 
ROOT
HETATM    1  C1  UNL     1     -34.221  16.445  -4.444  1.00 20.00     0.108 C 
HETATM    2  N8  UNL     1     -33.619  16.089  -3.362  1.00 20.00    -0.299 NA
ENDROOT
BRANCH   1   3
HETATM    3  C7  UNL     1     -34.917  15.446  -5.350  1.00 20.00     0.063 C 
HETATM    4  C4  UNL     1     -34.049  15.205  -6.582  1.00 20.00     0.038 C 
HETATM    5  C5  UNL     1     -36.326  15.872  -5.751  1.00 20.00     0.038 C 
HETATM    6 CL9  UNL     1     -35.015  13.931  -4.395  1.00 20.00    -0.114 Cl
ENDBRANCH   1   3
BRANCH   2   7
HETATM    7  C6  UNL     1     -33.015  17.211  -2.649  1.00 20.00     0.099 C 
HETATM    8  C2  UNL     1     -33.176  18.471  -3.485  1.00 20.00     0.034 C 
HETATM    9  C3  UNL     1     -33.683  17.348  -1.288  1.00 20.00     0.034 C 
ENDBRANCH   2   7
TORSDOF 2
ENDMDL
MODEL 8
REMARK VINA RESULT:      -3.2     10.488     10.989
REMARK  2 active torsions:
REMARK  status: ('A' for Active; 'I' for Inactive)
REMARK    1  A    between atoms: C1_1  and  C7_7 
REMARK    2  A    between atoms: C6_6  and  N8_8 
ROOT
HETATM    1  C1  UNL     1     -40.692  14.051   7.261  1.00 20.00     0.108 C 
HETATM    2  N8  UNL     1     -40.648  13.837   8.531  1.00 20.00    -0.299 NA
ENDROOT
BRANCH   1   3
HETATM    3  C7  UNL     1     -41.243  13.026   6.286  1.00 20.00     0.063 C 
HETATM    4  C4  UNL     1     -41.548  13.717   4.959  1.00 20.00     0.038 C 
HETATM    5  C5  UNL     1     -42.472  12.290   6.812  1.00 20.00     0.038 C 
HETATM    6 CL9  UNL     1     -39.916  11.844   6.041  1.00 20.00    -0.114 Cl
ENDBRANCH   1   3
BRANCH   2   7
HETATM    7  C6  UNL     1     -40.076  14.954   9.278  1.00 20.00     0.099 C 
HETATM    8  C2  UNL     1     -40.571  16.258   8.672  1.00 20.00     0.034 C 
HETATM    9  C3  UNL     1     -40.473  14.824  10.741  1.00 20.00     0.034 C 
ENDBRANCH   2   7
TORSDOF 2
ENDMDL
MODEL 9
REMARK VINA RESULT:      -3.1     10.471     11.113
REMARK  2 active torsions:
REMARK  status: ('A' for Active; 'I' for Inactive)
REMARK    1  A    between atoms: C1_1  and  C7_7 
REMARK    2  A    between atoms: C6_6  and  N8_8 
ROOT
HETATM    1  C1  UNL     1     -40.866  14.393   7.150  1.00 20.00     0.108 C 
HETATM    2  N8  UNL     1     -40.418  13.198   7.332  1.00 20.00    -0.299 NA
ENDROOT
BRANCH   1   3
HETATM    3  C7  UNL     1     -40.988  15.392   8.285  1.00 20.00     0.063 C 
HETATM    4  C4  UNL     1     -40.643  16.784   7.760  1.00 20.00     0.038 C 
HETATM    5  C5  UNL     1     -40.131  15.039   9.498  1.00 20.00     0.038 C 
HETATM    6 CL9  UNL     1     -42.716  15.358   8.762  1.00 20.00    -0.114 Cl
ENDBRANCH   1   3
BRANCH   2   7
HETATM    7  C6  UNL     1     -40.390  12.406   6.105  1.00 20.00     0.099 C 
HETATM    8  C2  UNL     1     -41.013  13.217   4.980  1.00 20.00     0.034 C 
HETATM    9  C3  UNL     1     -38.950  12.025   5.796  1.00 20.00     0.034 C 
ENDBRANCH   2   7
TORSDOF 2
ENDMDL
