MODEL 1
REMARK VINA RESULT:      -5.2      0.000      0.000
REMARK  1 active torsions:
REMARK  status: ('A' for Active; 'I' for Inactive)
REMARK    1  A    between atoms: C2_2  and  C5_5 
ROOT
HETATM    1  C1  UNL     1     -32.166   8.875   3.900  1.00 20.00     0.065 A 
HETATM    2  C2  UNL     1     -32.533   7.700   3.280  1.00 20.00     0.015 A 
HETATM    3  C3  UNL     1     -33.302   6.857   4.138  1.00 20.00    -0.031 A 
HETATM    4  C4  UNL     1     -33.480   7.433   5.382  1.00 20.00    -0.010 A 
HETATM    5  C6  UNL     1     -33.849   5.505   3.800  1.00 20.00     0.040 C 
HETATM    6  C7  UNL     1     -34.259   6.826   6.506  1.00 20.00     0.046 C 
HETATM    7  C8  UNL     1     -34.928   5.061   4.800  1.00 20.00     0.005 C 
HETATM    8  C9  UNL     1     -34.500   5.330   6.250  1.00 20.00     0.005 C 
HETATM    9  S11 UNL     1     -32.744   8.962   5.510  1.00 20.00    -0.105 SA
ENDROOT
BRANCH   2  10
HETATM   10  C5  UNL     1     -32.155   7.406   1.922  1.00 20.00     0.271 C 
HETATM   11  O10 UNL     1     -32.124   8.256   1.017  1.00 20.00    -0.301 OA
ENDBRANCH   2  10
TORSDOF 1
ENDMDL
MODEL 2
REMARK VINA RESULT:      -4.7      1.968      2.668
REMARK  1 active torsions:
REMARK  status: ('A' for Active; 'I' for Inactive)
REMARK    1  A    between atoms: C2_2  and  C5_5 
ROOT
HETATM    1  C1  UNL     1     -32.250   7.240   2.544  1.00 20.00     0.065 A 
HETATM    2  C2  UNL     1     -32.626   7.868   3.711  1.00 20.00     0.015 A 
HETATM    3  C3  UNL     1     -33.398   7.016   4.557  1.00 20.00    -0.031 A 
HETATM    4  C4  UNL     1     -33.579   5.770   3.985  1.00 20.00    -0.010 A 
HETATM    5  C6  UNL     1     -33.985   7.376   5.887  1.00 20.00     0.040 C 
HETATM    6  C7  UNL     1     -34.317   4.633   4.619  1.00 20.00     0.046 C 
HETATM    7  C8  UNL     1     -34.415   6.129   6.675  1.00 20.00     0.005 C 
HETATM    8  C9  UNL     1     -35.179   5.134   5.789  1.00 20.00     0.005 C 
HETATM    9  S11 UNL     1     -32.825   5.628   2.466  1.00 20.00    -0.105 SA
ENDROOT
BRANCH   2  10
HETATM   10  C5  UNL     1     -32.259   9.232   3.994  1.00 20.00     0.271 C 
HETATM   11  O10 UNL     1     -31.890   9.627   5.112  1.00 20.00    -0.301 OA
ENDBRANCH   2  10
TORSDOF 1
ENDMDL
MODEL 3
REMARK VINA RESULT:      -4.4      1.652      2.431
REMARK  1 active torsions:
REMARK  status: ('A' for Active; 'I' for Inactive)
REMARK    1  A    between atoms: C2_2  and  C5_5 
ROOT
HETATM    1  C1  UNL     1     -32.441   6.765   2.203  1.00 20.00     0.065 A 
HETATM    2  C2  UNL     1     -32.731   7.674   3.197  1.00 20.00     0.015 A 
HETATM    3  C3  UNL     1     -33.407   7.069   4.299  1.00 20.00    -0.031 A 
HETATM    4  C4  UNL     1     -33.605   5.718   4.087  1.00 20.00    -0.010 A 
HETATM    5  C6  UNL     1     -33.887   7.761   5.537  1.00 20.00     0.040 C 
HETATM    6  C7  UNL     1     -34.259   4.783   5.055  1.00 20.00     0.046 C 
HETATM    7  C8  UNL     1     -34.218   6.760   6.656  1.00 20.00     0.005 C 
HETATM    8  C9  UNL     1     -35.030   5.569   6.128  1.00 20.00     0.005 C 
HETATM    9  S11 UNL     1     -32.981   5.187   2.596  1.00 20.00    -0.105 SA
ENDROOT
BRANCH   2  10
HETATM   10  C5  UNL     1     -32.375   9.065   3.084  1.00 20.00     0.271 C 
HETATM   11  O10 UNL     1     -32.815   9.818   2.200  1.00 20.00    -0.301 OA
ENDBRANCH   2  10
TORSDOF 1
ENDMDL
MODEL 4
REMARK VINA RESULT:      -4.1     15.173     16.189
REMARK  1 active torsions:
REMARK  status: ('A' for Active; 'I' for Inactive)
REMARK    1  A    between atoms: C2_2  and  C5_5 
ROOT
HETATM    1  C1  UNL     1     -23.023  19.139   7.618  1.00 20.00     0.065 A 
HETATM    2  C2  UNL     1     -24.203  19.084   8.329  1.00 20.00     0.015 A 
HETATM    3  C3  UNL     1     -23.985  18.833   9.716  1.00 20.00    -0.031 A 
HETATM    4  C4  UNL     1     -22.637  18.702   9.998  1.00 20.00    -0.010 A 
HETATM    5  C6  UNL     1     -25.037  18.693  10.773  1.00 20.00     0.040 C 
HETATM    6  C7  UNL     1     -22.063  18.461  11.359  1.00 20.00     0.046 C 
HETATM    7  C8  UNL     1     -24.444  18.809  12.186  1.00 20.00     0.005 C 
HETATM    8  C9  UNL     1     -23.156  17.986  12.329  1.00 20.00     0.005 C 
HETATM    9  S11 UNL     1     -21.656  18.888   8.620  1.00 20.00    -0.105 SA
ENDROOT
BRANCH   2  10
HETATM   10  C5  UNL     1     -25.483  19.263   7.693  1.00 20.00     0.271 C 
HETATM   11  O10 UNL     1     -25.651  19.224   6.463  1.00 20.00    -0.301 OA
ENDBRANCH   2  10
TORSDOF 1
ENDMDL
MODEL 5
REMARK VINA RESULT:      -3.9     12.391     13.635
REMARK  1 active torsions:
REMARK  status: ('A' for Active; 'I' for Inactive)
REMARK    1  A    between atoms: C2_2  and  C5_5 
ROOT
HETATM    1  C1  UNL     1     -35.968  17.127  -6.280  1.00 20.00     0.065 A 
HETATM    2  C2  UNL     1     -35.273  16.163  -5.582  1.00 20.00     0.015 A 
HETATM    3  C3  UNL     1     -34.530  16.716  -4.496  1.00 20.00    -0.031 A 
HETATM    4  C4  UNL     1     -34.691  18.087  -4.422  1.00 20.00    -0.010 A 
HETATM    5  C6  UNL     1     -33.651  15.965  -3.545  1.00 20.00     0.040 C 
HETATM    6  C7  UNL     1     -34.072  18.971  -3.385  1.00 20.00     0.046 C 
HETATM    7  C8  UNL     1     -33.321  16.797  -2.296  1.00 20.00     0.005 C 
HETATM    8  C9  UNL     1     -32.931  18.237  -2.662  1.00 20.00     0.005 C 
HETATM    9  S11 UNL     1     -35.726  18.694  -5.630  1.00 20.00    -0.105 SA
ENDROOT
BRANCH   2  10
HETATM   10  C5  UNL     1     -35.323  14.772  -5.951  1.00 20.00     0.271 C 
HETATM   11  O10 UNL     1     -35.962  14.342  -6.926  1.00 20.00    -0.301 OA
ENDBRANCH   2  10
TORSDOF 1
ENDMDL
MODEL 6
REMARK VINA RESULT:      -3.8     12.079     13.326
REMARK  1 active torsions:
REMARK  status: ('A' for Active; 'I' for Inactive)
REMARK    1  A    between atoms: C2_2  and  C5_5 
ROOT
HETATM    1  C1  UNL     1     -33.613  19.263  -3.802  1.00 20.00     0.065 A 
HETATM    2  C2  UNL     1     -33.269  18.122  -3.109  1.00 20.00     0.015 A 
HETATM    3  C3  UNL     1     -33.686  16.936  -3.784  1.00 20.00    -0.031 A 
HETATM    4  C4  UNL     1     -34.339  17.233  -4.966  1.00 20.00    -0.010 A 
HETATM    5  C6  UNL     1     -33.495  15.528  -3.312  1.00 20.00     0.040 C 
HETATM    6  C7  UNL     1     -34.880  16.221  -5.927  1.00 20.00     0.046 C 
HETATM    7  C8  UNL     1     -33.717  14.513  -4.443  1.00 20.00     0.005 C 
HETATM    8  C9  UNL     1     -34.976  14.840  -5.259  1.00 20.00     0.005 C 
HETATM    9  S11 UNL     1     -34.437  18.906  -5.260  1.00 20.00    -0.105 SA
ENDROOT
BRANCH   2  10
HETATM   10  C5  UNL     1     -32.571  18.177  -1.851  1.00 20.00     0.271 C 
HETATM   11  O10 UNL     1     -31.767  19.075  -1.549  1.00 20.00    -0.301 OA
ENDBRANCH   2  10
TORSDOF 1
ENDMDL
MODEL 7
REMARK VINA RESULT:      -3.7      2.014      3.748
REMARK  1 active torsions:
REMARK  status: ('A' for Active; 'I' for Inactive)
REMARK    1  A    between atoms: C2_2  and  C5_5 
ROOT
HETATM    1  C1  UNL     1     -34.384   6.626   6.453  1.00 20.00     0.065 A 
HETATM    2  C2  UNL     1     -34.182   5.978   5.254  1.00 20.00     0.015 A 
HETATM    3  C3  UNL     1     -33.478   6.791   4.316  1.00 20.00    -0.031 A 
HETATM    4  C4  UNL     1     -33.179   8.031   4.849  1.00 20.00    -0.010 A 
HETATM    5  C6  UNL     1     -33.106   6.415   2.915  1.00 20.00     0.040 C 
HETATM    6  C7  UNL     1     -32.424   9.112   4.140  1.00 20.00     0.046 C 
HETATM    7  C8  UNL     1     -32.041   7.360   2.335  1.00 20.00     0.005 C 
HETATM    8  C9  UNL     1     -32.368   8.831   2.630  1.00 20.00     0.005 C 
HETATM    9  S11 UNL     1     -33.727   8.208   6.450  1.00 20.00    -0.105 SA
ENDROOT
BRANCH   2  10
HETATM   10  C5  UNL     1     -34.653   4.637   5.024  1.00 20.00     0.271 C 
HETATM   11  O10 UNL     1     -33.968   3.750   4.489  1.00 20.00    -0.301 OA
ENDBRANCH   2  10
TORSDOF 1
ENDMDL
MODEL 8
REMARK VINA RESULT:      -3.7      2.100      3.279
REMARK  1 active torsions:
REMARK  status: ('A' for Active; 'I' for Inactive)
REMARK    1  A    between atoms: C2_2  and  C5_5 
ROOT
HETATM    1  C1  UNL     1     -34.161   4.521   4.225  1.00 20.00     0.065 A 
HETATM    2  C2  UNL     1     -33.427   5.445   3.512  1.00 20.00     0.015 A 
HETATM    3  C3  UNL     1     -33.293   6.682   4.211  1.00 20.00    -0.031 A 
HETATM    4  C4  UNL     1     -33.941   6.642   5.432  1.00 20.00    -0.010 A 
HETATM    5  C6  UNL     1     -32.580   7.906   3.727  1.00 20.00     0.040 C 
HETATM    6  C7  UNL     1     -33.974   7.762   6.424  1.00 20.00     0.046 C 
HETATM    7  C8  UNL     1     -32.309   8.897   4.869  1.00 20.00     0.005 C 
HETATM    8  C9  UNL     1     -33.545   9.082   5.763  1.00 20.00     0.005 C 
HETATM    9  S11 UNL     1     -34.687   5.143   5.733  1.00 20.00    -0.105 SA
ENDROOT
BRANCH   2  10
HETATM   10  C5  UNL     1     -32.884   5.145   2.212  1.00 20.00     0.271 C 
HETATM   11  O10 UNL     1     -32.804   3.995   1.749  1.00 20.00    -0.301 OA
ENDBRANCH   2  10
TORSDOF 1
ENDMDL
MODEL 9
REMARK VINA RESULT:      -3.7     12.187     13.355
REMARK  1 active torsions:
REMARK  status: ('A' for Active; 'I' for Inactive)
REMARK    1  A    between atoms: C2_2  and  C5_5 
ROOT
HETATM    1  C1  UNL     1     -34.409  15.024  -5.835  1.00 20.00     0.065 A 
HETATM    2  C2  UNL     1     -35.126  16.190  -5.678  1.00 20.00     0.015 A 
HETATM    3  C3  UNL     1     -34.774  16.883  -4.482  1.00 20.00    -0.031 A 
HETATM    4  C4  UNL     1     -33.800  16.202  -3.775  1.00 20.00    -0.010 A 
HETATM    5  C6  UNL     1     -35.364  18.167  -3.989  1.00 20.00     0.040 C 
HETATM    6  C7  UNL     1     -33.187  16.666  -2.491  1.00 20.00     0.046 C 
HETATM    7  C8  UNL     1     -34.499  18.809  -2.893  1.00 20.00     0.005 C 
HETATM    8  C9  UNL     1     -34.041  17.774  -1.855  1.00 20.00     0.005 C 
HETATM    9  S11 UNL     1     -33.314  14.764  -4.543  1.00 20.00    -0.105 SA
ENDROOT
BRANCH   2  10
HETATM   10  C5  UNL     1     -36.111  16.612  -6.641  1.00 20.00     0.271 C 
HETATM   11  O10 UNL     1     -37.038  15.888  -7.039  1.00 20.00    -0.301 OA
ENDBRANCH   2  10
TORSDOF 1
ENDMDL
