MODEL 1
REMARK VINA RESULT:      -4.3      0.000      0.000
REMARK  3 active torsions:
REMARK  status: ('A' for Active; 'I' for Inactive)
REMARK    1  A    between atoms: C1_1  and  C3_3 
REMARK       I    between atoms: C1_1  and  N10_10 
REMARK    2  A    between atoms: C8_8  and  C9_9 
REMARK    3  A    between atoms: C8_8  and  N10_10 
ROOT
HETATM    1  C1  UNL     1     -33.686   7.838   5.666  1.00 20.00     0.222 C 
HETATM    2  N10 UNL     1     -32.795   7.333   4.767  1.00 20.00    -0.360 N 
HETATM    3  O11 UNL     1     -34.058   8.999   5.780  1.00 20.00    -0.273 OA
HETATM    4  H28 UNL     1     -32.584   6.355   4.789  1.00 20.00     0.162 HD
ENDROOT
BRANCH   1   5
HETATM    5  C3  UNL     1     -34.233   6.796   6.586  1.00 20.00     0.082 A 
HETATM    6  C2  UNL     1     -33.687   5.407   6.497  1.00 20.00     0.019 A 
HETATM    7  C4  UNL     1     -35.091   5.693   6.046  1.00 20.00    -0.005 A 
HETATM    8  C5  UNL     1     -35.450   5.576   4.604  1.00 20.00     0.011 C 
ENDBRANCH   1   5
BRANCH   2   9
HETATM    9  C8  UNL     1     -32.131   8.189   3.757  1.00 20.00     0.126 C 
BRANCH   9  10
HETATM   10  C9  UNL     1     -31.932   7.451   2.429  1.00 20.00    -0.005 C 
HETATM   11  C6  UNL     1     -32.638   6.095   2.406  1.00 20.00     0.011 C 
HETATM   12  C7  UNL     1     -32.359   8.300   1.230  1.00 20.00     0.011 C 
ENDBRANCH   9  10
ENDBRANCH   2   9
TORSDOF 3
ENDMDL
MODEL 2
REMARK VINA RESULT:      -4.1      1.243      1.370
REMARK  3 active torsions:
REMARK  status: ('A' for Active; 'I' for Inactive)
REMARK    1  A    between atoms: C1_1  and  C3_3 
REMARK       I    between atoms: C1_1  and  N10_10 
REMARK    2  A    between atoms: C8_8  and  C9_9 
REMARK    3  A    between atoms: C8_8  and  N10_10 
ROOT
HETATM    1  C1  UNL     1     -33.724   7.256   5.559  1.00 20.00     0.222 C 
HETATM    2  N10 UNL     1     -33.753   7.948   4.386  1.00 20.00    -0.360 N 
HETATM    3  O11 UNL     1     -32.887   7.329   6.451  1.00 20.00    -0.273 OA
HETATM    4  H28 UNL     1     -34.504   7.786   3.744  1.00 20.00     0.162 HD
ENDROOT
BRANCH   1   5
HETATM    5  C3  UNL     1     -34.879   6.322   5.708  1.00 20.00     0.082 A 
HETATM    6  C2  UNL     1     -34.663   5.029   6.429  1.00 20.00     0.019 A 
HETATM    7  C4  UNL     1     -34.906   5.032   4.946  1.00 20.00    -0.005 A 
HETATM    8  C5  UNL     1     -33.820   4.619   4.012  1.00 20.00     0.011 C 
ENDBRANCH   1   5
BRANCH   2   9
HETATM    9  C8  UNL     1     -32.705   8.932   4.031  1.00 20.00     0.126 C 
BRANCH   9  10
HETATM   10  C9  UNL     1     -32.168   8.706   2.614  1.00 20.00    -0.005 C 
HETATM   11  C6  UNL     1     -32.163   7.227   2.224  1.00 20.00     0.011 C 
HETATM   12  C7  UNL     1     -32.927   9.533   1.573  1.00 20.00     0.011 C 
ENDBRANCH   9  10
ENDBRANCH   2   9
TORSDOF 3
ENDMDL
MODEL 3
REMARK VINA RESULT:      -4.1     12.110     13.363
REMARK  3 active torsions:
REMARK  status: ('A' for Active; 'I' for Inactive)
REMARK    1  A    between atoms: C1_1  and  C3_3 
REMARK       I    between atoms: C1_1  and  N10_10 
REMARK    2  A    between atoms: C8_8  and  C9_9 
REMARK    3  A    between atoms: C8_8  and  N10_10 
ROOT
HETATM    1  C1  UNL     1     -33.946  15.008  -4.747  1.00 20.00     0.222 C 
HETATM    2  N10 UNL     1     -33.494  16.205  -4.278  1.00 20.00    -0.360 N 
HETATM    3  O11 UNL     1     -34.103  13.969  -4.119  1.00 20.00    -0.273 OA
HETATM    4  H28 UNL     1     -33.416  16.977  -4.911  1.00 20.00     0.162 HD
ENDROOT
BRANCH   1   5
HETATM    5  C3  UNL     1     -34.271  15.043  -6.205  1.00 20.00     0.082 A 
HETATM    6  C2  UNL     1     -34.496  16.372  -6.855  1.00 20.00     0.019 A 
HETATM    7  C4  UNL     1     -35.646  15.425  -6.659  1.00 20.00    -0.005 A 
HETATM    8  C5  UNL     1     -36.746  15.772  -5.715  1.00 20.00     0.011 C 
ENDBRANCH   1   5
BRANCH   2   9
HETATM    9  C8  UNL     1     -33.116  16.397  -2.860  1.00 20.00     0.126 C 
BRANCH   9  10
HETATM   10  C9  UNL     1     -33.579  17.758  -2.327  1.00 20.00    -0.005 C 
HETATM   11  C6  UNL     1     -34.843  18.257  -3.030  1.00 20.00     0.011 C 
HETATM   12  C7  UNL     1     -33.777  17.744  -0.810  1.00 20.00     0.011 C 
ENDBRANCH   9  10
ENDBRANCH   2   9
TORSDOF 3
ENDMDL
MODEL 4
REMARK VINA RESULT:      -4.1     11.926     12.663
REMARK  3 active torsions:
REMARK  status: ('A' for Active; 'I' for Inactive)
REMARK    1  A    between atoms: C1_1  and  C3_3 
REMARK       I    between atoms: C1_1  and  N10_10 
REMARK    2  A    between atoms: C8_8  and  C9_9 
REMARK    3  A    between atoms: C8_8  and  N10_10 
ROOT
HETATM    1  C1  UNL     1     -33.436  17.349  -2.510  1.00 20.00     0.222 C 
HETATM    2  N10 UNL     1     -33.632  16.018  -2.721  1.00 20.00    -0.360 N 
HETATM    3  O11 UNL     1     -32.960  18.168  -3.287  1.00 20.00    -0.273 OA
HETATM    4  H28 UNL     1     -34.035  15.464  -1.990  1.00 20.00     0.162 HD
ENDROOT
BRANCH   1   5
HETATM    5  C3  UNL     1     -33.880  17.792  -1.154  1.00 20.00     0.082 A 
HETATM    6  C2  UNL     1     -33.848  19.253  -0.834  1.00 20.00     0.019 A 
HETATM    7  C4  UNL     1     -32.879  18.316  -0.171  1.00 20.00    -0.005 A 
HETATM    8  C5  UNL     1     -31.422  18.416  -0.470  1.00 20.00     0.011 C 
ENDBRANCH   1   5
BRANCH   2   9
HETATM    9  C8  UNL     1     -33.267  15.365  -3.999  1.00 20.00     0.126 C 
BRANCH   9  10
HETATM   10  C9  UNL     1     -34.479  15.207  -4.924  1.00 20.00    -0.005 C 
HETATM   11  C6  UNL     1     -34.083  15.190  -6.401  1.00 20.00     0.011 C 
HETATM   12  C7  UNL     1     -35.310  13.971  -4.575  1.00 20.00     0.011 C 
ENDBRANCH   9  10
ENDBRANCH   2   9
TORSDOF 3
ENDMDL
MODEL 5
REMARK VINA RESULT:      -4.0     12.021     13.428
REMARK  3 active torsions:
REMARK  status: ('A' for Active; 'I' for Inactive)
REMARK    1  A    between atoms: C1_1  and  C3_3 
REMARK       I    between atoms: C1_1  and  N10_10 
REMARK    2  A    between atoms: C8_8  and  C9_9 
REMARK    3  A    between atoms: C8_8  and  N10_10 
ROOT
HETATM    1  C1  UNL     1     -34.403  17.476  -4.453  1.00 20.00     0.222 C 
HETATM    2  N10 UNL     1     -33.149  17.805  -4.034  1.00 20.00    -0.360 N 
HETATM    3  O11 UNL     1     -35.471  17.833  -3.973  1.00 20.00    -0.273 OA
HETATM    4  H28 UNL     1     -32.359  17.437  -4.526  1.00 20.00     0.162 HD
ENDROOT
BRANCH   1   5
HETATM    5  C3  UNL     1     -34.396  16.573  -5.643  1.00 20.00     0.082 A 
HETATM    6  C2  UNL     1     -35.558  15.653  -5.849  1.00 20.00     0.019 A 
HETATM    7  C4  UNL     1     -34.217  15.096  -5.465  1.00 20.00    -0.005 A 
HETATM    8  C5  UNL     1     -34.028  14.456  -4.132  1.00 20.00     0.011 C 
ENDBRANCH   1   5
BRANCH   2   9
HETATM    9  C8  UNL     1     -32.920  18.693  -2.871  1.00 20.00     0.126 C 
BRANCH   9  10
HETATM   10  C9  UNL     1     -32.601  17.896  -1.601  1.00 20.00    -0.005 C 
HETATM   11  C6  UNL     1     -31.546  18.584  -0.733  1.00 20.00     0.011 C 
HETATM   12  C7  UNL     1     -33.857  17.592  -0.782  1.00 20.00     0.011 C 
ENDBRANCH   9  10
ENDBRANCH   2   9
TORSDOF 3
ENDMDL
MODEL 6
REMARK VINA RESULT:      -3.9      9.401     10.330
REMARK  3 active torsions:
REMARK  status: ('A' for Active; 'I' for Inactive)
REMARK    1  A    between atoms: C1_1  and  C3_3 
REMARK       I    between atoms: C1_1  and  N10_10 
REMARK    2  A    between atoms: C8_8  and  C9_9 
REMARK    3  A    between atoms: C8_8  and  N10_10 
ROOT
HETATM    1  C1  UNL     1     -40.817  13.808   7.687  1.00 20.00     0.222 C 
HETATM    2  N10 UNL     1     -40.055  13.711   6.562  1.00 20.00    -0.360 N 
HETATM    3  O11 UNL     1     -41.863  13.222   7.935  1.00 20.00    -0.273 OA
HETATM    4  H28 UNL     1     -39.216  14.254   6.494  1.00 20.00     0.162 HD
ENDROOT
BRANCH   1   5
HETATM    5  C3  UNL     1     -40.247  14.755   8.692  1.00 20.00     0.082 A 
HETATM    6  C2  UNL     1     -41.175  15.394   9.676  1.00 20.00     0.019 A 
HETATM    7  C4  UNL     1     -40.541  16.221   8.593  1.00 20.00    -0.005 A 
HETATM    8  C5  UNL     1     -41.384  16.809   7.514  1.00 20.00     0.011 C 
ENDBRANCH   1   5
BRANCH   2   9
HETATM    9  C8  UNL     1     -40.431  12.827   5.435  1.00 20.00     0.126 C 
BRANCH   9  10
HETATM   10  C9  UNL     1     -39.333  11.803   5.125  1.00 20.00    -0.005 C 
HETATM   11  C6  UNL     1     -39.059  11.683   3.625  1.00 20.00     0.011 C 
HETATM   12  C7  UNL     1     -38.039  12.100   5.886  1.00 20.00     0.011 C 
ENDBRANCH   9  10
ENDBRANCH   2   9
TORSDOF 3
ENDMDL
MODEL 7
REMARK VINA RESULT:      -3.9      9.806     11.246
REMARK  3 active torsions:
REMARK  status: ('A' for Active; 'I' for Inactive)
REMARK    1  A    between atoms: C1_1  and  C3_3 
REMARK       I    between atoms: C1_1  and  N10_10 
REMARK    2  A    between atoms: C8_8  and  C9_9 
REMARK    3  A    between atoms: C8_8  and  N10_10 
ROOT
HETATM    1  C1  UNL     1     -42.154   5.321  -0.337  1.00 20.00     0.222 C 
HETATM    2  N10 UNL     1     -42.348   4.668  -1.517  1.00 20.00    -0.360 N 
HETATM    3  O11 UNL     1     -42.786   5.191   0.704  1.00 20.00    -0.273 OA
HETATM    4  H28 UNL     1     -41.751   4.877  -2.292  1.00 20.00     0.162 HD
ENDROOT
BRANCH   1   5
HETATM    5  C3  UNL     1     -41.020   6.293  -0.393  1.00 20.00     0.082 A 
HETATM    6  C2  UNL     1     -40.726   7.117   0.820  1.00 20.00     0.019 A 
HETATM    7  C4  UNL     1     -41.293   7.765  -0.411  1.00 20.00    -0.005 A 
HETATM    8  C5  UNL     1     -42.670   8.336  -0.386  1.00 20.00     0.011 C 
ENDBRANCH   1   5
BRANCH   2   9
HETATM    9  C8  UNL     1     -43.417   3.658  -1.685  1.00 20.00     0.126 C 
BRANCH   9  10
HETATM   10  C9  UNL     1     -43.249   2.863  -2.985  1.00 20.00    -0.005 C 
HETATM   11  C6  UNL     1     -41.920   3.163  -3.681  1.00 20.00     0.011 C 
HETATM   12  C7  UNL     1     -43.412   1.358  -2.763  1.00 20.00     0.011 C 
ENDBRANCH   9  10
ENDBRANCH   2   9
TORSDOF 3
ENDMDL
MODEL 8
REMARK VINA RESULT:      -3.8     12.233     13.414
REMARK  3 active torsions:
REMARK  status: ('A' for Active; 'I' for Inactive)
REMARK    1  A    between atoms: C1_1  and  C3_3 
REMARK       I    between atoms: C1_1  and  N10_10 
REMARK    2  A    between atoms: C8_8  and  C9_9 
REMARK    3  A    between atoms: C8_8  and  N10_10 
ROOT
HETATM    1  C1  UNL     1     -33.441  15.796  -3.671  1.00 20.00     0.222 C 
HETATM    2  N10 UNL     1     -34.738  15.761  -4.085  1.00 20.00    -0.360 N 
HETATM    3  O11 UNL     1     -32.497  15.150  -4.110  1.00 20.00    -0.273 OA
HETATM    4  H28 UNL     1     -35.409  16.350  -3.631  1.00 20.00     0.162 HD
ENDROOT
BRANCH   1   5
HETATM    5  C3  UNL     1     -33.216  16.760  -2.552  1.00 20.00     0.082 A 
HETATM    6  C2  UNL     1     -34.311  17.717  -2.203  1.00 20.00     0.019 A 
HETATM    7  C4  UNL     1     -33.046  18.220  -2.840  1.00 20.00    -0.005 A 
HETATM    8  C5  UNL     1     -33.080  18.784  -4.219  1.00 20.00     0.011 C 
ENDBRANCH   1   5
BRANCH   2   9
HETATM    9  C8  UNL     1     -35.186  14.877  -5.185  1.00 20.00     0.126 C 
BRANCH   9  10
HETATM   10  C9  UNL     1     -35.327  15.641  -6.506  1.00 20.00    -0.005 C 
HETATM   11  C6  UNL     1     -35.732  17.101  -6.293  1.00 20.00     0.011 C 
HETATM   12  C7  UNL     1     -34.058  15.554  -7.358  1.00 20.00     0.011 C 
ENDBRANCH   9  10
ENDBRANCH   2   9
TORSDOF 3
ENDMDL
MODEL 9
REMARK VINA RESULT:      -3.7     12.515     13.921
REMARK  3 active torsions:
REMARK  status: ('A' for Active; 'I' for Inactive)
REMARK    1  A    between atoms: C1_1  and  C3_3 
REMARK       I    between atoms: C1_1  and  N10_10 
REMARK    2  A    between atoms: C8_8  and  C9_9 
REMARK    3  A    between atoms: C8_8  and  N10_10 
ROOT
HETATM    1  C1  UNL     1     -35.533  17.458  -5.505  1.00 20.00     0.222 C 
HETATM    2  N10 UNL     1     -35.451  17.206  -4.168  1.00 20.00    -0.360 N 
HETATM    3  O11 UNL     1     -35.094  18.427  -6.112  1.00 20.00    -0.273 OA
HETATM    4  H28 UNL     1     -35.859  16.366  -3.806  1.00 20.00     0.162 HD
ENDROOT
BRANCH   1   5
HETATM    5  C3  UNL     1     -36.252  16.384  -6.253  1.00 20.00     0.082 A 
HETATM    6  C2  UNL     1     -36.329  15.019  -5.646  1.00 20.00     0.019 A 
HETATM    7  C4  UNL     1     -35.485  15.254  -6.867  1.00 20.00    -0.005 A 
HETATM    8  C5  UNL     1     -34.002  15.138  -6.781  1.00 20.00     0.011 C 
ENDBRANCH   1   5
BRANCH   2   9
HETATM    9  C8  UNL     1     -34.777  18.138  -3.235  1.00 20.00     0.126 C 
BRANCH   9  10
HETATM   10  C9  UNL     1     -33.557  17.492  -2.569  1.00 20.00    -0.005 C 
HETATM   11  C6  UNL     1     -33.667  17.480  -1.043  1.00 20.00     0.011 C 
HETATM   12  C7  UNL     1     -33.293  16.081  -3.100  1.00 20.00     0.011 C 
ENDBRANCH   9  10
ENDBRANCH   2   9
TORSDOF 3
ENDMDL
