MODEL 1
REMARK VINA RESULT:      -4.1      0.000      0.000
REMARK  3 active torsions:
REMARK  status: ('A' for Active; 'I' for Inactive)
REMARK    1  A    between atoms: C1_1  and  C3_3 
REMARK       I    between atoms: C1_1  and  N10_10 
REMARK    2  A    between atoms: C8_8  and  C9_9 
REMARK    3  A    between atoms: C8_8  and  N10_10 
ROOT
HETATM    1  C1  UNL     1     -32.426   8.545   4.385  1.00 20.00     0.222 C 
HETATM    2  N10 UNL     1     -33.296   7.523   4.622  1.00 20.00    -0.360 N 
HETATM    3  O11 UNL     1     -32.041   9.400   5.173  1.00 20.00    -0.273 OA
HETATM    4  H28 UNL     1     -33.520   6.894   3.878  1.00 20.00     0.162 HD
ENDROOT
BRANCH   1   5
HETATM    5  C3  UNL     1     -31.922   8.559   2.980  1.00 20.00     0.082 A 
HETATM    6  C2  UNL     1     -32.158   7.354   2.125  1.00 20.00     0.019 A 
HETATM    7  C4  UNL     1     -32.921   8.623   1.868  1.00 20.00    -0.005 A 
HETATM    8  C5  UNL     1     -32.623   9.443   0.660  1.00 20.00     0.011 C 
ENDBRANCH   1   5
BRANCH   2   9
HETATM    9  C8  UNL     1     -33.917   7.316   5.950  1.00 20.00     0.126 C 
BRANCH   9  10
HETATM   10  C9  UNL     1     -34.820   6.077   5.970  1.00 20.00    -0.005 C 
HETATM   11  C6  UNL     1     -35.394   5.754   4.590  1.00 20.00     0.011 C 
HETATM   12  C7  UNL     1     -34.108   4.857   6.556  1.00 20.00     0.011 C 
ENDBRANCH   9  10
ENDBRANCH   2   9
TORSDOF 3
ENDMDL
MODEL 2
REMARK VINA RESULT:      -4.0     11.507     12.581
REMARK  3 active torsions:
REMARK  status: ('A' for Active; 'I' for Inactive)
REMARK    1  A    between atoms: C1_1  and  C3_3 
REMARK       I    between atoms: C1_1  and  N10_10 
REMARK    2  A    between atoms: C8_8  and  C9_9 
REMARK    3  A    between atoms: C8_8  and  N10_10 
ROOT
HETATM    1  C1  UNL     1     -33.652  18.204  -3.567  1.00 20.00     0.222 C 
HETATM    2  N10 UNL     1     -34.457  17.123  -3.770  1.00 20.00    -0.360 N 
HETATM    3  O11 UNL     1     -33.117  18.910  -4.415  1.00 20.00    -0.273 OA
HETATM    4  H28 UNL     1     -34.827  16.639  -2.977  1.00 20.00     0.162 HD
ENDROOT
BRANCH   1   5
HETATM    5  C3  UNL     1     -33.444  18.507  -2.121  1.00 20.00     0.082 A 
HETATM    6  C2  UNL     1     -33.722  17.430  -1.120  1.00 20.00     0.019 A 
HETATM    7  C4  UNL     1     -32.307  17.840  -1.412  1.00 20.00    -0.005 A 
HETATM    8  C5  UNL     1     -31.525  18.604  -0.400  1.00 20.00     0.011 C 
ENDBRANCH   1   5
BRANCH   2   9
HETATM    9  C8  UNL     1     -34.800  16.646  -5.128  1.00 20.00     0.126 C 
BRANCH   9  10
HETATM   10  C9  UNL     1     -34.601  15.132  -5.267  1.00 20.00    -0.005 C 
HETATM   11  C6  UNL     1     -33.743  14.552  -4.142  1.00 20.00     0.011 C 
HETATM   12  C7  UNL     1     -35.932  14.385  -5.369  1.00 20.00     0.011 C 
ENDBRANCH   9  10
ENDBRANCH   2   9
TORSDOF 3
ENDMDL
MODEL 3
REMARK VINA RESULT:      -3.9      9.735     10.721
REMARK  3 active torsions:
REMARK  status: ('A' for Active; 'I' for Inactive)
REMARK    1  A    between atoms: C1_1  and  C3_3 
REMARK       I    between atoms: C1_1  and  N10_10 
REMARK    2  A    between atoms: C8_8  and  C9_9 
REMARK    3  A    between atoms: C8_8  and  N10_10 
ROOT
HETATM    1  C1  UNL     1     -41.618  13.561   7.340  1.00 20.00     0.222 C 
HETATM    2  N10 UNL     1     -40.832  13.816   6.257  1.00 20.00    -0.360 N 
HETATM    3  O11 UNL     1     -42.381  12.616   7.506  1.00 20.00    -0.273 OA
HETATM    4  H28 UNL     1     -40.253  14.632   6.259  1.00 20.00     0.162 HD
ENDROOT
BRANCH   1   5
HETATM    5  C3  UNL     1     -41.482  14.593   8.410  1.00 20.00     0.082 A 
HETATM    6  C2  UNL     1     -40.200  14.657   9.178  1.00 20.00     0.019 A 
HETATM    7  C4  UNL     1     -40.537  15.730   8.183  1.00 20.00    -0.005 A 
HETATM    8  C5  UNL     1     -40.908  17.096   8.650  1.00 20.00     0.011 C 
ENDBRANCH   1   5
BRANCH   2   9
HETATM    9  C8  UNL     1     -40.807  12.921   5.079  1.00 20.00     0.126 C 
BRANCH   9  10
HETATM   10  C9  UNL     1     -39.725  11.842   5.206  1.00 20.00    -0.005 C 
HETATM   11  C6  UNL     1     -38.956  11.632   3.901  1.00 20.00     0.011 C 
HETATM   12  C7  UNL     1     -38.762  12.128   6.359  1.00 20.00     0.011 C 
ENDBRANCH   9  10
ENDBRANCH   2   9
TORSDOF 3
ENDMDL
MODEL 4
REMARK VINA RESULT:      -3.9     11.338     12.062
REMARK  3 active torsions:
REMARK  status: ('A' for Active; 'I' for Inactive)
REMARK    1  A    between atoms: C1_1  and  C3_3 
REMARK       I    between atoms: C1_1  and  N10_10 
REMARK    2  A    between atoms: C8_8  and  C9_9 
REMARK    3  A    between atoms: C8_8  and  N10_10 
ROOT
HETATM    1  C1  UNL     1     -34.389  18.299  -1.556  1.00 20.00     0.222 C 
HETATM    2  N10 UNL     1     -33.510  17.797  -0.644  1.00 20.00    -0.360 N 
HETATM    3  O11 UNL     1     -35.158  19.243  -1.416  1.00 20.00    -0.273 OA
HETATM    4  H28 UNL     1     -32.940  17.016  -0.899  1.00 20.00     0.162 HD
ENDROOT
BRANCH   1   5
HETATM    5  C3  UNL     1     -34.356  17.566  -2.856  1.00 20.00     0.082 A 
HETATM    6  C2  UNL     1     -33.197  17.796  -3.774  1.00 20.00     0.019 A 
HETATM    7  C4  UNL     1     -33.330  16.492  -3.039  1.00 20.00    -0.005 A 
HETATM    8  C5  UNL     1     -33.692  15.250  -3.777  1.00 20.00     0.011 C 
ENDBRANCH   1   5
BRANCH   2   9
HETATM    9  C8  UNL     1     -33.374  18.374   0.712  1.00 20.00     0.126 C 
BRANCH   9  10
HETATM   10  C9  UNL     1     -31.970  18.942   0.951  1.00 20.00    -0.005 C 
HETATM   11  C6  UNL     1     -31.405  18.541   2.314  1.00 20.00     0.011 C 
HETATM   12  C7  UNL     1     -30.999  18.562  -0.167  1.00 20.00     0.011 C 
ENDBRANCH   9  10
ENDBRANCH   2   9
TORSDOF 3
ENDMDL
MODEL 5
REMARK VINA RESULT:      -3.9      9.627     10.787
REMARK  3 active torsions:
REMARK  status: ('A' for Active; 'I' for Inactive)
REMARK    1  A    between atoms: C1_1  and  C3_3 
REMARK       I    between atoms: C1_1  and  N10_10 
REMARK    2  A    between atoms: C8_8  and  C9_9 
REMARK    3  A    between atoms: C8_8  and  N10_10 
ROOT
HETATM    1  C1  UNL     1     -40.776  13.856   7.702  1.00 20.00     0.222 C 
HETATM    2  N10 UNL     1     -40.068  13.777   6.540  1.00 20.00    -0.360 N 
HETATM    3  O11 UNL     1     -41.787  13.235   8.007  1.00 20.00    -0.273 OA
HETATM    4  H28 UNL     1     -39.255  14.348   6.427  1.00 20.00     0.162 HD
ENDROOT
BRANCH   1   5
HETATM    5  C3  UNL     1     -40.191  14.831   8.670  1.00 20.00     0.082 A 
HETATM    6  C2  UNL     1     -40.647  16.254   8.610  1.00 20.00     0.019 A 
HETATM    7  C4  UNL     1     -41.072  15.373   9.751  1.00 20.00    -0.005 A 
HETATM    8  C5  UNL     1     -40.511  15.591  11.114  1.00 20.00     0.011 C 
ENDBRANCH   1   5
BRANCH   2   9
HETATM    9  C8  UNL     1     -40.468  12.871   5.440  1.00 20.00     0.126 C 
BRANCH   9  10
HETATM   10  C9  UNL     1     -39.381  11.835   5.132  1.00 20.00    -0.005 C 
HETATM   11  C6  UNL     1     -39.084  11.730   3.636  1.00 20.00     0.011 C 
HETATM   12  C7  UNL     1     -38.097  12.099   5.919  1.00 20.00     0.011 C 
ENDBRANCH   9  10
ENDBRANCH   2   9
TORSDOF 3
ENDMDL
MODEL 6
REMARK VINA RESULT:      -3.9     11.525     12.808
REMARK  3 active torsions:
REMARK  status: ('A' for Active; 'I' for Inactive)
REMARK    1  A    between atoms: C1_1  and  C3_3 
REMARK       I    between atoms: C1_1  and  N10_10 
REMARK    2  A    between atoms: C8_8  and  C9_9 
REMARK    3  A    between atoms: C8_8  and  N10_10 
ROOT
HETATM    1  C1  UNL     1     -33.367  15.654  -3.890  1.00 20.00     0.222 C 
HETATM    2  N10 UNL     1     -34.652  15.839  -4.305  1.00 20.00    -0.360 N 
HETATM    3  O11 UNL     1     -32.584  14.779  -4.241  1.00 20.00    -0.273 OA
HETATM    4  H28 UNL     1     -35.178  16.603  -3.930  1.00 20.00     0.162 HD
ENDROOT
BRANCH   1   5
HETATM    5  C3  UNL     1     -32.929  16.675  -2.892  1.00 20.00     0.082 A 
HETATM    6  C2  UNL     1     -33.144  18.120  -3.211  1.00 20.00     0.019 A 
HETATM    7  C4  UNL     1     -33.980  17.448  -2.160  1.00 20.00    -0.005 A 
HETATM    8  C5  UNL     1     -33.780  17.776  -0.720  1.00 20.00     0.011 C 
ENDBRANCH   1   5
BRANCH   2   9
HETATM    9  C8  UNL     1     -35.291  14.944  -5.295  1.00 20.00     0.126 C 
BRANCH   9  10
HETATM   10  C9  UNL     1     -35.439  15.621  -6.663  1.00 20.00    -0.005 C 
HETATM   11  C6  UNL     1     -35.970  17.050  -6.550  1.00 20.00     0.011 C 
HETATM   12  C7  UNL     1     -34.135  15.593  -7.462  1.00 20.00     0.011 C 
ENDBRANCH   9  10
ENDBRANCH   2   9
TORSDOF 3
ENDMDL
MODEL 7
REMARK VINA RESULT:      -3.9     11.419     12.744
REMARK  3 active torsions:
REMARK  status: ('A' for Active; 'I' for Inactive)
REMARK    1  A    between atoms: C1_1  and  C3_3 
REMARK       I    between atoms: C1_1  and  N10_10 
REMARK    2  A    between atoms: C8_8  and  C9_9 
REMARK    3  A    between atoms: C8_8  and  N10_10 
ROOT
HETATM    1  C1  UNL     1     -33.963  15.071  -4.631  1.00 20.00     0.222 C 
HETATM    2  N10 UNL     1     -33.548  16.240  -4.066  1.00 20.00    -0.360 N 
HETATM    3  O11 UNL     1     -34.174  14.002  -4.072  1.00 20.00    -0.273 OA
HETATM    4  H28 UNL     1     -33.415  17.041  -4.649  1.00 20.00     0.162 HD
ENDROOT
BRANCH   1   5
HETATM    5  C3  UNL     1     -34.164  15.182  -6.106  1.00 20.00     0.082 A 
HETATM    6  C2  UNL     1     -35.555  15.073  -6.646  1.00 20.00     0.019 A 
HETATM    7  C4  UNL     1     -34.851  16.400  -6.639  1.00 20.00    -0.005 A 
HETATM    8  C5  UNL     1     -34.383  17.005  -7.918  1.00 20.00     0.011 C 
ENDBRANCH   1   5
BRANCH   2   9
HETATM    9  C8  UNL     1     -33.289  16.358  -2.613  1.00 20.00     0.126 C 
BRANCH   9  10
HETATM   10  C9  UNL     1     -33.397  17.810  -2.132  1.00 20.00    -0.005 C 
HETATM   11  C6  UNL     1     -32.363  18.145  -1.057  1.00 20.00     0.011 C 
HETATM   12  C7  UNL     1     -33.314  18.806  -3.289  1.00 20.00     0.011 C 
ENDBRANCH   9  10
ENDBRANCH   2   9
TORSDOF 3
ENDMDL
MODEL 8
REMARK VINA RESULT:      -3.8      9.669     10.389
REMARK  3 active torsions:
REMARK  status: ('A' for Active; 'I' for Inactive)
REMARK    1  A    between atoms: C1_1  and  C3_3 
REMARK       I    between atoms: C1_1  and  N10_10 
REMARK    2  A    between atoms: C8_8  and  C9_9 
REMARK    3  A    between atoms: C8_8  and  N10_10 
ROOT
HETATM    1  C1  UNL     1     -41.072  13.073   6.750  1.00 20.00     0.222 C 
HETATM    2  N10 UNL     1     -41.116  14.264   7.412  1.00 20.00    -0.360 N 
HETATM    3  O11 UNL     1     -41.883  12.156   6.802  1.00 20.00    -0.273 OA
HETATM    4  H28 UNL     1     -40.378  14.924   7.272  1.00 20.00     0.162 HD
ENDROOT
BRANCH   1   5
HETATM    5  C3  UNL     1     -39.868  12.941   5.877  1.00 20.00     0.082 A 
HETATM    6  C2  UNL     1     -38.747  12.065   6.338  1.00 20.00     0.019 A 
HETATM    7  C4  UNL     1     -39.624  11.630   5.198  1.00 20.00    -0.005 A 
HETATM    8  C5  UNL     1     -39.090  11.613   3.808  1.00 20.00     0.011 C 
ENDBRANCH   1   5
BRANCH   2   9
HETATM    9  C8  UNL     1     -42.224  14.608   8.330  1.00 20.00     0.126 C 
BRANCH   9  10
HETATM   10  C9  UNL     1     -41.718  14.908   9.746  1.00 20.00    -0.005 C 
HETATM   11  C6  UNL     1     -42.065  13.795  10.736  1.00 20.00     0.011 C 
HETATM   12  C7  UNL     1     -40.218  15.201   9.769  1.00 20.00     0.011 C 
ENDBRANCH   9  10
ENDBRANCH   2   9
TORSDOF 3
ENDMDL
MODEL 9
REMARK VINA RESULT:      -3.8     10.401     11.234
REMARK  3 active torsions:
REMARK  status: ('A' for Active; 'I' for Inactive)
REMARK    1  A    between atoms: C1_1  and  C3_3 
REMARK       I    between atoms: C1_1  and  N10_10 
REMARK    2  A    between atoms: C8_8  and  C9_9 
REMARK    3  A    between atoms: C8_8  and  N10_10 
ROOT
HETATM    1  C1  UNL     1     -41.288  13.471   7.664  1.00 20.00     0.222 C 
HETATM    2  N10 UNL     1     -40.307  14.408   7.789  1.00 20.00    -0.360 N 
HETATM    3  O11 UNL     1     -42.166  13.192   8.473  1.00 20.00    -0.273 OA
HETATM    4  H28 UNL     1     -39.653  14.528   7.042  1.00 20.00     0.162 HD
ENDROOT
BRANCH   1   5
HETATM    5  C3  UNL     1     -41.227  12.738   6.365  1.00 20.00     0.082 A 
HETATM    6  C2  UNL     1     -41.220  13.535   5.098  1.00 20.00     0.019 A 
HETATM    7  C4  UNL     1     -39.972  12.834   5.555  1.00 20.00    -0.005 A 
HETATM    8  C5  UNL     1     -39.478  11.633   4.824  1.00 20.00     0.011 C 
ENDBRANCH   1   5
BRANCH   2   9
HETATM    9  C8  UNL     1     -40.181  15.254   8.997  1.00 20.00     0.126 C 
BRANCH   9  10
HETATM   10  C9  UNL     1     -40.833  16.627   8.802  1.00 20.00    -0.005 C 
HETATM   11  C6  UNL     1     -40.712  17.129   7.362  1.00 20.00     0.011 C 
HETATM   12  C7  UNL     1     -42.294  16.639   9.255  1.00 20.00     0.011 C 
ENDBRANCH   9  10
ENDBRANCH   2   9
TORSDOF 3
ENDMDL
