MODEL 1
REMARK VINA RESULT:      -4.0      0.000      0.000
REMARK  0 active torsions:
REMARK  status: ('A' for Active; 'I' for Inactive)
ROOT
HETATM    1  C1  UNL     1     -34.765   5.418   6.298  1.00 20.00     0.137 A 
HETATM    2  C2  UNL     1     -34.252   6.703   6.234  1.00 20.00     0.118 A 
HETATM    3  C3  UNL     1     -33.876   5.565   4.400  1.00 20.00     0.177 A 
HETATM    4  C4  UNL     1     -33.003   7.705   4.255  1.00 20.00     0.112 A 
HETATM    5  C5  UNL     1     -32.655   7.222   3.047  1.00 20.00    -0.002 A 
HETATM    6  C6  UNL     1     -31.912   7.955   1.988  1.00 20.00     0.058 C 
HETATM    7  N7  UNL     1     -34.524   4.706   5.138  1.00 20.00    -0.235 NA
HETATM    8  N8  UNL     1     -33.683   6.771   4.998  1.00 20.00    -0.309 N 
HETATM    9  S9  UNL     1     -33.186   5.536   2.807  1.00 20.00    -0.055 SA
ENDROOT
TORSDOF 0
ENDMDL
MODEL 2
REMARK VINA RESULT:      -4.0      1.448      1.795
REMARK  0 active torsions:
REMARK  status: ('A' for Active; 'I' for Inactive)
ROOT
HETATM    1  C1  UNL     1     -34.765   5.488   6.257  1.00 20.00     0.137 A 
HETATM    2  C2  UNL     1     -34.527   4.985   4.988  1.00 20.00     0.118 A 
HETATM    3  C3  UNL     1     -33.659   6.977   5.270  1.00 20.00     0.177 A 
HETATM    4  C4  UNL     1     -33.242   6.171   3.139  1.00 20.00     0.112 A 
HETATM    5  C5  UNL     1     -32.629   7.368   3.067  1.00 20.00    -0.002 A 
HETATM    6  C6  UNL     1     -31.910   7.918   1.886  1.00 20.00     0.058 C 
HETATM    7  N7  UNL     1     -34.214   6.745   6.427  1.00 20.00    -0.235 NA
HETATM    8  N8  UNL     1     -33.812   5.967   4.372  1.00 20.00    -0.309 N 
HETATM    9  S9  UNL     1     -32.756   8.293   4.587  1.00 20.00    -0.055 SA
ENDROOT
TORSDOF 0
ENDMDL
MODEL 3
REMARK VINA RESULT:      -3.6     12.874     14.153
REMARK  0 active torsions:
REMARK  status: ('A' for Active; 'I' for Inactive)
ROOT
HETATM    1  C1  UNL     1     -34.982  16.013  -7.706  1.00 20.00     0.137 A 
HETATM    2  C2  UNL     1     -35.030  17.166  -6.940  1.00 20.00     0.118 A 
HETATM    3  C3  UNL     1     -34.213  15.462  -5.830  1.00 20.00     0.177 A 
HETATM    4  C4  UNL     1     -34.277  17.369  -4.517  1.00 20.00     0.112 A 
HETATM    5  C5  UNL     1     -33.755  16.490  -3.639  1.00 20.00    -0.002 A 
HETATM    6  C6  UNL     1     -33.364  16.779  -2.234  1.00 20.00     0.058 C 
HETATM    7  N7  UNL     1     -34.467  14.943  -6.999  1.00 20.00    -0.235 NA
HETATM    8  N8  UNL     1     -34.528  16.782  -5.734  1.00 20.00    -0.309 N 
HETATM    9  S9  UNL     1     -33.561  14.860  -4.338  1.00 20.00    -0.055 SA
ENDROOT
TORSDOF 0
ENDMDL
MODEL 4
REMARK VINA RESULT:      -3.5     13.014     13.543
REMARK  0 active torsions:
REMARK  status: ('A' for Active; 'I' for Inactive)
ROOT
HETATM    1  C1  UNL     1     -30.861  18.597   0.963  1.00 20.00     0.137 A 
HETATM    2  C2  UNL     1     -32.187  18.621   1.363  1.00 20.00     0.118 A 
HETATM    3  C3  UNL     1     -31.973  18.702  -0.817  1.00 20.00     0.177 A 
HETATM    4  C4  UNL     1     -34.202  18.744  -0.188  1.00 20.00     0.112 A 
HETATM    5  C5  UNL     1     -34.330  18.802  -1.527  1.00 20.00    -0.002 A 
HETATM    6  C6  UNL     1     -35.607  18.871  -2.286  1.00 20.00     0.058 C 
HETATM    7  N7  UNL     1     -30.734  18.649  -0.413  1.00 20.00    -0.235 NA
HETATM    8  N8  UNL     1     -32.883  18.689   0.194  1.00 20.00    -0.309 N 
HETATM    9  S9  UNL     1     -32.755  18.789  -2.365  1.00 20.00    -0.055 SA
ENDROOT
TORSDOF 0
ENDMDL
MODEL 5
REMARK VINA RESULT:      -3.3     12.889     13.719
REMARK  0 active torsions:
REMARK  status: ('A' for Active; 'I' for Inactive)
ROOT
HETATM    1  C1  UNL     1     -34.944  15.415  -6.437  1.00 20.00     0.137 A 
HETATM    2  C2  UNL     1     -34.001  14.909  -5.557  1.00 20.00     0.118 A 
HETATM    3  C3  UNL     1     -34.826  16.825  -4.884  1.00 20.00     0.177 A 
HETATM    4  C4  UNL     1     -33.255  16.013  -3.388  1.00 20.00     0.112 A 
HETATM    5  C5  UNL     1     -33.603  17.159  -2.772  1.00 20.00    -0.002 A 
HETATM    6  C6  UNL     1     -33.059  17.665  -1.484  1.00 20.00     0.058 C 
HETATM    7  N7  UNL     1     -35.459  16.623  -6.006  1.00 20.00    -0.235 NA
HETATM    8  N8  UNL     1     -33.945  15.840  -4.564  1.00 20.00    -0.309 N 
HETATM    9  S9  UNL     1     -34.838  18.074  -3.678  1.00 20.00    -0.055 SA
ENDROOT
TORSDOF 0
ENDMDL
MODEL 6
REMARK VINA RESULT:      -3.2      1.549      1.830
REMARK  0 active torsions:
REMARK  status: ('A' for Active; 'I' for Inactive)
ROOT
HETATM    1  C1  UNL     1     -34.736   4.724   4.828  1.00 20.00     0.137 A 
HETATM    2  C2  UNL     1     -34.717   5.696   5.815  1.00 20.00     0.118 A 
HETATM    3  C3  UNL     1     -33.479   6.237   4.089  1.00 20.00     0.177 A 
HETATM    4  C4  UNL     1     -33.421   7.885   5.715  1.00 20.00     0.112 A 
HETATM    5  C5  UNL     1     -32.611   8.433   4.789  1.00 20.00    -0.002 A 
HETATM    6  C6  UNL     1     -31.920   9.746   4.892  1.00 20.00     0.058 C 
HETATM    7  N7  UNL     1     -33.953   5.072   3.743  1.00 20.00    -0.235 NA
HETATM    8  N8  UNL     1     -33.898   6.661   5.311  1.00 20.00    -0.309 N 
HETATM    9  S9  UNL     1     -32.420   7.397   3.349  1.00 20.00    -0.055 SA
ENDROOT
TORSDOF 0
ENDMDL
MODEL 7
REMARK VINA RESULT:      -3.2      1.533      3.591
REMARK  0 active torsions:
REMARK  status: ('A' for Active; 'I' for Inactive)
ROOT
HETATM    1  C1  UNL     1     -31.965   8.453   3.136  1.00 20.00     0.137 A 
HETATM    2  C2  UNL     1     -32.345   8.735   4.438  1.00 20.00     0.118 A 
HETATM    3  C3  UNL     1     -33.070   6.780   3.764  1.00 20.00     0.177 A 
HETATM    4  C4  UNL     1     -33.727   7.215   5.942  1.00 20.00     0.112 A 
HETATM    5  C5  UNL     1     -34.276   5.999   5.764  1.00 20.00    -0.002 A 
HETATM    6  C6  UNL     1     -35.069   5.238   6.766  1.00 20.00     0.058 C 
HETATM    7  N7  UNL     1     -32.426   7.219   2.718  1.00 20.00    -0.235 NA
HETATM    8  N8  UNL     1     -33.058   7.639   4.818  1.00 20.00    -0.309 N 
HETATM    9  S9  UNL     1     -33.959   5.337   4.138  1.00 20.00    -0.055 SA
ENDROOT
TORSDOF 0
ENDMDL
MODEL 8
REMARK VINA RESULT:      -3.2     12.566     13.406
REMARK  0 active torsions:
REMARK  status: ('A' for Active; 'I' for Inactive)
ROOT
HETATM    1  C1  UNL     1     -34.001  18.015  -1.748  1.00 20.00     0.137 A 
HETATM    2  C2  UNL     1     -34.705  18.405  -2.875  1.00 20.00     0.118 A 
HETATM    3  C3  UNL     1     -33.688  16.484  -3.152  1.00 20.00     0.177 A 
HETATM    4  C4  UNL     1     -34.853  17.101  -5.057  1.00 20.00     0.112 A 
HETATM    5  C5  UNL     1     -34.332  15.928  -5.464  1.00 20.00    -0.002 A 
HETATM    6  C6  UNL     1     -34.521  15.299  -6.799  1.00 20.00     0.058 C 
HETATM    7  N7  UNL     1     -33.362  16.803  -1.931  1.00 20.00    -0.235 NA
HETATM    8  N8  UNL     1     -34.486  17.398  -3.766  1.00 20.00    -0.309 N 
HETATM    9  S9  UNL     1     -33.341  15.147  -4.204  1.00 20.00    -0.055 SA
ENDROOT
TORSDOF 0
ENDMDL
MODEL 9
REMARK VINA RESULT:      -3.2     12.933     13.097
REMARK  0 active torsions:
REMARK  status: ('A' for Active; 'I' for Inactive)
ROOT
HETATM    1  C1  UNL     1     -30.971  19.246   3.017  1.00 20.00     0.137 A 
HETATM    2  C2  UNL     1     -30.253  18.992   1.860  1.00 20.00     0.118 A 
HETATM    3  C3  UNL     1     -32.417  18.846   1.546  1.00 20.00     0.177 A 
HETATM    4  C4  UNL     1     -31.253  18.415  -0.409  1.00 20.00     0.112 A 
HETATM    5  C5  UNL     1     -32.519  18.269  -0.846  1.00 20.00    -0.002 A 
HETATM    6  C6  UNL     1     -32.936  17.923  -2.231  1.00 20.00     0.058 C 
HETATM    7  N7  UNL     1     -32.335  19.151   2.812  1.00 20.00    -0.235 NA
HETATM    8  N8  UNL     1     -31.212  18.737   0.926  1.00 20.00    -0.309 N 
HETATM    9  S9  UNL     1     -33.722  18.538   0.443  1.00 20.00    -0.055 SA
ENDROOT
TORSDOF 0
ENDMDL
