MODEL 1
REMARK VINA RESULT:      -3.6      0.000      0.000
REMARK  1 active torsions:
REMARK  status: ('A' for Active; 'I' for Inactive)
REMARK    1  A    between atoms: C1_1  and  C4_4 
ROOT
HETATM    1  C2  UNL     1     -24.324  18.375   8.834  1.00 20.00     0.023 C 
HETATM    2  C3  UNL     1     -25.336  19.263   9.537  1.00 20.00     0.075 C 
HETATM    3  C4  UNL     1     -23.131  18.253   9.778  1.00 20.00     0.066 C 
HETATM    4  C5  UNL     1     -23.679  17.848  11.160  1.00 20.00     0.010 C 
HETATM    5  C6  UNL     1     -24.035  16.361  11.293  1.00 20.00     0.027 C 
HETATM    6  C7  UNL     1     -22.729  18.265  12.285  1.00 20.00     0.027 C 
HETATM    7  S9  UNL     1     -25.241  18.813  11.291  1.00 20.00    -0.159 SA
ENDROOT
BRANCH   3   8
HETATM    8  C1  UNL     1     -22.122  17.285   9.239  1.00 20.00     0.237 C 
HETATM    9  O8  UNL     1     -22.084  16.933   8.065  1.00 20.00    -0.306 OA
ENDBRANCH   3   8
TORSDOF 1
ENDMDL
MODEL 2
REMARK VINA RESULT:      -3.4     15.737     16.466
REMARK  1 active torsions:
REMARK  status: ('A' for Active; 'I' for Inactive)
REMARK    1  A    between atoms: C1_1  and  C4_4 
ROOT
HETATM    1  C2  UNL     1     -32.887   7.834   3.823  1.00 20.00     0.023 C 
HETATM    2  C3  UNL     1     -32.881   8.428   5.220  1.00 20.00     0.075 C 
HETATM    3  C4  UNL     1     -33.039   6.325   3.998  1.00 20.00     0.066 C 
HETATM    4  C5  UNL     1     -34.237   6.091   4.938  1.00 20.00     0.010 C 
HETATM    5  C6  UNL     1     -35.611   6.229   4.265  1.00 20.00     0.027 C 
HETATM    6  C7  UNL     1     -34.136   4.742   5.654  1.00 20.00     0.027 C 
HETATM    7  S9  UNL     1     -34.078   7.450   6.169  1.00 20.00    -0.159 SA
ENDROOT
BRANCH   3   8
HETATM    8  C1  UNL     1     -33.192   5.647   2.671  1.00 20.00     0.237 C 
HETATM    9  O8  UNL     1     -32.697   4.556   2.408  1.00 20.00    -0.306 OA
ENDBRANCH   3   8
TORSDOF 1
ENDMDL
MODEL 3
REMARK VINA RESULT:      -3.3      1.985      2.430
REMARK  1 active torsions:
REMARK  status: ('A' for Active; 'I' for Inactive)
REMARK    1  A    between atoms: C1_1  and  C4_4 
ROOT
HETATM    1  C2  UNL     1     -25.103  18.864  10.194  1.00 20.00     0.023 C 
HETATM    2  C3  UNL     1     -24.822  18.742  11.681  1.00 20.00     0.075 C 
HETATM    3  C4  UNL     1     -23.780  19.245   9.536  1.00 20.00     0.066 C 
HETATM    4  C5  UNL     1     -22.716  18.251  10.037  1.00 20.00     0.010 C 
HETATM    5  C6  UNL     1     -22.751  16.878   9.349  1.00 20.00     0.027 C 
HETATM    6  C7  UNL     1     -21.307  18.844   9.954  1.00 20.00     0.027 C 
HETATM    7  S9  UNL     1     -23.170  18.003  11.803  1.00 20.00    -0.159 SA
ENDROOT
BRANCH   3   8
HETATM    8  C1  UNL     1     -23.912  19.263   8.044  1.00 20.00     0.237 C 
HETATM    9  O8  UNL     1     -24.991  19.263   7.461  1.00 20.00    -0.306 OA
ENDBRANCH   3   8
TORSDOF 1
ENDMDL
MODEL 4
REMARK VINA RESULT:      -3.2     17.862     19.174
REMARK  1 active torsions:
REMARK  status: ('A' for Active; 'I' for Inactive)
REMARK    1  A    between atoms: C1_1  and  C4_4 
ROOT
HETATM    1  C2  UNL     1     -33.475  15.413  -4.427  1.00 20.00     0.023 C 
HETATM    2  C3  UNL     1     -33.431  16.222  -3.144  1.00 20.00     0.075 C 
HETATM    3  C4  UNL     1     -34.871  15.610  -5.012  1.00 20.00     0.066 C 
HETATM    4  C5  UNL     1     -35.142  17.126  -5.050  1.00 20.00     0.010 C 
HETATM    5  C6  UNL     1     -34.466  17.865  -6.214  1.00 20.00     0.027 C 
HETATM    6  C7  UNL     1     -36.642  17.430  -5.035  1.00 20.00     0.027 C 
HETATM    7  S9  UNL     1     -34.381  17.728  -3.486  1.00 20.00    -0.159 SA
ENDROOT
BRANCH   3   8
HETATM    8  C1  UNL     1     -34.982  14.959  -6.357  1.00 20.00     0.237 C 
HETATM    9  O8  UNL     1     -35.958  14.309  -6.715  1.00 20.00    -0.306 OA
ENDBRANCH   3   8
TORSDOF 1
ENDMDL
MODEL 5
REMARK VINA RESULT:      -2.9     18.209     18.912
REMARK  1 active torsions:
REMARK  status: ('A' for Active; 'I' for Inactive)
REMARK    1  A    between atoms: C1_1  and  C4_4 
ROOT
HETATM    1  C2  UNL     1     -41.569  13.725   4.604  1.00 20.00     0.023 C 
HETATM    2  C3  UNL     1     -42.404  14.988   4.707  1.00 20.00     0.075 C 
HETATM    3  C4  UNL     1     -40.942  13.511   5.978  1.00 20.00     0.066 C 
HETATM    4  C5  UNL     1     -42.075  13.600   7.018  1.00 20.00     0.010 C 
HETATM    5  C6  UNL     1     -42.939  12.335   7.130  1.00 20.00     0.027 C 
HETATM    6  C7  UNL     1     -41.543  13.997   8.397  1.00 20.00     0.027 C 
HETATM    7  S9  UNL     1     -43.141  14.950   6.363  1.00 20.00    -0.159 SA
ENDROOT
BRANCH   3   8
HETATM    8  C1  UNL     1     -40.199  12.210   6.029  1.00 20.00     0.237 C 
HETATM    9  O8  UNL     1     -39.251  12.002   6.778  1.00 20.00    -0.306 OA
ENDBRANCH   3   8
TORSDOF 1
ENDMDL
MODEL 6
REMARK VINA RESULT:      -2.9     15.712     17.064
REMARK  1 active torsions:
REMARK  status: ('A' for Active; 'I' for Inactive)
REMARK    1  A    between atoms: C1_1  and  C4_4 
ROOT
HETATM    1  C2  UNL     1     -33.173  17.328  -1.602  1.00 20.00     0.023 C 
HETATM    2  C3  UNL     1     -34.065  18.328  -0.891  1.00 20.00     0.075 C 
HETATM    3  C4  UNL     1     -33.949  16.855  -2.828  1.00 20.00     0.066 C 
HETATM    4  C5  UNL     1     -34.440  18.111  -3.572  1.00 20.00     0.010 C 
HETATM    5  C6  UNL     1     -33.368  18.808  -4.424  1.00 20.00     0.027 C 
HETATM    6  C7  UNL     1     -35.676  17.813  -4.424  1.00 20.00     0.027 C 
HETATM    7  S9  UNL     1     -34.901  19.255  -2.206  1.00 20.00    -0.159 SA
ENDROOT
BRANCH   3   8
HETATM    8  C1  UNL     1     -33.103  15.959  -3.681  1.00 20.00     0.237 C 
HETATM    9  O8  UNL     1     -33.502  14.900  -4.152  1.00 20.00    -0.306 OA
ENDBRANCH   3   8
TORSDOF 1
ENDMDL
MODEL 7
REMARK VINA RESULT:      -2.8     17.578     18.689
REMARK  1 active torsions:
REMARK  status: ('A' for Active; 'I' for Inactive)
REMARK    1  A    between atoms: C1_1  and  C4_4 
ROOT
HETATM    1  C2  UNL     1     -40.399  15.074   7.493  1.00 20.00     0.023 C 
HETATM    2  C3  UNL     1     -41.488  15.724   8.326  1.00 20.00     0.075 C 
HETATM    3  C4  UNL     1     -40.836  13.631   7.263  1.00 20.00     0.066 C 
HETATM    4  C5  UNL     1     -42.284  13.669   6.739  1.00 20.00     0.010 C 
HETATM    5  C6  UNL     1     -42.415  14.027   5.251  1.00 20.00     0.027 C 
HETATM    6  C7  UNL     1     -43.024  12.361   7.031  1.00 20.00     0.027 C 
HETATM    7  S9  UNL     1     -43.048  15.032   7.712  1.00 20.00    -0.159 SA
ENDROOT
BRANCH   3   8
HETATM    8  C1  UNL     1     -39.893  12.929   6.334  1.00 20.00     0.237 C 
HETATM    9  O8  UNL     1     -39.488  11.787   6.518  1.00 20.00    -0.306 OA
ENDBRANCH   3   8
TORSDOF 1
ENDMDL
MODEL 8
REMARK VINA RESULT:      -2.8     17.966     18.790
REMARK  1 active torsions:
REMARK  status: ('A' for Active; 'I' for Inactive)
REMARK    1  A    between atoms: C1_1  and  C4_4 
ROOT
HETATM    1  C2  UNL     1     -41.949  15.694   6.641  1.00 20.00     0.023 C 
HETATM    2  C3  UNL     1     -41.014  15.767   7.835  1.00 20.00     0.075 C 
HETATM    3  C4  UNL     1     -41.417  14.580   5.745  1.00 20.00     0.066 C 
HETATM    4  C5  UNL     1     -41.208  13.338   6.633  1.00 20.00     0.010 C 
HETATM    5  C6  UNL     1     -42.493  12.565   6.962  1.00 20.00     0.027 C 
HETATM    6  C7  UNL     1     -40.163  12.391   6.039  1.00 20.00     0.027 C 
HETATM    7  S9  UNL     1     -40.564  14.049   8.204  1.00 20.00    -0.159 SA
ENDROOT
BRANCH   3   8
HETATM    8  C1  UNL     1     -42.346  14.330   4.596  1.00 20.00     0.237 C 
HETATM    9  O8  UNL     1     -41.979  14.289   3.427  1.00 20.00    -0.306 OA
ENDBRANCH   3   8
TORSDOF 1
ENDMDL
MODEL 9
REMARK VINA RESULT:      -2.8     15.614     16.391
REMARK  1 active torsions:
REMARK  status: ('A' for Active; 'I' for Inactive)
REMARK    1  A    between atoms: C1_1  and  C4_4 
ROOT
HETATM    1  C2  UNL     1     -33.184   7.966   4.878  1.00 20.00     0.023 C 
HETATM    2  C3  UNL     1     -33.439   7.696   6.349  1.00 20.00     0.075 C 
HETATM    3  C4  UNL     1     -33.058   6.602   4.206  1.00 20.00     0.066 C 
HETATM    4  C5  UNL     1     -34.281   5.767   4.632  1.00 20.00     0.010 C 
HETATM    5  C6  UNL     1     -35.577   6.104   3.881  1.00 20.00     0.027 C 
HETATM    6  C7  UNL     1     -33.996   4.266   4.542  1.00 20.00     0.027 C 
HETATM    7  S9  UNL     1     -34.517   6.238   6.395  1.00 20.00    -0.159 SA
ENDROOT
BRANCH   3   8
HETATM    8  C1  UNL     1     -32.937   6.749   2.719  1.00 20.00     0.237 C 
HETATM    9  O8  UNL     1     -32.195   7.563   2.179  1.00 20.00    -0.306 OA
ENDBRANCH   3   8
TORSDOF 1
ENDMDL
