MODEL 1
REMARK VINA RESULT:      -4.2      0.000      0.000
REMARK  2 active torsions:
REMARK  status: ('A' for Active; 'I' for Inactive)
REMARK    1  A    between atoms: C5_5  and  C6_6 
REMARK    2  A    between atoms: C7_7  and  N9_9 
ROOT
HETATM    1  C1  UNL     1     -32.316   8.139   1.538  1.00 20.00     0.079 C 
HETATM    2  C7  UNL     1     -32.143   7.067   2.522  1.00 20.00     0.252 C 
HETATM    3  N8  UNL     1     -32.451   8.987   0.757  1.00 20.00    -0.196 NA
ENDROOT
BRANCH   2   4
HETATM    4  N9  UNL     1     -32.726   7.409   3.800  1.00 20.00    -0.341 N 
HETATM    5  C4  UNL     1     -32.458   8.559   4.496  1.00 20.00     0.092 A 
HETATM    6  C2  UNL     1     -33.194   8.531   5.660  1.00 20.00     0.020 A 
HETATM    7  C3  UNL     1     -33.930   7.320   5.665  1.00 20.00     0.034 A 
HETATM    8  C5  UNL     1     -33.621   6.647   4.504  1.00 20.00     0.073 A 
BRANCH   8   9
HETATM    9  C6  UNL     1     -34.123   5.377   4.073  1.00 20.00     0.288 C 
HETATM   10  O10 UNL     1     -34.750   4.590   4.807  1.00 20.00    -0.300 OA
ENDBRANCH   8   9
ENDBRANCH   2   4
TORSDOF 2
ENDMDL
MODEL 2
REMARK VINA RESULT:      -4.0      2.151      2.717
REMARK  2 active torsions:
REMARK  status: ('A' for Active; 'I' for Inactive)
REMARK    1  A    between atoms: C5_5  and  C6_6 
REMARK    2  A    between atoms: C7_7  and  N9_9 
ROOT
HETATM    1  C1  UNL     1     -32.332   8.890   4.748  1.00 20.00     0.079 C 
HETATM    2  C7  UNL     1     -32.960   7.858   3.920  1.00 20.00     0.252 C 
HETATM    3  N8  UNL     1     -31.832   9.709   5.402  1.00 20.00    -0.196 NA
ENDROOT
BRANCH   2   4
HETATM    4  N9  UNL     1     -33.641   6.864   4.720  1.00 20.00    -0.341 N 
HETATM    5  C4  UNL     1     -34.025   7.044   6.024  1.00 20.00     0.092 A 
HETATM    6  C2  UNL     1     -34.640   5.886   6.446  1.00 20.00     0.020 A 
HETATM    7  C3  UNL     1     -34.623   4.977   5.359  1.00 20.00     0.034 A 
HETATM    8  C5  UNL     1     -34.000   5.609   4.306  1.00 20.00     0.073 A 
BRANCH   8   9
HETATM    9  C6  UNL     1     -33.752   5.083   2.997  1.00 20.00     0.288 C 
HETATM   10  O10 UNL     1     -32.614   4.853   2.543  1.00 20.00    -0.300 OA
ENDBRANCH   8   9
ENDBRANCH   2   4
TORSDOF 2
ENDMDL
MODEL 3
REMARK VINA RESULT:      -3.8     15.841     16.369
REMARK  2 active torsions:
REMARK  status: ('A' for Active; 'I' for Inactive)
REMARK    1  A    between atoms: C5_5  and  C6_6 
REMARK    2  A    between atoms: C7_7  and  N9_9 
ROOT
HETATM    1  C1  UNL     1     -21.360  17.609   7.375  1.00 20.00     0.079 C 
HETATM    2  C7  UNL     1     -21.442  18.453   8.569  1.00 20.00     0.252 C 
HETATM    3  N8  UNL     1     -21.293  16.939   6.429  1.00 20.00    -0.196 NA
ENDROOT
BRANCH   2   4
HETATM    4  N9  UNL     1     -22.812  18.704   8.960  1.00 20.00    -0.341 N 
HETATM    5  C4  UNL     1     -23.797  19.141   8.113  1.00 20.00     0.092 A 
HETATM    6  C2  UNL     1     -24.959  19.263   8.842  1.00 20.00     0.020 A 
HETATM    7  C3  UNL     1     -24.662  18.887  10.176  1.00 20.00     0.034 A 
HETATM    8  C5  UNL     1     -23.329  18.546  10.220  1.00 20.00     0.073 A 
BRANCH   8   9
HETATM    9  C6  UNL     1     -22.579  18.104  11.356  1.00 20.00     0.288 C 
HETATM   10  O10 UNL     1     -21.965  18.867  12.127  1.00 20.00    -0.300 OA
ENDBRANCH   8   9
ENDBRANCH   2   4
TORSDOF 2
ENDMDL
MODEL 4
REMARK VINA RESULT:      -3.7     11.511     12.335
REMARK  2 active torsions:
REMARK  status: ('A' for Active; 'I' for Inactive)
REMARK    1  A    between atoms: C5_5  and  C6_6 
REMARK    2  A    between atoms: C7_7  and  N9_9 
ROOT
HETATM    1  C1  UNL     1     -36.155  16.171  -5.622  1.00 20.00     0.079 C 
HETATM    2  C7  UNL     1     -34.966  17.024  -5.550  1.00 20.00     0.252 C 
HETATM    3  N8  UNL     1     -37.098  15.496  -5.681  1.00 20.00    -0.196 NA
ENDROOT
BRANCH   2   4
HETATM    4  N9  UNL     1     -34.457  17.128  -4.201  1.00 20.00    -0.341 N 
HETATM    5  C4  UNL     1     -34.757  18.145  -3.331  1.00 20.00     0.092 A 
HETATM    6  C2  UNL     1     -34.091  17.903  -2.151  1.00 20.00     0.020 A 
HETATM    7  C3  UNL     1     -33.363  16.698  -2.316  1.00 20.00     0.034 A 
HETATM    8  C5  UNL     1     -33.608  16.242  -3.592  1.00 20.00     0.073 A 
BRANCH   8   9
HETATM    9  C6  UNL     1     -33.088  15.059  -4.210  1.00 20.00     0.288 C 
HETATM   10  O10 UNL     1     -33.686  13.966  -4.236  1.00 20.00    -0.300 OA
ENDBRANCH   8   9
ENDBRANCH   2   4
TORSDOF 2
ENDMDL
MODEL 5
REMARK VINA RESULT:      -3.7      1.985      3.628
REMARK  2 active torsions:
REMARK  status: ('A' for Active; 'I' for Inactive)
REMARK    1  A    between atoms: C5_5  and  C6_6 
REMARK    2  A    between atoms: C7_7  and  N9_9 
ROOT
HETATM    1  C1  UNL     1     -34.722   5.516   5.867  1.00 20.00     0.079 C 
HETATM    2  C7  UNL     1     -34.839   6.295   4.632  1.00 20.00     0.252 C 
HETATM    3  N8  UNL     1     -34.631   4.896   6.844  1.00 20.00    -0.196 NA
ENDROOT
BRANCH   2   4
HETATM    4  N9  UNL     1     -33.708   7.176   4.440  1.00 20.00    -0.341 N 
HETATM    5  C4  UNL     1     -33.430   8.268   5.220  1.00 20.00     0.092 A 
HETATM    6  C2  UNL     1     -32.282   8.853   4.734  1.00 20.00     0.020 A 
HETATM    7  C3  UNL     1     -31.855   8.086   3.621  1.00 20.00     0.034 A 
HETATM    8  C5  UNL     1     -32.755   7.056   3.463  1.00 20.00     0.073 A 
BRANCH   8   9
HETATM    9  C6  UNL     1     -32.735   6.026   2.469  1.00 20.00     0.288 C 
HETATM   10  O10 UNL     1     -32.697   4.808   2.729  1.00 20.00    -0.300 OA
ENDBRANCH   8   9
ENDBRANCH   2   4
TORSDOF 2
ENDMDL
MODEL 6
REMARK VINA RESULT:      -3.7     15.300     16.434
REMARK  2 active torsions:
REMARK  status: ('A' for Active; 'I' for Inactive)
REMARK    1  A    between atoms: C5_5  and  C6_6 
REMARK    2  A    between atoms: C7_7  and  N9_9 
ROOT
HETATM    1  C1  UNL     1     -24.760  16.997  11.790  1.00 20.00     0.079 C 
HETATM    2  C7  UNL     1     -24.693  18.351  11.235  1.00 20.00     0.252 C 
HETATM    3  N8  UNL     1     -24.816  15.925  12.231  1.00 20.00    -0.196 NA
ENDROOT
BRANCH   2   4
HETATM    4  N9  UNL     1     -23.466  18.574  10.503  1.00 20.00    -0.341 N 
HETATM    5  C4  UNL     1     -22.208  18.402  11.021  1.00 20.00     0.092 A 
HETATM    6  C2  UNL     1     -21.298  18.709  10.034  1.00 20.00     0.020 A 
HETATM    7  C3  UNL     1     -22.035  19.078   8.881  1.00 20.00     0.034 A 
HETATM    8  C5  UNL     1     -23.371  18.986   9.200  1.00 20.00     0.073 A 
BRANCH   8   9
HETATM    9  C6  UNL     1     -24.491  19.262   8.352  1.00 20.00     0.288 C 
HETATM   10  O10 UNL     1     -24.446  19.236   7.107  1.00 20.00    -0.300 OA
ENDBRANCH   8   9
ENDBRANCH   2   4
TORSDOF 2
ENDMDL
MODEL 7
REMARK VINA RESULT:      -3.6      1.335      2.445
REMARK  2 active torsions:
REMARK  status: ('A' for Active; 'I' for Inactive)
REMARK    1  A    between atoms: C5_5  and  C6_6 
REMARK    2  A    between atoms: C7_7  and  N9_9 
ROOT
HETATM    1  C1  UNL     1     -32.190   8.134   1.887  1.00 20.00     0.079 C 
HETATM    2  C7  UNL     1     -32.159   7.786   3.309  1.00 20.00     0.252 C 
HETATM    3  N8  UNL     1     -32.214   8.412   0.760  1.00 20.00    -0.196 NA
ENDROOT
BRANCH   2   4
HETATM    4  N9  UNL     1     -32.954   6.612   3.595  1.00 20.00    -0.341 N 
HETATM    5  C4  UNL     1     -32.980   5.481   2.821  1.00 20.00     0.092 A 
HETATM    6  C2  UNL     1     -33.847   4.586   3.408  1.00 20.00     0.020 A 
HETATM    7  C3  UNL     1     -34.361   5.201   4.576  1.00 20.00     0.034 A 
HETATM    8  C5  UNL     1     -33.792   6.452   4.667  1.00 20.00     0.073 A 
BRANCH   8   9
HETATM    9  C6  UNL     1     -34.011   7.438   5.682  1.00 20.00     0.288 C 
HETATM   10  O10 UNL     1     -34.380   7.173   6.843  1.00 20.00    -0.300 OA
ENDBRANCH   8   9
ENDBRANCH   2   4
TORSDOF 2
ENDMDL
MODEL 8
REMARK VINA RESULT:      -3.6      2.476      3.269
REMARK  2 active torsions:
REMARK  status: ('A' for Active; 'I' for Inactive)
REMARK    1  A    between atoms: C5_5  and  C6_6 
REMARK    2  A    between atoms: C7_7  and  N9_9 
ROOT
HETATM    1  C1  UNL     1     -32.908   5.201   2.511  1.00 20.00     0.079 C 
HETATM    2  C7  UNL     1     -33.210   6.504   3.107  1.00 20.00     0.252 C 
HETATM    3  N8  UNL     1     -32.668   4.169   2.037  1.00 20.00    -0.196 NA
ENDROOT
BRANCH   2   4
HETATM    4  N9  UNL     1     -33.748   6.376   4.443  1.00 20.00    -0.341 N 
HETATM    5  C4  UNL     1     -34.405   5.269   4.915  1.00 20.00     0.092 A 
HETATM    6  C2  UNL     1     -34.767   5.517   6.220  1.00 20.00     0.020 A 
HETATM    7  C3  UNL     1     -34.314   6.820   6.544  1.00 20.00     0.034 A 
HETATM    8  C5  UNL     1     -33.688   7.327   5.428  1.00 20.00     0.073 A 
BRANCH   8   9
HETATM    9  C6  UNL     1     -33.073   8.611   5.280  1.00 20.00     0.288 C 
HETATM   10  O10 UNL     1     -31.938   8.790   4.797  1.00 20.00    -0.300 OA
ENDBRANCH   8   9
ENDBRANCH   2   4
TORSDOF 2
ENDMDL
MODEL 9
REMARK VINA RESULT:      -3.6     11.741     12.865
REMARK  2 active torsions:
REMARK  status: ('A' for Active; 'I' for Inactive)
REMARK    1  A    between atoms: C5_5  and  C6_6 
REMARK    2  A    between atoms: C7_7  and  N9_9 
ROOT
HETATM    1  C1  UNL     1     -36.925  17.867  -4.595  1.00 20.00     0.079 C 
HETATM    2  C7  UNL     1     -35.849  17.468  -5.505  1.00 20.00     0.252 C 
HETATM    3  N8  UNL     1     -37.778  18.186  -3.876  1.00 20.00    -0.196 NA
ENDROOT
BRANCH   2   4
HETATM    4  N9  UNL     1     -34.925  16.548  -4.878  1.00 20.00    -0.341 N 
HETATM    5  C4  UNL     1     -33.866  16.922  -4.092  1.00 20.00     0.092 A 
HETATM    6  C2  UNL     1     -33.221  15.778  -3.679  1.00 20.00     0.020 A 
HETATM    7  C3  UNL     1     -33.916  14.676  -4.237  1.00 20.00     0.034 A 
HETATM    8  C5  UNL     1     -34.964  15.182  -4.973  1.00 20.00     0.073 A 
BRANCH   8   9
HETATM    9  C6  UNL     1     -35.941  14.446  -5.719  1.00 20.00     0.288 C 
HETATM   10  O10 UNL     1     -35.898  14.284  -6.954  1.00 20.00    -0.300 OA
ENDBRANCH   8   9
ENDBRANCH   2   4
TORSDOF 2
ENDMDL
