MODEL 1
REMARK VINA RESULT:      -4.8      0.000      0.000
REMARK  1 active torsions:
REMARK  status: ('A' for Active; 'I' for Inactive)
REMARK    1  A    between atoms: C3_3  and  C7_7 
ROOT
HETATM    1  C1  UNL     1     -32.431   6.669   2.686  1.00 20.00    -0.030 C 
HETATM    2  C2  UNL     1     -32.532   7.478   3.749  1.00 20.00    -0.025 C 
HETATM    3  C4  UNL     1     -33.090   5.329   2.606  1.00 20.00     0.028 C 
HETATM    4  C5  UNL     1     -33.607   4.842   3.961  1.00 20.00     0.021 C 
HETATM    5  C6  UNL     1     -33.350   7.151   4.979  1.00 20.00     0.018 C 
HETATM    6  C7  UNL     1     -34.325   5.951   4.763  1.00 20.00     0.016 C 
HETATM    7  C8  UNL     1     -34.052   8.425   5.471  1.00 20.00     0.015 C 
HETATM    8  C9  UNL     1     -35.641   6.341   4.070  1.00 20.00     0.023 C 
ENDROOT
BRANCH   6   9
HETATM    9  C3  UNL     1     -34.694   5.353   6.101  1.00 20.00     0.241 C 
HETATM   10  O10 UNL     1     -33.869   5.024   6.945  1.00 20.00    -0.306 OA
ENDBRANCH   6   9
TORSDOF 1
ENDMDL
MODEL 2
REMARK VINA RESULT:      -4.2      1.360      1.709
REMARK  1 active torsions:
REMARK  status: ('A' for Active; 'I' for Inactive)
REMARK    1  A    between atoms: C3_3  and  C7_7 
ROOT
HETATM    1  C1  UNL     1     -32.503   8.440   3.807  1.00 20.00    -0.030 C 
HETATM    2  C2  UNL     1     -32.764   8.206   5.100  1.00 20.00    -0.025 C 
HETATM    3  C4  UNL     1     -32.739   7.436   2.724  1.00 20.00     0.028 C 
HETATM    4  C5  UNL     1     -32.995   6.029   3.267  1.00 20.00     0.021 C 
HETATM    5  C6  UNL     1     -33.362   6.915   5.616  1.00 20.00     0.018 C 
HETATM    6  C7  UNL     1     -33.951   6.019   4.481  1.00 20.00     0.016 C 
HETATM    7  C8  UNL     1     -34.374   7.236   6.726  1.00 20.00     0.015 C 
HETATM    8  C9  UNL     1     -35.369   6.426   4.045  1.00 20.00     0.023 C 
ENDROOT
BRANCH   6   9
HETATM    9  C3  UNL     1     -34.034   4.588   4.960  1.00 20.00     0.241 C 
HETATM   10  O10 UNL     1     -33.894   3.619   4.223  1.00 20.00    -0.306 OA
ENDBRANCH   6   9
TORSDOF 1
ENDMDL
MODEL 3
REMARK VINA RESULT:      -4.2      1.950      3.541
REMARK  1 active torsions:
REMARK  status: ('A' for Active; 'I' for Inactive)
REMARK    1  A    between atoms: C3_3  and  C7_7 
ROOT
HETATM    1  C1  UNL     1     -34.776   5.023   5.688  1.00 20.00    -0.030 C 
HETATM    2  C2  UNL     1     -34.060   4.865   4.567  1.00 20.00    -0.025 C 
HETATM    3  C4  UNL     1     -34.725   6.259   6.529  1.00 20.00     0.028 C 
HETATM    4  C5  UNL     1     -33.553   7.173   6.169  1.00 20.00     0.021 C 
HETATM    5  C6  UNL     1     -33.145   5.926   3.997  1.00 20.00     0.018 C 
HETATM    6  C7  UNL     1     -33.363   7.331   4.643  1.00 20.00     0.016 C 
HETATM    7  C8  UNL     1     -33.272   5.933   2.467  1.00 20.00     0.015 C 
HETATM    8  C9  UNL     1     -34.541   8.113   4.038  1.00 20.00     0.023 C 
ENDROOT
BRANCH   6   9
HETATM    9  C3  UNL     1     -32.126   8.176   4.442  1.00 20.00     0.241 C 
HETATM   10  O10 UNL     1     -32.014   9.320   4.866  1.00 20.00    -0.306 OA
ENDBRANCH   6   9
TORSDOF 1
ENDMDL
MODEL 4
REMARK VINA RESULT:      -3.9      1.572      2.941
REMARK  1 active torsions:
REMARK  status: ('A' for Active; 'I' for Inactive)
REMARK    1  A    between atoms: C3_3  and  C7_7 
ROOT
HETATM    1  C1  UNL     1     -32.091   8.314   4.238  1.00 20.00    -0.030 C 
HETATM    2  C2  UNL     1     -32.303   7.349   3.333  1.00 20.00    -0.025 C 
HETATM    3  C4  UNL     1     -32.985   8.551   5.413  1.00 20.00     0.028 C 
HETATM    4  C5  UNL     1     -34.319   7.811   5.301  1.00 20.00     0.021 C 
HETATM    5  C6  UNL     1     -33.447   6.362   3.410  1.00 20.00     0.018 C 
HETATM    6  C7  UNL     1     -34.158   6.357   4.800  1.00 20.00     0.016 C 
HETATM    7  C8  UNL     1     -32.948   4.976   2.976  1.00 20.00     0.015 C 
HETATM    8  C9  UNL     1     -33.438   5.506   5.859  1.00 20.00     0.023 C 
ENDROOT
BRANCH   6   9
HETATM    9  C3  UNL     1     -35.551   5.790   4.653  1.00 20.00     0.241 C 
HETATM   10  O10 UNL     1     -36.373   6.216   3.852  1.00 20.00    -0.306 OA
ENDBRANCH   6   9
TORSDOF 1
ENDMDL
MODEL 5
REMARK VINA RESULT:      -3.9     13.041     14.085
REMARK  1 active torsions:
REMARK  status: ('A' for Active; 'I' for Inactive)
REMARK    1  A    between atoms: C3_3  and  C7_7 
ROOT
HETATM    1  C1  UNL     1     -33.398  16.890  -3.656  1.00 20.00    -0.030 C 
HETATM    2  C2  UNL     1     -34.431  17.470  -4.281  1.00 20.00    -0.025 C 
HETATM    3  C4  UNL     1     -33.061  15.439  -3.797  1.00 20.00     0.028 C 
HETATM    4  C5  UNL     1     -34.183  14.631  -4.451  1.00 20.00     0.021 C 
HETATM    5  C6  UNL     1     -35.356  16.741  -5.230  1.00 20.00     0.018 C 
HETATM    6  C7  UNL     1     -34.806  15.348  -5.670  1.00 20.00     0.016 C 
HETATM    7  C8  UNL     1     -35.697  17.663  -6.410  1.00 20.00     0.015 C 
HETATM    8  C9  UNL     1     -33.789  15.422  -6.821  1.00 20.00     0.023 C 
ENDROOT
BRANCH   6   9
HETATM    9  C3  UNL     1     -35.948  14.482  -6.149  1.00 20.00     0.241 C 
HETATM   10  O10 UNL     1     -36.158  14.233  -7.330  1.00 20.00    -0.306 OA
ENDBRANCH   6   9
TORSDOF 1
ENDMDL
MODEL 6
REMARK VINA RESULT:      -3.5      9.530     11.178
REMARK  1 active torsions:
REMARK  status: ('A' for Active; 'I' for Inactive)
REMARK    1  A    between atoms: C3_3  and  C7_7 
ROOT
HETATM    1  C1  UNL     1     -42.638  15.904   6.016  1.00 20.00    -0.030 C 
HETATM    2  C2  UNL     1     -41.657  15.826   6.925  1.00 20.00    -0.025 C 
HETATM    3  C4  UNL     1     -42.841  14.889   4.936  1.00 20.00     0.028 C 
HETATM    4  C5  UNL     1     -41.645  13.948   4.775  1.00 20.00     0.021 C 
HETATM    5  C6  UNL     1     -40.663  14.688   6.993  1.00 20.00     0.018 C 
HETATM    6  C7  UNL     1     -41.081  13.458   6.128  1.00 20.00     0.016 C 
HETATM    7  C8  UNL     1     -40.399  14.337   8.465  1.00 20.00     0.015 C 
HETATM    8  C9  UNL     1     -42.093  12.530   6.821  1.00 20.00     0.023 C 
ENDROOT
BRANCH   6   9
HETATM    9  C3  UNL     1     -39.862  12.622   5.815  1.00 20.00     0.241 C 
HETATM   10  O10 UNL     1     -39.481  11.693   6.517  1.00 20.00    -0.306 OA
ENDBRANCH   6   9
TORSDOF 1
ENDMDL
MODEL 7
REMARK VINA RESULT:      -3.4     13.172     14.301
REMARK  1 active torsions:
REMARK  status: ('A' for Active; 'I' for Inactive)
REMARK    1  A    between atoms: C3_3  and  C7_7 
ROOT
HETATM    1  C1  UNL     1     -33.665  17.583  -3.392  1.00 20.00    -0.030 C 
HETATM    2  C2  UNL     1     -33.501  16.255  -3.461  1.00 20.00    -0.025 C 
HETATM    3  C4  UNL     1     -34.203  18.405  -4.520  1.00 20.00     0.028 C 
HETATM    4  C5  UNL     1     -34.236  17.643  -5.845  1.00 20.00     0.021 C 
HETATM    5  C6  UNL     1     -33.871  15.424  -4.670  1.00 20.00     0.018 C 
HETATM    6  C7  UNL     1     -34.762  16.198  -5.693  1.00 20.00     0.016 C 
HETATM    7  C8  UNL     1     -34.491  14.100  -4.201  1.00 20.00     0.015 C 
HETATM    8  C9  UNL     1     -36.255  16.211  -5.325  1.00 20.00     0.023 C 
ENDROOT
BRANCH   6   9
HETATM    9  C3  UNL     1     -34.651  15.547  -7.052  1.00 20.00     0.241 C 
HETATM   10  O10 UNL     1     -33.614  15.060  -7.485  1.00 20.00    -0.306 OA
ENDBRANCH   6   9
TORSDOF 1
ENDMDL
MODEL 8
REMARK VINA RESULT:      -3.3     13.024     14.060
REMARK  1 active torsions:
REMARK  status: ('A' for Active; 'I' for Inactive)
REMARK    1  A    between atoms: C3_3  and  C7_7 
ROOT
HETATM    1  C1  UNL     1     -33.608  15.548  -4.292  1.00 20.00    -0.030 C 
HETATM    2  C2  UNL     1     -33.341  15.948  -3.041  1.00 20.00    -0.025 C 
HETATM    3  C4  UNL     1     -34.439  16.342  -5.249  1.00 20.00     0.028 C 
HETATM    4  C5  UNL     1     -35.211  17.473  -4.566  1.00 20.00     0.021 C 
HETATM    5  C6  UNL     1     -33.815  17.261  -2.459  1.00 20.00     0.018 C 
HETATM    6  C7  UNL     1     -34.354  18.250  -3.540  1.00 20.00     0.016 C 
HETATM    7  C8  UNL     1     -32.699  17.859  -1.589  1.00 20.00     0.015 C 
HETATM    8  C9  UNL     1     -33.249  19.041  -4.260  1.00 20.00     0.023 C 
ENDROOT
BRANCH   6   9
HETATM    9  C3  UNL     1     -35.266  19.263  -2.888  1.00 20.00     0.241 C 
HETATM   10  O10 UNL     1     -36.097  18.974  -2.035  1.00 20.00    -0.306 OA
ENDBRANCH   6   9
TORSDOF 1
ENDMDL
MODEL 9
REMARK VINA RESULT:      -3.2     13.490     14.627
REMARK  1 active torsions:
REMARK  status: ('A' for Active; 'I' for Inactive)
REMARK    1  A    between atoms: C3_3  and  C7_7 
ROOT
HETATM    1  C1  UNL     1     -33.293  16.264  -2.982  1.00 20.00    -0.030 C 
HETATM    2  C2  UNL     1     -33.668  15.377  -3.914  1.00 20.00    -0.025 C 
HETATM    3  C4  UNL     1     -33.412  17.744  -3.159  1.00 20.00     0.028 C 
HETATM    4  C5  UNL     1     -33.694  18.147  -4.608  1.00 20.00     0.021 C 
HETATM    5  C6  UNL     1     -34.291  15.763  -5.238  1.00 20.00     0.018 C 
HETATM    6  C7  UNL     1     -34.758  17.252  -5.283  1.00 20.00     0.016 C 
HETATM    7  C8  UNL     1     -35.405  14.764  -5.581  1.00 20.00     0.015 C 
HETATM    8  C9  UNL     1     -36.136  17.486  -4.640  1.00 20.00     0.023 C 
ENDROOT
BRANCH   6   9
HETATM    9  C3  UNL     1     -34.862  17.706  -6.720  1.00 20.00     0.241 C 
HETATM   10  O10 UNL     1     -34.044  17.410  -7.583  1.00 20.00    -0.306 OA
ENDBRANCH   6   9
TORSDOF 1
ENDMDL
