MODEL 1
REMARK VINA RESULT:      -3.3      0.000      0.000
REMARK  4 active torsions:
REMARK  status: ('A' for Active; 'I' for Inactive)
REMARK    1  A    between atoms: C1_1  and  C6_6 
REMARK    2  A    between atoms: C1_1  and  O8_8 
REMARK    3  A    between atoms: C5_5  and  C6_6 
REMARK    4  A    between atoms: C5_5  and  S9_9 
ROOT
HETATM    1  C2  UNL     1     -34.081  18.257   0.495  1.00 20.00     0.021 C 
HETATM    2  C6  UNL     1     -32.971  18.200  -0.556  1.00 20.00     0.090 C 
ENDROOT
BRANCH   2   3
HETATM    3  C1  UNL     1     -31.610  18.487   0.066  1.00 20.00     0.263 C 
HETATM    4  O7  UNL     1     -30.581  18.683  -0.567  1.00 20.00    -0.265 OA
BRANCH   3   5
HETATM    5  O8  UNL     1     -31.720  18.484   1.428  1.00 20.00    -0.326 OA
HETATM    6  C3  UNL     1     -30.483  18.449   2.146  1.00 20.00     0.213 C 
ENDBRANCH   3   5
ENDBRANCH   2   3
BRANCH   2   7
HETATM    7  C5  UNL     1     -33.251  19.100  -1.767  1.00 20.00     0.087 C 
BRANCH   7   8
HETATM    8  S9  UNL     1     -33.256  18.240  -3.372  1.00 20.00    -0.173 SA
HETATM    9  C4  UNL     1     -33.330  16.544  -2.755  1.00 20.00     0.089 C 
ENDBRANCH   7   8
ENDBRANCH   2   7
TORSDOF 4
ENDMDL
MODEL 2
REMARK VINA RESULT:      -3.2     11.755     12.307
REMARK  4 active torsions:
REMARK  status: ('A' for Active; 'I' for Inactive)
REMARK    1  A    between atoms: C1_1  and  C6_6 
REMARK    2  A    between atoms: C1_1  and  O8_8 
REMARK    3  A    between atoms: C5_5  and  C6_6 
REMARK    4  A    between atoms: C5_5  and  S9_9 
ROOT
HETATM    1  C2  UNL     1     -32.109   9.179   4.871  1.00 20.00     0.021 C 
HETATM    2  C6  UNL     1     -32.658   7.778   4.590  1.00 20.00     0.090 C 
ENDROOT
BRANCH   2   3
HETATM    3  C1  UNL     1     -32.513   7.416   3.118  1.00 20.00     0.263 C 
HETATM    4  O7  UNL     1     -32.441   6.273   2.685  1.00 20.00    -0.265 OA
BRANCH   3   5
HETATM    5  O8  UNL     1     -32.470   8.557   2.368  1.00 20.00    -0.326 OA
HETATM    6  C3  UNL     1     -32.101   8.380   0.997  1.00 20.00     0.213 C 
ENDBRANCH   3   5
ENDBRANCH   2   3
BRANCH   2   7
HETATM    7  C5  UNL     1     -34.097   7.593   5.089  1.00 20.00     0.087 C 
BRANCH   7   8
HETATM    8  S9  UNL     1     -34.331   6.207   6.247  1.00 20.00    -0.173 SA
HETATM    9  C4  UNL     1     -34.617   4.901   5.032  1.00 20.00     0.089 C 
ENDBRANCH   7   8
ENDBRANCH   2   7
TORSDOF 4
ENDMDL
MODEL 3
REMARK VINA RESULT:      -3.1     12.788     13.351
REMARK  4 active torsions:
REMARK  status: ('A' for Active; 'I' for Inactive)
REMARK    1  A    between atoms: C1_1  and  C6_6 
REMARK    2  A    between atoms: C1_1  and  O8_8 
REMARK    3  A    between atoms: C5_5  and  C6_6 
REMARK    4  A    between atoms: C5_5  and  S9_9 
ROOT
HETATM    1  C2  UNL     1     -34.007   6.239   6.679  1.00 20.00     0.021 C 
HETATM    2  C6  UNL     1     -34.649   6.392   5.298  1.00 20.00     0.090 C 
ENDROOT
BRANCH   2   3
HETATM    3  C1  UNL     1     -34.281   5.227   4.389  1.00 20.00     0.263 C 
HETATM    4  O7  UNL     1     -34.272   4.052   4.729  1.00 20.00    -0.265 OA
BRANCH   3   5
HETATM    5  O8  UNL     1     -33.961   5.700   3.147  1.00 20.00    -0.326 OA
HETATM    6  C3  UNL     1     -32.796   5.123   2.550  1.00 20.00     0.213 C 
ENDBRANCH   3   5
ENDBRANCH   2   3
BRANCH   2   7
HETATM    7  C5  UNL     1     -34.343   7.748   4.648  1.00 20.00     0.087 C 
BRANCH   7   8
HETATM    8  S9  UNL     1     -32.627   8.324   4.852  1.00 20.00    -0.173 SA
HETATM    9  C4  UNL     1     -32.315   8.814   3.142  1.00 20.00     0.089 C 
ENDBRANCH   7   8
ENDBRANCH   2   7
TORSDOF 4
ENDMDL
MODEL 4
REMARK VINA RESULT:      -3.0      5.126      7.216
REMARK  4 active torsions:
REMARK  status: ('A' for Active; 'I' for Inactive)
REMARK    1  A    between atoms: C1_1  and  C6_6 
REMARK    2  A    between atoms: C1_1  and  O8_8 
REMARK    3  A    between atoms: C5_5  and  C6_6 
REMARK    4  A    between atoms: C5_5  and  S9_9 
ROOT
HETATM    1  C2  UNL     1     -34.297  15.678  -6.785  1.00 20.00     0.021 C 
HETATM    2  C6  UNL     1     -34.450  14.703  -5.616  1.00 20.00     0.090 C 
ENDROOT
BRANCH   2   3
HETATM    3  C1  UNL     1     -35.916  14.396  -5.345  1.00 20.00     0.263 C 
HETATM    4  O7  UNL     1     -36.318  13.526  -4.583  1.00 20.00    -0.265 OA
BRANCH   3   5
HETATM    5  O8  UNL     1     -36.704  15.233  -6.084  1.00 20.00    -0.326 OA
HETATM    6  C3  UNL     1     -37.564  16.094  -5.333  1.00 20.00     0.213 C 
ENDBRANCH   3   5
ENDBRANCH   2   3
BRANCH   2   7
HETATM    7  C5  UNL     1     -33.717  15.172  -4.352  1.00 20.00     0.087 C 
BRANCH   7   8
HETATM    8  S9  UNL     1     -33.961  16.928  -3.934  1.00 20.00    -0.173 SA
HETATM    9  C4  UNL     1     -33.367  16.871  -2.229  1.00 20.00     0.089 C 
ENDBRANCH   7   8
ENDBRANCH   2   7
TORSDOF 4
ENDMDL
MODEL 5
REMARK VINA RESULT:      -3.0     11.216     12.218
REMARK  4 active torsions:
REMARK  status: ('A' for Active; 'I' for Inactive)
REMARK    1  A    between atoms: C1_1  and  C6_6 
REMARK    2  A    between atoms: C1_1  and  O8_8 
REMARK    3  A    between atoms: C5_5  and  C6_6 
REMARK    4  A    between atoms: C5_5  and  S9_9 
ROOT
HETATM    1  C2  UNL     1     -42.023  13.996   5.398  1.00 20.00     0.021 C 
HETATM    2  C6  UNL     1     -40.822  13.875   6.338  1.00 20.00     0.090 C 
ENDROOT
BRANCH   2   3
HETATM    3  C1  UNL     1     -39.988  12.645   6.010  1.00 20.00     0.263 C 
HETATM    4  O7  UNL     1     -39.337  12.004   6.825  1.00 20.00    -0.265 OA
BRANCH   3   5
HETATM    5  O8  UNL     1     -40.075  12.377   4.673  1.00 20.00    -0.326 OA
HETATM    6  C3  UNL     1     -38.985  11.634   4.120  1.00 20.00     0.213 C 
ENDBRANCH   3   5
ENDBRANCH   2   3
BRANCH   2   7
HETATM    7  C5  UNL     1     -41.220  13.921   7.820  1.00 20.00     0.087 C 
BRANCH   7   8
HETATM    8  S9  UNL     1     -40.349  15.180   8.806  1.00 20.00    -0.173 SA
HETATM    9  C4  UNL     1     -40.680  16.608   7.751  1.00 20.00     0.089 C 
ENDBRANCH   7   8
ENDBRANCH   2   7
TORSDOF 4
ENDMDL
MODEL 6
REMARK VINA RESULT:      -3.0      1.564      2.008
REMARK  4 active torsions:
REMARK  status: ('A' for Active; 'I' for Inactive)
REMARK    1  A    between atoms: C1_1  and  C6_6 
REMARK    2  A    between atoms: C1_1  and  O8_8 
REMARK    3  A    between atoms: C5_5  and  C6_6 
REMARK    4  A    between atoms: C5_5  and  S9_9 
ROOT
HETATM    1  C2  UNL     1     -34.851  18.473  -2.053  1.00 20.00     0.021 C 
HETATM    2  C6  UNL     1     -33.687  17.616  -1.553  1.00 20.00     0.090 C 
ENDROOT
BRANCH   2   3
HETATM    3  C1  UNL     1     -32.522  18.484  -1.095  1.00 20.00     0.263 C 
HETATM    4  O7  UNL     1     -31.855  19.201  -1.829  1.00 20.00    -0.265 OA
BRANCH   3   5
HETATM    5  O8  UNL     1     -32.338  18.330   0.250  1.00 20.00    -0.326 OA
HETATM    6  C3  UNL     1     -31.001  18.533   0.717  1.00 20.00     0.213 C 
ENDBRANCH   3   5
ENDBRANCH   2   3
BRANCH   2   7
HETATM    7  C5  UNL     1     -33.248  16.556  -2.572  1.00 20.00     0.087 C 
BRANCH   7   8
HETATM    8  S9  UNL     1     -34.067  16.671  -4.194  1.00 20.00    -0.173 SA
HETATM    9  C4  UNL     1     -34.073  14.911  -4.604  1.00 20.00     0.089 C 
ENDBRANCH   7   8
ENDBRANCH   2   7
TORSDOF 4
ENDMDL
MODEL 7
REMARK VINA RESULT:      -3.0      3.775      5.828
REMARK  4 active torsions:
REMARK  status: ('A' for Active; 'I' for Inactive)
REMARK    1  A    between atoms: C1_1  and  C6_6 
REMARK    2  A    between atoms: C1_1  and  O8_8 
REMARK    3  A    between atoms: C5_5  and  C6_6 
REMARK    4  A    between atoms: C5_5  and  S9_9 
ROOT
HETATM    1  C2  UNL     1     -34.116  17.697  -4.496  1.00 20.00     0.021 C 
HETATM    2  C6  UNL     1     -33.420  16.499  -3.848  1.00 20.00     0.090 C 
ENDROOT
BRANCH   2   3
HETATM    3  C1  UNL     1     -33.942  15.186  -4.415  1.00 20.00     0.263 C 
HETATM    4  O7  UNL     1     -33.461  14.085  -4.184  1.00 20.00    -0.265 OA
BRANCH   3   5
HETATM    5  O8  UNL     1     -35.018  15.432  -5.221  1.00 20.00    -0.326 OA
HETATM    6  C3  UNL     1     -35.948  14.353  -5.355  1.00 20.00     0.213 C 
ENDBRANCH   3   5
ENDBRANCH   2   3
BRANCH   2   7
HETATM    7  C5  UNL     1     -33.488  16.530  -2.315  1.00 20.00     0.087 C 
BRANCH   7   8
HETATM    8  S9  UNL     1     -32.770  18.018  -1.548  1.00 20.00    -0.173 SA
HETATM    9  C4  UNL     1     -33.790  18.056  -0.058  1.00 20.00     0.089 C 
ENDBRANCH   7   8
ENDBRANCH   2   7
TORSDOF 4
ENDMDL
MODEL 8
REMARK VINA RESULT:      -2.9      4.462      6.197
REMARK  4 active torsions:
REMARK  status: ('A' for Active; 'I' for Inactive)
REMARK    1  A    between atoms: C1_1  and  C6_6 
REMARK    2  A    between atoms: C1_1  and  O8_8 
REMARK    3  A    between atoms: C5_5  and  C6_6 
REMARK    4  A    between atoms: C5_5  and  S9_9 
ROOT
HETATM    1  C2  UNL     1     -34.040  15.333  -6.815  1.00 20.00     0.021 C 
HETATM    2  C6  UNL     1     -34.784  15.477  -5.486  1.00 20.00     0.090 C 
ENDROOT
BRANCH   2   3
HETATM    3  C1  UNL     1     -34.059  14.741  -4.367  1.00 20.00     0.263 C 
HETATM    4  O7  UNL     1     -34.386  13.649  -3.924  1.00 20.00    -0.265 OA
BRANCH   3   5
HETATM    5  O8  UNL     1     -33.000  15.491  -3.938  1.00 20.00    -0.326 OA
HETATM    6  C3  UNL     1     -33.311  16.501  -2.974  1.00 20.00     0.213 C 
ENDBRANCH   3   5
ENDBRANCH   2   3
BRANCH   2   7
HETATM    7  C5  UNL     1     -36.260  15.066  -5.583  1.00 20.00     0.087 C 
BRANCH   7   8
HETATM    8  S9  UNL     1     -37.442  16.451  -5.560  1.00 20.00    -0.173 SA
HETATM    9  C4  UNL     1     -36.335  17.723  -4.912  1.00 20.00     0.089 C 
ENDBRANCH   7   8
ENDBRANCH   2   7
TORSDOF 4
ENDMDL
MODEL 9
REMARK VINA RESULT:      -2.9      1.635      1.821
REMARK  4 active torsions:
REMARK  status: ('A' for Active; 'I' for Inactive)
REMARK    1  A    between atoms: C1_1  and  C6_6 
REMARK    2  A    between atoms: C1_1  and  O8_8 
REMARK    3  A    between atoms: C5_5  and  C6_6 
REMARK    4  A    between atoms: C5_5  and  S9_9 
ROOT
HETATM    1  C2  UNL     1     -33.601  17.144  -1.533  1.00 20.00     0.021 C 
HETATM    2  C6  UNL     1     -32.488  18.119  -1.922  1.00 20.00     0.090 C 
ENDROOT
BRANCH   2   3
HETATM    3  C1  UNL     1     -31.807  18.697  -0.689  1.00 20.00     0.263 C 
HETATM    4  O7  UNL     1     -30.604  18.653  -0.470  1.00 20.00    -0.265 OA
BRANCH   3   5
HETATM    5  O8  UNL     1     -32.745  19.262   0.129  1.00 20.00    -0.326 OA
HETATM    6  C3  UNL     1     -32.513  19.106   1.532  1.00 20.00     0.213 C 
ENDBRANCH   3   5
ENDBRANCH   2   3
BRANCH   2   7
HETATM    7  C5  UNL     1     -32.967  19.217  -2.881  1.00 20.00     0.087 C 
BRANCH   7   8
HETATM    8  S9  UNL     1     -34.677  19.017  -3.478  1.00 20.00    -0.173 SA
HETATM    9  C4  UNL     1     -34.304  18.253  -5.072  1.00 20.00     0.089 C 
ENDBRANCH   7   8
ENDBRANCH   2   7
TORSDOF 4
ENDMDL
