MODEL 1
REMARK VINA RESULT:      -3.6      0.000      0.000
REMARK  4 active torsions:
REMARK  status: ('A' for Active; 'I' for Inactive)
REMARK    1  A    between atoms: C3_3  and  C4_4 
REMARK    2  A    between atoms: C4_4  and  N7_7 
REMARK    3  A    between atoms: C5_5  and  C6_6 
REMARK    4  A    between atoms: C5_5  and  N7_7 
ROOT
HETATM    1  C2  UNL     1     -34.466   4.973   6.441  1.00 20.00     0.309 C 
HETATM    2  N7  UNL     1     -34.710   6.244   5.761  1.00 20.00     0.085 N 
ENDROOT
BRANCH   2   3
HETATM    3  C4  UNL     1     -34.769   6.045   4.312  1.00 20.00     0.271 C 
BRANCH   3   4
HETATM    4  C3  UNL     1     -33.926   4.861   3.855  1.00 20.00     0.026 C 
HETATM    5  C1  UNL     1     -32.984   5.216   2.713  1.00 20.00     0.007 C 
ENDBRANCH   3   4
ENDBRANCH   2   3
BRANCH   2   6
HETATM    6  C5  UNL     1     -33.669   7.214   6.101  1.00 20.00     0.286 C 
BRANCH   6   7
HETATM    7  C6  UNL     1     -33.566   8.338   5.084  1.00 20.00     0.144 C 
HETATM    8 CL8  UNL     1     -31.977   8.343   4.282  1.00 20.00    -0.129 Cl
ENDBRANCH   6   7
ENDBRANCH   2   6
TORSDOF 4
ENDMDL
MODEL 2
REMARK VINA RESULT:      -3.3      2.230      3.344
REMARK  4 active torsions:
REMARK  status: ('A' for Active; 'I' for Inactive)
REMARK    1  A    between atoms: C3_3  and  C4_4 
REMARK    2  A    between atoms: C4_4  and  N7_7 
REMARK    3  A    between atoms: C5_5  and  C6_6 
REMARK    4  A    between atoms: C5_5  and  N7_7 
ROOT
HETATM    1  C2  UNL     1     -32.947   6.092   3.142  1.00 20.00     0.309 C 
HETATM    2  N7  UNL     1     -32.764   7.258   4.004  1.00 20.00     0.085 N 
ENDROOT
BRANCH   2   3
HETATM    3  C4  UNL     1     -33.959   7.484   4.819  1.00 20.00     0.271 C 
BRANCH   3   4
HETATM    4  C3  UNL     1     -33.853   6.839   6.195  1.00 20.00     0.026 C 
HETATM    5  C1  UNL     1     -34.614   5.524   6.289  1.00 20.00     0.007 C 
ENDBRANCH   3   4
ENDBRANCH   2   3
BRANCH   2   6
HETATM    6  C5  UNL     1     -32.462   8.444   3.203  1.00 20.00     0.286 C 
BRANCH   6   7
HETATM    7  C6  UNL     1     -32.209   8.111   1.742  1.00 20.00     0.144 C 
HETATM    8 CL8  UNL     1     -32.699   9.451   0.677  1.00 20.00    -0.129 Cl
ENDBRANCH   6   7
ENDBRANCH   2   6
TORSDOF 4
ENDMDL
MODEL 3
REMARK VINA RESULT:      -3.3      1.803      2.973
REMARK  4 active torsions:
REMARK  status: ('A' for Active; 'I' for Inactive)
REMARK    1  A    between atoms: C3_3  and  C4_4 
REMARK    2  A    between atoms: C4_4  and  N7_7 
REMARK    3  A    between atoms: C5_5  and  C6_6 
REMARK    4  A    between atoms: C5_5  and  N7_7 
ROOT
HETATM    1  C2  UNL     1     -34.402   6.647   6.754  1.00 20.00     0.309 C 
HETATM    2  N7  UNL     1     -33.848   6.682   5.401  1.00 20.00     0.085 N 
ENDROOT
BRANCH   2   3
HETATM    3  C4  UNL     1     -33.724   8.063   4.935  1.00 20.00     0.271 C 
BRANCH   3   4
HETATM    4  C3  UNL     1     -32.336   8.369   4.387  1.00 20.00     0.026 C 
HETATM    5  C1  UNL     1     -32.304   8.433   2.867  1.00 20.00     0.007 C 
ENDBRANCH   3   4
ENDBRANCH   2   3
BRANCH   2   6
HETATM    6  C5  UNL     1     -34.685   5.907   4.485  1.00 20.00     0.286 C 
BRANCH   6   7
HETATM    7  C6  UNL     1     -33.995   4.646   3.992  1.00 20.00     0.144 C 
HETATM    8 CL8  UNL     1     -32.919   4.992   2.616  1.00 20.00    -0.129 Cl
ENDBRANCH   6   7
ENDBRANCH   2   6
TORSDOF 4
ENDMDL
MODEL 4
REMARK VINA RESULT:      -3.3      2.212      3.486
REMARK  4 active torsions:
REMARK  status: ('A' for Active; 'I' for Inactive)
REMARK    1  A    between atoms: C3_3  and  C4_4 
REMARK    2  A    between atoms: C4_4  and  N7_7 
REMARK    3  A    between atoms: C5_5  and  C6_6 
REMARK    4  A    between atoms: C5_5  and  N7_7 
ROOT
HETATM    1  C2  UNL     1     -32.287   9.175   5.202  1.00 20.00     0.309 C 
HETATM    2  N7  UNL     1     -32.937   8.373   4.166  1.00 20.00     0.085 N 
ENDROOT
BRANCH   2   3
HETATM    3  C4  UNL     1     -34.085   7.656   4.722  1.00 20.00     0.271 C 
BRANCH   3   4
HETATM    4  C3  UNL     1     -33.772   7.010   6.065  1.00 20.00     0.026 C 
HETATM    5  C1  UNL     1     -34.533   5.711   6.286  1.00 20.00     0.007 C 
ENDBRANCH   3   4
ENDBRANCH   2   3
BRANCH   2   6
HETATM    6  C5  UNL     1     -31.986   7.434   3.574  1.00 20.00     0.286 C 
BRANCH   6   7
HETATM    7  C6  UNL     1     -32.534   6.756   2.330  1.00 20.00     0.144 C 
HETATM    8 CL8  UNL     1     -32.888   5.037   2.631  1.00 20.00    -0.129 Cl
ENDBRANCH   6   7
ENDBRANCH   2   6
TORSDOF 4
ENDMDL
MODEL 5
REMARK VINA RESULT:      -3.3      2.229      3.409
REMARK  4 active torsions:
REMARK  status: ('A' for Active; 'I' for Inactive)
REMARK    1  A    between atoms: C3_3  and  C4_4 
REMARK    2  A    between atoms: C4_4  and  N7_7 
REMARK    3  A    between atoms: C5_5  and  C6_6 
REMARK    4  A    between atoms: C5_5  and  N7_7 
ROOT
HETATM    1  C2  UNL     1     -32.551   8.777   5.048  1.00 20.00     0.309 C 
HETATM    2  N7  UNL     1     -33.074   8.002   3.923  1.00 20.00     0.085 N 
ENDROOT
BRANCH   2   3
HETATM    3  C4  UNL     1     -33.766   6.806   4.406  1.00 20.00     0.271 C 
BRANCH   3   4
HETATM    4  C3  UNL     1     -34.014   6.845   5.908  1.00 20.00     0.026 C 
HETATM    5  C1  UNL     1     -34.621   5.554   6.438  1.00 20.00     0.007 C 
ENDBRANCH   3   4
ENDBRANCH   2   3
BRANCH   2   6
HETATM    6  C5  UNL     1     -31.993   7.632   3.010  1.00 20.00     0.286 C 
BRANCH   6   7
HETATM    7  C6  UNL     1     -32.297   8.000   1.568  1.00 20.00     0.144 C 
HETATM    8 CL8  UNL     1     -32.862   9.683   1.434  1.00 20.00    -0.129 Cl
ENDBRANCH   6   7
ENDBRANCH   2   6
TORSDOF 4
ENDMDL
MODEL 6
REMARK VINA RESULT:      -3.3      2.208      2.996
REMARK  4 active torsions:
REMARK  status: ('A' for Active; 'I' for Inactive)
REMARK    1  A    between atoms: C3_3  and  C4_4 
REMARK    2  A    between atoms: C4_4  and  N7_7 
REMARK    3  A    between atoms: C5_5  and  C6_6 
REMARK    4  A    between atoms: C5_5  and  N7_7 
ROOT
HETATM    1  C2  UNL     1     -32.168   9.127   4.830  1.00 20.00     0.309 C 
HETATM    2  N7  UNL     1     -32.534   7.724   4.645  1.00 20.00     0.085 N 
ENDROOT
BRANCH   2   3
HETATM    3  C4  UNL     1     -32.256   7.300   3.272  1.00 20.00     0.271 C 
BRANCH   3   4
HETATM    4  C3  UNL     1     -33.344   6.391   2.714  1.00 20.00     0.026 C 
HETATM    5  C1  UNL     1     -32.912   4.934   2.637  1.00 20.00     0.007 C 
ENDBRANCH   3   4
ENDBRANCH   2   3
BRANCH   2   6
HETATM    6  C5  UNL     1     -33.945   7.516   4.968  1.00 20.00     0.286 C 
BRANCH   6   7
HETATM    7  C6  UNL     1     -34.143   6.877   6.332  1.00 20.00     0.144 C 
HETATM    8 CL8  UNL     1     -34.423   5.124   6.192  1.00 20.00    -0.129 Cl
ENDBRANCH   6   7
ENDBRANCH   2   6
TORSDOF 4
ENDMDL
MODEL 7
REMARK VINA RESULT:      -3.3      1.549      2.728
REMARK  4 active torsions:
REMARK  status: ('A' for Active; 'I' for Inactive)
REMARK    1  A    between atoms: C3_3  and  C4_4 
REMARK    2  A    between atoms: C4_4  and  N7_7 
REMARK    3  A    between atoms: C5_5  and  C6_6 
REMARK    4  A    between atoms: C5_5  and  N7_7 
ROOT
HETATM    1  C2  UNL     1     -32.985   5.104   2.592  1.00 20.00     0.309 C 
HETATM    2  N7  UNL     1     -32.883   6.140   3.619  1.00 20.00     0.085 N 
ENDROOT
BRANCH   2   3
HETATM    3  C4  UNL     1     -34.212   6.492   4.121  1.00 20.00     0.271 C 
BRANCH   3   4
HETATM    4  C3  UNL     1     -34.839   5.371   4.940  1.00 20.00     0.026 C 
HETATM    5  C1  UNL     1     -34.525   5.480   6.425  1.00 20.00     0.007 C 
ENDBRANCH   3   4
ENDBRANCH   2   3
BRANCH   2   6
HETATM    6  C5  UNL     1     -32.208   7.323   3.087  1.00 20.00     0.286 C 
BRANCH   6   7
HETATM    7  C6  UNL     1     -32.844   8.619   3.561  1.00 20.00     0.144 C 
HETATM    8 CL8  UNL     1     -32.207   9.110   5.150  1.00 20.00    -0.129 Cl
ENDBRANCH   6   7
ENDBRANCH   2   6
TORSDOF 4
ENDMDL
MODEL 8
REMARK VINA RESULT:      -3.2      2.910      3.700
REMARK  4 active torsions:
REMARK  status: ('A' for Active; 'I' for Inactive)
REMARK    1  A    between atoms: C3_3  and  C4_4 
REMARK    2  A    between atoms: C4_4  and  N7_7 
REMARK    3  A    between atoms: C5_5  and  C6_6 
REMARK    4  A    between atoms: C5_5  and  N7_7 
ROOT
HETATM    1  C2  UNL     1     -32.243   9.072   4.828  1.00 20.00     0.309 C 
HETATM    2  N7  UNL     1     -32.491   7.715   4.343  1.00 20.00     0.085 N 
ENDROOT
BRANCH   2   3
HETATM    3  C4  UNL     1     -32.301   7.648   2.894  1.00 20.00     0.271 C 
BRANCH   3   4
HETATM    4  C3  UNL     1     -32.645   8.961   2.202  1.00 20.00     0.026 C 
HETATM    5  C1  UNL     1     -32.483   8.889   0.690  1.00 20.00     0.007 C 
ENDBRANCH   3   4
ENDBRANCH   2   3
BRANCH   2   6
HETATM    6  C5  UNL     1     -33.842   7.282   4.701  1.00 20.00     0.286 C 
BRANCH   6   7
HETATM    7  C6  UNL     1     -33.959   6.891   6.165  1.00 20.00     0.144 C 
HETATM    8 CL8  UNL     1     -34.678   5.273   6.347  1.00 20.00    -0.129 Cl
ENDBRANCH   6   7
ENDBRANCH   2   6
TORSDOF 4
ENDMDL
MODEL 9
REMARK VINA RESULT:      -2.9      2.082      3.519
REMARK  4 active torsions:
REMARK  status: ('A' for Active; 'I' for Inactive)
REMARK    1  A    between atoms: C3_3  and  C4_4 
REMARK    2  A    between atoms: C4_4  and  N7_7 
REMARK    3  A    between atoms: C5_5  and  C6_6 
REMARK    4  A    between atoms: C5_5  and  N7_7 
ROOT
HETATM    1  C2  UNL     1     -32.939   4.954   2.124  1.00 20.00     0.309 C 
HETATM    2  N7  UNL     1     -33.466   5.832   3.169  1.00 20.00     0.085 N 
ENDROOT
BRANCH   2   3
HETATM    3  C4  UNL     1     -32.423   6.740   3.647  1.00 20.00     0.271 C 
BRANCH   3   4
HETATM    4  C3  UNL     1     -32.876   8.194   3.651  1.00 20.00     0.026 C 
HETATM    5  C1  UNL     1     -32.399   8.956   4.879  1.00 20.00     0.007 C 
ENDBRANCH   3   4
ENDBRANCH   2   3
BRANCH   2   6
HETATM    6  C5  UNL     1     -34.004   5.043   4.277  1.00 20.00     0.286 C 
BRANCH   6   7
HETATM    7  C6  UNL     1     -35.090   5.779   5.043  1.00 20.00     0.144 C 
HETATM    8 CL8  UNL     1     -34.461   6.462   6.563  1.00 20.00    -0.129 Cl
ENDBRANCH   6   7
ENDBRANCH   2   6
TORSDOF 4
ENDMDL
