MODEL 1
REMARK VINA RESULT:      -3.9      0.000      0.000
REMARK  3 active torsions:
REMARK  status: ('A' for Active; 'I' for Inactive)
REMARK    1  A    between atoms: C1_1  and  N8_8 
REMARK    2  A    between atoms: C6_6  and  C7_7 
REMARK    3  A    between atoms: C6_6  and  N8_8 
ROOT
HETATM    1  C2  UNL     1     -33.189   7.863   5.675  1.00 20.00     0.033 C 
HETATM    2  C6  UNL     1     -33.722   7.102   4.459  1.00 20.00     0.087 C 
ENDROOT
BRANCH   2   3
HETATM    3  C7  UNL     1     -34.512   5.795   4.794  1.00 20.00    -0.031 C 
HETATM    4  C3  UNL     1     -33.850   4.544   4.185  1.00 20.00     0.016 C 
HETATM    5  C4  UNL     1     -34.608   5.600   6.320  1.00 20.00     0.016 C 
HETATM    6  C5  UNL     1     -35.952   5.900   4.245  1.00 20.00     0.016 C 
ENDBRANCH   2   3
BRANCH   2   7
HETATM    7  N8  UNL     1     -32.625   6.853   3.547  1.00 20.00    -0.363 N 
HETATM    8  H24 UNL     1     -32.239   5.916   3.502  1.00 20.00     0.162 HD
BRANCH   7   9
HETATM    9  C1  UNL     1     -32.081   7.824   2.740  1.00 20.00     0.348 C 
HETATM   10  O9  UNL     1     -32.140   7.912   1.520  1.00 20.00    -0.284 OA
ENDBRANCH   7   9
ENDBRANCH   2   7
TORSDOF 3
ENDMDL
MODEL 2
REMARK VINA RESULT:      -3.9      0.037      1.437
REMARK  3 active torsions:
REMARK  status: ('A' for Active; 'I' for Inactive)
REMARK    1  A    between atoms: C1_1  and  N8_8 
REMARK    2  A    between atoms: C6_6  and  C7_7 
REMARK    3  A    between atoms: C6_6  and  N8_8 
ROOT
HETATM    1  C2  UNL     1     -33.180   7.900   5.673  1.00 20.00     0.033 C 
HETATM    2  C6  UNL     1     -33.721   7.135   4.463  1.00 20.00     0.087 C 
ENDROOT
BRANCH   2   3
HETATM    3  C7  UNL     1     -34.522   5.837   4.808  1.00 20.00    -0.031 C 
HETATM    4  C3  UNL     1     -34.603   5.591   6.327  1.00 20.00     0.016 C 
HETATM    5  C4  UNL     1     -35.957   5.926   4.252  1.00 20.00     0.016 C 
HETATM    6  C5  UNL     1     -33.843   4.614   4.152  1.00 20.00     0.016 C 
ENDBRANCH   2   3
BRANCH   2   7
HETATM    7  N8  UNL     1     -32.627   6.868   3.552  1.00 20.00    -0.363 N 
HETATM    8  H24 UNL     1     -32.246   5.929   3.517  1.00 20.00     0.162 HD
BRANCH   7   9
HETATM    9  C1  UNL     1     -32.079   7.827   2.732  1.00 20.00     0.348 C 
HETATM   10  O9  UNL     1     -32.132   7.897   1.511  1.00 20.00    -0.284 OA
ENDBRANCH   7   9
ENDBRANCH   2   7
TORSDOF 3
ENDMDL
MODEL 3
REMARK VINA RESULT:      -3.8      1.745      2.476
REMARK  3 active torsions:
REMARK  status: ('A' for Active; 'I' for Inactive)
REMARK    1  A    between atoms: C1_1  and  N8_8 
REMARK    2  A    between atoms: C6_6  and  C7_7 
REMARK    3  A    between atoms: C6_6  and  N8_8 
ROOT
HETATM    1  C2  UNL     1     -32.930   5.666   2.732  1.00 20.00     0.033 C 
HETATM    2  C6  UNL     1     -33.133   6.427   4.044  1.00 20.00     0.087 C 
ENDROOT
BRANCH   2   3
HETATM    3  C7  UNL     1     -34.295   5.892   4.944  1.00 20.00    -0.031 C 
HETATM    4  C3  UNL     1     -34.268   6.509   6.356  1.00 20.00     0.016 C 
HETATM    5  C4  UNL     1     -35.660   6.204   4.302  1.00 20.00     0.016 C 
HETATM    6  C5  UNL     1     -34.184   4.357   5.081  1.00 20.00     0.016 C 
ENDBRANCH   2   3
BRANCH   2   7
HETATM    7  N8  UNL     1     -33.284   7.836   3.748  1.00 20.00    -0.363 N 
HETATM    8  H24 UNL     1     -34.106   8.137   3.237  1.00 20.00     0.162 HD
BRANCH   7   9
HETATM    9  C1  UNL     1     -32.365   8.788   4.127  1.00 20.00     0.348 C 
HETATM   10  O9  UNL     1     -32.198   9.276   5.236  1.00 20.00    -0.284 OA
ENDBRANCH   7   9
ENDBRANCH   2   7
TORSDOF 3
ENDMDL
MODEL 4
REMARK VINA RESULT:      -3.5      0.884      1.732
REMARK  3 active torsions:
REMARK  status: ('A' for Active; 'I' for Inactive)
REMARK    1  A    between atoms: C1_1  and  N8_8 
REMARK    2  A    between atoms: C6_6  and  C7_7 
REMARK    3  A    between atoms: C6_6  and  N8_8 
ROOT
HETATM    1  C2  UNL     1     -33.336   5.204   2.864  1.00 20.00     0.033 C 
HETATM    2  C6  UNL     1     -33.057   6.087   4.082  1.00 20.00     0.087 C 
ENDROOT
BRANCH   2   3
HETATM    3  C7  UNL     1     -34.254   6.235   5.078  1.00 20.00    -0.031 C 
HETATM    4  C3  UNL     1     -34.249   5.137   6.159  1.00 20.00     0.016 C 
HETATM    5  C4  UNL     1     -34.205   7.608   5.778  1.00 20.00     0.016 C 
HETATM    6  C5  UNL     1     -35.589   6.152   4.306  1.00 20.00     0.016 C 
ENDBRANCH   2   3
BRANCH   2   7
HETATM    7  N8  UNL     1     -32.572   7.373   3.626  1.00 20.00    -0.363 N 
HETATM    8  H24 UNL     1     -32.557   8.145   4.284  1.00 20.00     0.162 HD
BRANCH   7   9
HETATM    9  C1  UNL     1     -32.132   7.599   2.342  1.00 20.00     0.348 C 
HETATM   10  O9  UNL     1     -32.434   8.518   1.592  1.00 20.00    -0.284 OA
ENDBRANCH   7   9
ENDBRANCH   2   7
TORSDOF 3
ENDMDL
MODEL 5
REMARK VINA RESULT:      -3.4     12.370     13.399
REMARK  3 active torsions:
REMARK  status: ('A' for Active; 'I' for Inactive)
REMARK    1  A    between atoms: C1_1  and  N8_8 
REMARK    2  A    between atoms: C6_6  and  C7_7 
REMARK    3  A    between atoms: C6_6  and  N8_8 
ROOT
HETATM    1  C2  UNL     1     -33.280  15.050  -4.175  1.00 20.00     0.033 C 
HETATM    2  C6  UNL     1     -34.107  16.266  -4.599  1.00 20.00     0.087 C 
ENDROOT
BRANCH   2   3
HETATM    3  C7  UNL     1     -34.075  17.467  -3.598  1.00 20.00    -0.031 C 
HETATM    4  C3  UNL     1     -33.129  18.589  -4.067  1.00 20.00     0.016 C 
HETATM    5  C4  UNL     1     -35.488  18.061  -3.425  1.00 20.00     0.016 C 
HETATM    6  C5  UNL     1     -33.602  16.978  -2.211  1.00 20.00     0.016 C 
ENDBRANCH   2   3
BRANCH   2   7
HETATM    7  N8  UNL     1     -35.460  15.834  -4.882  1.00 20.00    -0.363 N 
HETATM    8  H24 UNL     1     -36.223  16.468  -4.672  1.00 20.00     0.162 HD
BRANCH   7   9
HETATM    9  C1  UNL     1     -35.762  14.604  -5.420  1.00 20.00     0.348 C 
HETATM   10  O9  UNL     1     -35.942  14.319  -6.597  1.00 20.00    -0.284 OA
ENDBRANCH   7   9
ENDBRANCH   2   7
TORSDOF 3
ENDMDL
MODEL 6
REMARK VINA RESULT:      -3.3     11.993     13.295
REMARK  3 active torsions:
REMARK  status: ('A' for Active; 'I' for Inactive)
REMARK    1  A    between atoms: C1_1  and  N8_8 
REMARK    2  A    between atoms: C6_6  and  C7_7 
REMARK    3  A    between atoms: C6_6  and  N8_8 
ROOT
HETATM    1  C2  UNL     1     -34.470  17.698  -5.338  1.00 20.00     0.033 C 
HETATM    2  C6  UNL     1     -34.221  17.007  -3.995  1.00 20.00     0.087 C 
ENDROOT
BRANCH   2   3
HETATM    3  C7  UNL     1     -33.980  17.975  -2.790  1.00 20.00    -0.031 C 
HETATM    4  C3  UNL     1     -32.890  19.021  -3.093  1.00 20.00     0.016 C 
HETATM    5  C4  UNL     1     -35.281  18.717  -2.428  1.00 20.00     0.016 C 
HETATM    6  C5  UNL     1     -33.545  17.164  -1.549  1.00 20.00     0.016 C 
ENDBRANCH   2   3
BRANCH   2   7
HETATM    7  N8  UNL     1     -33.137  16.059  -4.152  1.00 20.00    -0.363 N 
HETATM    8  H24 UNL     1     -32.186  16.392  -4.046  1.00 20.00     0.162 HD
BRANCH   7   9
HETATM    9  C1  UNL     1     -33.337  14.729  -4.439  1.00 20.00     0.348 C 
HETATM   10  O9  UNL     1     -34.197  13.981  -3.993  1.00 20.00    -0.284 OA
ENDBRANCH   7   9
ENDBRANCH   2   7
TORSDOF 3
ENDMDL
MODEL 7
REMARK VINA RESULT:      -3.3      9.120     10.294
REMARK  3 active torsions:
REMARK  status: ('A' for Active; 'I' for Inactive)
REMARK    1  A    between atoms: C1_1  and  N8_8 
REMARK    2  A    between atoms: C6_6  and  C7_7 
REMARK    3  A    between atoms: C6_6  and  N8_8 
ROOT
HETATM    1  C2  UNL     1     -40.496   5.726  -0.429  1.00 20.00     0.033 C 
HETATM    2  C6  UNL     1     -41.977   6.111  -0.442  1.00 20.00     0.087 C 
ENDROOT
BRANCH   2   3
HETATM    3  C7  UNL     1     -42.369   7.258   0.546  1.00 20.00    -0.031 C 
HETATM    4  C3  UNL     1     -43.262   8.321  -0.122  1.00 20.00     0.016 C 
HETATM    5  C4  UNL     1     -43.121   6.685   1.764  1.00 20.00     0.016 C 
HETATM    6  C5  UNL     1     -41.093   7.954   1.071  1.00 20.00     0.016 C 
ENDBRANCH   2   3
BRANCH   2   7
HETATM    7  N8  UNL     1     -42.771   4.918  -0.228  1.00 20.00    -0.363 N 
HETATM    8  H24 UNL     1     -42.854   4.557   0.716  1.00 20.00     0.162 HD
BRANCH   7   9
HETATM    9  C1  UNL     1     -43.417   4.252  -1.243  1.00 20.00     0.348 C 
HETATM   10  O9  UNL     1     -43.034   4.072  -2.391  1.00 20.00    -0.284 OA
ENDBRANCH   7   9
ENDBRANCH   2   7
TORSDOF 3
ENDMDL
MODEL 8
REMARK VINA RESULT:      -3.2     10.549     11.218
REMARK  3 active torsions:
REMARK  status: ('A' for Active; 'I' for Inactive)
REMARK    1  A    between atoms: C1_1  and  N8_8 
REMARK    2  A    between atoms: C6_6  and  C7_7 
REMARK    3  A    between atoms: C6_6  and  N8_8 
ROOT
HETATM    1  C2  UNL     1     -41.730  15.585   7.365  1.00 20.00     0.033 C 
HETATM    2  C6  UNL     1     -40.667  14.558   6.970  1.00 20.00     0.087 C 
ENDROOT
BRANCH   2   3
HETATM    3  C7  UNL     1     -41.187  13.376   6.088  1.00 20.00    -0.031 C 
HETATM    4  C3  UNL     1     -40.069  12.372   5.744  1.00 20.00     0.016 C 
HETATM    5  C4  UNL     1     -42.315  12.619   6.815  1.00 20.00     0.016 C 
HETATM    6  C5  UNL     1     -41.770  13.927   4.768  1.00 20.00     0.016 C 
ENDBRANCH   2   3
BRANCH   2   7
HETATM    7  N8  UNL     1     -40.005  14.087   8.169  1.00 20.00    -0.363 N 
HETATM    8  H24 UNL     1     -39.214  13.460   8.069  1.00 20.00     0.162 HD
BRANCH   7   9
HETATM    9  C1  UNL     1     -40.398  14.448   9.437  1.00 20.00     0.348 C 
HETATM   10  O9  UNL     1     -40.871  13.734  10.312  1.00 20.00    -0.284 OA
ENDBRANCH   7   9
ENDBRANCH   2   7
TORSDOF 3
ENDMDL
MODEL 9
REMARK VINA RESULT:      -3.2     11.813     13.048
REMARK  3 active torsions:
REMARK  status: ('A' for Active; 'I' for Inactive)
REMARK    1  A    between atoms: C1_1  and  N8_8 
REMARK    2  A    between atoms: C6_6  and  C7_7 
REMARK    3  A    between atoms: C6_6  and  N8_8 
ROOT
HETATM    1  C2  UNL     1     -35.185  17.808  -4.269  1.00 20.00     0.033 C 
HETATM    2  C6  UNL     1     -34.286  16.578  -4.414  1.00 20.00     0.087 C 
ENDROOT
BRANCH   2   3
HETATM    3  C7  UNL     1     -34.889  15.418  -5.274  1.00 20.00    -0.031 C 
HETATM    4  C3  UNL     1     -36.338  15.709  -5.708  1.00 20.00     0.016 C 
HETATM    5  C4  UNL     1     -34.038  15.189  -6.539  1.00 20.00     0.016 C 
HETATM    6  C5  UNL     1     -34.878  14.105  -4.460  1.00 20.00     0.016 C 
ENDBRANCH   2   3
BRANCH   2   7
HETATM    7  N8  UNL     1     -33.897  16.125  -3.094  1.00 20.00    -0.363 N 
HETATM    8  H24 UNL     1     -34.059  15.155  -2.850  1.00 20.00     0.162 HD
BRANCH   7   9
HETATM    9  C1  UNL     1     -33.319  16.949  -2.156  1.00 20.00     0.348 C 
HETATM   10  O9  UNL     1     -33.749  17.252  -1.051  1.00 20.00    -0.284 OA
ENDBRANCH   7   9
ENDBRANCH   2   7
TORSDOF 3
ENDMDL
