MODEL 1
REMARK VINA RESULT:      -4.8      0.000      0.000
REMARK  1 active torsions:
REMARK  status: ('A' for Active; 'I' for Inactive)
REMARK    1  A    between atoms: C3_3  and  C7_7 
ROOT
HETATM    1  C1  UNL     1     -32.641   8.462   3.792  1.00 20.00    -0.030 C 
HETATM    2  C2  UNL     1     -32.378   7.275   3.229  1.00 20.00    -0.025 C 
HETATM    3  C4  UNL     1     -33.497   8.625   5.010  1.00 20.00     0.028 C 
HETATM    4  C5  UNL     1     -33.789   7.298   5.716  1.00 20.00     0.021 C 
HETATM    5  C6  UNL     1     -32.937   5.965   3.737  1.00 20.00     0.018 C 
HETATM    6  C7  UNL     1     -34.128   6.160   4.728  1.00 20.00     0.016 C 
HETATM    7  C8  UNL     1     -33.283   5.054   2.552  1.00 20.00     0.015 C 
HETATM    8  C9  UNL     1     -35.469   6.441   4.028  1.00 20.00     0.023 C 
ENDROOT
BRANCH   6   9
HETATM    9  C3  UNL     1     -34.298   4.907   5.554  1.00 20.00     0.241 C 
HETATM   10  O10 UNL     1     -34.401   4.912   6.776  1.00 20.00    -0.306 OA
ENDBRANCH   6   9
TORSDOF 1
ENDMDL
MODEL 2
REMARK VINA RESULT:      -4.0      1.675      2.864
REMARK  1 active torsions:
REMARK  status: ('A' for Active; 'I' for Inactive)
REMARK    1  A    between atoms: C3_3  and  C7_7 
ROOT
HETATM    1  C1  UNL     1     -34.192   6.976   6.832  1.00 20.00    -0.030 C 
HETATM    2  C2  UNL     1     -33.489   7.594   5.873  1.00 20.00    -0.025 C 
HETATM    3  C4  UNL     1     -34.810   5.623   6.660  1.00 20.00     0.028 C 
HETATM    4  C5  UNL     1     -34.313   4.895   5.408  1.00 20.00     0.021 C 
HETATM    5  C6  UNL     1     -33.262   7.012   4.496  1.00 20.00     0.018 C 
HETATM    6  C7  UNL     1     -34.222   5.822   4.176  1.00 20.00     0.016 C 
HETATM    7  C8  UNL     1     -33.318   8.129   3.445  1.00 20.00     0.015 C 
HETATM    8  C9  UNL     1     -35.628   6.268   3.738  1.00 20.00     0.023 C 
ENDROOT
BRANCH   6   9
HETATM    9  C3  UNL     1     -33.634   4.996   3.057  1.00 20.00     0.241 C 
HETATM   10  O10 UNL     1     -32.499   5.159   2.621  1.00 20.00    -0.306 OA
ENDBRANCH   6   9
TORSDOF 1
ENDMDL
MODEL 3
REMARK VINA RESULT:      -3.8     12.681     13.921
REMARK  1 active torsions:
REMARK  status: ('A' for Active; 'I' for Inactive)
REMARK    1  A    between atoms: C3_3  and  C7_7 
ROOT
HETATM    1  C1  UNL     1     -33.583  16.174  -3.592  1.00 20.00    -0.030 C 
HETATM    2  C2  UNL     1     -34.498  17.033  -4.062  1.00 20.00    -0.025 C 
HETATM    3  C4  UNL     1     -33.197  14.912  -4.298  1.00 20.00     0.028 C 
HETATM    4  C5  UNL     1     -33.720  14.848  -5.736  1.00 20.00     0.021 C 
HETATM    5  C6  UNL     1     -35.270  16.813  -5.344  1.00 20.00     0.018 C 
HETATM    6  C7  UNL     1     -35.177  15.343  -5.862  1.00 20.00     0.016 C 
HETATM    7  C8  UNL     1     -36.714  17.301  -5.170  1.00 20.00     0.015 C 
HETATM    8  C9  UNL     1     -36.134  14.377  -5.141  1.00 20.00     0.023 C 
ENDROOT
BRANCH   6   9
HETATM    9  C3  UNL     1     -35.519  15.311  -7.333  1.00 20.00     0.241 C 
HETATM   10  O10 UNL     1     -36.210  14.438  -7.847  1.00 20.00    -0.306 OA
ENDBRANCH   6   9
TORSDOF 1
ENDMDL
MODEL 4
REMARK VINA RESULT:      -3.7      0.922      1.176
REMARK  1 active torsions:
REMARK  status: ('A' for Active; 'I' for Inactive)
REMARK    1  A    between atoms: C3_3  and  C7_7 
ROOT
HETATM    1  C1  UNL     1     -32.306   7.673   2.639  1.00 20.00    -0.030 C 
HETATM    2  C2  UNL     1     -32.478   6.357   2.824  1.00 20.00    -0.025 C 
HETATM    3  C4  UNL     1     -32.692   8.704   3.654  1.00 20.00     0.028 C 
HETATM    4  C5  UNL     1     -33.015   8.102   5.024  1.00 20.00     0.021 C 
HETATM    5  C6  UNL     1     -33.107   5.760   4.062  1.00 20.00     0.018 C 
HETATM    6  C7  UNL     1     -33.867   6.818   4.924  1.00 20.00     0.016 C 
HETATM    7  C8  UNL     1     -33.980   4.560   3.674  1.00 20.00     0.015 C 
HETATM    8  C9  UNL     1     -35.272   7.149   4.390  1.00 20.00     0.023 C 
ENDROOT
BRANCH   6   9
HETATM    9  C3  UNL     1     -34.025   6.293   6.331  1.00 20.00     0.241 C 
HETATM   10  O10 UNL     1     -34.881   5.476   6.655  1.00 20.00    -0.306 OA
ENDBRANCH   6   9
TORSDOF 1
ENDMDL
MODEL 5
REMARK VINA RESULT:      -3.7      2.061      3.642
REMARK  1 active torsions:
REMARK  status: ('A' for Active; 'I' for Inactive)
REMARK    1  A    between atoms: C3_3  and  C7_7 
ROOT
HETATM    1  C1  UNL     1     -34.093   4.553   4.021  1.00 20.00    -0.030 C 
HETATM    2  C2  UNL     1     -34.130   4.994   5.286  1.00 20.00    -0.025 C 
HETATM    3  C4  UNL     1     -33.455   5.315   2.901  1.00 20.00     0.028 C 
HETATM    4  C5  UNL     1     -32.597   6.485   3.388  1.00 20.00     0.021 C 
HETATM    5  C6  UNL     1     -33.560   6.324   5.725  1.00 20.00     0.018 C 
HETATM    6  C7  UNL     1     -33.268   7.283   4.527  1.00 20.00     0.016 C 
HETATM    7  C8  UNL     1     -34.468   6.952   6.791  1.00 20.00     0.015 C 
HETATM    8  C9  UNL     1     -34.520   8.011   4.005  1.00 20.00     0.023 C 
ENDROOT
BRANCH   6   9
HETATM    9  C3  UNL     1     -32.276   8.334   4.962  1.00 20.00     0.241 C 
HETATM   10  O10 UNL     1     -32.217   9.455   4.466  1.00 20.00    -0.306 OA
ENDBRANCH   6   9
TORSDOF 1
ENDMDL
MODEL 6
REMARK VINA RESULT:      -3.5     12.401     13.677
REMARK  1 active torsions:
REMARK  status: ('A' for Active; 'I' for Inactive)
REMARK    1  A    between atoms: C3_3  and  C7_7 
ROOT
HETATM    1  C1  UNL     1     -33.802  17.923  -3.614  1.00 20.00    -0.030 C 
HETATM    2  C2  UNL     1     -33.425  16.653  -3.413  1.00 20.00    -0.025 C 
HETATM    3  C4  UNL     1     -34.933  18.314  -4.514  1.00 20.00     0.028 C 
HETATM    4  C5  UNL     1     -35.796  17.124  -4.941  1.00 20.00     0.021 C 
HETATM    5  C6  UNL     1     -34.074  15.470  -4.095  1.00 20.00     0.018 C 
HETATM    6  C7  UNL     1     -34.956  15.884  -5.316  1.00 20.00     0.016 C 
HETATM    7  C8  UNL     1     -33.008  14.425  -4.449  1.00 20.00     0.015 C 
HETATM    8  C9  UNL     1     -34.145  16.154  -6.595  1.00 20.00     0.023 C 
ENDROOT
BRANCH   6   9
HETATM    9  C3  UNL     1     -35.935  14.775  -5.621  1.00 20.00     0.241 C 
HETATM   10  O10 UNL     1     -36.004  14.215  -6.710  1.00 20.00    -0.306 OA
ENDBRANCH   6   9
TORSDOF 1
ENDMDL
MODEL 7
REMARK VINA RESULT:      -3.5      8.821      9.697
REMARK  1 active torsions:
REMARK  status: ('A' for Active; 'I' for Inactive)
REMARK    1  A    between atoms: C3_3  and  C7_7 
ROOT
HETATM    1  C1  UNL     1     -41.959   8.600  -0.436  1.00 20.00    -0.030 C 
HETATM    2  C2  UNL     1     -40.998   7.668  -0.378  1.00 20.00    -0.025 C 
HETATM    3  C4  UNL     1     -43.318   8.422   0.168  1.00 20.00     0.028 C 
HETATM    4  C5  UNL     1     -43.400   7.216   1.107  1.00 20.00     0.021 C 
HETATM    5  C6  UNL     1     -41.181   6.318   0.278  1.00 20.00     0.018 C 
HETATM    6  C7  UNL     1     -42.681   5.971   0.542  1.00 20.00     0.016 C 
HETATM    7  C8  UNL     1     -40.448   5.243  -0.536  1.00 20.00     0.015 C 
HETATM    8  C9  UNL     1     -43.417   5.448  -0.704  1.00 20.00     0.023 C 
ENDROOT
BRANCH   6   9
HETATM    9  C3  UNL     1     -42.764   4.903   1.605  1.00 20.00     0.241 C 
HETATM   10  O10 UNL     1     -43.316   3.821   1.434  1.00 20.00    -0.306 OA
ENDBRANCH   6   9
TORSDOF 1
ENDMDL
MODEL 8
REMARK VINA RESULT:      -3.4      2.244      3.342
REMARK  1 active torsions:
REMARK  status: ('A' for Active; 'I' for Inactive)
REMARK    1  A    between atoms: C3_3  and  C7_7 
ROOT
HETATM    1  C1  UNL     1     -34.241   5.803   6.149  1.00 20.00    -0.030 C 
HETATM    2  C2  UNL     1     -34.164   5.366   4.884  1.00 20.00    -0.025 C 
HETATM    3  C4  UNL     1     -34.075   7.240   6.536  1.00 20.00     0.028 C 
HETATM    4  C5  UNL     1     -34.111   8.190   5.336  1.00 20.00     0.021 C 
HETATM    5  C6  UNL     1     -33.872   6.266   3.705  1.00 20.00     0.018 C 
HETATM    6  C7  UNL     1     -33.305   7.658   4.131  1.00 20.00     0.016 C 
HETATM    7  C8  UNL     1     -32.973   5.531   2.701  1.00 20.00     0.015 C 
HETATM    8  C9  UNL     1     -31.802   7.632   4.462  1.00 20.00     0.023 C 
ENDROOT
BRANCH   6   9
HETATM    9  C3  UNL     1     -33.508   8.643   3.006  1.00 20.00     0.241 C 
HETATM   10  O10 UNL     1     -32.587   9.119   2.349  1.00 20.00    -0.306 OA
ENDBRANCH   6   9
TORSDOF 1
ENDMDL
MODEL 9
REMARK VINA RESULT:      -3.4      8.662     10.191
REMARK  1 active torsions:
REMARK  status: ('A' for Active; 'I' for Inactive)
REMARK    1  A    between atoms: C3_3  and  C7_7 
ROOT
HETATM    1  C1  UNL     1     -43.131   4.767   1.867  1.00 20.00    -0.030 C 
HETATM    2  C2  UNL     1     -42.697   4.637   0.605  1.00 20.00    -0.025 C 
HETATM    3  C4  UNL     1     -43.389   6.091   2.517  1.00 20.00     0.028 C 
HETATM    4  C5  UNL     1     -43.400   7.254   1.521  1.00 20.00     0.021 C 
HETATM    5  C6  UNL     1     -42.389   5.809  -0.298  1.00 20.00     0.018 C 
HETATM    6  C7  UNL     1     -42.262   7.157   0.481  1.00 20.00     0.016 C 
HETATM    7  C8  UNL     1     -41.158   5.493  -1.157  1.00 20.00     0.015 C 
HETATM    8  C9  UNL     1     -40.896   7.345   1.163  1.00 20.00     0.023 C 
ENDROOT
BRANCH   6   9
HETATM    9  C3  UNL     1     -42.456   8.307  -0.479  1.00 20.00     0.241 C 
HETATM   10  O10 UNL     1     -43.417   9.067  -0.437  1.00 20.00    -0.306 OA
ENDBRANCH   6   9
TORSDOF 1
ENDMDL
