MODEL 1
REMARK VINA RESULT:      -5.0      0.000      0.000
REMARK  2 active torsions:
REMARK  status: ('A' for Active; 'I' for Inactive)
REMARK    1  A    between atoms: C2_2  and  C7_7 
REMARK    2  A    between atoms: C3_3  and  C7_7 
ROOT
HETATM    1  C6  UNL     1     -34.575   5.950   6.346  1.00 20.00     0.022 C 
HETATM    2  C7  UNL     1     -34.604   6.166   4.836  1.00 20.00     0.073 C 
ENDROOT
BRANCH   2   3
HETATM    3  C2  UNL     1     -33.853   7.407   4.445  1.00 20.00    -0.019 C 
HETATM    4  C1  UNL     1     -32.915   7.978   5.214  1.00 20.00    -0.034 C 
HETATM    5  C4  UNL     1     -32.162   9.210   4.830  1.00 20.00     0.036 C 
ENDBRANCH   2   3
BRANCH   2   6
HETATM    6  C3  UNL     1     -33.953   4.995   4.107  1.00 20.00     0.130 C 
HETATM    7  C5  UNL     1     -33.219   5.314   2.828  1.00 20.00     0.091 C 
HETATM    8  O8  UNL     1     -34.048   3.835   4.508  1.00 20.00    -0.298 OA
ENDBRANCH   2   6
TORSDOF 2
ENDMDL
MODEL 2
REMARK VINA RESULT:      -4.2      1.312      1.546
REMARK  2 active torsions:
REMARK  status: ('A' for Active; 'I' for Inactive)
REMARK    1  A    between atoms: C2_2  and  C7_7 
REMARK    2  A    between atoms: C3_3  and  C7_7 
ROOT
HETATM    1  C6  UNL     1     -33.678   5.139   6.803  1.00 20.00     0.022 C 
HETATM    2  C7  UNL     1     -34.607   6.122   6.096  1.00 20.00     0.073 C 
ENDROOT
BRANCH   2   3
HETATM    3  C2  UNL     1     -33.944   7.456   5.896  1.00 20.00    -0.019 C 
HETATM    4  C1  UNL     1     -33.000   7.682   4.971  1.00 20.00    -0.034 C 
HETATM    5  C4  UNL     1     -32.339   9.006   4.764  1.00 20.00     0.036 C 
ENDBRANCH   2   3
BRANCH   2   6
HETATM    6  C3  UNL     1     -35.001   5.602   4.718  1.00 20.00     0.130 C 
HETATM    7  C5  UNL     1     -34.100   4.561   4.101  1.00 20.00     0.091 C 
HETATM    8  O8  UNL     1     -35.981   6.030   4.108  1.00 20.00    -0.298 OA
ENDBRANCH   2   6
TORSDOF 2
ENDMDL
MODEL 3
REMARK VINA RESULT:      -4.1      2.082      3.306
REMARK  2 active torsions:
REMARK  status: ('A' for Active; 'I' for Inactive)
REMARK    1  A    between atoms: C2_2  and  C7_7 
REMARK    2  A    between atoms: C3_3  and  C7_7 
ROOT
HETATM    1  C6  UNL     1     -32.532   9.181   4.139  1.00 20.00     0.022 C 
HETATM    2  C7  UNL     1     -32.511   7.656   4.186  1.00 20.00     0.073 C 
ENDROOT
BRANCH   2   3
HETATM    3  C2  UNL     1     -33.755   7.110   4.829  1.00 20.00    -0.019 C 
HETATM    4  C1  UNL     1     -33.763   6.490   6.018  1.00 20.00    -0.034 C 
HETATM    5  C4  UNL     1     -34.996   5.948   6.664  1.00 20.00     0.036 C 
ENDBRANCH   2   3
BRANCH   2   6
HETATM    6  C3  UNL     1     -32.436   7.070   2.780  1.00 20.00     0.130 C 
HETATM    7  C5  UNL     1     -32.795   5.612   2.632  1.00 20.00     0.091 C 
HETATM    8  O8  UNL     1     -32.062   7.729   1.811  1.00 20.00    -0.298 OA
ENDBRANCH   2   6
TORSDOF 2
ENDMDL
MODEL 4
REMARK VINA RESULT:      -4.0      1.786      3.453
REMARK  2 active torsions:
REMARK  status: ('A' for Active; 'I' for Inactive)
REMARK    1  A    between atoms: C2_2  and  C7_7 
REMARK    2  A    between atoms: C3_3  and  C7_7 
ROOT
HETATM    1  C6  UNL     1     -32.632   7.991   4.608  1.00 20.00     0.022 C 
HETATM    2  C7  UNL     1     -33.941   7.208   4.647  1.00 20.00     0.073 C 
ENDROOT
BRANCH   2   3
HETATM    3  C2  UNL     1     -33.879   5.991   3.768  1.00 20.00    -0.019 C 
HETATM    4  C1  UNL     1     -32.877   5.747   2.911  1.00 20.00    -0.034 C 
HETATM    5  C4  UNL     1     -32.807   4.538   2.037  1.00 20.00     0.036 C 
ENDBRANCH   2   3
BRANCH   2   6
HETATM    6  C3  UNL     1     -34.245   6.728   6.063  1.00 20.00     0.130 C 
HETATM    7  C5  UNL     1     -34.578   5.266   6.227  1.00 20.00     0.091 C 
HETATM    8  O8  UNL     1     -34.262   7.492   7.028  1.00 20.00    -0.298 OA
ENDBRANCH   2   6
TORSDOF 2
ENDMDL
MODEL 5
REMARK VINA RESULT:      -4.0      2.127      3.642
REMARK  2 active torsions:
REMARK  status: ('A' for Active; 'I' for Inactive)
REMARK    1  A    between atoms: C2_2  and  C7_7 
REMARK    2  A    between atoms: C3_3  and  C7_7 
ROOT
HETATM    1  C6  UNL     1     -32.870   5.064   2.717  1.00 20.00     0.022 C 
HETATM    2  C7  UNL     1     -33.466   6.409   3.125  1.00 20.00     0.073 C 
ENDROOT
BRANCH   2   3
HETATM    3  C2  UNL     1     -33.876   6.411   4.571  1.00 20.00    -0.019 C 
HETATM    4  C1  UNL     1     -34.458   5.365   5.177  1.00 20.00    -0.034 C 
HETATM    5  C4  UNL     1     -34.866   5.359   6.614  1.00 20.00     0.036 C 
ENDBRANCH   2   3
BRANCH   2   6
HETATM    6  C3  UNL     1     -32.449   7.531   2.943  1.00 20.00     0.130 C 
HETATM    7  C5  UNL     1     -32.089   8.327   4.173  1.00 20.00     0.091 C 
HETATM    8  O8  UNL     1     -31.968   7.812   1.845  1.00 20.00    -0.298 OA
ENDBRANCH   2   6
TORSDOF 2
ENDMDL
MODEL 6
REMARK VINA RESULT:      -3.9     12.695     13.340
REMARK  2 active torsions:
REMARK  status: ('A' for Active; 'I' for Inactive)
REMARK    1  A    between atoms: C2_2  and  C7_7 
REMARK    2  A    between atoms: C3_3  and  C7_7 
ROOT
HETATM    1  C6  UNL     1     -33.895  19.260   0.338  1.00 20.00     0.022 C 
HETATM    2  C7  UNL     1     -32.950  18.126  -0.046  1.00 20.00     0.073 C 
ENDROOT
BRANCH   2   3
HETATM    3  C2  UNL     1     -32.983  17.862  -1.526  1.00 20.00    -0.019 C 
HETATM    4  C1  UNL     1     -33.451  16.727  -2.066  1.00 20.00    -0.034 C 
HETATM    5  C4  UNL     1     -33.489  16.460  -3.535  1.00 20.00     0.036 C 
ENDBRANCH   2   3
BRANCH   2   6
HETATM    6  C3  UNL     1     -31.510  18.471   0.319  1.00 20.00     0.130 C 
HETATM    7  C5  UNL     1     -31.159  18.457   1.786  1.00 20.00     0.091 C 
HETATM    8  O8  UNL     1     -30.674  18.789  -0.527  1.00 20.00    -0.298 OA
ENDBRANCH   2   6
TORSDOF 2
ENDMDL
MODEL 7
REMARK VINA RESULT:      -3.9      1.134      2.278
REMARK  2 active torsions:
REMARK  status: ('A' for Active; 'I' for Inactive)
REMARK    1  A    between atoms: C2_2  and  C7_7 
REMARK    2  A    between atoms: C3_3  and  C7_7 
ROOT
HETATM    1  C6  UNL     1     -33.410   5.066   2.724  1.00 20.00     0.022 C 
HETATM    2  C7  UNL     1     -33.337   5.780   4.071  1.00 20.00     0.073 C 
ENDROOT
BRANCH   2   3
HETATM    3  C2  UNL     1     -32.987   7.232   3.903  1.00 20.00    -0.019 C 
HETATM    4  C1  UNL     1     -32.616   8.026   4.917  1.00 20.00    -0.034 C 
HETATM    5  C4  UNL     1     -32.265   9.469   4.758  1.00 20.00     0.036 C 
ENDBRANCH   2   3
BRANCH   2   6
HETATM    6  C3  UNL     1     -34.679   5.719   4.792  1.00 20.00     0.130 C 
HETATM    7  C5  UNL     1     -34.647   5.362   6.257  1.00 20.00     0.091 C 
HETATM    8  O8  UNL     1     -35.748   5.908   4.211  1.00 20.00    -0.298 OA
ENDBRANCH   2   6
TORSDOF 2
ENDMDL
MODEL 8
REMARK VINA RESULT:      -3.7     12.542     13.648
REMARK  2 active torsions:
REMARK  status: ('A' for Active; 'I' for Inactive)
REMARK    1  A    between atoms: C2_2  and  C7_7 
REMARK    2  A    between atoms: C3_3  and  C7_7 
ROOT
HETATM    1  C6  UNL     1     -32.699  19.263  -2.870  1.00 20.00     0.022 C 
HETATM    2  C7  UNL     1     -33.122  18.396  -1.688  1.00 20.00     0.073 C 
ENDROOT
BRANCH   2   3
HETATM    3  C2  UNL     1     -33.262  16.954  -2.087  1.00 20.00    -0.019 C 
HETATM    4  C1  UNL     1     -33.419  16.549  -3.355  1.00 20.00    -0.034 C 
HETATM    5  C4  UNL     1     -33.555  15.117  -3.759  1.00 20.00     0.036 C 
ENDBRANCH   2   3
BRANCH   2   6
HETATM    6  C3  UNL     1     -32.085  18.457  -0.571  1.00 20.00     0.130 C 
HETATM    7  C5  UNL     1     -32.609  18.450   0.844  1.00 20.00     0.091 C 
HETATM    8  O8  UNL     1     -30.879  18.549  -0.796  1.00 20.00    -0.298 OA
ENDBRANCH   2   6
TORSDOF 2
ENDMDL
MODEL 9
REMARK VINA RESULT:      -3.7      2.738      3.456
REMARK  2 active torsions:
REMARK  status: ('A' for Active; 'I' for Inactive)
REMARK    1  A    between atoms: C2_2  and  C7_7 
REMARK    2  A    between atoms: C3_3  and  C7_7 
ROOT
HETATM    1  C6  UNL     1     -32.910   5.826   2.860  1.00 20.00     0.022 C 
HETATM    2  C7  UNL     1     -32.555   7.088   3.642  1.00 20.00     0.073 C 
ENDROOT
BRANCH   2   3
HETATM    3  C2  UNL     1     -32.569   8.303   2.757  1.00 20.00    -0.019 C 
HETATM    4  C1  UNL     1     -32.565   8.244   1.418  1.00 20.00    -0.034 C 
HETATM    5  C4  UNL     1     -32.581   9.447   0.532  1.00 20.00     0.036 C 
ENDBRANCH   2   3
BRANCH   2   6
HETATM    6  C3  UNL     1     -33.560   7.334   4.762  1.00 20.00     0.130 C 
HETATM    7  C5  UNL     1     -34.457   6.180   5.135  1.00 20.00     0.091 C 
HETATM    8  O8  UNL     1     -33.674   8.427   5.317  1.00 20.00    -0.298 OA
ENDBRANCH   2   6
TORSDOF 2
ENDMDL
