MODEL 1
REMARK VINA RESULT:      -4.6      0.000      0.000
REMARK  1 active torsions:
REMARK  status: ('A' for Active; 'I' for Inactive)
REMARK    1  A    between atoms: C1_1  and  C2_2 
ROOT
HETATM    1  C2  UNL     1     -34.639   5.722   4.667  1.00 20.00     0.462 C 
HETATM    2  F4  UNL     1     -34.629   4.560   5.368  1.00 20.00    -0.163 F 
HETATM    3  F5  UNL     1     -35.927   5.953   4.311  1.00 20.00    -0.163 F 
HETATM    4  F6  UNL     1     -33.948   5.495   3.521  1.00 20.00    -0.163 F 
ENDROOT
BRANCH   1   5
HETATM    5  C1  UNL     1     -34.063   6.853   5.451  1.00 20.00     0.300 C 
HETATM    6  O3  UNL     1     -34.285   7.062   6.635  1.00 20.00    -0.275 OA
HETATM    7 BR7  UNL     1     -32.895   8.069   4.567  1.00 20.00     0.001 Br
ENDBRANCH   1   5
TORSDOF 1
ENDMDL
MODEL 2
REMARK VINA RESULT:      -4.6      0.072      1.427
REMARK  1 active torsions:
REMARK  status: ('A' for Active; 'I' for Inactive)
REMARK    1  A    between atoms: C1_1  and  C2_2 
ROOT
HETATM    1  C2  UNL     1     -34.648   5.710   4.619  1.00 20.00     0.462 C 
HETATM    2  F4  UNL     1     -33.971   5.461   3.469  1.00 20.00    -0.163 F 
HETATM    3  F5  UNL     1     -34.640   4.559   5.336  1.00 20.00    -0.163 F 
HETATM    4  F6  UNL     1     -35.938   5.949   4.271  1.00 20.00    -0.163 F 
ENDROOT
BRANCH   1   5
HETATM    5  C1  UNL     1     -34.055   6.848   5.381  1.00 20.00     0.300 C 
HETATM    6  O3  UNL     1     -34.233   7.054   6.573  1.00 20.00    -0.275 OA
HETATM    7 BR7  UNL     1     -32.936   8.077   4.453  1.00 20.00     0.001 Br
ENDBRANCH   1   5
TORSDOF 1
ENDMDL
MODEL 3
REMARK VINA RESULT:      -4.6      0.052      1.432
REMARK  1 active torsions:
REMARK  status: ('A' for Active; 'I' for Inactive)
REMARK    1  A    between atoms: C1_1  and  C2_2 
ROOT
HETATM    1  C2  UNL     1     -34.649   5.709   4.642  1.00 20.00     0.462 C 
HETATM    2  F4  UNL     1     -35.935   5.952   4.286  1.00 20.00    -0.163 F 
HETATM    3  F5  UNL     1     -33.966   5.454   3.499  1.00 20.00    -0.163 F 
HETATM    4  F6  UNL     1     -34.652   4.560   5.365  1.00 20.00    -0.163 F 
ENDROOT
BRANCH   1   5
HETATM    5  C1  UNL     1     -34.056   6.846   5.406  1.00 20.00     0.300 C 
HETATM    6  O3  UNL     1     -34.239   7.055   6.596  1.00 20.00    -0.275 OA
HETATM    7 BR7  UNL     1     -32.928   8.070   4.482  1.00 20.00     0.001 Br
ENDBRANCH   1   5
TORSDOF 1
ENDMDL
MODEL 4
REMARK VINA RESULT:      -4.5      1.643      1.911
REMARK  1 active torsions:
REMARK  status: ('A' for Active; 'I' for Inactive)
REMARK    1  A    between atoms: C1_1  and  C2_2 
ROOT
HETATM    1  C2  UNL     1     -34.788   5.664   4.879  1.00 20.00     0.462 C 
HETATM    2  F4  UNL     1     -34.565   4.342   4.668  1.00 20.00    -0.163 F 
HETATM    3  F5  UNL     1     -34.923   5.831   6.217  1.00 20.00    -0.163 F 
HETATM    4  F6  UNL     1     -35.992   5.953   4.321  1.00 20.00    -0.163 F 
ENDROOT
BRANCH   1   5
HETATM    5  C1  UNL     1     -33.696   6.512   4.317  1.00 20.00     0.300 C 
HETATM    6  O3  UNL     1     -33.031   6.227   3.331  1.00 20.00    -0.275 OA
HETATM    7 BR7  UNL     1     -33.293   8.162   5.177  1.00 20.00     0.001 Br
ENDBRANCH   1   5
TORSDOF 1
ENDMDL
MODEL 5
REMARK VINA RESULT:      -4.5      1.646      1.733
REMARK  1 active torsions:
REMARK  status: ('A' for Active; 'I' for Inactive)
REMARK    1  A    between atoms: C1_1  and  C2_2 
ROOT
HETATM    1  C2  UNL     1     -34.786   5.682   4.885  1.00 20.00     0.462 C 
HETATM    2  F4  UNL     1     -34.918   5.878   6.222  1.00 20.00    -0.163 F 
HETATM    3  F5  UNL     1     -35.991   5.959   4.328  1.00 20.00    -0.163 F 
HETATM    4  F6  UNL     1     -34.562   4.357   4.703  1.00 20.00    -0.163 F 
ENDROOT
BRANCH   1   5
HETATM    5  C1  UNL     1     -33.695   6.518   4.303  1.00 20.00     0.300 C 
HETATM    6  O3  UNL     1     -33.042   6.218   3.314  1.00 20.00    -0.275 OA
HETATM    7 BR7  UNL     1     -33.276   8.176   5.140  1.00 20.00     0.001 Br
ENDBRANCH   1   5
TORSDOF 1
ENDMDL
MODEL 6
REMARK VINA RESULT:      -4.5      1.643      2.180
REMARK  1 active torsions:
REMARK  status: ('A' for Active; 'I' for Inactive)
REMARK    1  A    between atoms: C1_1  and  C2_2 
ROOT
HETATM    1  C2  UNL     1     -34.770   5.684   4.908  1.00 20.00     0.462 C 
HETATM    2  F4  UNL     1     -35.974   5.943   4.338  1.00 20.00    -0.163 F 
HETATM    3  F5  UNL     1     -34.536   4.358   4.748  1.00 20.00    -0.163 F 
HETATM    4  F6  UNL     1     -34.911   5.903   6.240  1.00 20.00    -0.163 F 
ENDROOT
BRANCH   1   5
HETATM    5  C1  UNL     1     -33.682   6.519   4.318  1.00 20.00     0.300 C 
HETATM    6  O3  UNL     1     -33.033   6.216   3.326  1.00 20.00    -0.275 OA
HETATM    7 BR7  UNL     1     -33.258   8.178   5.149  1.00 20.00     0.001 Br
ENDBRANCH   1   5
TORSDOF 1
ENDMDL
MODEL 7
REMARK VINA RESULT:      -4.3      1.018      1.473
REMARK  1 active torsions:
REMARK  status: ('A' for Active; 'I' for Inactive)
REMARK    1  A    between atoms: C1_1  and  C2_2 
ROOT
HETATM    1  C2  UNL     1     -34.747   5.756   4.962  1.00 20.00     0.462 C 
HETATM    2  F4  UNL     1     -34.182   4.666   4.383  1.00 20.00    -0.163 F 
HETATM    3  F5  UNL     1     -35.041   5.413   6.240  1.00 20.00    -0.163 F 
HETATM    4  F6  UNL     1     -35.928   5.969   4.328  1.00 20.00    -0.163 F 
ENDROOT
BRANCH   1   5
HETATM    5  C1  UNL     1     -33.854   6.951   4.894  1.00 20.00     0.300 C 
HETATM    6  O3  UNL     1     -33.832   7.850   5.722  1.00 20.00    -0.275 OA
HETATM    7 BR7  UNL     1     -32.654   7.105   3.424  1.00 20.00     0.001 Br
ENDBRANCH   1   5
TORSDOF 1
ENDMDL
MODEL 8
REMARK VINA RESULT:      -4.3      2.204      2.460
REMARK  1 active torsions:
REMARK  status: ('A' for Active; 'I' for Inactive)
REMARK    1  A    between atoms: C1_1  and  C2_2 
ROOT
HETATM    1  C2  UNL     1     -34.936   6.064   4.815  1.00 20.00     0.462 C 
HETATM    2  F4  UNL     1     -35.114   5.864   6.146  1.00 20.00    -0.163 F 
HETATM    3  F5  UNL     1     -34.410   7.306   4.673  1.00 20.00    -0.163 F 
HETATM    4  F6  UNL     1     -36.171   6.092   4.254  1.00 20.00    -0.163 F 
ENDROOT
BRANCH   1   5
HETATM    5  C1  UNL     1     -34.069   5.015   4.203  1.00 20.00     0.300 C 
HETATM    6  O3  UNL     1     -34.026   3.849   4.568  1.00 20.00    -0.275 OA
HETATM    7 BR7  UNL     1     -32.943   5.503   2.748  1.00 20.00     0.001 Br
ENDBRANCH   1   5
TORSDOF 1
ENDMDL
MODEL 9
REMARK VINA RESULT:      -4.3      1.868      2.095
REMARK  1 active torsions:
REMARK  status: ('A' for Active; 'I' for Inactive)
REMARK    1  A    between atoms: C1_1  and  C2_2 
ROOT
HETATM    1  C2  UNL     1     -34.420   6.210   5.744  1.00 20.00     0.462 C 
HETATM    2  F4  UNL     1     -33.895   5.129   6.376  1.00 20.00    -0.163 F 
HETATM    3  F5  UNL     1     -34.599   7.167   6.687  1.00 20.00    -0.163 F 
HETATM    4  F6  UNL     1     -35.654   5.849   5.309  1.00 20.00    -0.163 F 
ENDROOT
BRANCH   1   5
HETATM    5  C1  UNL     1     -33.550   6.680   4.627  1.00 20.00     0.300 C 
HETATM    6  O3  UNL     1     -33.350   6.061   3.592  1.00 20.00    -0.275 OA
HETATM    7 BR7  UNL     1     -32.680   8.365   4.802  1.00 20.00     0.001 Br
ENDBRANCH   1   5
TORSDOF 1
ENDMDL
