MODEL 1
REMARK VINA RESULT:      -3.3      0.000      0.000
REMARK  3 active torsions:
REMARK  status: ('A' for Active; 'I' for Inactive)
REMARK    1  A    between atoms: C1_1  and  C7_7 
REMARK    2  A    between atoms: C7_7  and  C8_8 
REMARK    3  A    between atoms: N9_9  and  N10_10 
ROOT
HETATM    1  C1  UNL     1     -41.694  13.763   5.898  1.00 20.00     0.023 C 
HETATM    2  C2  UNL     1     -42.046  14.265   4.514  1.00 20.00     0.067 C 
HETATM    3  N9  UNL     1     -41.911  14.409   7.005  1.00 20.00    -0.209 NA
ENDROOT
BRANCH   1   4
HETATM    4  C7  UNL     1     -40.991  12.418   5.998  1.00 20.00     0.059 C 
BRANCH   4   5
HETATM    5  C8  UNL     1     -39.535  12.492   5.518  1.00 20.00    -0.017 C 
HETATM    6  C3  UNL     1     -38.556  12.055   6.611  1.00 20.00     0.010 C 
HETATM    7  C4  UNL     1     -39.351  11.618   4.276  1.00 20.00     0.010 C 
ENDBRANCH   4   5
ENDBRANCH   1   4
BRANCH   3   8
HETATM    8  N10 UNL     1     -41.515  13.772   8.135  1.00 20.00    -0.217 NA
HETATM    9  C5  UNL     1     -42.597  13.520   9.094  1.00 20.00     0.138 C 
HETATM   10  C6  UNL     1     -40.414  14.443   8.831  1.00 20.00     0.138 C 
ENDBRANCH   3   8
TORSDOF 3
ENDMDL
MODEL 2
REMARK VINA RESULT:      -3.3      1.426      2.379
REMARK  3 active torsions:
REMARK  status: ('A' for Active; 'I' for Inactive)
REMARK    1  A    between atoms: C1_1  and  C7_7 
REMARK    2  A    between atoms: C7_7  and  C8_8 
REMARK    3  A    between atoms: N9_9  and  N10_10 
ROOT
HETATM    1  C1  UNL     1     -42.009  13.324   6.704  1.00 20.00     0.023 C 
HETATM    2  C2  UNL     1     -42.811  12.073   6.995  1.00 20.00     0.067 C 
HETATM    3  N9  UNL     1     -42.148  14.461   7.318  1.00 20.00    -0.209 NA
ENDROOT
BRANCH   1   4
HETATM    4  C7  UNL     1     -40.991  13.256   5.576  1.00 20.00     0.059 C 
BRANCH   4   5
HETATM    5  C8  UNL     1     -40.111  12.001   5.668  1.00 20.00    -0.017 C 
HETATM    6  C3  UNL     1     -39.394  11.715   4.346  1.00 20.00     0.010 C 
HETATM    7  C4  UNL     1     -39.086  12.166   6.790  1.00 20.00     0.010 C 
ENDBRANCH   4   5
ENDBRANCH   1   4
BRANCH   3   8
HETATM    8  N10 UNL     1     -41.325  15.452   6.896  1.00 20.00    -0.217 NA
HETATM    9  C5  UNL     1     -40.333  15.873   7.892  1.00 20.00     0.138 C 
HETATM   10  C6  UNL     1     -42.034  16.637   6.406  1.00 20.00     0.138 C 
ENDBRANCH   3   8
TORSDOF 3
ENDMDL
MODEL 3
REMARK VINA RESULT:      -3.2      9.482     10.669
REMARK  3 active torsions:
REMARK  status: ('A' for Active; 'I' for Inactive)
REMARK    1  A    between atoms: C1_1  and  C7_7 
REMARK    2  A    between atoms: C7_7  and  C8_8 
REMARK    3  A    between atoms: N9_9  and  N10_10 
ROOT
HETATM    1  C1  UNL     1     -33.073   6.283   3.259  1.00 20.00     0.023 C 
HETATM    2  C2  UNL     1     -32.817   4.856   2.823  1.00 20.00     0.067 C 
HETATM    3  N9  UNL     1     -32.334   7.305   2.945  1.00 20.00    -0.209 NA
ENDROOT
BRANCH   1   4
HETATM    4  C7  UNL     1     -34.263   6.534   4.173  1.00 20.00     0.059 C 
BRANCH   4   5
HETATM    5  C8  UNL     1     -33.972   6.125   5.623  1.00 20.00    -0.017 C 
HETATM    6  C3  UNL     1     -34.195   7.288   6.594  1.00 20.00     0.010 C 
HETATM    7  C4  UNL     1     -34.856   4.942   6.019  1.00 20.00     0.010 C 
ENDBRANCH   4   5
ENDBRANCH   1   4
BRANCH   3   8
HETATM    8  N10 UNL     1     -32.748   8.495   3.445  1.00 20.00    -0.217 NA
HETATM    9  C5  UNL     1     -32.870   9.559   2.442  1.00 20.00     0.138 C 
HETATM   10  C6  UNL     1     -31.923   8.985   4.553  1.00 20.00     0.138 C 
ENDBRANCH   3   8
TORSDOF 3
ENDMDL
MODEL 4
REMARK VINA RESULT:      -3.1     11.485     13.037
REMARK  3 active torsions:
REMARK  status: ('A' for Active; 'I' for Inactive)
REMARK    1  A    between atoms: C1_1  and  C7_7 
REMARK    2  A    between atoms: C7_7  and  C8_8 
REMARK    3  A    between atoms: N9_9  and  N10_10 
ROOT
HETATM    1  C1  UNL     1     -33.783  17.470  -3.435  1.00 20.00     0.023 C 
HETATM    2  C2  UNL     1     -33.974  18.957  -3.647  1.00 20.00     0.067 C 
HETATM    3  N9  UNL     1     -33.942  16.558  -4.347  1.00 20.00    -0.209 NA
ENDROOT
BRANCH   1   4
HETATM    4  C7  UNL     1     -33.418  17.004  -2.034  1.00 20.00     0.059 C 
BRANCH   4   5
HETATM    5  C8  UNL     1     -33.190  18.182  -1.076  1.00 20.00    -0.017 C 
HETATM    6  C3  UNL     1     -33.949  17.995   0.241  1.00 20.00     0.010 C 
HETATM    7  C4  UNL     1     -31.696  18.345  -0.796  1.00 20.00     0.010 C 
ENDBRANCH   4   5
ENDBRANCH   1   4
BRANCH   3   8
HETATM    8  N10 UNL     1     -33.719  15.285  -3.938  1.00 20.00    -0.217 NA
HETATM    9  C5  UNL     1     -32.427  14.735  -4.365  1.00 20.00     0.138 C 
HETATM   10  C6  UNL     1     -34.779  14.350  -4.324  1.00 20.00     0.138 C 
ENDBRANCH   3   8
TORSDOF 3
ENDMDL
MODEL 5
REMARK VINA RESULT:      -3.1     11.672     13.093
REMARK  3 active torsions:
REMARK  status: ('A' for Active; 'I' for Inactive)
REMARK    1  A    between atoms: C1_1  and  C7_7 
REMARK    2  A    between atoms: C7_7  and  C8_8 
REMARK    3  A    between atoms: N9_9  and  N10_10 
ROOT
HETATM    1  C1  UNL     1     -33.787  16.975  -3.694  1.00 20.00     0.023 C 
HETATM    2  C2  UNL     1     -33.108  15.622  -3.713  1.00 20.00     0.067 C 
HETATM    3  N9  UNL     1     -34.900  17.262  -4.300  1.00 20.00    -0.209 NA
ENDROOT
BRANCH   1   4
HETATM    4  C7  UNL     1     -33.089  18.098  -2.942  1.00 20.00     0.059 C 
BRANCH   4   5
HETATM    5  C8  UNL     1     -32.777  17.711  -1.489  1.00 20.00    -0.017 C 
HETATM    6  C3  UNL     1     -31.668  18.586  -0.898  1.00 20.00     0.010 C 
HETATM    7  C4  UNL     1     -34.040  17.828  -0.636  1.00 20.00     0.010 C 
ENDBRANCH   4   5
ENDBRANCH   1   4
BRANCH   3   8
HETATM    8  N10 UNL     1     -35.329  18.539  -4.149  1.00 20.00    -0.217 NA
HETATM    9  C5  UNL     1     -36.574  18.668  -3.381  1.00 20.00     0.138 C 
HETATM   10  C6  UNL     1     -35.480  19.261  -5.416  1.00 20.00     0.138 C 
ENDBRANCH   3   8
TORSDOF 3
ENDMDL
MODEL 6
REMARK VINA RESULT:      -3.0      1.986      3.987
REMARK  3 active torsions:
REMARK  status: ('A' for Active; 'I' for Inactive)
REMARK    1  A    between atoms: C1_1  and  C7_7 
REMARK    2  A    between atoms: C7_7  and  C8_8 
REMARK    3  A    between atoms: N9_9  and  N10_10 
ROOT
HETATM    1  C1  UNL     1     -41.504  12.572   6.317  1.00 20.00     0.023 C 
HETATM    2  C2  UNL     1     -42.771  12.237   7.075  1.00 20.00     0.067 C 
HETATM    3  N9  UNL     1     -40.523  11.748   6.099  1.00 20.00    -0.209 NA
ENDROOT
BRANCH   1   4
HETATM    4  C7  UNL     1     -41.349  13.997   5.808  1.00 20.00     0.059 C 
BRANCH   4   5
HETATM    5  C8  UNL     1     -41.655  15.034   6.897  1.00 20.00    -0.017 C 
HETATM    6  C3  UNL     1     -40.394  15.431   7.670  1.00 20.00     0.010 C 
HETATM    7  C4  UNL     1     -42.292  16.275   6.271  1.00 20.00     0.010 C 
ENDBRANCH   4   5
ENDBRANCH   1   4
BRANCH   3   8
HETATM    8  N10 UNL     1     -39.482  12.259   5.397  1.00 20.00    -0.217 NA
HETATM    9  C5  UNL     1     -39.277  11.634   4.085  1.00 20.00     0.138 C 
HETATM   10  C6  UNL     1     -38.214  12.243   6.130  1.00 20.00     0.138 C 
ENDBRANCH   3   8
TORSDOF 3
ENDMDL
MODEL 7
REMARK VINA RESULT:      -2.9     12.631     14.051
REMARK  3 active torsions:
REMARK  status: ('A' for Active; 'I' for Inactive)
REMARK    1  A    between atoms: C1_1  and  C7_7 
REMARK    2  A    between atoms: C7_7  and  C8_8 
REMARK    3  A    between atoms: N9_9  and  N10_10 
ROOT
HETATM    1  C1  UNL     1     -34.545  18.043  -5.426  1.00 20.00     0.023 C 
HETATM    2  C2  UNL     1     -33.649  19.263  -5.467  1.00 20.00     0.067 C 
HETATM    3  N9  UNL     1     -35.190  17.554  -6.443  1.00 20.00    -0.209 NA
ENDROOT
BRANCH   1   4
HETATM    4  C7  UNL     1     -34.738  17.360  -4.080  1.00 20.00     0.059 C 
BRANCH   4   5
HETATM    5  C8  UNL     1     -33.414  16.838  -3.504  1.00 20.00    -0.017 C 
HETATM    6  C3  UNL     1     -33.390  16.924  -1.976  1.00 20.00     0.010 C 
HETATM    7  C4  UNL     1     -33.188  15.392  -3.947  1.00 20.00     0.010 C 
ENDBRANCH   4   5
ENDBRANCH   1   4
BRANCH   3   8
HETATM    8  N10 UNL     1     -35.936  16.453  -6.181  1.00 20.00    -0.217 NA
HETATM    9  C5  UNL     1     -35.507  15.250  -6.905  1.00 20.00     0.138 C 
HETATM   10  C6  UNL     1     -37.372  16.649  -6.403  1.00 20.00     0.138 C 
ENDBRANCH   3   8
TORSDOF 3
ENDMDL
MODEL 8
REMARK VINA RESULT:      -2.9      2.232      4.540
REMARK  3 active torsions:
REMARK  status: ('A' for Active; 'I' for Inactive)
REMARK    1  A    between atoms: C1_1  and  C7_7 
REMARK    2  A    between atoms: C7_7  and  C8_8 
REMARK    3  A    between atoms: N9_9  and  N10_10 
ROOT
HETATM    1  C1  UNL     1     -40.338  14.743   8.589  1.00 20.00     0.023 C 
HETATM    2  C2  UNL     1     -40.097  15.270   9.988  1.00 20.00     0.067 C 
HETATM    3  N9  UNL     1     -40.460  13.488   8.273  1.00 20.00    -0.209 NA
ENDROOT
BRANCH   1   4
HETATM    4  C7  UNL     1     -40.399  15.759   7.459  1.00 20.00     0.059 C 
BRANCH   4   5
HETATM    5  C8  UNL     1     -41.052  17.076   7.903  1.00 20.00    -0.017 C 
HETATM    6  C3  UNL     1     -40.489  18.273   7.133  1.00 20.00     0.010 C 
HETATM    7  C4  UNL     1     -42.566  16.998   7.708  1.00 20.00     0.010 C 
ENDBRANCH   4   5
ENDBRANCH   1   4
BRANCH   3   8
HETATM    8  N10 UNL     1     -40.671  13.240   6.957  1.00 20.00    -0.217 NA
HETATM    9  C5  UNL     1     -41.983  12.654   6.660  1.00 20.00     0.138 C 
HETATM   10  C6  UNL     1     -39.633  12.408   6.342  1.00 20.00     0.138 C 
ENDBRANCH   3   8
TORSDOF 3
ENDMDL
MODEL 9
REMARK VINA RESULT:      -2.9     11.763     13.110
REMARK  3 active torsions:
REMARK  status: ('A' for Active; 'I' for Inactive)
REMARK    1  A    between atoms: C1_1  and  C7_7 
REMARK    2  A    between atoms: C7_7  and  C8_8 
REMARK    3  A    between atoms: N9_9  and  N10_10 
ROOT
HETATM    1  C1  UNL     1     -33.376  16.787  -3.059  1.00 20.00     0.023 C 
HETATM    2  C2  UNL     1     -33.549  15.457  -3.762  1.00 20.00     0.067 C 
HETATM    3  N9  UNL     1     -33.273  16.946  -1.773  1.00 20.00    -0.209 NA
ENDROOT
BRANCH   1   4
HETATM    4  C7  UNL     1     -33.367  18.039  -3.923  1.00 20.00     0.059 C 
BRANCH   4   5
HETATM    5  C8  UNL     1     -34.602  18.122  -4.831  1.00 20.00    -0.017 C 
HETATM    6  C3  UNL     1     -35.862  18.483  -4.040  1.00 20.00     0.010 C 
HETATM    7  C4  UNL     1     -34.369  19.153  -5.936  1.00 20.00     0.010 C 
ENDBRANCH   4   5
ENDBRANCH   1   4
BRANCH   3   8
HETATM    8  N10 UNL     1     -33.125  18.228  -1.358  1.00 20.00    -0.217 NA
HETATM    9  C5  UNL     1     -31.830  18.510  -0.727  1.00 20.00     0.138 C 
HETATM   10  C6  UNL     1     -34.194  18.682  -0.464  1.00 20.00     0.138 C 
ENDBRANCH   3   8
TORSDOF 3
ENDMDL
