MODEL 1
REMARK VINA RESULT:      -5.0      0.000      0.000
REMARK  1 active torsions:
REMARK  status: ('A' for Active; 'I' for Inactive)
REMARK    1  A    between atoms: C3_3  and  C6_6 
ROOT
HETATM    1  C1  UNL     1     -34.285   5.440   6.453  1.00 20.00    -0.030 C 
HETATM    2  C2  UNL     1     -34.629   4.967   5.252  1.00 20.00    -0.030 C 
HETATM    3  C4  UNL     1     -34.113   6.922   6.443  1.00 20.00     0.038 C 
HETATM    4  C5  UNL     1     -34.747   6.052   4.234  1.00 20.00     0.038 C 
HETATM    5  C6  UNL     1     -34.190   7.278   4.958  1.00 20.00     0.054 C 
ENDROOT
BRANCH   5   6
HETATM    6  C3  UNL     1     -32.822   7.620   4.440  1.00 20.00     0.236 C 
HETATM    7  O7  UNL     1     -32.219   8.642   4.748  1.00 20.00    -0.306 OA
ENDBRANCH   5   6
TORSDOF 1
ENDMDL
MODEL 2
REMARK VINA RESULT:      -4.8      1.805      2.049
REMARK  1 active torsions:
REMARK  status: ('A' for Active; 'I' for Inactive)
REMARK    1  A    between atoms: C3_3  and  C6_6 
ROOT
HETATM    1  C1  UNL     1     -34.010   6.732   6.427  1.00 20.00    -0.030 C 
HETATM    2  C2  UNL     1     -34.524   5.512   6.256  1.00 20.00    -0.030 C 
HETATM    3  C4  UNL     1     -33.894   7.478   5.140  1.00 20.00     0.038 C 
HETATM    4  C5  UNL     1     -34.839   5.232   4.824  1.00 20.00     0.038 C 
HETATM    5  C6  UNL     1     -34.217   6.419   4.086  1.00 20.00     0.054 C 
ENDROOT
BRANCH   5   6
HETATM    6  C3  UNL     1     -32.962   5.999   3.377  1.00 20.00     0.236 C 
HETATM    7  O7  UNL     1     -32.908   5.052   2.601  1.00 20.00    -0.306 OA
ENDBRANCH   5   6
TORSDOF 1
ENDMDL
MODEL 3
REMARK VINA RESULT:      -4.3      1.921      3.206
REMARK  1 active torsions:
REMARK  status: ('A' for Active; 'I' for Inactive)
REMARK    1  A    between atoms: C3_3  and  C6_6 
ROOT
HETATM    1  C1  UNL     1     -32.518   6.899   3.427  1.00 20.00    -0.030 C 
HETATM    2  C2  UNL     1     -32.341   8.058   4.067  1.00 20.00    -0.030 C 
HETATM    3  C4  UNL     1     -33.786   6.224   3.832  1.00 20.00     0.038 C 
HETATM    4  C5  UNL     1     -33.460   8.356   5.008  1.00 20.00     0.038 C 
HETATM    5  C6  UNL     1     -34.270   7.059   5.016  1.00 20.00     0.054 C 
ENDROOT
BRANCH   5   6
HETATM    6  C3  UNL     1     -34.050   6.308   6.298  1.00 20.00     0.236 C 
HETATM    7  O7  UNL     1     -34.304   5.117   6.436  1.00 20.00    -0.306 OA
ENDBRANCH   5   6
TORSDOF 1
ENDMDL
MODEL 4
REMARK VINA RESULT:      -4.2      0.928      1.743
REMARK  1 active torsions:
REMARK  status: ('A' for Active; 'I' for Inactive)
REMARK    1  A    between atoms: C3_3  and  C6_6 
ROOT
HETATM    1  C1  UNL     1     -35.028   5.422   4.905  1.00 20.00    -0.030 C 
HETATM    2  C2  UNL     1     -34.978   5.923   6.142  1.00 20.00    -0.030 C 
HETATM    3  C4  UNL     1     -33.865   5.856   4.077  1.00 20.00     0.038 C 
HETATM    4  C5  UNL     1     -33.773   6.779   6.353  1.00 20.00     0.038 C 
HETATM    5  C6  UNL     1     -33.184   6.912   4.948  1.00 20.00     0.054 C 
ENDROOT
BRANCH   5   6
HETATM    6  C3  UNL     1     -33.448   8.283   4.394  1.00 20.00     0.236 C 
HETATM    7  O7  UNL     1     -32.745   8.815   3.542  1.00 20.00    -0.306 OA
ENDBRANCH   5   6
TORSDOF 1
ENDMDL
MODEL 5
REMARK VINA RESULT:      -3.8      2.167      3.138
REMARK  1 active torsions:
REMARK  status: ('A' for Active; 'I' for Inactive)
REMARK    1  A    between atoms: C3_3  and  C6_6 
ROOT
HETATM    1  C1  UNL     1     -33.316   8.678   5.152  1.00 20.00    -0.030 C 
HETATM    2  C2  UNL     1     -32.867   8.387   3.928  1.00 20.00    -0.030 C 
HETATM    3  C4  UNL     1     -33.590   7.450   5.955  1.00 20.00     0.038 C 
HETATM    4  C5  UNL     1     -32.765   6.914   3.704  1.00 20.00     0.038 C 
HETATM    5  C6  UNL     1     -33.450   6.320   4.935  1.00 20.00     0.054 C 
ENDROOT
BRANCH   5   6
HETATM    6  C3  UNL     1     -34.805   5.781   4.576  1.00 20.00     0.236 C 
HETATM    7  O7  UNL     1     -35.167   4.638   4.833  1.00 20.00    -0.306 OA
ENDBRANCH   5   6
TORSDOF 1
ENDMDL
MODEL 6
REMARK VINA RESULT:      -3.7      1.632      2.124
REMARK  1 active torsions:
REMARK  status: ('A' for Active; 'I' for Inactive)
REMARK    1  A    between atoms: C3_3  and  C6_6 
ROOT
HETATM    1  C1  UNL     1     -34.152   4.638   4.091  1.00 20.00    -0.030 C 
HETATM    2  C2  UNL     1     -33.158   5.098   3.328  1.00 20.00    -0.030 C 
HETATM    3  C4  UNL     1     -34.935   5.744   4.718  1.00 20.00     0.038 C 
HETATM    4  C5  UNL     1     -33.105   6.590   3.313  1.00 20.00     0.038 C 
HETATM    5  C6  UNL     1     -34.111   6.990   4.393  1.00 20.00     0.054 C 
ENDROOT
BRANCH   5   6
HETATM    6  C3  UNL     1     -33.399   7.471   5.625  1.00 20.00     0.236 C 
HETATM    7  O7  UNL     1     -33.463   6.901   6.708  1.00 20.00    -0.306 OA
ENDBRANCH   5   6
TORSDOF 1
ENDMDL
MODEL 7
REMARK VINA RESULT:      -3.6      1.947      2.945
REMARK  1 active torsions:
REMARK  status: ('A' for Active; 'I' for Inactive)
REMARK    1  A    between atoms: C3_3  and  C6_6 
ROOT
HETATM    1  C1  UNL     1     -33.988   6.549   4.476  1.00 20.00    -0.030 C 
HETATM    2  C2  UNL     1     -33.689   7.627   5.205  1.00 20.00    -0.030 C 
HETATM    3  C4  UNL     1     -33.000   6.323   3.380  1.00 20.00     0.038 C 
HETATM    4  C5  UNL     1     -32.451   8.306   4.722  1.00 20.00     0.038 C 
HETATM    5  C6  UNL     1     -32.145   7.589   3.407  1.00 20.00     0.054 C 
ENDROOT
BRANCH   5   6
HETATM    6  C3  UNL     1     -32.487   8.466   2.236  1.00 20.00     0.236 C 
HETATM    7  O7  UNL     1     -32.133   8.228   1.087  1.00 20.00    -0.306 OA
ENDBRANCH   5   6
TORSDOF 1
ENDMDL
MODEL 8
REMARK VINA RESULT:      -3.5     12.617     13.433
REMARK  1 active torsions:
REMARK  status: ('A' for Active; 'I' for Inactive)
REMARK    1  A    between atoms: C3_3  and  C6_6 
ROOT
HETATM    1  C1  UNL     1     -33.609  17.005  -1.716  1.00 20.00    -0.030 C 
HETATM    2  C2  UNL     1     -33.001  17.686  -2.690  1.00 20.00    -0.030 C 
HETATM    3  C4  UNL     1     -33.730  17.807  -0.463  1.00 20.00     0.038 C 
HETATM    4  C5  UNL     1     -32.612  19.061  -2.256  1.00 20.00     0.038 C 
HETATM    5  C6  UNL     1     -32.882  19.045  -0.751  1.00 20.00     0.054 C 
ENDROOT
BRANCH   5   6
HETATM    6  C3  UNL     1     -31.592  18.975   0.015  1.00 20.00     0.236 C 
HETATM    7  O7  UNL     1     -30.529  18.619  -0.482  1.00 20.00    -0.306 OA
ENDBRANCH   5   6
TORSDOF 1
ENDMDL
MODEL 9
REMARK VINA RESULT:      -3.5     12.453     13.240
REMARK  1 active torsions:
REMARK  status: ('A' for Active; 'I' for Inactive)
REMARK    1  A    between atoms: C3_3  and  C6_6 
ROOT
HETATM    1  C1  UNL     1     -33.417  15.844  -3.530  1.00 20.00    -0.030 C 
HETATM    2  C2  UNL     1     -34.142  16.813  -4.094  1.00 20.00    -0.030 C 
HETATM    3  C4  UNL     1     -33.488  14.569  -4.302  1.00 20.00     0.038 C 
HETATM    4  C5  UNL     1     -34.822  16.351  -5.341  1.00 20.00     0.038 C 
HETATM    5  C6  UNL     1     -34.577  14.842  -5.339  1.00 20.00     0.054 C 
ENDROOT
BRANCH   5   6
HETATM    6  C3  UNL     1     -35.833  14.104  -4.972  1.00 20.00     0.236 C 
HETATM    7  O7  UNL     1     -35.839  13.046  -4.353  1.00 20.00    -0.306 OA
ENDBRANCH   5   6
TORSDOF 1
ENDMDL
