MODEL 1
REMARK VINA RESULT:      -4.2      0.000      0.000
REMARK  2 active torsions:
REMARK  status: ('A' for Active; 'I' for Inactive)
REMARK    1  A    between atoms: C2_2  and  C6_6 
REMARK    2  A    between atoms: C3_3  and  C7_7 
ROOT
HETATM    1  C1  UNL     1     -32.937   6.066   3.094  1.00 20.00     0.100 A 
HETATM    2  C2  UNL     1     -32.043   7.280   3.027  1.00 20.00     0.089 A 
HETATM    3  C3  UNL     1     -33.977   7.196   4.751  1.00 20.00     0.168 A 
HETATM    4  N8  UNL     1     -33.919   5.972   3.932  1.00 20.00    -0.289 NA
HETATM    5  S9  UNL     1     -32.623   8.336   4.366  1.00 20.00    -0.132 SA
ENDROOT
BRANCH   2   6
HETATM    6  C6  UNL     1     -32.189   7.965   1.680  1.00 20.00     0.016 C 
HETATM    7  C4  UNL     1     -32.821   9.316   1.802  1.00 20.00     0.006 C 
ENDBRANCH   2   6
BRANCH   3   8
HETATM    8  C7  UNL     1     -33.923   6.799   6.220  1.00 20.00     0.033 C 
HETATM    9  C5  UNL     1     -34.542   5.459   6.457  1.00 20.00     0.008 C 
ENDBRANCH   3   8
TORSDOF 2
ENDMDL
MODEL 2
REMARK VINA RESULT:      -4.1      0.621      4.037
REMARK  2 active torsions:
REMARK  status: ('A' for Active; 'I' for Inactive)
REMARK    1  A    between atoms: C2_2  and  C6_6 
REMARK    2  A    between atoms: C3_3  and  C7_7 
ROOT
HETATM    1  C1  UNL     1     -33.880   6.046   3.872  1.00 20.00     0.100 A 
HETATM    2  C2  UNL     1     -34.075   7.195   4.831  1.00 20.00     0.089 A 
HETATM    3  C3  UNL     1     -32.132   7.262   3.116  1.00 20.00     0.168 A 
HETATM    4  N8  UNL     1     -32.924   6.025   2.998  1.00 20.00    -0.289 NA
HETATM    5  S9  UNL     1     -32.818   8.394   4.354  1.00 20.00    -0.132 SA
ENDROOT
BRANCH   2   6
HETATM    6  C6  UNL     1     -33.877   6.725   6.261  1.00 20.00     0.016 C 
HETATM    7  C4  UNL     1     -34.507   5.390   6.506  1.00 20.00     0.006 C 
ENDBRANCH   2   6
BRANCH   3   8
HETATM    8  C7  UNL     1     -32.090   7.942   1.755  1.00 20.00     0.033 C 
HETATM    9  C5  UNL     1     -32.797   9.259   1.769  1.00 20.00     0.008 C 
ENDBRANCH   3   8
TORSDOF 2
ENDMDL
MODEL 3
REMARK VINA RESULT:      -3.3     11.776     12.994
REMARK  2 active torsions:
REMARK  status: ('A' for Active; 'I' for Inactive)
REMARK    1  A    between atoms: C2_2  and  C6_6 
REMARK    2  A    between atoms: C3_3  and  C7_7 
ROOT
HETATM    1  C1  UNL     1     -34.491  17.426  -4.364  1.00 20.00     0.100 A 
HETATM    2  C2  UNL     1     -33.414  16.551  -3.772  1.00 20.00     0.089 A 
HETATM    3  C3  UNL     1     -35.274  15.495  -5.237  1.00 20.00     0.168 A 
HETATM    4  N8  UNL     1     -35.446  16.952  -5.099  1.00 20.00    -0.289 NA
HETATM    5  S9  UNL     1     -33.765  14.908  -4.423  1.00 20.00    -0.132 SA
ENDROOT
BRANCH   2   6
HETATM    6  C6  UNL     1     -33.493  16.573  -2.256  1.00 20.00     0.016 C 
HETATM    7  C4  UNL     1     -32.832  17.785  -1.677  1.00 20.00     0.006 C 
ENDBRANCH   2   6
BRANCH   3   8
HETATM    8  C7  UNL     1     -35.234  15.150  -6.720  1.00 20.00     0.033 C 
HETATM    9  C5  UNL     1     -33.875  15.368  -7.305  1.00 20.00     0.008 C 
ENDBRANCH   3   8
TORSDOF 2
ENDMDL
MODEL 4
REMARK VINA RESULT:      -3.3     11.755     12.821
REMARK  2 active torsions:
REMARK  status: ('A' for Active; 'I' for Inactive)
REMARK    1  A    between atoms: C2_2  and  C6_6 
REMARK    2  A    between atoms: C3_3  and  C7_7 
ROOT
HETATM    1  C1  UNL     1     -34.662  16.992  -5.305  1.00 20.00     0.100 A 
HETATM    2  C2  UNL     1     -34.648  15.501  -5.539  1.00 20.00     0.089 A 
HETATM    3  C3  UNL     1     -33.213  16.523  -3.637  1.00 20.00     0.168 A 
HETATM    4  N8  UNL     1     -33.963  17.556  -4.373  1.00 20.00    -0.289 NA
HETATM    5  S9  UNL     1     -33.600  14.853  -4.224  1.00 20.00    -0.132 SA
ENDROOT
BRANCH   2   6
HETATM    6  C6  UNL     1     -34.073  15.189  -6.909  1.00 20.00     0.016 C 
HETATM    7  C4  UNL     1     -34.225  16.338  -7.856  1.00 20.00     0.006 C 
ENDBRANCH   2   6
BRANCH   3   8
HETATM    8  C7  UNL     1     -33.546  16.645  -2.157  1.00 20.00     0.033 C 
HETATM    9  C5  UNL     1     -32.851  17.808  -1.525  1.00 20.00     0.008 C 
ENDBRANCH   3   8
TORSDOF 2
ENDMDL
MODEL 5
REMARK VINA RESULT:      -3.1     10.293     11.104
REMARK  2 active torsions:
REMARK  status: ('A' for Active; 'I' for Inactive)
REMARK    1  A    between atoms: C2_2  and  C6_6 
REMARK    2  A    between atoms: C3_3  and  C7_7 
ROOT
HETATM    1  C1  UNL     1     -41.809  13.727   7.778  1.00 20.00     0.100 A 
HETATM    2  C2  UNL     1     -42.638  14.049   6.559  1.00 20.00     0.089 A 
HETATM    3  C3  UNL     1     -40.165  13.324   6.282  1.00 20.00     0.168 A 
HETATM    4  N8  UNL     1     -40.569  13.364   7.699  1.00 20.00    -0.289 NA
HETATM    5  S9  UNL     1     -41.545  13.699   5.170  1.00 20.00    -0.132 SA
ENDROOT
BRANCH   2   6
HETATM    6  C6  UNL     1     -43.056  15.509   6.578  1.00 20.00     0.016 C 
HETATM    7  C4  UNL     1     -42.544  16.256   5.387  1.00 20.00     0.006 C 
ENDBRANCH   2   6
BRANCH   3   8
HETATM    8  C7  UNL     1     -39.609  11.940   5.976  1.00 20.00     0.033 C 
HETATM    9  C5  UNL     1     -39.290  11.779   4.524  1.00 20.00     0.008 C 
ENDBRANCH   3   8
TORSDOF 2
ENDMDL
MODEL 6
REMARK VINA RESULT:      -3.1     11.856     12.645
REMARK  2 active torsions:
REMARK  status: ('A' for Active; 'I' for Inactive)
REMARK    1  A    between atoms: C2_2  and  C6_6 
REMARK    2  A    between atoms: C3_3  and  C7_7 
ROOT
HETATM    1  C1  UNL     1     -33.605  17.226  -1.549  1.00 20.00     0.100 A 
HETATM    2  C2  UNL     1     -33.452  18.674  -1.944  1.00 20.00     0.089 A 
HETATM    3  C3  UNL     1     -33.339  16.824  -3.756  1.00 20.00     0.168 A 
HETATM    4  N8  UNL     1     -33.553  16.261  -2.411  1.00 20.00    -0.289 NA
HETATM    5  S9  UNL     1     -33.318  18.635  -3.741  1.00 20.00    -0.132 SA
ENDROOT
BRANCH   2   6
HETATM    6  C6  UNL     1     -32.205  19.263  -1.310  1.00 20.00     0.016 C 
HETATM    7  C4  UNL     1     -31.842  18.568  -0.034  1.00 20.00     0.006 C 
ENDBRANCH   2   6
BRANCH   3   8
HETATM    8  C7  UNL     1     -34.447  16.323  -4.673  1.00 20.00     0.033 C 
HETATM    9  C5  UNL     1     -34.395  14.839  -4.848  1.00 20.00     0.008 C 
ENDBRANCH   3   8
TORSDOF 2
ENDMDL
MODEL 7
REMARK VINA RESULT:      -3.1     10.115     11.254
REMARK  2 active torsions:
REMARK  status: ('A' for Active; 'I' for Inactive)
REMARK    1  A    between atoms: C2_2  and  C6_6 
REMARK    2  A    between atoms: C3_3  and  C7_7 
ROOT
HETATM    1  C1  UNL     1     -42.711  12.998   7.522  1.00 20.00     0.100 A 
HETATM    2  C2  UNL     1     -42.184  14.348   7.941  1.00 20.00     0.089 A 
HETATM    3  C3  UNL     1     -40.684  12.752   6.556  1.00 20.00     0.168 A 
HETATM    4  N8  UNL     1     -42.005  12.160   6.833  1.00 20.00    -0.289 NA
HETATM    5  S9  UNL     1     -40.552  14.446   7.184  1.00 20.00    -0.132 SA
ENDROOT
BRANCH   2   6
HETATM    6  C6  UNL     1     -42.097  14.432   9.455  1.00 20.00     0.016 C 
HETATM    7  C4  UNL     1     -40.680  14.429   9.936  1.00 20.00     0.006 C 
ENDBRANCH   2   6
BRANCH   3   8
HETATM    8  C7  UNL     1     -40.451  12.734   5.051  1.00 20.00     0.033 C 
HETATM    9  C5  UNL     1     -39.321  11.831   4.675  1.00 20.00     0.008 C 
ENDBRANCH   3   8
TORSDOF 2
ENDMDL
MODEL 8
REMARK VINA RESULT:      -3.1     10.416     11.281
REMARK  2 active torsions:
REMARK  status: ('A' for Active; 'I' for Inactive)
REMARK    1  A    between atoms: C2_2  and  C6_6 
REMARK    2  A    between atoms: C3_3  and  C7_7 
ROOT
HETATM    1  C1  UNL     1     -41.174  14.132   8.317  1.00 20.00     0.100 A 
HETATM    2  C2  UNL     1     -42.222  14.788   7.452  1.00 20.00     0.089 A 
HETATM    3  C3  UNL     1     -40.303  13.437   6.351  1.00 20.00     0.168 A 
HETATM    4  N8  UNL     1     -40.192  13.449   7.821  1.00 20.00    -0.289 NA
HETATM    5  S9  UNL     1     -41.796  14.286   5.775  1.00 20.00    -0.132 SA
ENDROOT
BRANCH   2   6
HETATM    6  C6  UNL     1     -42.163  16.297   7.608  1.00 20.00     0.016 C 
HETATM    7  C4  UNL     1     -40.758  16.792   7.755  1.00 20.00     0.006 C 
ENDBRANCH   2   6
BRANCH   3   8
HETATM    8  C7  UNL     1     -40.310  11.990   5.878  1.00 20.00     0.033 C 
HETATM    9  C5  UNL     1     -39.358  11.770   4.746  1.00 20.00     0.008 C 
ENDBRANCH   3   8
TORSDOF 2
ENDMDL
MODEL 9
REMARK VINA RESULT:      -3.0     12.151     13.688
REMARK  2 active torsions:
REMARK  status: ('A' for Active; 'I' for Inactive)
REMARK    1  A    between atoms: C2_2  and  C6_6 
REMARK    2  A    between atoms: C3_3  and  C7_7 
ROOT
HETATM    1  C1  UNL     1     -34.230  14.772  -5.647  1.00 20.00     0.100 A 
HETATM    2  C2  UNL     1     -34.425  15.785  -4.546  1.00 20.00     0.089 A 
HETATM    3  C3  UNL     1     -34.495  16.544  -7.023  1.00 20.00     0.168 A 
HETATM    4  N8  UNL     1     -34.252  15.095  -6.900  1.00 20.00    -0.289 NA
HETATM    5  S9  UNL     1     -34.766  17.327  -5.412  1.00 20.00    -0.132 SA
ENDROOT
BRANCH   2   6
HETATM    6  C6  UNL     1     -33.167  15.892  -3.702  1.00 20.00     0.016 C 
HETATM    7  C4  UNL     1     -33.403  16.657  -2.437  1.00 20.00     0.006 C 
ENDBRANCH   2   6
BRANCH   3   8
HETATM    8  C7  UNL     1     -35.709  16.757  -7.917  1.00 20.00     0.033 C 
HETATM    9  C5  UNL     1     -36.961  16.938  -7.120  1.00 20.00     0.008 C 
ENDBRANCH   3   8
TORSDOF 2
ENDMDL
