MODEL 1
REMARK VINA RESULT:      -3.9      0.000      0.000
REMARK  3 active torsions:
REMARK  status: ('A' for Active; 'I' for Inactive)
REMARK    1  A    between atoms: C1_1  and  C3_3 
REMARK    2  A    between atoms: C2_2  and  C8_8 
REMARK    3  A    between atoms: C3_3  and  O10_10 
ROOT
HETATM    1  C1  UNL     1     -32.936   7.323   3.921  1.00 20.00     0.079 C 
HETATM    2  C2  UNL     1     -33.902   7.002   4.794  1.00 20.00    -0.012 C 
ENDROOT
BRANCH   1   3
HETATM    3  C3  UNL     1     -32.407   8.705   3.884  1.00 20.00     0.282 C 
HETATM    4  O9  UNL     1     -31.969   9.322   4.843  1.00 20.00    -0.260 OA
BRANCH   3   5
HETATM    5  O10 UNL     1     -32.502   9.148   2.602  1.00 20.00    -0.323 OA
HETATM    6  C7  UNL     1     -32.168   8.189   1.593  1.00 20.00     0.213 C 
ENDBRANCH   3   5
ENDBRANCH   1   3
BRANCH   2   7
HETATM    7  C8  UNL     1     -34.560   5.639   4.973  1.00 20.00    -0.034 C 
HETATM    8  C4  UNL     1     -33.795   4.476   4.313  1.00 20.00     0.018 C 
HETATM    9  C5  UNL     1     -34.674   5.354   6.481  1.00 20.00     0.018 C 
HETATM   10  C6  UNL     1     -35.971   5.701   4.363  1.00 20.00     0.018 C 
ENDBRANCH   2   7
TORSDOF 3
ENDMDL
MODEL 2
REMARK VINA RESULT:      -3.8     11.710     12.598
REMARK  3 active torsions:
REMARK  status: ('A' for Active; 'I' for Inactive)
REMARK    1  A    between atoms: C1_1  and  C3_3 
REMARK    2  A    between atoms: C2_2  and  C8_8 
REMARK    3  A    between atoms: C3_3  and  O10_10 
ROOT
HETATM    1  C1  UNL     1     -33.628  16.911  -3.395  1.00 20.00     0.079 C 
HETATM    2  C2  UNL     1     -33.273  16.896  -2.102  1.00 20.00    -0.012 C 
ENDROOT
BRANCH   1   3
HETATM    3  C3  UNL     1     -33.594  15.658  -4.183  1.00 20.00     0.282 C 
HETATM    4  O9  UNL     1     -32.694  14.833  -4.163  1.00 20.00    -0.260 OA
BRANCH   3   5
HETATM    5  O10 UNL     1     -34.736  15.604  -4.919  1.00 20.00    -0.323 OA
HETATM    6  C7  UNL     1     -34.579  15.148  -6.267  1.00 20.00     0.213 C 
ENDBRANCH   3   5
ENDBRANCH   1   3
BRANCH   2   7
HETATM    7  C8  UNL     1     -33.250  18.080  -1.144  1.00 20.00    -0.034 C 
HETATM    8  C4  UNL     1     -33.931  17.812   0.212  1.00 20.00     0.018 C 
HETATM    9  C5  UNL     1     -31.781  18.460  -0.885  1.00 20.00     0.018 C 
HETATM   10  C6  UNL     1     -33.964  19.263  -1.822  1.00 20.00     0.018 C 
ENDBRANCH   2   7
TORSDOF 3
ENDMDL
MODEL 3
REMARK VINA RESULT:      -3.7     11.713     12.606
REMARK  3 active torsions:
REMARK  status: ('A' for Active; 'I' for Inactive)
REMARK    1  A    between atoms: C1_1  and  C3_3 
REMARK    2  A    between atoms: C2_2  and  C8_8 
REMARK    3  A    between atoms: C3_3  and  O10_10 
ROOT
HETATM    1  C1  UNL     1     -33.571  16.844  -3.450  1.00 20.00     0.079 C 
HETATM    2  C2  UNL     1     -33.210  16.848  -2.158  1.00 20.00    -0.012 C 
ENDROOT
BRANCH   1   3
HETATM    3  C3  UNL     1     -33.604  15.569  -4.200  1.00 20.00     0.282 C 
HETATM    4  O9  UNL     1     -32.722  14.724  -4.203  1.00 20.00    -0.260 OA
BRANCH   3   5
HETATM    5  O10 UNL     1     -34.784  15.520  -4.875  1.00 20.00    -0.323 OA
HETATM    6  C7  UNL     1     -34.688  15.164  -6.258  1.00 20.00     0.213 C 
ENDBRANCH   3   5
ENDBRANCH   1   3
BRANCH   2   7
HETATM    7  C8  UNL     1     -33.121  18.058  -1.235  1.00 20.00    -0.034 C 
HETATM    8  C4  UNL     1     -31.687  18.430  -0.816  1.00 20.00     0.018 C 
HETATM    9  C5  UNL     1     -33.746  19.263  -1.960  1.00 20.00     0.018 C 
HETATM   10  C6  UNL     1     -33.937  17.756   0.034  1.00 20.00     0.018 C 
ENDBRANCH   2   7
TORSDOF 3
ENDMDL
MODEL 4
REMARK VINA RESULT:      -3.7     11.840     12.833
REMARK  3 active torsions:
REMARK  status: ('A' for Active; 'I' for Inactive)
REMARK    1  A    between atoms: C1_1  and  C3_3 
REMARK    2  A    between atoms: C2_2  and  C8_8 
REMARK    3  A    between atoms: C3_3  and  O10_10 
ROOT
HETATM    1  C1  UNL     1     -32.457  18.508   0.166  1.00 20.00     0.079 C 
HETATM    2  C2  UNL     1     -32.260  18.381  -1.155  1.00 20.00    -0.012 C 
ENDROOT
BRANCH   1   3
HETATM    3  C3  UNL     1     -31.308  18.777   1.059  1.00 20.00     0.282 C 
HETATM    4  O9  UNL     1     -30.212  19.181   0.702  1.00 20.00    -0.260 OA
BRANCH   3   5
HETATM    5  O10 UNL     1     -31.699  18.491   2.330  1.00 20.00    -0.323 OA
HETATM    6  C7  UNL     1     -30.819  18.948   3.362  1.00 20.00     0.213 C 
ENDBRANCH   3   5
ENDBRANCH   1   3
BRANCH   2   7
HETATM    7  C8  UNL     1     -33.317  18.107  -2.217  1.00 20.00    -0.034 C 
HETATM    8  C4  UNL     1     -34.747  18.500  -1.802  1.00 20.00     0.018 C 
HETATM    9  C5  UNL     1     -32.942  18.897  -3.484  1.00 20.00     0.018 C 
HETATM   10  C6  UNL     1     -33.299  16.602  -2.539  1.00 20.00     0.018 C 
ENDBRANCH   2   7
TORSDOF 3
ENDMDL
MODEL 5
REMARK VINA RESULT:      -3.6      9.364     10.119
REMARK  3 active torsions:
REMARK  status: ('A' for Active; 'I' for Inactive)
REMARK    1  A    between atoms: C1_1  and  C3_3 
REMARK    2  A    between atoms: C2_2  and  C8_8 
REMARK    3  A    between atoms: C3_3  and  O10_10 
ROOT
HETATM    1  C1  UNL     1     -40.455  12.637   5.589  1.00 20.00     0.079 C 
HETATM    2  C2  UNL     1     -40.952  13.806   6.018  1.00 20.00    -0.012 C 
ENDROOT
BRANCH   1   3
HETATM    3  C3  UNL     1     -39.142  12.168   6.085  1.00 20.00     0.282 C 
HETATM    4  O9  UNL     1     -38.876  11.908   7.249  1.00 20.00    -0.260 OA
BRANCH   3   5
HETATM    5  O10 UNL     1     -38.304  12.085   5.017  1.00 20.00    -0.323 OA
HETATM    6  C7  UNL     1     -38.904  11.640   3.796  1.00 20.00     0.213 C 
ENDBRANCH   3   5
ENDBRANCH   1   3
BRANCH   2   7
HETATM    7  C8  UNL     1     -42.279  14.440   5.619  1.00 20.00    -0.034 C 
HETATM    8  C4  UNL     1     -42.483  14.577   4.099  1.00 20.00     0.018 C 
HETATM    9  C5  UNL     1     -43.417  13.573   6.187  1.00 20.00     0.018 C 
HETATM   10  C6  UNL     1     -42.352  15.842   6.249  1.00 20.00     0.018 C 
ENDBRANCH   2   7
TORSDOF 3
ENDMDL
MODEL 6
REMARK VINA RESULT:      -3.5     11.847     12.775
REMARK  3 active torsions:
REMARK  status: ('A' for Active; 'I' for Inactive)
REMARK    1  A    between atoms: C1_1  and  C3_3 
REMARK    2  A    between atoms: C2_2  and  C8_8 
REMARK    3  A    between atoms: C3_3  and  O10_10 
ROOT
HETATM    1  C1  UNL     1     -32.523  18.173  -0.221  1.00 20.00     0.079 C 
HETATM    2  C2  UNL     1     -32.393  18.354  -1.544  1.00 20.00    -0.012 C 
ENDROOT
BRANCH   1   3
HETATM    3  C3  UNL     1     -31.460  18.645   0.694  1.00 20.00     0.282 C 
HETATM    4  O9  UNL     1     -30.377  19.094   0.352  1.00 20.00    -0.260 OA
BRANCH   3   5
HETATM    5  O10 UNL     1     -31.913  18.486   1.967  1.00 20.00    -0.323 OA
HETATM    6  C7  UNL     1     -30.988  18.845   2.999  1.00 20.00     0.213 C 
ENDBRANCH   3   5
ENDBRANCH   1   3
BRANCH   2   7
HETATM    7  C8  UNL     1     -33.380  17.938  -2.627  1.00 20.00    -0.034 C 
HETATM    8  C4  UNL     1     -33.156  18.628  -3.986  1.00 20.00     0.018 C 
HETATM    9  C5  UNL     1     -33.263  16.417  -2.827  1.00 20.00     0.018 C 
HETATM   10  C6  UNL     1     -34.801  18.274  -2.139  1.00 20.00     0.018 C 
ENDBRANCH   2   7
TORSDOF 3
ENDMDL
MODEL 7
REMARK VINA RESULT:      -3.4     11.327     12.898
REMARK  3 active torsions:
REMARK  status: ('A' for Active; 'I' for Inactive)
REMARK    1  A    between atoms: C1_1  and  C3_3 
REMARK    2  A    between atoms: C2_2  and  C8_8 
REMARK    3  A    between atoms: C3_3  and  O10_10 
ROOT
HETATM    1  C1  UNL     1     -34.271  16.340  -4.686  1.00 20.00     0.079 C 
HETATM    2  C2  UNL     1     -33.737  16.529  -3.470  1.00 20.00    -0.012 C 
ENDROOT
BRANCH   1   3
HETATM    3  C3  UNL     1     -34.116  15.033  -5.364  1.00 20.00     0.282 C 
HETATM    4  O9  UNL     1     -33.753  14.872  -6.519  1.00 20.00    -0.260 OA
BRANCH   3   5
HETATM    5  O10 UNL     1     -34.450  14.065  -4.469  1.00 20.00    -0.323 OA
HETATM    6  C7  UNL     1     -35.797  13.588  -4.552  1.00 20.00     0.213 C 
ENDBRANCH   3   5
ENDBRANCH   1   3
BRANCH   2   7
HETATM    7  C8  UNL     1     -33.799  17.797  -2.629  1.00 20.00    -0.034 C 
HETATM    8  C4  UNL     1     -32.724  18.843  -2.980  1.00 20.00     0.018 C 
HETATM    9  C5  UNL     1     -35.184  18.438  -2.825  1.00 20.00     0.018 C 
HETATM   10  C6  UNL     1     -33.631  17.404  -1.150  1.00 20.00     0.018 C 
ENDBRANCH   2   7
TORSDOF 3
ENDMDL
MODEL 8
REMARK VINA RESULT:      -3.3     10.053     10.739
REMARK  3 active torsions:
REMARK  status: ('A' for Active; 'I' for Inactive)
REMARK    1  A    between atoms: C1_1  and  C3_3 
REMARK    2  A    between atoms: C2_2  and  C8_8 
REMARK    3  A    between atoms: C3_3  and  O10_10 
ROOT
HETATM    1  C1  UNL     1     -40.610  13.707   6.514  1.00 20.00     0.079 C 
HETATM    2  C2  UNL     1     -40.305  14.276   7.690  1.00 20.00    -0.012 C 
ENDROOT
BRANCH   1   3
HETATM    3  C3  UNL     1     -39.858  12.518   6.055  1.00 20.00     0.282 C 
HETATM    4  O9  UNL     1     -39.179  11.791   6.764  1.00 20.00    -0.260 OA
BRANCH   3   5
HETATM    5  O10 UNL     1     -40.063  12.393   4.716  1.00 20.00    -0.323 OA
HETATM    6  C7  UNL     1     -39.049  11.679   4.002  1.00 20.00     0.213 C 
ENDBRANCH   3   5
ENDBRANCH   1   3
BRANCH   2   7
HETATM    7  C8  UNL     1     -40.970  15.495   8.318  1.00 20.00    -0.034 C 
HETATM    8  C4  UNL     1     -40.682  16.820   7.587  1.00 20.00     0.018 C 
HETATM    9  C5  UNL     1     -42.492  15.263   8.324  1.00 20.00     0.018 C 
HETATM   10  C6  UNL     1     -40.474  15.621   9.769  1.00 20.00     0.018 C 
ENDBRANCH   2   7
TORSDOF 3
ENDMDL
MODEL 9
REMARK VINA RESULT:      -3.3     10.067     10.710
REMARK  3 active torsions:
REMARK  status: ('A' for Active; 'I' for Inactive)
REMARK    1  A    between atoms: C1_1  and  C3_3 
REMARK    2  A    between atoms: C2_2  and  C8_8 
REMARK    3  A    between atoms: C3_3  and  O10_10 
ROOT
HETATM    1  C1  UNL     1     -40.451  13.773   6.562  1.00 20.00     0.079 C 
HETATM    2  C2  UNL     1     -40.418  14.156   7.848  1.00 20.00    -0.012 C 
ENDROOT
BRANCH   1   3
HETATM    3  C3  UNL     1     -39.799  12.509   6.154  1.00 20.00     0.282 C 
HETATM    4  O9  UNL     1     -39.103  11.806   6.871  1.00 20.00    -0.260 OA
BRANCH   3   5
HETATM    5  O10 UNL     1     -40.117  12.284   4.851  1.00 20.00    -0.323 OA
HETATM    6  C7  UNL     1     -39.069  11.730   4.048  1.00 20.00     0.213 C 
ENDBRANCH   3   5
ENDBRANCH   1   3
BRANCH   2   7
HETATM    7  C8  UNL     1     -41.033  15.416   8.445  1.00 20.00    -0.034 C 
HETATM    8  C4  UNL     1     -42.571  15.394   8.521  1.00 20.00     0.018 C 
HETATM    9  C5  UNL     1     -40.476  15.595   9.868  1.00 20.00     0.018 C 
HETATM   10  C6  UNL     1     -40.605  16.616   7.582  1.00 20.00     0.018 C 
ENDBRANCH   2   7
TORSDOF 3
ENDMDL
