MODEL 1
REMARK VINA RESULT:      -3.8      0.000      0.000
REMARK  2 active torsions:
REMARK  status: ('A' for Active; 'I' for Inactive)
REMARK    1  A    between atoms: C2_2  and  C6_6 
REMARK    2  A    between atoms: C3_3  and  C7_7 
ROOT
HETATM    1  C1  UNL     1     -24.054  19.069   9.578  1.00 20.00     0.100 C 
HETATM    2  C2  UNL     1     -22.667  18.670  10.023  1.00 20.00     0.089 C 
HETATM    3  C3  UNL     1     -24.646  18.535  11.693  1.00 20.00     0.168 C 
HETATM    4  N8  UNL     1     -25.080  19.011  10.368  1.00 20.00    -0.289 NA
HETATM    5  S9  UNL     1     -22.847  18.328  11.783  1.00 20.00    -0.132 SA
ENDROOT
BRANCH   2   6
HETATM    6  C6  UNL     1     -22.209  17.438   9.264  1.00 20.00     0.016 C 
HETATM    7  C4  UNL     1     -21.681  17.780   7.906  1.00 20.00     0.006 C 
ENDBRANCH   2   6
BRANCH   3   8
HETATM    8  C7  UNL     1     -25.340  17.211  11.984  1.00 20.00     0.033 C 
HETATM    9  C5  UNL     1     -24.389  16.058  11.921  1.00 20.00     0.008 C 
ENDBRANCH   3   8
TORSDOF 2
ENDMDL
MODEL 2
REMARK VINA RESULT:      -3.7     15.737     16.658
REMARK  2 active torsions:
REMARK  status: ('A' for Active; 'I' for Inactive)
REMARK    1  A    between atoms: C2_2  and  C6_6 
REMARK    2  A    between atoms: C3_3  and  C7_7 
ROOT
HETATM    1  C1  UNL     1     -34.287   5.547   6.262  1.00 20.00     0.100 C 
HETATM    2  C2  UNL     1     -34.808   5.299   4.867  1.00 20.00     0.089 C 
HETATM    3  C3  UNL     1     -34.011   7.671   5.543  1.00 20.00     0.168 C 
HETATM    4  N8  UNL     1     -33.865   6.710   6.649  1.00 20.00    -0.289 NA
HETATM    5  S9  UNL     1     -34.831   6.932   4.105  1.00 20.00    -0.132 SA
ENDROOT
BRANCH   2   6
HETATM    6  C6  UNL     1     -33.883   4.353   4.123  1.00 20.00     0.016 C 
HETATM    7  C4  UNL     1     -33.229   5.016   2.951  1.00 20.00     0.006 C 
ENDBRANCH   2   6
BRANCH   3   8
HETATM    8  C7  UNL     1     -32.628   8.176   5.154  1.00 20.00     0.033 C 
HETATM    9  C5  UNL     1     -32.537   8.480   3.692  1.00 20.00     0.008 C 
ENDBRANCH   3   8
TORSDOF 2
ENDMDL
MODEL 3
REMARK VINA RESULT:      -3.4     13.993     14.704
REMARK  2 active torsions:
REMARK  status: ('A' for Active; 'I' for Inactive)
REMARK    1  A    between atoms: C2_2  and  C6_6 
REMARK    2  A    between atoms: C3_3  and  C7_7 
ROOT
HETATM    1  C1  UNL     1     -34.044  17.902  -0.119  1.00 20.00     0.100 C 
HETATM    2  C2  UNL     1     -33.850  18.019  -1.612  1.00 20.00     0.089 C 
HETATM    3  C3  UNL     1     -32.244  19.263  -0.001  1.00 20.00     0.168 C 
HETATM    4  N8  UNL     1     -33.264  18.493   0.731  1.00 20.00    -0.289 NA
HETATM    5  S9  UNL     1     -32.514  19.215  -1.794  1.00 20.00    -0.132 SA
ENDROOT
BRANCH   2   6
HETATM    6  C6  UNL     1     -33.469  16.671  -2.197  1.00 20.00     0.016 C 
HETATM    7  C4  UNL     1     -33.695  16.618  -3.676  1.00 20.00     0.006 C 
ENDBRANCH   2   6
BRANCH   3   8
HETATM    8  C7  UNL     1     -30.872  18.694   0.336  1.00 20.00     0.033 C 
HETATM    9  C5  UNL     1     -30.796  18.229   1.756  1.00 20.00     0.008 C 
ENDBRANCH   3   8
TORSDOF 2
ENDMDL
MODEL 4
REMARK VINA RESULT:      -3.4     15.803     16.560
REMARK  2 active torsions:
REMARK  status: ('A' for Active; 'I' for Inactive)
REMARK    1  A    between atoms: C2_2  and  C6_6 
REMARK    2  A    between atoms: C3_3  and  C7_7 
ROOT
HETATM    1  C1  UNL     1     -32.923   5.533   3.017  1.00 20.00     0.100 C 
HETATM    2  C2  UNL     1     -33.090   7.031   3.113  1.00 20.00     0.089 C 
HETATM    3  C3  UNL     1     -34.677   5.467   4.440  1.00 20.00     0.168 C 
HETATM    4  N8  UNL     1     -33.680   4.706   3.666  1.00 20.00    -0.289 NA
HETATM    5  S9  UNL     1     -34.574   7.248   4.112  1.00 20.00    -0.132 SA
ENDROOT
BRANCH   2   6
HETATM    6  C6  UNL     1     -31.877   7.651   3.781  1.00 20.00     0.016 C 
HETATM    7  C4  UNL     1     -32.255   8.759   4.714  1.00 20.00     0.006 C 
ENDBRANCH   2   6
BRANCH   3   8
HETATM    8  C7  UNL     1     -34.454   5.194   5.921  1.00 20.00     0.033 C 
HETATM    9  C5  UNL     1     -34.318   6.460   6.706  1.00 20.00     0.008 C 
ENDBRANCH   3   8
TORSDOF 2
ENDMDL
MODEL 5
REMARK VINA RESULT:      -3.3     15.196     16.178
REMARK  2 active torsions:
REMARK  status: ('A' for Active; 'I' for Inactive)
REMARK    1  A    between atoms: C2_2  and  C6_6 
REMARK    2  A    between atoms: C3_3  and  C7_7 
ROOT
HETATM    1  C1  UNL     1     -32.626   8.350   5.441  1.00 20.00     0.100 C 
HETATM    2  C2  UNL     1     -33.948   7.658   5.670  1.00 20.00     0.089 C 
HETATM    3  C3  UNL     1     -32.922   7.723   3.290  1.00 20.00     0.168 C 
HETATM    4  N8  UNL     1     -32.062   8.403   4.275  1.00 20.00    -0.289 NA
HETATM    5  S9  UNL     1     -34.490   7.179   4.020  1.00 20.00    -0.132 SA
ENDROOT
BRANCH   2   6
HETATM    6  C6  UNL     1     -33.756   6.446   6.564  1.00 20.00     0.016 C 
HETATM    7  C4  UNL     1     -34.590   5.286   6.121  1.00 20.00     0.006 C 
ENDBRANCH   2   6
BRANCH   3   8
HETATM    8  C7  UNL     1     -32.164   6.528   2.728  1.00 20.00     0.033 C 
HETATM    9  C5  UNL     1     -32.992   5.283   2.751  1.00 20.00     0.008 C 
ENDBRANCH   3   8
TORSDOF 2
ENDMDL
MODEL 6
REMARK VINA RESULT:      -3.3     13.711     14.508
REMARK  2 active torsions:
REMARK  status: ('A' for Active; 'I' for Inactive)
REMARK    1  A    between atoms: C2_2  and  C6_6 
REMARK    2  A    between atoms: C3_3  and  C7_7 
ROOT
HETATM    1  C1  UNL     1     -31.689  19.263  -0.792  1.00 20.00     0.100 C 
HETATM    2  C2  UNL     1     -32.311  19.107   0.574  1.00 20.00     0.089 C 
HETATM    3  C3  UNL     1     -33.578  18.263  -1.525  1.00 20.00     0.168 C 
HETATM    4  N8  UNL     1     -32.272  18.850  -1.873  1.00 20.00    -0.289 NA
HETATM    5  S9  UNL     1     -33.953  18.442   0.241  1.00 20.00    -0.132 SA
ENDROOT
BRANCH   2   6
HETATM    6  C6  UNL     1     -31.488  18.151   1.419  1.00 20.00     0.016 C 
HETATM    7  C4  UNL     1     -30.552  18.876   2.334  1.00 20.00     0.006 C 
ENDBRANCH   2   6
BRANCH   3   8
HETATM    8  C7  UNL     1     -33.566  16.790  -1.910  1.00 20.00     0.033 C 
HETATM    9  C5  UNL     1     -33.288  16.599  -3.368  1.00 20.00     0.008 C 
ENDBRANCH   3   8
TORSDOF 2
ENDMDL
MODEL 7
REMARK VINA RESULT:      -3.2     17.790     18.423
REMARK  2 active torsions:
REMARK  status: ('A' for Active; 'I' for Inactive)
REMARK    1  A    between atoms: C2_2  and  C6_6 
REMARK    2  A    between atoms: C3_3  and  C7_7 
ROOT
HETATM    1  C1  UNL     1     -34.602  16.931  -5.428  1.00 20.00     0.100 C 
HETATM    2  C2  UNL     1     -34.544  15.440  -5.658  1.00 20.00     0.089 C 
HETATM    3  C3  UNL     1     -33.192  16.500  -3.716  1.00 20.00     0.168 C 
HETATM    4  N8  UNL     1     -33.956  17.511  -4.466  1.00 20.00    -0.289 NA
HETATM    5  S9  UNL     1     -33.322  14.855  -4.469  1.00 20.00    -0.132 SA
ENDROOT
BRANCH   2   6
HETATM    6  C6  UNL     1     -35.904  14.817  -5.406  1.00 20.00     0.016 C 
HETATM    7  C4  UNL     1     -35.814  13.609  -4.527  1.00 20.00     0.006 C 
ENDBRANCH   2   6
BRANCH   3   8
HETATM    8  C7  UNL     1     -33.711  16.462  -2.285  1.00 20.00     0.033 C 
HETATM    9  C5  UNL     1     -33.181  17.599  -1.471  1.00 20.00     0.008 C 
ENDBRANCH   3   8
TORSDOF 2
ENDMDL
MODEL 8
REMARK VINA RESULT:      -3.2     19.138     19.783
REMARK  2 active torsions:
REMARK  status: ('A' for Active; 'I' for Inactive)
REMARK    1  A    between atoms: C2_2  and  C6_6 
REMARK    2  A    between atoms: C3_3  and  C7_7 
ROOT
HETATM    1  C1  UNL     1     -35.903  14.449  -5.588  1.00 20.00     0.100 C 
HETATM    2  C2  UNL     1     -34.493  14.979  -5.491  1.00 20.00     0.089 C 
HETATM    3  C3  UNL     1     -36.459  16.614  -5.916  1.00 20.00     0.168 C 
HETATM    4  N8  UNL     1     -36.924  15.222  -5.788  1.00 20.00    -0.289 NA
HETATM    5  S9  UNL     1     -34.650  16.732  -5.879  1.00 20.00    -0.132 SA
ENDROOT
BRANCH   2   6
HETATM    6  C6  UNL     1     -33.949  14.769  -4.090  1.00 20.00     0.016 C 
HETATM    7  C4  UNL     1     -33.300  16.004  -3.549  1.00 20.00     0.006 C 
ENDBRANCH   2   6
BRANCH   3   8
HETATM    8  C7  UNL     1     -37.061  17.432  -4.782  1.00 20.00     0.033 C 
HETATM    9  C5  UNL     1     -36.074  18.401  -4.211  1.00 20.00     0.008 C 
ENDBRANCH   3   8
TORSDOF 2
ENDMDL
MODEL 9
REMARK VINA RESULT:      -3.2     17.420     18.372
REMARK  2 active torsions:
REMARK  status: ('A' for Active; 'I' for Inactive)
REMARK    1  A    between atoms: C2_2  and  C6_6 
REMARK    2  A    between atoms: C3_3  and  C7_7 
ROOT
HETATM    1  C1  UNL     1     -42.032  12.367   6.777  1.00 20.00     0.100 C 
HETATM    2  C2  UNL     1     -41.042  13.167   5.965  1.00 20.00     0.089 C 
HETATM    3  C3  UNL     1     -42.048  14.176   8.131  1.00 20.00     0.168 C 
HETATM    4  N8  UNL     1     -42.557  12.818   7.873  1.00 20.00    -0.289 NA
HETATM    5  S9  UNL     1     -40.990  14.771   6.783  1.00 20.00    -0.132 SA
ENDROOT
BRANCH   2   6
HETATM    6  C6  UNL     1     -39.682  12.492   5.983  1.00 20.00     0.016 C 
HETATM    7  C4  UNL     1     -39.400  11.765   4.706  1.00 20.00     0.006 C 
ENDBRANCH   2   6
BRANCH   3   8
HETATM    8  C7  UNL     1     -41.270  14.162   9.439  1.00 20.00     0.033 C 
HETATM    9  C5  UNL     1     -40.158  15.163   9.437  1.00 20.00     0.008 C 
ENDBRANCH   3   8
TORSDOF 2
ENDMDL
