MODEL 1
REMARK VINA RESULT:      -4.4      0.000      0.000
REMARK  3 active torsions:
REMARK  status: ('A' for Active; 'I' for Inactive)
REMARK    1  A    between atoms: C1_1  and  C5_5 
REMARK    2  A    between atoms: C6_6  and  C8_8 
REMARK    3  A    between atoms: C8_8  and  C9_9 
ROOT
HETATM    1  C2  UNL     1     -32.636   6.971   3.653  1.00 20.00     0.028 C 
HETATM    2  C3  UNL     1     -34.201   8.348   4.074  1.00 20.00     0.028 C 
HETATM    3  C4  UNL     1     -32.201   8.810   4.627  1.00 20.00     0.028 C 
HETATM    4  C5  UNL     1     -32.876   8.454   3.280  1.00 20.00     0.038 C 
HETATM    5  C6  UNL     1     -33.158   7.606   5.007  1.00 20.00    -0.037 C 
ENDROOT
BRANCH   4   6
HETATM    6  C1  UNL     1     -32.662   9.100   1.957  1.00 20.00     0.227 C 
HETATM    7  O10 UNL     1     -33.010  10.257   1.739  1.00 20.00    -0.279 OA
HETATM    8 CL11 UNL     1     -31.886   8.033   0.827  1.00 20.00    -0.043 Cl
ENDBRANCH   4   6
BRANCH   5   9
HETATM    9  C8  UNL     1     -33.372   6.962   6.319  1.00 20.00     0.009 C 
BRANCH   9  10
HETATM   10  C9  UNL     1     -34.657   6.108   6.368  1.00 20.00    -0.004 C 
HETATM   11  C7  UNL     1     -34.631   4.942   5.393  1.00 20.00     0.005 C 
ENDBRANCH   9  10
ENDBRANCH   5   9
TORSDOF 3
ENDMDL
MODEL 2
REMARK VINA RESULT:      -4.2      1.152      1.152
REMARK  3 active torsions:
REMARK  status: ('A' for Active; 'I' for Inactive)
REMARK    1  A    between atoms: C1_1  and  C5_5 
REMARK    2  A    between atoms: C6_6  and  C8_8 
REMARK    3  A    between atoms: C8_8  and  C9_9 
ROOT
HETATM    1  C2  UNL     1     -32.598   6.745   3.726  1.00 20.00     0.028 C 
HETATM    2  C3  UNL     1     -34.121   8.218   3.920  1.00 20.00     0.028 C 
HETATM    3  C4  UNL     1     -32.128   8.663   4.514  1.00 20.00     0.028 C 
HETATM    4  C5  UNL     1     -32.759   8.186   3.183  1.00 20.00     0.038 C 
HETATM    5  C6  UNL     1     -33.150   7.545   4.976  1.00 20.00    -0.037 C 
ENDROOT
BRANCH   4   6
HETATM    6  C1  UNL     1     -32.462   8.673   1.809  1.00 20.00     0.227 C 
HETATM    7  O10 UNL     1     -31.872   7.974   0.990  1.00 20.00    -0.279 OA
HETATM    8 CL11 UNL     1     -33.045  10.289   1.548  1.00 20.00    -0.043 Cl
ENDBRANCH   4   6
BRANCH   5   9
HETATM    9  C8  UNL     1     -33.448   7.058   6.340  1.00 20.00     0.009 C 
BRANCH   9  10
HETATM   10  C9  UNL     1     -34.725   6.193   6.405  1.00 20.00    -0.004 C 
HETATM   11  C7  UNL     1     -34.603   4.898   5.618  1.00 20.00     0.005 C 
ENDBRANCH   9  10
ENDBRANCH   5   9
TORSDOF 3
ENDMDL
MODEL 3
REMARK VINA RESULT:      -4.0     11.429     12.464
REMARK  3 active torsions:
REMARK  status: ('A' for Active; 'I' for Inactive)
REMARK    1  A    between atoms: C1_1  and  C5_5 
REMARK    2  A    between atoms: C6_6  and  C8_8 
REMARK    3  A    between atoms: C8_8  and  C9_9 
ROOT
HETATM    1  C2  UNL     1     -32.846  18.854  -2.957  1.00 20.00     0.028 C 
HETATM    2  C3  UNL     1     -34.395  18.523  -1.536  1.00 20.00     0.028 C 
HETATM    3  C4  UNL     1     -33.213  16.893  -2.220  1.00 20.00     0.028 C 
HETATM    4  C5  UNL     1     -32.873  18.239  -1.536  1.00 20.00     0.038 C 
HETATM    5  C6  UNL     1     -34.134  17.932  -2.983  1.00 20.00    -0.037 C 
ENDROOT
BRANCH   4   6
HETATM    6  C1  UNL     1     -31.908  18.479  -0.430  1.00 20.00     0.227 C 
HETATM    7  O10 UNL     1     -30.708  18.629  -0.640  1.00 20.00    -0.279 OA
HETATM    8 CL11 UNL     1     -32.689  18.516   1.123  1.00 20.00    -0.043 Cl
ENDBRANCH   4   6
BRANCH   5   9
HETATM    9  C8  UNL     1     -35.093  17.698  -4.083  1.00 20.00     0.009 C 
BRANCH   9  10
HETATM   10  C9  UNL     1     -34.492  16.870  -5.239  1.00 20.00    -0.004 C 
HETATM   11  C7  UNL     1     -34.932  15.414  -5.216  1.00 20.00     0.005 C 
ENDBRANCH   9  10
ENDBRANCH   5   9
TORSDOF 3
ENDMDL
MODEL 4
REMARK VINA RESULT:      -3.9      9.939     10.903
REMARK  3 active torsions:
REMARK  status: ('A' for Active; 'I' for Inactive)
REMARK    1  A    between atoms: C1_1  and  C5_5 
REMARK    2  A    between atoms: C6_6  and  C8_8 
REMARK    3  A    between atoms: C8_8  and  C9_9 
ROOT
HETATM    1  C2  UNL     1     -42.286  13.011   6.953  1.00 20.00     0.028 C 
HETATM    2  C3  UNL     1     -40.563  14.258   6.944  1.00 20.00     0.028 C 
HETATM    3  C4  UNL     1     -41.583  13.839   5.125  1.00 20.00     0.028 C 
HETATM    4  C5  UNL     1     -42.024  14.460   6.473  1.00 20.00     0.038 C 
HETATM    5  C6  UNL     1     -40.897  12.900   6.201  1.00 20.00    -0.037 C 
ENDROOT
BRANCH   4   6
HETATM    6  C1  UNL     1     -42.887  15.652   6.686  1.00 20.00     0.227 C 
HETATM    7  O10 UNL     1     -43.364  15.917   7.786  1.00 20.00    -0.279 OA
HETATM    8 CL11 UNL     1     -43.106  16.570   5.227  1.00 20.00    -0.043 Cl
ENDBRANCH   4   6
BRANCH   5   9
HETATM    9  C8  UNL     1     -40.040  11.714   5.993  1.00 20.00     0.009 C 
BRANCH   9  10
HETATM   10  C9  UNL     1     -38.767  12.027   5.179  1.00 20.00    -0.004 C 
HETATM   11  C7  UNL     1     -38.901  11.665   3.707  1.00 20.00     0.005 C 
ENDBRANCH   9  10
ENDBRANCH   5   9
TORSDOF 3
ENDMDL
MODEL 5
REMARK VINA RESULT:      -3.8     11.292     12.196
REMARK  3 active torsions:
REMARK  status: ('A' for Active; 'I' for Inactive)
REMARK    1  A    between atoms: C1_1  and  C5_5 
REMARK    2  A    between atoms: C6_6  and  C8_8 
REMARK    3  A    between atoms: C8_8  and  C9_9 
ROOT
HETATM    1  C2  UNL     1     -32.916  18.420  -3.426  1.00 20.00     0.028 C 
HETATM    2  C3  UNL     1     -33.293  16.649  -2.309  1.00 20.00     0.028 C 
HETATM    3  C4  UNL     1     -34.806  18.132  -2.495  1.00 20.00     0.028 C 
HETATM    4  C5  UNL     1     -33.990  17.310  -3.523  1.00 20.00     0.038 C 
HETATM    5  C6  UNL     1     -33.332  18.184  -1.916  1.00 20.00    -0.037 C 
ENDROOT
BRANCH   4   6
HETATM    6  C1  UNL     1     -34.490  16.640  -4.754  1.00 20.00     0.227 C 
HETATM    7  O10 UNL     1     -35.003  17.275  -5.671  1.00 20.00    -0.279 OA
HETATM    8 CL11 UNL     1     -34.250  14.920  -4.706  1.00 20.00    -0.043 Cl
ENDBRANCH   4   6
BRANCH   5   9
HETATM    9  C8  UNL     1     -32.832  18.848  -0.695  1.00 20.00     0.009 C 
BRANCH   9  10
HETATM   10  C9  UNL     1     -31.357  18.513  -0.388  1.00 20.00    -0.004 C 
HETATM   11  C7  UNL     1     -31.043  18.531   1.100  1.00 20.00     0.005 C 
ENDBRANCH   9  10
ENDBRANCH   5   9
TORSDOF 3
ENDMDL
MODEL 6
REMARK VINA RESULT:      -3.8     11.308     12.176
REMARK  3 active torsions:
REMARK  status: ('A' for Active; 'I' for Inactive)
REMARK    1  A    between atoms: C1_1  and  C5_5 
REMARK    2  A    between atoms: C6_6  and  C8_8 
REMARK    3  A    between atoms: C8_8  and  C9_9 
ROOT
HETATM    1  C2  UNL     1     -33.435  16.796  -2.132  1.00 20.00     0.028 C 
HETATM    2  C3  UNL     1     -34.834  18.395  -2.242  1.00 20.00     0.028 C 
HETATM    3  C4  UNL     1     -32.950  18.562  -3.213  1.00 20.00     0.028 C 
HETATM    4  C5  UNL     1     -34.109  17.541  -3.311  1.00 20.00     0.038 C 
HETATM    5  C6  UNL     1     -33.348  18.317  -1.700  1.00 20.00    -0.037 C 
ENDROOT
BRANCH   4   6
HETATM    6  C1  UNL     1     -34.694  16.944  -4.541  1.00 20.00     0.227 C 
HETATM    7  O10 UNL     1     -35.532  17.539  -5.213  1.00 20.00    -0.279 OA
HETATM    8 CL11 UNL     1     -34.049  15.365  -4.872  1.00 20.00    -0.043 Cl
ENDBRANCH   4   6
BRANCH   5   9
HETATM    9  C8  UNL     1     -32.768  18.908  -0.475  1.00 20.00     0.009 C 
BRANCH   9  10
HETATM   10  C9  UNL     1     -31.331  18.421  -0.194  1.00 20.00    -0.004 C 
HETATM   11  C7  UNL     1     -30.972  18.457   1.284  1.00 20.00     0.005 C 
ENDBRANCH   9  10
ENDBRANCH   5   9
TORSDOF 3
ENDMDL
MODEL 7
REMARK VINA RESULT:      -3.8      9.821     11.009
REMARK  3 active torsions:
REMARK  status: ('A' for Active; 'I' for Inactive)
REMARK    1  A    between atoms: C1_1  and  C5_5 
REMARK    2  A    between atoms: C6_6  and  C8_8 
REMARK    3  A    between atoms: C8_8  and  C9_9 
ROOT
HETATM    1  C2  UNL     1     -41.481  13.684   4.892  1.00 20.00     0.028 C 
HETATM    2  C3  UNL     1     -40.783  14.433   6.756  1.00 20.00     0.028 C 
HETATM    3  C4  UNL     1     -42.068  12.740   6.705  1.00 20.00     0.028 C 
HETATM    4  C5  UNL     1     -40.693  13.051   6.065  1.00 20.00     0.038 C 
HETATM    5  C6  UNL     1     -42.241  14.222   6.173  1.00 20.00    -0.037 C 
ENDROOT
BRANCH   4   6
HETATM    6  C1  UNL     1     -39.507  12.158   5.979  1.00 20.00     0.227 C 
HETATM    7  O10 UNL     1     -38.895  11.799   6.981  1.00 20.00    -0.279 OA
HETATM    8 CL11 UNL     1     -39.137  11.717   4.339  1.00 20.00    -0.043 Cl
ENDBRANCH   4   6
BRANCH   5   9
HETATM    9  C8  UNL     1     -43.417  15.112   6.256  1.00 20.00     0.009 C 
BRANCH   9  10
HETATM   10  C9  UNL     1     -43.396  16.239   5.200  1.00 20.00    -0.004 C 
HETATM   11  C7  UNL     1     -42.704  17.500   5.694  1.00 20.00     0.005 C 
ENDBRANCH   9  10
ENDBRANCH   5   9
TORSDOF 3
ENDMDL
MODEL 8
REMARK VINA RESULT:      -3.8      3.069      4.680
REMARK  3 active torsions:
REMARK  status: ('A' for Active; 'I' for Inactive)
REMARK    1  A    between atoms: C1_1  and  C5_5 
REMARK    2  A    between atoms: C6_6  and  C8_8 
REMARK    3  A    between atoms: C8_8  and  C9_9 
ROOT
HETATM    1  C2  UNL     1     -34.497   7.720   3.828  1.00 20.00     0.028 C 
HETATM    2  C3  UNL     1     -32.736   6.625   3.356  1.00 20.00     0.028 C 
HETATM    3  C4  UNL     1     -32.879   7.663   5.207  1.00 20.00     0.028 C 
HETATM    4  C5  UNL     1     -33.740   6.568   4.532  1.00 20.00     0.038 C 
HETATM    5  C6  UNL     1     -32.979   8.152   3.703  1.00 20.00    -0.037 C 
ENDROOT
BRANCH   4   6
HETATM    6  C1  UNL     1     -34.326   5.354   5.163  1.00 20.00     0.227 C 
HETATM    7  O10 UNL     1     -34.406   4.288   4.561  1.00 20.00    -0.279 OA
HETATM    8 CL11 UNL     1     -34.849   5.653   6.794  1.00 20.00    -0.043 Cl
ENDBRANCH   4   6
BRANCH   5   9
HETATM    9  C8  UNL     1     -32.399   9.357   3.073  1.00 20.00     0.009 C 
BRANCH   9  10
HETATM   10  C9  UNL     1     -33.054   9.702   1.719  1.00 20.00    -0.004 C 
HETATM   11  C7  UNL     1     -32.440   8.943   0.553  1.00 20.00     0.005 C 
ENDBRANCH   9  10
ENDBRANCH   5   9
TORSDOF 3
ENDMDL
MODEL 9
REMARK VINA RESULT:      -3.7      2.850      4.625
REMARK  3 active torsions:
REMARK  status: ('A' for Active; 'I' for Inactive)
REMARK    1  A    between atoms: C1_1  and  C5_5 
REMARK    2  A    between atoms: C6_6  and  C8_8 
REMARK    3  A    between atoms: C8_8  and  C9_9 
ROOT
HETATM    1  C2  UNL     1     -34.337   8.288   4.019  1.00 20.00     0.028 C 
HETATM    2  C3  UNL     1     -32.934   6.732   3.649  1.00 20.00     0.028 C 
HETATM    3  C4  UNL     1     -32.473   8.272   5.041  1.00 20.00     0.028 C 
HETATM    4  C5  UNL     1     -33.632   7.252   4.929  1.00 20.00     0.038 C 
HETATM    5  C6  UNL     1     -32.841   8.307   3.501  1.00 20.00    -0.037 C 
ENDROOT
BRANCH   4   6
HETATM    6  C1  UNL     1     -34.242   6.444   6.019  1.00 20.00     0.227 C 
HETATM    7  O10 UNL     1     -34.506   6.932   7.114  1.00 20.00    -0.279 OA
HETATM    8 CL11 UNL     1     -34.513   4.796   5.538  1.00 20.00    -0.043 Cl
ENDBRANCH   4   6
BRANCH   5   9
HETATM    9  C8  UNL     1     -32.238   9.109   2.416  1.00 20.00     0.009 C 
BRANCH   9  10
HETATM   10  C9  UNL     1     -32.181   8.355   1.070  1.00 20.00    -0.004 C 
HETATM   11  C7  UNL     1     -32.904   9.087  -0.050  1.00 20.00     0.005 C 
ENDBRANCH   9  10
ENDBRANCH   5   9
TORSDOF 3
ENDMDL
