MODEL 1
REMARK VINA RESULT:      -4.5      0.000      0.000
REMARK  0 active torsions:
REMARK  status: ('A' for Active; 'I' for Inactive)
ROOT
HETATM    1  C1  UNL     1     -33.379   6.424   3.896  1.00 20.00     0.149 C 
HETATM    2  C2  UNL     1     -33.326   7.335   4.876  1.00 20.00     0.010 C 
HETATM    3  C3  UNL     1     -34.023   7.122   6.185  1.00 20.00     0.050 C 
HETATM    4  C4  UNL     1     -34.450   5.662   6.330  1.00 20.00     0.032 C 
HETATM    5  C5  UNL     1     -35.022   5.152   5.012  1.00 20.00     0.174 C 
HETATM    6  O6  UNL     1     -34.086   5.248   3.931  1.00 20.00    -0.362 OA
HETATM    7 BR7  UNL     1     -32.344   8.912   4.722  1.00 20.00    -0.054 Br
ENDROOT
TORSDOF 0
ENDMDL
MODEL 2
REMARK VINA RESULT:      -4.4      1.359      2.002
REMARK  0 active torsions:
REMARK  status: ('A' for Active; 'I' for Inactive)
ROOT
HETATM    1  C1  UNL     1     -33.721   7.495   5.809  1.00 20.00     0.149 C 
HETATM    2  C2  UNL     1     -33.377   7.169   4.556  1.00 20.00     0.010 C 
HETATM    3  C3  UNL     1     -33.803   5.872   3.937  1.00 20.00     0.050 C 
HETATM    4  C4  UNL     1     -34.904   5.220   4.772  1.00 20.00     0.032 C 
HETATM    5  C5  UNL     1     -34.577   5.343   6.255  1.00 20.00     0.174 C 
HETATM    6  O6  UNL     1     -34.434   6.705   6.677  1.00 20.00    -0.362 OA
HETATM    7 BR7  UNL     1     -32.392   8.311   3.461  1.00 20.00    -0.054 Br
ENDROOT
TORSDOF 0
ENDMDL
MODEL 3
REMARK VINA RESULT:      -4.0      2.159      2.976
REMARK  0 active torsions:
REMARK  status: ('A' for Active; 'I' for Inactive)
ROOT
HETATM    1  C1  UNL     1     -33.510   5.814   3.731  1.00 20.00     0.149 C 
HETATM    2  C2  UNL     1     -33.764   6.406   4.906  1.00 20.00     0.010 C 
HETATM    3  C3  UNL     1     -33.270   7.788   5.211  1.00 20.00     0.050 C 
HETATM    4  C4  UNL     1     -32.794   8.478   3.933  1.00 20.00     0.032 C 
HETATM    5  C5  UNL     1     -31.997   7.501   3.077  1.00 20.00     0.174 C 
HETATM    6  O6  UNL     1     -32.756   6.341   2.712  1.00 20.00    -0.362 OA
HETATM    7 BR7  UNL     1     -34.790   5.595   6.233  1.00 20.00    -0.054 Br
ENDROOT
TORSDOF 0
ENDMDL
MODEL 4
REMARK VINA RESULT:      -4.0      2.527      3.531
REMARK  0 active torsions:
REMARK  status: ('A' for Active; 'I' for Inactive)
ROOT
HETATM    1  C1  UNL     1     -33.357   7.848   5.526  1.00 20.00     0.149 C 
HETATM    2  C2  UNL     1     -33.735   6.683   4.982  1.00 20.00     0.010 C 
HETATM    3  C3  UNL     1     -33.334   6.301   3.590  1.00 20.00     0.050 C 
HETATM    4  C4  UNL     1     -32.218   7.214   3.087  1.00 20.00     0.032 C 
HETATM    5  C5  UNL     1     -32.507   8.658   3.481  1.00 20.00     0.174 C 
HETATM    6  O6  UNL     1     -32.630   8.828   4.899  1.00 20.00    -0.362 OA
HETATM    7 BR7  UNL     1     -34.739   5.422   5.918  1.00 20.00    -0.054 Br
ENDROOT
TORSDOF 0
ENDMDL
MODEL 5
REMARK VINA RESULT:      -3.9      2.082      2.533
REMARK  0 active torsions:
REMARK  status: ('A' for Active; 'I' for Inactive)
ROOT
HETATM    1  C1  UNL     1     -33.360   7.217   4.374  1.00 20.00     0.149 C 
HETATM    2  C2  UNL     1     -33.554   5.935   4.034  1.00 20.00     0.010 C 
HETATM    3  C3  UNL     1     -34.297   4.990   4.928  1.00 20.00     0.050 C 
HETATM    4  C4  UNL     1     -35.045   5.761   6.015  1.00 20.00     0.032 C 
HETATM    5  C5  UNL     1     -34.164   6.876   6.565  1.00 20.00     0.174 C 
HETATM    6  O6  UNL     1     -33.751   7.802   5.552  1.00 20.00    -0.362 OA
HETATM    7 BR7  UNL     1     -32.970   5.233   2.409  1.00 20.00    -0.054 Br
ENDROOT
TORSDOF 0
ENDMDL
MODEL 6
REMARK VINA RESULT:      -3.6      1.959      2.452
REMARK  0 active torsions:
REMARK  status: ('A' for Active; 'I' for Inactive)
ROOT
HETATM    1  C1  UNL     1     -34.201   4.780   4.909  1.00 20.00     0.149 C 
HETATM    2  C2  UNL     1     -33.662   5.707   4.105  1.00 20.00     0.010 C 
HETATM    3  C3  UNL     1     -33.478   7.124   4.555  1.00 20.00     0.050 C 
HETATM    4  C4  UNL     1     -33.651   7.229   6.070  1.00 20.00     0.032 C 
HETATM    5  C5  UNL     1     -34.833   6.381   6.521  1.00 20.00     0.174 C 
HETATM    6  O6  UNL     1     -34.684   4.998   6.175  1.00 20.00    -0.362 OA
HETATM    7 BR7  UNL     1     -33.048   5.308   2.391  1.00 20.00    -0.054 Br
ENDROOT
TORSDOF 0
ENDMDL
MODEL 7
REMARK VINA RESULT:      -3.2     13.009     13.284
REMARK  0 active torsions:
REMARK  status: ('A' for Active; 'I' for Inactive)
ROOT
HETATM    1  C1  UNL     1     -30.755  18.819   0.738  1.00 20.00     0.149 C 
HETATM    2  C2  UNL     1     -31.814  18.942   1.550  1.00 20.00     0.010 C 
HETATM    3  C3  UNL     1     -33.215  18.784   1.042  1.00 20.00     0.050 C 
HETATM    4  C4  UNL     1     -33.210  18.151  -0.348  1.00 20.00     0.032 C 
HETATM    5  C5  UNL     1     -32.103  18.764  -1.197  1.00 20.00     0.174 C 
HETATM    6  O6  UNL     1     -30.804  18.594  -0.615  1.00 20.00    -0.362 OA
HETATM    7 BR7  UNL     1     -31.639  19.263   3.378  1.00 20.00    -0.054 Br
ENDROOT
TORSDOF 0
ENDMDL
MODEL 8
REMARK VINA RESULT:      -3.1     16.189     16.711
REMARK  0 active torsions:
REMARK  status: ('A' for Active; 'I' for Inactive)
ROOT
HETATM    1  C1  UNL     1     -24.797  18.786  10.043  1.00 20.00     0.149 C 
HETATM    2  C2  UNL     1     -24.945  18.771  11.375  1.00 20.00     0.010 C 
HETATM    3  C3  UNL     1     -23.815  18.398  12.286  1.00 20.00     0.050 C 
HETATM    4  C4  UNL     1     -22.492  18.402  11.522  1.00 20.00     0.032 C 
HETATM    5  C5  UNL     1     -22.676  17.759  10.153  1.00 20.00     0.174 C 
HETATM    6  O6  UNL     1     -23.662  18.431   9.358  1.00 20.00    -0.362 OA
HETATM    7 BR7  UNL     1     -26.539  19.259  12.208  1.00 20.00    -0.054 Br
ENDROOT
TORSDOF 0
ENDMDL
MODEL 9
REMARK VINA RESULT:      -3.1     15.577     16.003
REMARK  0 active torsions:
REMARK  status: ('A' for Active; 'I' for Inactive)
ROOT
HETATM    1  C1  UNL     1     -24.584  18.804  10.149  1.00 20.00     0.149 C 
HETATM    2  C2  UNL     1     -23.746  17.773  10.323  1.00 20.00     0.010 C 
HETATM    3  C3  UNL     1     -23.912  16.810  11.459  1.00 20.00     0.050 C 
HETATM    4  C4  UNL     1     -25.288  16.977  12.102  1.00 20.00     0.032 C 
HETATM    5  C5  UNL     1     -25.626  18.457  12.236  1.00 20.00     0.174 C 
HETATM    6  O6  UNL     1     -25.628  19.138  10.975  1.00 20.00    -0.362 OA
HETATM    7 BR7  UNL     1     -22.345  17.414   9.146  1.00 20.00    -0.054 Br
ENDROOT
TORSDOF 0
ENDMDL
