MODEL 1
REMARK VINA RESULT:      -3.6      0.000      0.000
REMARK  5 active torsions:
REMARK  status: ('A' for Active; 'I' for Inactive)
REMARK    1  A    between atoms: C2_2  and  C4_4 
REMARK    2  A    between atoms: C4_4  and  N7_7 
REMARK    3  A    between atoms: C5_5  and  C6_6 
REMARK    4  A    between atoms: C5_5  and  N7_7 
REMARK    5  A    between atoms: C6_6  and  S8_8 
ROOT
HETATM    1  C1  UNL     1     -33.349  16.532  -2.638  1.00 20.00    -0.109 C 
HETATM    2  C2  UNL     1     -33.512  15.724  -3.511  1.00 20.00    -0.077 C 
HETATM    3  C3  UNL     1     -33.149  17.517  -1.575  1.00 20.00     0.112 C 
ENDROOT
BRANCH   2   4
HETATM    4  C4  UNL     1     -33.710  14.742  -4.581  1.00 20.00     0.362 C 
BRANCH   4   5
HETATM    5  N7  UNL     1     -34.773  13.806  -4.239  1.00 20.00     0.095 N 
HETATM    6  H18 UNL     1     -35.000  13.903  -3.251  1.00 20.00     0.317 HD
BRANCH   5   7
HETATM    7  C5  UNL     1     -35.966  14.061  -5.034  1.00 20.00     0.280 C 
BRANCH   7   8
HETATM    8  C6  UNL     1     -35.666  14.778  -6.343  1.00 20.00     0.100 C 
BRANCH   8   9
HETATM    9  S8  UNL     1     -36.615  16.320  -6.514  1.00 20.00    -0.180 SA
HETATM   10  H19 UNL     1     -35.898  17.024  -5.628  1.00 20.00     0.101 HD
ENDBRANCH   8   9
ENDBRANCH   7   8
ENDBRANCH   5   7
ENDBRANCH   4   5
ENDBRANCH   2   4
TORSDOF 5
ENDMDL
MODEL 2
REMARK VINA RESULT:      -3.5     12.942     13.175
REMARK  5 active torsions:
REMARK  status: ('A' for Active; 'I' for Inactive)
REMARK    1  A    between atoms: C2_2  and  C4_4 
REMARK    2  A    between atoms: C4_4  and  N7_7 
REMARK    3  A    between atoms: C5_5  and  C6_6 
REMARK    4  A    between atoms: C5_5  and  N7_7 
REMARK    5  A    between atoms: C6_6  and  S8_8 
ROOT
HETATM    1  C1  UNL     1     -33.017   8.177   5.155  1.00 20.00    -0.109 C 
HETATM    2  C2  UNL     1     -33.693   7.462   5.844  1.00 20.00    -0.077 C 
HETATM    3  C3  UNL     1     -32.193   9.047   4.317  1.00 20.00     0.112 C 
ENDROOT
BRANCH   2   4
HETATM    4  C4  UNL     1     -34.521   6.595   6.687  1.00 20.00     0.362 C 
BRANCH   4   5
HETATM    5  N7  UNL     1     -34.481   5.217   6.215  1.00 20.00     0.095 N 
HETATM    6  H18 UNL     1     -35.136   4.657   6.760  1.00 20.00     0.317 HD
BRANCH   5   7
HETATM    7  C5  UNL     1     -34.838   5.139   4.806  1.00 20.00     0.280 C 
BRANCH   7   8
HETATM    8  C6  UNL     1     -33.860   4.305   3.990  1.00 20.00     0.100 C 
BRANCH   8   9
HETATM    9  S8  UNL     1     -32.990   5.295   2.737  1.00 20.00    -0.180 SA
HETATM   10  H19 UNL     1     -34.086   5.646   2.052  1.00 20.00     0.101 HD
ENDBRANCH   8   9
ENDBRANCH   7   8
ENDBRANCH   5   7
ENDBRANCH   4   5
ENDBRANCH   2   4
TORSDOF 5
ENDMDL
MODEL 3
REMARK VINA RESULT:      -3.5     12.350     12.901
REMARK  5 active torsions:
REMARK  status: ('A' for Active; 'I' for Inactive)
REMARK    1  A    between atoms: C2_2  and  C4_4 
REMARK    2  A    between atoms: C4_4  and  N7_7 
REMARK    3  A    between atoms: C5_5  and  C6_6 
REMARK    4  A    between atoms: C5_5  and  N7_7 
REMARK    5  A    between atoms: C6_6  and  S8_8 
ROOT
HETATM    1  C1  UNL     1     -32.660   5.981   2.754  1.00 20.00    -0.109 C 
HETATM    2  C2  UNL     1     -32.428   7.070   3.204  1.00 20.00    -0.077 C 
HETATM    3  C3  UNL     1     -32.943   4.655   2.207  1.00 20.00     0.112 C 
ENDROOT
BRANCH   2   4
HETATM    4  C4  UNL     1     -32.141   8.396   3.758  1.00 20.00     0.362 C 
BRANCH   4   5
HETATM    5  N7  UNL     1     -32.429   8.438   5.186  1.00 20.00     0.095 N 
HETATM    6  H18 UNL     1     -32.275   9.384   5.532  1.00 20.00     0.317 HD
BRANCH   5   7
HETATM    7  C5  UNL     1     -33.806   8.047   5.450  1.00 20.00     0.280 C 
BRANCH   7   8
HETATM    8  C6  UNL     1     -33.923   6.947   6.496  1.00 20.00     0.100 C 
BRANCH   8   9
HETATM    9  S8  UNL     1     -34.705   5.446   5.830  1.00 20.00    -0.180 SA
HETATM   10  H19 UNL     1     -35.320   5.093   6.967  1.00 20.00     0.101 HD
ENDBRANCH   8   9
ENDBRANCH   7   8
ENDBRANCH   5   7
ENDBRANCH   4   5
ENDBRANCH   2   4
TORSDOF 5
ENDMDL
MODEL 4
REMARK VINA RESULT:      -3.4      1.253      1.490
REMARK  5 active torsions:
REMARK  status: ('A' for Active; 'I' for Inactive)
REMARK    1  A    between atoms: C2_2  and  C4_4 
REMARK    2  A    between atoms: C4_4  and  N7_7 
REMARK    3  A    between atoms: C5_5  and  C6_6 
REMARK    4  A    between atoms: C5_5  and  N7_7 
REMARK    5  A    between atoms: C6_6  and  S8_8 
ROOT
HETATM    1  C1  UNL     1     -33.565  17.227  -1.499  1.00 20.00    -0.109 C 
HETATM    2  C2  UNL     1     -33.444  16.584  -2.506  1.00 20.00    -0.077 C 
HETATM    3  C3  UNL     1     -33.712  18.009  -0.272  1.00 20.00     0.112 C 
ENDROOT
BRANCH   2   4
HETATM    4  C4  UNL     1     -33.292  15.805  -3.738  1.00 20.00     0.362 C 
BRANCH   4   5
HETATM    5  N7  UNL     1     -34.276  14.732  -3.801  1.00 20.00     0.095 N 
HETATM    6  H18 UNL     1     -34.967  14.867  -3.064  1.00 20.00     0.317 HD
BRANCH   5   7
HETATM    7  C5  UNL     1     -34.946  14.715  -5.093  1.00 20.00     0.280 C 
BRANCH   7   8
HETATM    8  C6  UNL     1     -34.026  15.094  -6.245  1.00 20.00     0.100 C 
BRANCH   8   9
HETATM    9  S8  UNL     1     -34.938  15.814  -7.644  1.00 20.00    -0.180 SA
HETATM   10  H19 UNL     1     -33.899  16.483  -8.159  1.00 20.00     0.101 HD
ENDBRANCH   8   9
ENDBRANCH   7   8
ENDBRANCH   5   7
ENDBRANCH   4   5
ENDBRANCH   2   4
TORSDOF 5
ENDMDL
MODEL 5
REMARK VINA RESULT:      -3.3     11.764     12.196
REMARK  5 active torsions:
REMARK  status: ('A' for Active; 'I' for Inactive)
REMARK    1  A    between atoms: C2_2  and  C4_4 
REMARK    2  A    between atoms: C4_4  and  N7_7 
REMARK    3  A    between atoms: C5_5  and  C6_6 
REMARK    4  A    between atoms: C5_5  and  N7_7 
REMARK    5  A    between atoms: C6_6  and  S8_8 
ROOT
HETATM    1  C1  UNL     1     -32.616   8.875   2.106  1.00 20.00    -0.109 C 
HETATM    2  C2  UNL     1     -32.546   8.608   3.275  1.00 20.00    -0.077 C 
HETATM    3  C3  UNL     1     -32.701   9.200   0.683  1.00 20.00     0.112 C 
ENDROOT
BRANCH   2   4
HETATM    4  C4  UNL     1     -32.460   8.289   4.703  1.00 20.00     0.362 C 
BRANCH   4   5
HETATM    5  N7  UNL     1     -33.764   7.916   5.234  1.00 20.00     0.095 N 
HETATM    6  H18 UNL     1     -34.313   7.478   4.496  1.00 20.00     0.317 HD
BRANCH   5   7
HETATM    7  C5  UNL     1     -33.627   6.989   6.348  1.00 20.00     0.280 C 
BRANCH   7   8
HETATM    8  C6  UNL     1     -34.544   5.779   6.231  1.00 20.00     0.100 C 
BRANCH   8   9
HETATM    9  S8  UNL     1     -34.454   5.004   4.589  1.00 20.00    -0.180 SA
HETATM   10  H19 UNL     1     -35.352   5.809   4.006  1.00 20.00     0.101 HD
ENDBRANCH   8   9
ENDBRANCH   7   8
ENDBRANCH   5   7
ENDBRANCH   4   5
ENDBRANCH   2   4
TORSDOF 5
ENDMDL
MODEL 6
REMARK VINA RESULT:      -3.2     12.226     12.581
REMARK  5 active torsions:
REMARK  status: ('A' for Active; 'I' for Inactive)
REMARK    1  A    between atoms: C2_2  and  C4_4 
REMARK    2  A    between atoms: C4_4  and  N7_7 
REMARK    3  A    between atoms: C5_5  and  C6_6 
REMARK    4  A    between atoms: C5_5  and  N7_7 
REMARK    5  A    between atoms: C6_6  and  S8_8 
ROOT
HETATM    1  C1  UNL     1     -34.110   6.614   6.033  1.00 20.00    -0.109 C 
HETATM    2  C2  UNL     1     -33.554   7.629   5.712  1.00 20.00    -0.077 C 
HETATM    3  C3  UNL     1     -34.788   5.378   6.424  1.00 20.00     0.112 C 
ENDROOT
BRANCH   2   4
HETATM    4  C4  UNL     1     -32.877   8.871   5.326  1.00 20.00     0.362 C 
BRANCH   4   5
HETATM    5  N7  UNL     1     -32.572   8.877   3.901  1.00 20.00     0.095 N 
HETATM    6  H18 UNL     1     -32.028   9.710   3.679  1.00 20.00     0.317 HD
BRANCH   5   7
HETATM    7  C5  UNL     1     -31.815   7.692   3.526  1.00 20.00     0.280 C 
BRANCH   7   8
HETATM    8  C6  UNL     1     -32.402   6.967   2.323  1.00 20.00     0.100 C 
BRANCH   8   9
HETATM    9  S8  UNL     1     -32.947   5.282   2.735  1.00 20.00    -0.180 SA
HETATM   10  H19 UNL     1     -31.794   4.680   2.413  1.00 20.00     0.101 HD
ENDBRANCH   8   9
ENDBRANCH   7   8
ENDBRANCH   5   7
ENDBRANCH   4   5
ENDBRANCH   2   4
TORSDOF 5
ENDMDL
MODEL 7
REMARK VINA RESULT:      -3.2     12.987     13.512
REMARK  5 active torsions:
REMARK  status: ('A' for Active; 'I' for Inactive)
REMARK    1  A    between atoms: C2_2  and  C4_4 
REMARK    2  A    between atoms: C4_4  and  N7_7 
REMARK    3  A    between atoms: C5_5  and  C6_6 
REMARK    4  A    between atoms: C5_5  and  N7_7 
REMARK    5  A    between atoms: C6_6  and  S8_8 
ROOT
HETATM    1  C1  UNL     1     -33.603   5.014   3.510  1.00 20.00    -0.109 C 
HETATM    2  C2  UNL     1     -34.118   5.023   4.596  1.00 20.00    -0.077 C 
HETATM    3  C3  UNL     1     -32.977   5.004   2.189  1.00 20.00     0.112 C 
ENDROOT
BRANCH   2   4
HETATM    4  C4  UNL     1     -34.740   5.036   5.923  1.00 20.00     0.362 C 
BRANCH   4   5
HETATM    5  N7  UNL     1     -34.784   6.388   6.464  1.00 20.00     0.095 N 
HETATM    6  H18 UNL     1     -35.007   6.344   7.457  1.00 20.00     0.317 HD
BRANCH   5   7
HETATM    7  C5  UNL     1     -33.505   7.060   6.288  1.00 20.00     0.280 C 
BRANCH   7   8
HETATM    8  C6  UNL     1     -33.611   8.333   5.459  1.00 20.00     0.100 C 
BRANCH   8   9
HETATM    9  S8  UNL     1     -32.314   8.437   4.189  1.00 20.00    -0.180 SA
HETATM   10  H19 UNL     1     -33.014   7.824   3.225  1.00 20.00     0.101 HD
ENDBRANCH   8   9
ENDBRANCH   7   8
ENDBRANCH   5   7
ENDBRANCH   4   5
ENDBRANCH   2   4
TORSDOF 5
ENDMDL
MODEL 8
REMARK VINA RESULT:      -3.1     11.384     11.857
REMARK  5 active torsions:
REMARK  status: ('A' for Active; 'I' for Inactive)
REMARK    1  A    between atoms: C2_2  and  C4_4 
REMARK    2  A    between atoms: C4_4  and  N7_7 
REMARK    3  A    between atoms: C5_5  and  C6_6 
REMARK    4  A    between atoms: C5_5  and  N7_7 
REMARK    5  A    between atoms: C6_6  and  S8_8 
ROOT
HETATM    1  C1  UNL     1     -32.488   8.753   1.471  1.00 20.00    -0.109 C 
HETATM    2  C2  UNL     1     -32.262   8.176   2.500  1.00 20.00    -0.077 C 
HETATM    3  C3  UNL     1     -32.762   9.456   0.218  1.00 20.00     0.112 C 
ENDROOT
BRANCH   2   4
HETATM    4  C4  UNL     1     -31.988   7.478   3.760  1.00 20.00     0.362 C 
BRANCH   4   5
HETATM    5  N7  UNL     1     -32.343   8.309   4.903  1.00 20.00     0.095 N 
HETATM    6  H18 UNL     1     -32.218   9.290   4.656  1.00 20.00     0.317 HD
BRANCH   5   7
HETATM    7  C5  UNL     1     -33.724   8.084   5.301  1.00 20.00     0.280 C 
BRANCH   7   8
HETATM    8  C6  UNL     1     -33.879   6.943   6.298  1.00 20.00     0.100 C 
BRANCH   8   9
HETATM    9  S8  UNL     1     -34.713   5.501   5.569  1.00 20.00    -0.180 SA
HETATM   10  H19 UNL     1     -34.556   4.698   6.629  1.00 20.00     0.101 HD
ENDBRANCH   8   9
ENDBRANCH   7   8
ENDBRANCH   5   7
ENDBRANCH   4   5
ENDBRANCH   2   4
TORSDOF 5
ENDMDL
MODEL 9
REMARK VINA RESULT:      -3.1      2.136      3.348
REMARK  5 active torsions:
REMARK  status: ('A' for Active; 'I' for Inactive)
REMARK    1  A    between atoms: C2_2  and  C4_4 
REMARK    2  A    between atoms: C4_4  and  N7_7 
REMARK    3  A    between atoms: C5_5  and  C6_6 
REMARK    4  A    between atoms: C5_5  and  N7_7 
REMARK    5  A    between atoms: C6_6  and  S8_8 
ROOT
HETATM    1  C1  UNL     1     -31.880  18.429  -0.262  1.00 20.00    -0.109 C 
HETATM    2  C2  UNL     1     -32.759  18.099  -1.012  1.00 20.00    -0.077 C 
HETATM    3  C3  UNL     1     -30.810  18.830   0.650  1.00 20.00     0.112 C 
ENDROOT
BRANCH   2   4
HETATM    4  C4  UNL     1     -33.832  17.689  -1.923  1.00 20.00     0.362 C 
BRANCH   4   5
HETATM    5  N7  UNL     1     -33.683  16.292  -2.308  1.00 20.00     0.095 N 
HETATM    6  H18 UNL     1     -34.549  15.794  -2.103  1.00 20.00     0.317 HD
BRANCH   5   7
HETATM    7  C5  UNL     1     -33.383  16.173  -3.727  1.00 20.00     0.280 C 
BRANCH   7   8
HETATM    8  C6  UNL     1     -33.997  14.933  -4.363  1.00 20.00     0.100 C 
BRANCH   8   9
HETATM    9  S8  UNL     1     -34.229  15.124  -6.156  1.00 20.00    -0.180 SA
HETATM   10  H19 UNL     1     -34.323  16.460  -6.143  1.00 20.00     0.101 HD
ENDBRANCH   8   9
ENDBRANCH   7   8
ENDBRANCH   5   7
ENDBRANCH   4   5
ENDBRANCH   2   4
TORSDOF 5
ENDMDL
