MODEL 1
REMARK VINA RESULT:      -4.7      0.000      0.000
REMARK  0 active torsions:
REMARK  status: ('A' for Active; 'I' for Inactive)
ROOT
HETATM    1  C1  UNL     1     -33.211   5.312   2.951  1.00 20.00     0.099 C 
HETATM    2  C2  UNL     1     -34.806   5.586   6.105  1.00 20.00    -0.026 C 
HETATM    3  C3  UNL     1     -34.765   5.350   4.787  1.00 20.00     0.019 C 
HETATM    4  C4  UNL     1     -34.109   6.764   6.708  1.00 20.00     0.057 C 
HETATM    5  C5  UNL     1     -33.717   7.809   5.657  1.00 20.00     0.277 C 
HETATM    6  C6  UNL     1     -33.979   6.217   3.828  1.00 20.00     0.350 C 
HETATM    7  C7  UNL     1     -32.586   8.202   3.573  1.00 20.00     0.312 C 
HETATM    8  N8  UNL     1     -32.608   4.600   2.262  1.00 20.00    -0.195 NA
HETATM    9  N9  UNL     1     -33.067   7.173   4.500  1.00 20.00     0.106 N 
ENDROOT
TORSDOF 0
ENDMDL
MODEL 2
REMARK VINA RESULT:      -4.6      1.165      2.693
REMARK  0 active torsions:
REMARK  status: ('A' for Active; 'I' for Inactive)
ROOT
HETATM    1  C1  UNL     1     -32.763   8.135   3.693  1.00 20.00     0.099 C 
HETATM    2  C2  UNL     1     -34.426   6.623   6.433  1.00 20.00    -0.026 C 
HETATM    3  C3  UNL     1     -33.422   7.286   5.845  1.00 20.00     0.019 C 
HETATM    4  C4  UNL     1     -35.040   5.414   5.800  1.00 20.00     0.057 C 
HETATM    5  C5  UNL     1     -34.168   4.838   4.680  1.00 20.00     0.277 C 
HETATM    6  C6  UNL     1     -32.874   6.897   4.489  1.00 20.00     0.350 C 
HETATM    7  C7  UNL     1     -32.986   5.311   2.640  1.00 20.00     0.312 C 
HETATM    8  N8  UNL     1     -32.675   9.108   3.067  1.00 20.00    -0.195 NA
HETATM    9  N9  UNL     1     -33.707   5.902   3.773  1.00 20.00     0.106 N 
ENDROOT
TORSDOF 0
ENDMDL
MODEL 3
REMARK VINA RESULT:      -4.2      1.436      3.193
REMARK  0 active torsions:
REMARK  status: ('A' for Active; 'I' for Inactive)
ROOT
HETATM    1  C1  UNL     1     -34.413   5.717   5.554  1.00 20.00     0.099 C 
HETATM    2  C2  UNL     1     -32.728   8.783   4.986  1.00 20.00    -0.026 C 
HETATM    3  C3  UNL     1     -33.800   8.022   5.241  1.00 20.00     0.019 C 
HETATM    4  C4  UNL     1     -31.738   8.406   3.930  1.00 20.00     0.057 C 
HETATM    5  C5  UNL     1     -32.283   7.338   2.976  1.00 20.00     0.277 C 
HETATM    6  C6  UNL     1     -34.060   6.715   4.526  1.00 20.00     0.350 C 
HETATM    7  C7  UNL     1     -33.305   5.170   2.797  1.00 20.00     0.312 C 
HETATM    8  N8  UNL     1     -34.691   4.933   6.363  1.00 20.00    -0.195 NA
HETATM    9  N9  UNL     1     -32.910   6.236   3.723  1.00 20.00     0.106 N 
ENDROOT
TORSDOF 0
ENDMDL
MODEL 4
REMARK VINA RESULT:      -3.7      1.626      3.328
REMARK  0 active torsions:
REMARK  status: ('A' for Active; 'I' for Inactive)
ROOT
HETATM    1  C1  UNL     1     -32.669   8.167   4.703  1.00 20.00     0.099 C 
HETATM    2  C2  UNL     1     -33.205   5.140   2.938  1.00 20.00    -0.026 C 
HETATM    3  C3  UNL     1     -33.228   6.470   3.092  1.00 20.00     0.019 C 
HETATM    4  C4  UNL     1     -33.670   4.221   4.024  1.00 20.00     0.057 C 
HETATM    5  C5  UNL     1     -34.493   4.952   5.091  1.00 20.00     0.277 C 
HETATM    6  C6  UNL     1     -33.672   7.134   4.377  1.00 20.00     0.350 C 
HETATM    7  C7  UNL     1     -34.564   6.804   6.622  1.00 20.00     0.312 C 
HETATM    8  N8  UNL     1     -31.881   8.979   4.959  1.00 20.00    -0.195 NA
HETATM    9  N9  UNL     1     -33.825   6.194   5.511  1.00 20.00     0.106 N 
ENDROOT
TORSDOF 0
ENDMDL
MODEL 5
REMARK VINA RESULT:      -3.6     16.383     17.074
REMARK  0 active torsions:
REMARK  status: ('A' for Active; 'I' for Inactive)
ROOT
HETATM    1  C1  UNL     1     -22.198  17.781   9.340  1.00 20.00     0.099 C 
HETATM    2  C2  UNL     1     -25.379  19.196  10.006  1.00 20.00    -0.026 C 
HETATM    3  C3  UNL     1     -24.173  19.152   9.424  1.00 20.00     0.019 C 
HETATM    4  C4  UNL     1     -25.554  18.905  11.462  1.00 20.00     0.057 C 
HETATM    5  C5  UNL     1     -24.226  18.948  12.227  1.00 20.00     0.277 C 
HETATM    6  C6  UNL     1     -22.921  18.759  10.176  1.00 20.00     0.350 C 
HETATM    7  C7  UNL     1     -21.966  18.135  12.332  1.00 20.00     0.312 C 
HETATM    8  N8  UNL     1     -21.630  17.013   8.682  1.00 20.00    -0.195 NA
HETATM    9  N9  UNL     1     -23.185  18.187  11.517  1.00 20.00     0.106 N 
ENDROOT
TORSDOF 0
ENDMDL
MODEL 6
REMARK VINA RESULT:      -3.6     12.997     13.976
REMARK  0 active torsions:
REMARK  status: ('A' for Active; 'I' for Inactive)
ROOT
HETATM    1  C1  UNL     1     -34.137  15.405  -6.585  1.00 20.00     0.099 C 
HETATM    2  C2  UNL     1     -33.293  16.010  -3.196  1.00 20.00    -0.026 C 
HETATM    3  C3  UNL     1     -33.780  15.281  -4.210  1.00 20.00     0.019 C 
HETATM    4  C4  UNL     1     -33.637  17.457  -3.040  1.00 20.00     0.057 C 
HETATM    5  C5  UNL     1     -34.847  17.862  -3.889  1.00 20.00     0.277 C 
HETATM    6  C6  UNL     1     -34.661  15.873  -5.287  1.00 20.00     0.350 C 
HETATM    7  C7  UNL     1     -35.822  17.863  -6.086  1.00 20.00     0.312 C 
HETATM    8  N8  UNL     1     -33.724  15.036  -7.605  1.00 20.00    -0.195 NA
HETATM    9  N9  UNL     1     -34.719  17.353  -5.264  1.00 20.00     0.106 N 
ENDROOT
TORSDOF 0
ENDMDL
MODEL 7
REMARK VINA RESULT:      -3.5     12.340     13.638
REMARK  0 active torsions:
REMARK  status: ('A' for Active; 'I' for Inactive)
ROOT
HETATM    1  C1  UNL     1     -33.528  16.999  -2.288  1.00 20.00     0.099 C 
HETATM    2  C2  UNL     1     -34.400  14.494  -4.638  1.00 20.00    -0.026 C 
HETATM    3  C3  UNL     1     -33.586  15.103  -3.766  1.00 20.00     0.019 C 
HETATM    4  C4  UNL     1     -35.180  15.271  -5.651  1.00 20.00     0.057 C 
HETATM    5  C5  UNL     1     -34.654  16.701  -5.817  1.00 20.00     0.277 C 
HETATM    6  C6  UNL     1     -33.434  16.607  -3.707  1.00 20.00     0.350 C 
HETATM    7  C7  UNL     1     -34.067  18.745  -4.694  1.00 20.00     0.312 C 
HETATM    8  N8  UNL     1     -33.601  17.307  -1.171  1.00 20.00    -0.195 NA
HETATM    9  N9  UNL     1     -34.444  17.339  -4.507  1.00 20.00     0.106 N 
ENDROOT
TORSDOF 0
ENDMDL
MODEL 8
REMARK VINA RESULT:      -3.5     15.989     17.331
REMARK  0 active torsions:
REMARK  status: ('A' for Active; 'I' for Inactive)
ROOT
HETATM    1  C1  UNL     1     -24.899  17.633  11.880  1.00 20.00     0.099 C 
HETATM    2  C2  UNL     1     -21.473  18.513  11.653  1.00 20.00    -0.026 C 
HETATM    3  C3  UNL     1     -22.689  18.522  12.214  1.00 20.00     0.019 C 
HETATM    4  C4  UNL     1     -21.293  18.696  10.179  1.00 20.00     0.057 C 
HETATM    5  C5  UNL     1     -22.548  19.261   9.506  1.00 20.00     0.277 C 
HETATM    6  C6  UNL     1     -23.958  18.667  11.404  1.00 20.00     0.350 C 
HETATM    7  C7  UNL     1     -24.917  19.007   9.188  1.00 20.00     0.312 C 
HETATM    8  N8  UNL     1     -25.638  16.821  12.254  1.00 20.00    -0.195 NA
HETATM    9  N9  UNL     1     -23.751  18.535   9.943  1.00 20.00     0.106 N 
ENDROOT
TORSDOF 0
ENDMDL
MODEL 9
REMARK VINA RESULT:      -3.4     12.363     13.653
REMARK  0 active torsions:
REMARK  status: ('A' for Active; 'I' for Inactive)
ROOT
HETATM    1  C1  UNL     1     -33.582  15.589  -3.957  1.00 20.00     0.099 C 
HETATM    2  C2  UNL     1     -32.780  17.906  -1.397  1.00 20.00    -0.026 C 
HETATM    3  C3  UNL     1     -33.438  16.865  -1.922  1.00 20.00     0.019 C 
HETATM    4  C4  UNL     1     -32.577  19.171  -2.170  1.00 20.00     0.057 C 
HETATM    5  C5  UNL     1     -33.501  19.262  -3.390  1.00 20.00     0.277 C 
HETATM    6  C6  UNL     1     -33.975  16.870  -3.337  1.00 20.00     0.350 C 
HETATM    7  C7  UNL     1     -34.274  18.162  -5.383  1.00 20.00     0.312 C 
HETATM    8  N8  UNL     1     -33.274  14.583  -4.444  1.00 20.00    -0.195 NA
HETATM    9  N9  UNL     1     -33.487  18.005  -4.155  1.00 20.00     0.106 N 
ENDROOT
TORSDOF 0
ENDMDL
