MODEL 1
REMARK VINA RESULT:      -4.6      0.000      0.000
REMARK  2 active torsions:
REMARK  status: ('A' for Active; 'I' for Inactive)
REMARK    1  A    between atoms: C1_1  and  C8_8 
REMARK    2  A    between atoms: C2_2  and  C3_3 
ROOT
HETATM    1  C1  UNL     1     -33.682   6.983   4.860  1.00 20.00    -0.009 C 
HETATM    2  C3  UNL     1     -32.816   7.357   3.898  1.00 20.00    -0.027 C 
HETATM    3  C4  UNL     1     -32.464   6.653   2.627  1.00 20.00     0.051 C 
ENDROOT
BRANCH   1   4
HETATM    4  C8  UNL     1     -34.539   5.725   4.972  1.00 20.00    -0.033 C 
HETATM    5  C5  UNL     1     -34.802   5.453   6.472  1.00 20.00     0.018 C 
HETATM    6  C6  UNL     1     -35.905   5.925   4.292  1.00 20.00     0.018 C 
HETATM    7  C7  UNL     1     -33.827   4.485   4.404  1.00 20.00     0.018 C 
ENDBRANCH   1   4
BRANCH   2   8
HETATM    8  C2  UNL     1     -32.125   8.659   4.132  1.00 20.00     0.265 C 
HETATM    9  O9  UNL     1     -32.220   9.288   5.180  1.00 20.00    -0.302 OA
ENDBRANCH   2   8
TORSDOF 2
ENDMDL
MODEL 2
REMARK VINA RESULT:      -4.5      0.054      1.442
REMARK  2 active torsions:
REMARK  status: ('A' for Active; 'I' for Inactive)
REMARK    1  A    between atoms: C1_1  and  C8_8 
REMARK    2  A    between atoms: C2_2  and  C3_3 
ROOT
HETATM    1  C1  UNL     1     -33.673   6.977   4.874  1.00 20.00    -0.009 C 
HETATM    2  C3  UNL     1     -32.830   7.335   3.886  1.00 20.00    -0.027 C 
HETATM    3  C4  UNL     1     -32.493   6.602   2.628  1.00 20.00     0.051 C 
ENDROOT
BRANCH   1   4
HETATM    4  C8  UNL     1     -34.512   5.712   5.036  1.00 20.00    -0.033 C 
HETATM    5  C5  UNL     1     -35.861   5.932   4.313  1.00 20.00     0.018 C 
HETATM    6  C6  UNL     1     -33.824   4.505   4.377  1.00 20.00     0.018 C 
HETATM    7  C7  UNL     1     -34.832   5.414   6.512  1.00 20.00     0.018 C 
ENDBRANCH   1   4
BRANCH   2   8
HETATM    8  C2  UNL     1     -32.152   8.652   4.072  1.00 20.00     0.265 C 
HETATM    9  O9  UNL     1     -32.198   9.286   5.119  1.00 20.00    -0.302 OA
ENDBRANCH   2   8
TORSDOF 2
ENDMDL
MODEL 3
REMARK VINA RESULT:      -4.4      0.058      1.451
REMARK  2 active torsions:
REMARK  status: ('A' for Active; 'I' for Inactive)
REMARK    1  A    between atoms: C1_1  and  C8_8 
REMARK    2  A    between atoms: C2_2  and  C3_3 
ROOT
HETATM    1  C1  UNL     1     -33.666   6.973   4.872  1.00 20.00    -0.009 C 
HETATM    2  C3  UNL     1     -32.806   7.317   3.894  1.00 20.00    -0.027 C 
HETATM    3  C4  UNL     1     -32.496   6.597   2.621  1.00 20.00     0.051 C 
ENDROOT
BRANCH   1   4
HETATM    4  C8  UNL     1     -34.557   5.742   5.006  1.00 20.00    -0.033 C 
HETATM    5  C5  UNL     1     -33.827   4.544   4.353  1.00 20.00     0.018 C 
HETATM    6  C6  UNL     1     -34.792   5.389   6.485  1.00 20.00     0.018 C 
HETATM    7  C7  UNL     1     -35.898   5.912   4.270  1.00 20.00     0.018 C 
ENDBRANCH   1   4
BRANCH   2   8
HETATM    8  C2  UNL     1     -32.074   8.600   4.109  1.00 20.00     0.265 C 
HETATM    9  O9  UNL     1     -32.194   9.277   5.124  1.00 20.00    -0.302 OA
ENDBRANCH   2   8
TORSDOF 2
ENDMDL
MODEL 4
REMARK VINA RESULT:      -4.2      1.168      2.166
REMARK  2 active torsions:
REMARK  status: ('A' for Active; 'I' for Inactive)
REMARK    1  A    between atoms: C1_1  and  C8_8 
REMARK    2  A    between atoms: C2_2  and  C3_3 
ROOT
HETATM    1  C1  UNL     1     -33.472   6.646   4.254  1.00 20.00    -0.009 C 
HETATM    2  C3  UNL     1     -33.234   7.916   4.636  1.00 20.00    -0.027 C 
HETATM    3  C4  UNL     1     -33.783   8.661   5.809  1.00 20.00     0.051 C 
ENDROOT
BRANCH   1   4
HETATM    4  C8  UNL     1     -34.391   5.594   4.867  1.00 20.00    -0.033 C 
HETATM    5  C5  UNL     1     -35.831   5.862   4.370  1.00 20.00     0.018 C 
HETATM    6  C6  UNL     1     -33.998   4.180   4.404  1.00 20.00     0.018 C 
HETATM    7  C7  UNL     1     -34.419   5.672   6.404  1.00 20.00     0.018 C 
ENDBRANCH   1   4
BRANCH   2   8
HETATM    8  C2  UNL     1     -32.280   8.674   3.773  1.00 20.00     0.265 C 
HETATM    9  O9  UNL     1     -32.581   9.114   2.670  1.00 20.00    -0.302 OA
ENDBRANCH   2   8
TORSDOF 2
ENDMDL
MODEL 5
REMARK VINA RESULT:      -4.2      1.146      2.200
REMARK  2 active torsions:
REMARK  status: ('A' for Active; 'I' for Inactive)
REMARK    1  A    between atoms: C1_1  and  C8_8 
REMARK    2  A    between atoms: C2_2  and  C3_3 
ROOT
HETATM    1  C1  UNL     1     -33.482   6.654   4.302  1.00 20.00    -0.009 C 
HETATM    2  C3  UNL     1     -33.268   7.927   4.686  1.00 20.00    -0.027 C 
HETATM    3  C4  UNL     1     -33.893   8.685   5.813  1.00 20.00     0.051 C 
ENDROOT
BRANCH   1   4
HETATM    4  C8  UNL     1     -34.441   5.608   4.863  1.00 20.00    -0.033 C 
HETATM    5  C5  UNL     1     -33.987   4.218   4.360  1.00 20.00     0.018 C 
HETATM    6  C6  UNL     1     -34.392   5.583   6.400  1.00 20.00     0.018 C 
HETATM    7  C7  UNL     1     -35.884   5.820   4.371  1.00 20.00     0.018 C 
ENDBRANCH   1   4
BRANCH   2   8
HETATM    8  C2  UNL     1     -32.258   8.676   3.881  1.00 20.00     0.265 C 
HETATM    9  O9  UNL     1     -32.483   9.103   2.755  1.00 20.00    -0.302 OA
ENDBRANCH   2   8
TORSDOF 2
ENDMDL
MODEL 6
REMARK VINA RESULT:      -3.9      8.794      9.827
REMARK  2 active torsions:
REMARK  status: ('A' for Active; 'I' for Inactive)
REMARK    1  A    between atoms: C1_1  and  C8_8 
REMARK    2  A    between atoms: C2_2  and  C3_3 
ROOT
HETATM    1  C1  UNL     1     -40.736  12.898   5.011  1.00 20.00    -0.009 C 
HETATM    2  C3  UNL     1     -39.595  12.219   5.237  1.00 20.00    -0.027 C 
HETATM    3  C4  UNL     1     -38.911  11.940   6.537  1.00 20.00     0.051 C 
ENDROOT
BRANCH   1   4
HETATM    4  C8  UNL     1     -41.659  13.617   5.989  1.00 20.00    -0.033 C 
HETATM    5  C5  UNL     1     -42.703  14.414   5.172  1.00 20.00     0.018 C 
HETATM    6  C6  UNL     1     -42.428  12.611   6.864  1.00 20.00     0.018 C 
HETATM    7  C7  UNL     1     -40.901  14.629   6.867  1.00 20.00     0.018 C 
ENDBRANCH   1   4
BRANCH   2   8
HETATM    8  C2  UNL     1     -38.933  11.659   4.022  1.00 20.00     0.265 C 
HETATM    9  O9  UNL     1     -39.203  12.025   2.884  1.00 20.00    -0.302 OA
ENDBRANCH   2   8
TORSDOF 2
ENDMDL
MODEL 7
REMARK VINA RESULT:      -3.9     11.991     13.074
REMARK  2 active torsions:
REMARK  status: ('A' for Active; 'I' for Inactive)
REMARK    1  A    between atoms: C1_1  and  C8_8 
REMARK    2  A    between atoms: C2_2  and  C3_3 
ROOT
HETATM    1  C1  UNL     1     -33.465  16.659  -2.501  1.00 20.00    -0.009 C 
HETATM    2  C3  UNL     1     -33.743  16.283  -3.764  1.00 20.00    -0.027 C 
HETATM    3  C4  UNL     1     -34.313  17.096  -4.881  1.00 20.00     0.051 C 
ENDROOT
BRANCH   1   4
HETATM    4  C8  UNL     1     -33.673  18.003  -1.810  1.00 20.00    -0.033 C 
HETATM    5  C5  UNL     1     -33.611  17.775  -0.281  1.00 20.00     0.018 C 
HETATM    6  C6  UNL     1     -32.551  18.991  -2.176  1.00 20.00     0.018 C 
HETATM    7  C7  UNL     1     -35.052  18.610  -2.123  1.00 20.00     0.018 C 
ENDBRANCH   1   4
BRANCH   2   8
HETATM    8  C2  UNL     1     -33.425  14.861  -4.092  1.00 20.00     0.265 C 
HETATM    9  O9  UNL     1     -34.255  13.961  -4.039  1.00 20.00    -0.302 OA
ENDBRANCH   2   8
TORSDOF 2
ENDMDL
MODEL 8
REMARK VINA RESULT:      -3.8     15.579     16.434
REMARK  2 active torsions:
REMARK  status: ('A' for Active; 'I' for Inactive)
REMARK    1  A    between atoms: C1_1  and  C8_8 
REMARK    2  A    between atoms: C2_2  and  C3_3 
ROOT
HETATM    1  C1  UNL     1     -22.772  17.494  10.022  1.00 20.00    -0.009 C 
HETATM    2  C3  UNL     1     -22.657  18.093   8.821  1.00 20.00    -0.027 C 
HETATM    3  C4  UNL     1     -23.414  19.263   8.280  1.00 20.00     0.051 C 
ENDROOT
BRANCH   1   4
HETATM    4  C8  UNL     1     -23.720  17.792  11.180  1.00 20.00    -0.033 C 
HETATM    5  C5  UNL     1     -24.203  16.445  11.767  1.00 20.00     0.018 C 
HETATM    6  C6  UNL     1     -22.996  18.554  12.304  1.00 20.00     0.018 C 
HETATM    7  C7  UNL     1     -24.971  18.563  10.722  1.00 20.00     0.018 C 
ENDBRANCH   1   4
BRANCH   2   8
HETATM    8  C2  UNL     1     -21.622  17.513   7.915  1.00 20.00     0.265 C 
HETATM    9  O9  UNL     1     -21.591  17.732   6.709  1.00 20.00    -0.302 OA
ENDBRANCH   2   8
TORSDOF 2
ENDMDL
MODEL 9
REMARK VINA RESULT:      -3.6      2.178      4.157
REMARK  2 active torsions:
REMARK  status: ('A' for Active; 'I' for Inactive)
REMARK    1  A    between atoms: C1_1  and  C8_8 
REMARK    2  A    between atoms: C2_2  and  C3_3 
ROOT
HETATM    1  C1  UNL     1     -33.513   6.996   3.997  1.00 20.00    -0.009 C 
HETATM    2  C3  UNL     1     -34.129   6.527   5.099  1.00 20.00    -0.027 C 
HETATM    3  C4  UNL     1     -34.110   7.075   6.490  1.00 20.00     0.051 C 
ENDROOT
BRANCH   1   4
HETATM    4  C8  UNL     1     -32.588   8.198   3.827  1.00 20.00    -0.033 C 
HETATM    5  C5  UNL     1     -31.161   7.672   3.543  1.00 20.00     0.018 C 
HETATM    6  C6  UNL     1     -33.012   9.056   2.623  1.00 20.00     0.018 C 
HETATM    7  C7  UNL     1     -32.510   9.055   5.103  1.00 20.00     0.018 C 
ENDBRANCH   1   4
BRANCH   2   8
HETATM    8  C2  UNL     1     -34.951   5.297   4.896  1.00 20.00     0.265 C 
HETATM    9  O9  UNL     1     -34.466   4.209   4.610  1.00 20.00    -0.302 OA
ENDBRANCH   2   8
TORSDOF 2
ENDMDL
