MODEL 1
REMARK VINA RESULT:      -4.0      0.000      0.000
REMARK  0 active torsions:
REMARK  status: ('A' for Active; 'I' for Inactive)
ROOT
HETATM    1  C1  UNL     1     -40.230  12.902   6.091  1.00 20.00     0.037 C 
HETATM    2  C2  UNL     1     -41.374  13.706   7.715  1.00 20.00     0.017 C 
HETATM    3  C3  UNL     1     -39.211  12.286   5.481  1.00 20.00    -0.063 C 
HETATM    4  C4  UNL     1     -41.580  13.110   5.470  1.00 20.00     0.074 C 
HETATM    5  C5  UNL     1     -42.456  13.424   6.690  1.00 20.00    -0.002 C 
HETATM    6  C6  UNL     1     -41.687  14.282   9.062  1.00 20.00     0.066 C 
HETATM    7  C7  UNL     1     -37.876  12.103   6.146  1.00 20.00     0.045 C 
HETATM    8  C8  UNL     1     -39.330  11.738   4.088  1.00 20.00     0.045 C 
HETATM    9  C9  UNL     1     -43.354  14.632   6.440  1.00 20.00     0.021 C 
HETATM   10  C10 UNL     1     -43.278  12.207   7.120  1.00 20.00     0.021 C 
HETATM   11  N11 UNL     1     -40.164  13.391   7.372  1.00 20.00    -0.262 NA
ENDROOT
TORSDOF 0
ENDMDL
MODEL 2
REMARK VINA RESULT:      -4.0     11.252     12.488
REMARK  0 active torsions:
REMARK  status: ('A' for Active; 'I' for Inactive)
ROOT
HETATM    1  C1  UNL     1     -32.653  18.877   0.096  1.00 20.00     0.037 C 
HETATM    2  C2  UNL     1     -34.242  18.814  -1.342  1.00 20.00     0.017 C 
HETATM    3  C3  UNL     1     -32.077  18.900   1.302  1.00 20.00    -0.063 C 
HETATM    4  C4  UNL     1     -31.934  18.524  -1.173  1.00 20.00     0.074 C 
HETATM    5  C5  UNL     1     -33.093  18.215  -2.130  1.00 20.00    -0.002 C 
HETATM    6  C6  UNL     1     -35.610  18.978  -1.930  1.00 20.00     0.066 C 
HETATM    7  C7  UNL     1     -32.841  19.262   2.544  1.00 20.00     0.045 C 
HETATM    8  C8  UNL     1     -30.626  18.567   1.498  1.00 20.00     0.045 C 
HETATM    9  C9  UNL     1     -32.898  18.892  -3.484  1.00 20.00     0.021 C 
HETATM   10  C10 UNL     1     -33.302  16.708  -2.294  1.00 20.00     0.021 C 
HETATM   11  N11 UNL     1     -33.982  19.149  -0.117  1.00 20.00    -0.262 NA
ENDROOT
TORSDOF 0
ENDMDL
MODEL 3
REMARK VINA RESULT:      -3.6      1.688      2.577
REMARK  0 active torsions:
REMARK  status: ('A' for Active; 'I' for Inactive)
ROOT
HETATM    1  C1  UNL     1     -40.733  14.018   7.033  1.00 20.00     0.037 C 
HETATM    2  C2  UNL     1     -40.646  14.572   9.102  1.00 20.00     0.017 C 
HETATM    3  C3  UNL     1     -40.672  13.219   5.963  1.00 20.00    -0.063 C 
HETATM    4  C4  UNL     1     -41.401  15.362   7.042  1.00 20.00     0.074 C 
HETATM    5  C5  UNL     1     -41.580  15.628   8.542  1.00 20.00    -0.002 C 
HETATM    6  C6  UNL     1     -40.273  14.529  10.552  1.00 20.00     0.066 C 
HETATM    7  C7  UNL     1     -39.990  11.881   6.004  1.00 20.00     0.045 C 
HETATM    8  C8  UNL     1     -41.281  13.604   4.644  1.00 20.00     0.045 C 
HETATM    9  C9  UNL     1     -41.151  17.045   8.916  1.00 20.00     0.021 C 
HETATM   10  C10 UNL     1     -43.014  15.351   8.997  1.00 20.00     0.021 C 
HETATM   11  N11 UNL     1     -40.213  13.687   8.259  1.00 20.00    -0.262 NA
ENDROOT
TORSDOF 0
ENDMDL
MODEL 4
REMARK VINA RESULT:      -3.6      1.826      4.105
REMARK  0 active torsions:
REMARK  status: ('A' for Active; 'I' for Inactive)
ROOT
HETATM    1  C1  UNL     1     -40.912  15.131   7.640  1.00 20.00     0.037 C 
HETATM    2  C2  UNL     1     -41.727  14.469   5.771  1.00 20.00     0.017 C 
HETATM    3  C3  UNL     1     -40.753  15.914   8.713  1.00 20.00    -0.063 C 
HETATM    4  C4  UNL     1     -40.435  13.710   7.559  1.00 20.00     0.074 C 
HETATM    5  C5  UNL     1     -41.236  13.164   6.370  1.00 20.00    -0.002 C 
HETATM    6  C6  UNL     1     -42.401  14.527   4.435  1.00 20.00     0.066 C 
HETATM    7  C7  UNL     1     -41.249  17.332   8.745  1.00 20.00     0.045 C 
HETATM    8  C8  UNL     1     -40.067  15.430   9.958  1.00 20.00     0.045 C 
HETATM    9  C9  UNL     1     -40.349  12.377   5.409  1.00 20.00     0.021 C 
HETATM   10  C10 UNL     1     -42.428  12.323   6.833  1.00 20.00     0.021 C 
HETATM   11  N11 UNL     1     -41.557  15.530   6.497  1.00 20.00    -0.262 NA
ENDROOT
TORSDOF 0
ENDMDL
MODEL 5
REMARK VINA RESULT:      -3.6     12.301     13.782
REMARK  0 active torsions:
REMARK  status: ('A' for Active; 'I' for Inactive)
ROOT
HETATM    1  C1  UNL     1     -34.536  17.211  -4.012  1.00 20.00     0.037 C 
HETATM    2  C2  UNL     1     -35.541  16.940  -5.886  1.00 20.00     0.017 C 
HETATM    3  C3  UNL     1     -34.311  17.703  -2.789  1.00 20.00    -0.063 C 
HETATM    4  C4  UNL     1     -33.910  15.954  -4.540  1.00 20.00     0.074 C 
HETATM    5  C5  UNL     1     -34.812  15.618  -5.736  1.00 20.00    -0.002 C 
HETATM    6  C6  UNL     1     -36.412  17.237  -7.067  1.00 20.00     0.066 C 
HETATM    7  C7  UNL     1     -34.963  18.968  -2.305  1.00 20.00     0.045 C 
HETATM    8  C8  UNL     1     -33.390  17.026  -1.814  1.00 20.00     0.045 C 
HETATM    9  C9  UNL     1     -33.994  15.258  -6.972  1.00 20.00     0.021 C 
HETATM   10  C10 UNL     1     -35.809  14.509  -5.394  1.00 20.00     0.021 C 
HETATM   11  N11 UNL     1     -35.391  17.789  -4.917  1.00 20.00    -0.262 NA
ENDROOT
TORSDOF 0
ENDMDL
MODEL 6
REMARK VINA RESULT:      -3.5     11.955     13.444
REMARK  0 active torsions:
REMARK  status: ('A' for Active; 'I' for Inactive)
ROOT
HETATM    1  C1  UNL     1     -34.862  16.772  -4.803  1.00 20.00     0.037 C 
HETATM    2  C2  UNL     1     -35.196  18.208  -3.246  1.00 20.00     0.017 C 
HETATM    3  C3  UNL     1     -35.002  16.187  -5.997  1.00 20.00    -0.063 C 
HETATM    4  C4  UNL     1     -33.704  16.531  -3.879  1.00 20.00     0.074 C 
HETATM    5  C5  UNL     1     -33.794  17.727  -2.922  1.00 20.00    -0.002 C 
HETATM    6  C6  UNL     1     -35.888  19.252  -2.426  1.00 20.00     0.066 C 
HETATM    7  C7  UNL     1     -36.182  16.461  -6.886  1.00 20.00     0.045 C 
HETATM    8  C8  UNL     1     -33.990  15.214  -6.531  1.00 20.00     0.045 C 
HETATM    9  C9  UNL     1     -33.647  17.294  -1.467  1.00 20.00     0.021 C 
HETATM   10  C10 UNL     1     -32.776  18.812  -3.279  1.00 20.00     0.021 C 
HETATM   11  N11 UNL     1     -35.752  17.685  -4.295  1.00 20.00    -0.262 NA
ENDROOT
TORSDOF 0
ENDMDL
MODEL 7
REMARK VINA RESULT:      -3.3     12.567     13.624
REMARK  0 active torsions:
REMARK  status: ('A' for Active; 'I' for Inactive)
ROOT
HETATM    1  C1  UNL     1     -34.493  16.771  -4.533  1.00 20.00     0.037 C 
HETATM    2  C2  UNL     1     -36.086  18.102  -5.070  1.00 20.00     0.017 C 
HETATM    3  C3  UNL     1     -33.622  16.142  -3.737  1.00 20.00    -0.063 C 
HETATM    4  C4  UNL     1     -34.857  16.308  -5.913  1.00 20.00     0.074 C 
HETATM    5  C5  UNL     1     -36.160  17.073  -6.181  1.00 20.00    -0.002 C 
HETATM    6  C6  UNL     1     -37.028  19.263  -4.997  1.00 20.00     0.066 C 
HETATM    7  C7  UNL     1     -33.289  16.647  -2.361  1.00 20.00     0.045 C 
HETATM    8  C8  UNL     1     -32.914  14.888  -4.164  1.00 20.00     0.045 C 
HETATM    9  C9  UNL     1     -36.161  17.709  -7.568  1.00 20.00     0.021 C 
HETATM   10  C10 UNL     1     -37.388  16.181  -5.984  1.00 20.00     0.021 C 
HETATM   11  N11 UNL     1     -35.177  17.903  -4.166  1.00 20.00    -0.262 NA
ENDROOT
TORSDOF 0
ENDMDL
MODEL 8
REMARK VINA RESULT:      -3.3     12.576     13.520
REMARK  0 active torsions:
REMARK  status: ('A' for Active; 'I' for Inactive)
ROOT
HETATM    1  C1  UNL     1     -34.664  16.170  -4.837  1.00 20.00     0.037 C 
HETATM    2  C2  UNL     1     -33.684  17.173  -3.215  1.00 20.00     0.017 C 
HETATM    3  C3  UNL     1     -35.345  15.205  -5.463  1.00 20.00    -0.063 C 
HETATM    4  C4  UNL     1     -34.520  17.571  -5.355  1.00 20.00     0.074 C 
HETATM    5  C5  UNL     1     -34.073  18.338  -4.104  1.00 20.00    -0.002 C 
HETATM    6  C6  UNL     1     -32.963  17.369  -1.917  1.00 20.00     0.066 C 
HETATM    7  C7  UNL     1     -35.459  13.816  -4.903  1.00 20.00     0.045 C 
HETATM    8  C8  UNL     1     -36.042  15.443  -6.773  1.00 20.00     0.045 C 
HETATM    9  C9  UNL     1     -32.896  19.263  -4.404  1.00 20.00     0.021 C 
HETATM   10  C10 UNL     1     -35.232  19.111  -3.473  1.00 20.00     0.021 C 
HETATM   11  N11 UNL     1     -34.038  15.996  -3.627  1.00 20.00    -0.262 NA
ENDROOT
TORSDOF 0
ENDMDL
MODEL 9
REMARK VINA RESULT:      -3.2     12.833     14.135
REMARK  0 active torsions:
REMARK  status: ('A' for Active; 'I' for Inactive)
ROOT
HETATM    1  C1  UNL     1     -34.629  16.503  -4.744  1.00 20.00     0.037 C 
HETATM    2  C2  UNL     1     -35.722  16.829  -6.559  1.00 20.00     0.017 C 
HETATM    3  C3  UNL     1     -33.698  15.982  -3.937  1.00 20.00    -0.063 C 
HETATM    4  C4  UNL     1     -35.388  17.763  -4.448  1.00 20.00     0.074 C 
HETATM    5  C5  UNL     1     -35.950  18.137  -5.826  1.00 20.00    -0.002 C 
HETATM    6  C6  UNL     1     -36.295  16.569  -7.918  1.00 20.00     0.066 C 
HETATM    7  C7  UNL     1     -32.965  14.716  -4.278  1.00 20.00     0.045 C 
HETATM    8  C8  UNL     1     -33.324  16.626  -2.632  1.00 20.00     0.045 C 
HETATM    9  C9  UNL     1     -37.427  18.514  -5.747  1.00 20.00     0.021 C 
HETATM   10  C10 UNL     1     -35.133  19.252  -6.484  1.00 20.00     0.021 C 
HETATM   11  N11 UNL     1     -34.977  15.957  -5.955  1.00 20.00    -0.262 NA
ENDROOT
TORSDOF 0
ENDMDL
