MODEL 1
REMARK VINA RESULT:      -4.5      0.000      0.000
REMARK  2 active torsions:
REMARK  status: ('A' for Active; 'I' for Inactive)
REMARK    1  A    between atoms: C2_2  and  C3_3 
REMARK    2  A    between atoms: C4_4  and  C5_5 
ROOT
HETATM    1  C1  UNL     1     -33.433  18.428   0.294  1.00 20.00    -0.020 C 
HETATM    2  C2  UNL     1     -32.600  18.236  -0.735  1.00 20.00    -0.062 C 
HETATM    3  C6  UNL     1     -32.699  18.844   1.526  1.00 20.00     0.028 C 
HETATM    4  C7  UNL     1     -31.177  18.494  -0.354  1.00 20.00     0.038 C 
HETATM    5  C8  UNL     1     -31.244  18.543   1.173  1.00 20.00     0.008 C 
ENDROOT
BRANCH   2   6
HETATM    6  C3  UNL     1     -32.969  17.852  -2.061  1.00 20.00     0.010 C 
HETATM    7  C4  UNL     1     -33.370  16.611  -2.384  1.00 20.00     0.050 C 
BRANCH   7   8
HETATM    8  C5  UNL     1     -33.741  16.273  -3.786  1.00 20.00     0.145 C 
HETATM    9  C9  UNL     1     -33.734  14.812  -4.152  1.00 20.00     0.096 C 
HETATM   10  O10 UNL     1     -34.060  17.133  -4.604  1.00 20.00    -0.294 OA
ENDBRANCH   7   8
ENDBRANCH   2   6
TORSDOF 2
ENDMDL
MODEL 2
REMARK VINA RESULT:      -4.5      1.980      5.261
REMARK  2 active torsions:
REMARK  status: ('A' for Active; 'I' for Inactive)
REMARK    1  A    between atoms: C2_2  and  C3_3 
REMARK    2  A    between atoms: C4_4  and  C5_5 
ROOT
HETATM    1  C1  UNL     1     -33.606  15.156  -3.815  1.00 20.00    -0.020 C 
HETATM    2  C2  UNL     1     -33.695  16.413  -3.366  1.00 20.00    -0.062 C 
HETATM    3  C6  UNL     1     -34.203  15.014  -5.176  1.00 20.00     0.028 C 
HETATM    4  C7  UNL     1     -34.365  17.311  -4.357  1.00 20.00     0.038 C 
HETATM    5  C8  UNL     1     -34.980  16.318  -5.344  1.00 20.00     0.008 C 
ENDROOT
BRANCH   2   6
HETATM    6  C3  UNL     1     -33.210  16.899  -2.113  1.00 20.00     0.010 C 
HETATM    7  C4  UNL     1     -32.446  17.998  -1.996  1.00 20.00     0.050 C 
BRANCH   7   8
HETATM    8  C5  UNL     1     -31.970  18.454  -0.661  1.00 20.00     0.145 C 
HETATM    9  C9  UNL     1     -32.971  18.409   0.464  1.00 20.00     0.096 C 
HETATM   10  O10 UNL     1     -30.815  18.829  -0.470  1.00 20.00    -0.294 OA
ENDBRANCH   7   8
ENDBRANCH   2   6
TORSDOF 2
ENDMDL
MODEL 3
REMARK VINA RESULT:      -4.4      1.130      1.258
REMARK  2 active torsions:
REMARK  status: ('A' for Active; 'I' for Inactive)
REMARK    1  A    between atoms: C2_2  and  C3_3 
REMARK    2  A    between atoms: C4_4  and  C5_5 
ROOT
HETATM    1  C1  UNL     1     -33.711  18.072   0.312  1.00 20.00    -0.020 C 
HETATM    2  C2  UNL     1     -33.161  17.809  -0.879  1.00 20.00    -0.062 C 
HETATM    3  C6  UNL     1     -32.796  18.874   1.177  1.00 20.00     0.028 C 
HETATM    4  C7  UNL     1     -31.790  18.396  -1.000  1.00 20.00     0.038 C 
HETATM    5  C8  UNL     1     -31.458  18.767   0.446  1.00 20.00     0.008 C 
ENDROOT
BRANCH   2   6
HETATM    6  C3  UNL     1     -33.768  17.082  -1.948  1.00 20.00     0.010 C 
HETATM    7  C4  UNL     1     -33.069  16.527  -2.952  1.00 20.00     0.050 C 
BRANCH   7   8
HETATM    8  C5  UNL     1     -33.761  15.782  -4.040  1.00 20.00     0.145 C 
HETATM    9  C9  UNL     1     -34.598  16.596  -4.990  1.00 20.00     0.096 C 
HETATM   10  O10 UNL     1     -33.642  14.566  -4.178  1.00 20.00    -0.294 OA
ENDBRANCH   7   8
ENDBRANCH   2   6
TORSDOF 2
ENDMDL
MODEL 4
REMARK VINA RESULT:      -4.4      2.054      5.163
REMARK  2 active torsions:
REMARK  status: ('A' for Active; 'I' for Inactive)
REMARK    1  A    between atoms: C2_2  and  C3_3 
REMARK    2  A    between atoms: C4_4  and  C5_5 
ROOT
HETATM    1  C1  UNL     1     -34.572  17.441  -3.957  1.00 20.00    -0.020 C 
HETATM    2  C2  UNL     1     -33.738  16.669  -3.250  1.00 20.00    -0.062 C 
HETATM    3  C6  UNL     1     -35.084  16.732  -5.168  1.00 20.00     0.028 C 
HETATM    4  C7  UNL     1     -33.562  15.322  -3.876  1.00 20.00     0.038 C 
HETATM    5  C8  UNL     1     -34.159  15.521  -5.270  1.00 20.00     0.008 C 
ENDROOT
BRANCH   2   6
HETATM    6  C3  UNL     1     -33.085  17.027  -2.031  1.00 20.00     0.010 C 
HETATM    7  C4  UNL     1     -32.530  18.231  -1.819  1.00 20.00     0.050 C 
BRANCH   7   8
HETATM    8  C5  UNL     1     -31.862  18.543  -0.525  1.00 20.00     0.145 C 
HETATM    9  C9  UNL     1     -32.743  18.594   0.695  1.00 20.00     0.096 C 
HETATM   10  O10 UNL     1     -30.649  18.729  -0.442  1.00 20.00    -0.294 OA
ENDBRANCH   7   8
ENDBRANCH   2   6
TORSDOF 2
ENDMDL
MODEL 5
REMARK VINA RESULT:      -4.3      3.528      5.805
REMARK  2 active torsions:
REMARK  status: ('A' for Active; 'I' for Inactive)
REMARK    1  A    between atoms: C2_2  and  C3_3 
REMARK    2  A    between atoms: C4_4  and  C5_5 
ROOT
HETATM    1  C1  UNL     1     -33.654  17.939   0.180  1.00 20.00    -0.020 C 
HETATM    2  C2  UNL     1     -32.416  18.401   0.390  1.00 20.00    -0.062 C 
HETATM    3  C6  UNL     1     -33.890  17.636  -1.263  1.00 20.00     0.028 C 
HETATM    4  C7  UNL     1     -31.628  18.479  -0.879  1.00 20.00     0.038 C 
HETATM    5  C8  UNL     1     -32.706  18.313  -1.951  1.00 20.00     0.008 C 
ENDROOT
BRANCH   2   6
HETATM    6  C3  UNL     1     -31.854  18.770   1.651  1.00 20.00     0.010 C 
HETATM    7  C4  UNL     1     -30.648  18.354   2.070  1.00 20.00     0.050 C 
BRANCH   7   8
HETATM    8  C5  UNL     1     -30.117  18.773   3.397  1.00 20.00     0.145 C 
HETATM    9  C9  UNL     1     -28.619  18.794   3.550  1.00 20.00     0.096 C 
HETATM   10  O10 UNL     1     -30.856  19.110   4.321  1.00 20.00    -0.294 OA
ENDBRANCH   7   8
ENDBRANCH   2   6
TORSDOF 2
ENDMDL
MODEL 6
REMARK VINA RESULT:      -4.3     11.143     11.689
REMARK  2 active torsions:
REMARK  status: ('A' for Active; 'I' for Inactive)
REMARK    1  A    between atoms: C2_2  and  C3_3 
REMARK    2  A    between atoms: C4_4  and  C5_5 
ROOT
HETATM    1  C1  UNL     1     -33.607   7.560   5.810  1.00 20.00    -0.020 C 
HETATM    2  C2  UNL     1     -33.659   7.208   4.520  1.00 20.00    -0.062 C 
HETATM    3  C6  UNL     1     -34.078   6.458   6.700  1.00 20.00     0.028 C 
HETATM    4  C7  UNL     1     -34.172   5.814   4.344  1.00 20.00     0.038 C 
HETATM    5  C8  UNL     1     -34.751   5.496   5.723  1.00 20.00     0.008 C 
ENDROOT
BRANCH   2   6
HETATM    6  C3  UNL     1     -33.266   8.014   3.408  1.00 20.00     0.010 C 
HETATM    7  C4  UNL     1     -32.549   7.543   2.374  1.00 20.00     0.050 C 
BRANCH   7   8
HETATM    8  C5  UNL     1     -32.169   8.435   1.243  1.00 20.00     0.145 C 
HETATM    9  C9  UNL     1     -32.803   9.800   1.217  1.00 20.00     0.096 C 
HETATM   10  O10 UNL     1     -31.363   8.091   0.381  1.00 20.00    -0.294 OA
ENDBRANCH   7   8
ENDBRANCH   2   6
TORSDOF 2
ENDMDL
MODEL 7
REMARK VINA RESULT:      -4.3     11.053     11.861
REMARK  2 active torsions:
REMARK  status: ('A' for Active; 'I' for Inactive)
REMARK    1  A    between atoms: C2_2  and  C3_3 
REMARK    2  A    between atoms: C4_4  and  C5_5 
ROOT
HETATM    1  C1  UNL     1     -32.173   7.546   1.948  1.00 20.00    -0.020 C 
HETATM    2  C2  UNL     1     -32.741   8.351   2.853  1.00 20.00    -0.062 C 
HETATM    3  C6  UNL     1     -31.925   8.255   0.658  1.00 20.00     0.028 C 
HETATM    4  C7  UNL     1     -32.962   9.727   2.311  1.00 20.00     0.038 C 
HETATM    5  C8  UNL     1     -32.750   9.533   0.809  1.00 20.00     0.008 C 
ENDROOT
BRANCH   2   6
HETATM    6  C3  UNL     1     -33.095   8.001   4.192  1.00 20.00     0.010 C 
HETATM    7  C4  UNL     1     -33.846   6.931   4.499  1.00 20.00     0.050 C 
BRANCH   7   8
HETATM    8  C5  UNL     1     -34.181   6.619   5.916  1.00 20.00     0.145 C 
HETATM    9  C9  UNL     1     -34.527   5.187   6.229  1.00 20.00     0.096 C 
HETATM   10  O10 UNL     1     -34.158   7.475   6.798  1.00 20.00    -0.294 OA
ENDBRANCH   7   8
ENDBRANCH   2   6
TORSDOF 2
ENDMDL
MODEL 8
REMARK VINA RESULT:      -4.2      3.794      5.813
REMARK  2 active torsions:
REMARK  status: ('A' for Active; 'I' for Inactive)
REMARK    1  A    between atoms: C2_2  and  C3_3 
REMARK    2  A    between atoms: C4_4  and  C5_5 
ROOT
HETATM    1  C1  UNL     1     -27.806  18.520   3.697  1.00 20.00    -0.020 C 
HETATM    2  C2  UNL     1     -29.057  18.988   3.611  1.00 20.00    -0.062 C 
HETATM    3  C6  UNL     1     -27.356  18.410   5.116  1.00 20.00     0.028 C 
HETATM    4  C7  UNL     1     -29.641  19.263   4.960  1.00 20.00     0.038 C 
HETATM    5  C8  UNL     1     -28.415  19.211   5.872  1.00 20.00     0.008 C 
ENDROOT
BRANCH   2   6
HETATM    6  C3  UNL     1     -29.800  19.198   2.409  1.00 20.00     0.010 C 
HETATM    7  C4  UNL     1     -30.479  18.223   1.783  1.00 20.00     0.050 C 
BRANCH   7   8
HETATM    8  C5  UNL     1     -31.234  18.506   0.531  1.00 20.00     0.145 C 
HETATM    9  C9  UNL     1     -32.721  18.700   0.669  1.00 20.00     0.096 C 
HETATM   10  O10 UNL     1     -30.679  18.602  -0.562  1.00 20.00    -0.294 OA
ENDBRANCH   7   8
ENDBRANCH   2   6
TORSDOF 2
ENDMDL
MODEL 9
REMARK VINA RESULT:      -4.1      4.086      6.565
REMARK  2 active torsions:
REMARK  status: ('A' for Active; 'I' for Inactive)
REMARK    1  A    between atoms: C2_2  and  C3_3 
REMARK    2  A    between atoms: C4_4  and  C5_5 
ROOT
HETATM    1  C1  UNL     1     -31.039  18.535   0.030  1.00 20.00    -0.020 C 
HETATM    2  C2  UNL     1     -31.507  18.821   1.250  1.00 20.00    -0.062 C 
HETATM    3  C6  UNL     1     -32.146  18.267  -0.935  1.00 20.00     0.028 C 
HETATM    4  C7  UNL     1     -33.002  18.792   1.293  1.00 20.00     0.038 C 
HETATM    5  C8  UNL     1     -33.360  18.100  -0.023  1.00 20.00     0.008 C 
ENDROOT
BRANCH   2   6
HETATM    6  C3  UNL     1     -30.725  19.144   2.402  1.00 20.00     0.010 C 
HETATM    7  C4  UNL     1     -29.565  18.535   2.698  1.00 20.00     0.050 C 
BRANCH   7   8
HETATM    8  C5  UNL     1     -28.796  18.916   3.915  1.00 20.00     0.145 C 
HETATM    9  C9  UNL     1     -27.294  18.884   3.801  1.00 20.00     0.096 C 
HETATM   10  O10 UNL     1     -29.348  19.263   4.957  1.00 20.00    -0.294 OA
ENDBRANCH   7   8
ENDBRANCH   2   6
TORSDOF 2
ENDMDL
