MODEL 1
REMARK VINA RESULT:      -3.7      0.000      0.000
REMARK  2 active torsions:
REMARK  status: ('A' for Active; 'I' for Inactive)
REMARK       I    between atoms: C1_1  and  N9_9 
REMARK    1  A    between atoms: C7_7  and  C8_8 
REMARK    2  A    between atoms: C7_7  and  N9_9 
ROOT
HETATM    1  C3  UNL     1     -43.012  12.198   7.087  1.00 20.00     0.033 C 
HETATM    2  C7  UNL     1     -41.719  13.008   6.980  1.00 20.00     0.087 C 
ENDROOT
BRANCH   2   3
HETATM    3  C8  UNL     1     -41.904  14.560   7.042  1.00 20.00    -0.031 C 
HETATM    4  C4  UNL     1     -43.014  14.973   8.026  1.00 20.00     0.016 C 
HETATM    5  C5  UNL     1     -40.589  15.241   7.475  1.00 20.00     0.016 C 
HETATM    6  C6  UNL     1     -42.269  15.098   5.641  1.00 20.00     0.016 C 
ENDBRANCH   2   3
BRANCH   2   7
HETATM    7  N9  UNL     1     -41.005  12.596   5.789  1.00 20.00    -0.356 N 
HETATM    8  C1  UNL     1     -39.734  12.058   5.822  1.00 20.00     0.213 C 
HETATM    9  C2  UNL     1     -39.192  11.702   4.476  1.00 20.00     0.117 C 
HETATM   10  O10 UNL     1     -39.051  11.859   6.820  1.00 20.00    -0.274 OA
HETATM   11  H27 UNL     1     -41.460  12.707   4.890  1.00 20.00     0.162 HD
ENDBRANCH   2   7
TORSDOF 2
ENDMDL
MODEL 2
REMARK VINA RESULT:      -3.7      0.066      1.374
REMARK  2 active torsions:
REMARK  status: ('A' for Active; 'I' for Inactive)
REMARK       I    between atoms: C1_1  and  N9_9 
REMARK    1  A    between atoms: C7_7  and  C8_8 
REMARK    2  A    between atoms: C7_7  and  N9_9 
ROOT
HETATM    1  C3  UNL     1     -43.011  12.283   7.083  1.00 20.00     0.033 C 
HETATM    2  C7  UNL     1     -41.701  13.065   6.986  1.00 20.00     0.087 C 
ENDROOT
BRANCH   2   3
HETATM    3  C8  UNL     1     -41.853  14.620   7.063  1.00 20.00    -0.031 C 
HETATM    4  C4  UNL     1     -40.550  15.310   7.507  1.00 20.00     0.016 C 
HETATM    5  C5  UNL     1     -42.262  15.188   5.688  1.00 20.00     0.016 C 
HETATM    6  C6  UNL     1     -42.966  14.987   8.068  1.00 20.00     0.016 C 
ENDBRANCH   2   3
BRANCH   2   7
HETATM    7  N9  UNL     1     -40.994  12.649   5.792  1.00 20.00    -0.356 N 
HETATM    8  C1  UNL     1     -39.739  12.078   5.821  1.00 20.00     0.213 C 
HETATM    9  C2  UNL     1     -39.202  11.725   4.473  1.00 20.00     0.117 C 
HETATM   10  O10 UNL     1     -39.064  11.849   6.818  1.00 20.00    -0.274 OA
HETATM   11  H27 UNL     1     -41.444  12.783   4.892  1.00 20.00     0.162 HD
ENDBRANCH   2   7
TORSDOF 2
ENDMDL
MODEL 3
REMARK VINA RESULT:      -3.6     12.222     13.638
REMARK  2 active torsions:
REMARK  status: ('A' for Active; 'I' for Inactive)
REMARK       I    between atoms: C1_1  and  N9_9 
REMARK    1  A    between atoms: C7_7  and  C8_8 
REMARK    2  A    between atoms: C7_7  and  N9_9 
ROOT
HETATM    1  C3  UNL     1     -36.072  17.358  -5.091  1.00 20.00     0.033 C 
HETATM    2  C7  UNL     1     -34.728  16.689  -4.796  1.00 20.00     0.087 C 
ENDROOT
BRANCH   2   3
HETATM    3  C8  UNL     1     -34.577  15.236  -5.354  1.00 20.00    -0.031 C 
HETATM    4  C4  UNL     1     -35.924  14.492  -5.409  1.00 20.00     0.016 C 
HETATM    5  C5  UNL     1     -33.978  15.267  -6.775  1.00 20.00     0.016 C 
HETATM    6  C6  UNL     1     -33.610  14.431  -4.458  1.00 20.00     0.016 C 
ENDBRANCH   2   3
BRANCH   2   7
HETATM    7  N9  UNL     1     -34.478  16.751  -3.371  1.00 20.00    -0.356 N 
HETATM    8  C1  UNL     1     -33.589  17.638  -2.800  1.00 20.00     0.213 C 
HETATM    9  C2  UNL     1     -33.491  17.527  -1.314  1.00 20.00     0.117 C 
HETATM   10  O10 UNL     1     -32.908  18.470  -3.390  1.00 20.00    -0.274 OA
HETATM   11  H27 UNL     1     -34.980  16.112  -2.764  1.00 20.00     0.162 HD
ENDBRANCH   2   7
TORSDOF 2
ENDMDL
MODEL 4
REMARK VINA RESULT:      -3.6     12.269     13.646
REMARK  2 active torsions:
REMARK  status: ('A' for Active; 'I' for Inactive)
REMARK       I    between atoms: C1_1  and  N9_9 
REMARK    1  A    between atoms: C7_7  and  C8_8 
REMARK    2  A    between atoms: C7_7  and  N9_9 
ROOT
HETATM    1  C3  UNL     1     -36.156  17.302  -5.062  1.00 20.00     0.033 C 
HETATM    2  C7  UNL     1     -34.776  16.694  -4.809  1.00 20.00     0.087 C 
ENDROOT
BRANCH   2   3
HETATM    3  C8  UNL     1     -34.574  15.254  -5.384  1.00 20.00    -0.031 C 
HETATM    4  C4  UNL     1     -33.981  15.274  -6.805  1.00 20.00     0.016 C 
HETATM    5  C5  UNL     1     -33.632  14.439  -4.474  1.00 20.00     0.016 C 
HETATM    6  C6  UNL     1     -35.930  14.515  -5.432  1.00 20.00     0.016 C 
ENDBRANCH   2   3
BRANCH   2   7
HETATM    7  N9  UNL     1     -34.491  16.754  -3.390  1.00 20.00    -0.356 N 
HETATM    8  C1  UNL     1     -33.589  17.642  -2.840  1.00 20.00     0.213 C 
HETATM    9  C2  UNL     1     -33.455  17.529  -1.357  1.00 20.00     0.117 C 
HETATM   10  O10 UNL     1     -32.923  18.474  -3.445  1.00 20.00    -0.274 OA
HETATM   11  H27 UNL     1     -34.978  16.114  -2.771  1.00 20.00     0.162 HD
ENDBRANCH   2   7
TORSDOF 2
ENDMDL
MODEL 5
REMARK VINA RESULT:      -3.4     12.910     13.767
REMARK  2 active torsions:
REMARK  status: ('A' for Active; 'I' for Inactive)
REMARK       I    between atoms: C1_1  and  N9_9 
REMARK    1  A    between atoms: C7_7  and  C8_8 
REMARK    2  A    between atoms: C7_7  and  N9_9 
ROOT
HETATM    1  C3  UNL     1     -32.824  14.615  -4.385  1.00 20.00     0.033 C 
HETATM    2  C7  UNL     1     -33.988  15.605  -4.322  1.00 20.00     0.087 C 
ENDROOT
BRANCH   2   3
HETATM    3  C8  UNL     1     -34.916  15.614  -5.580  1.00 20.00    -0.031 C 
HETATM    4  C4  UNL     1     -34.128  15.397  -6.885  1.00 20.00     0.016 C 
HETATM    5  C5  UNL     1     -35.986  14.508  -5.467  1.00 20.00     0.016 C 
HETATM    6  C6  UNL     1     -35.654  16.967  -5.675  1.00 20.00     0.016 C 
ENDBRANCH   2   3
BRANCH   2   7
HETATM    7  N9  UNL     1     -33.466  16.923  -4.025  1.00 20.00    -0.356 N 
HETATM    8  C1  UNL     1     -33.312  17.399  -2.739  1.00 20.00     0.213 C 
HETATM    9  C2  UNL     1     -32.756  18.783  -2.668  1.00 20.00     0.117 C 
HETATM   10  O10 UNL     1     -33.583  16.803  -1.702  1.00 20.00    -0.274 OA
HETATM   11  H27 UNL     1     -33.202  17.524  -4.798  1.00 20.00     0.162 HD
ENDBRANCH   2   7
TORSDOF 2
ENDMDL
MODEL 6
REMARK VINA RESULT:      -3.3     12.420     13.391
REMARK  2 active torsions:
REMARK  status: ('A' for Active; 'I' for Inactive)
REMARK       I    between atoms: C1_1  and  N9_9 
REMARK    1  A    between atoms: C7_7  and  C8_8 
REMARK    2  A    between atoms: C7_7  and  N9_9 
ROOT
HETATM    1  C3  UNL     1     -33.300  15.572  -3.770  1.00 20.00     0.033 C 
HETATM    2  C7  UNL     1     -33.978  16.918  -4.032  1.00 20.00     0.087 C 
ENDROOT
BRANCH   2   3
HETATM    3  C8  UNL     1     -33.905  17.935  -2.846  1.00 20.00    -0.031 C 
HETATM    4  C4  UNL     1     -32.862  19.040  -3.091  1.00 20.00     0.016 C 
HETATM    5  C5  UNL     1     -35.280  18.600  -2.625  1.00 20.00     0.016 C 
HETATM    6  C6  UNL     1     -33.532  17.192  -1.543  1.00 20.00     0.016 C 
ENDBRANCH   2   3
BRANCH   2   7
HETATM    7  N9  UNL     1     -35.342  16.680  -4.458  1.00 20.00    -0.356 N 
HETATM    8  C1  UNL     1     -35.702  16.538  -5.782  1.00 20.00     0.213 C 
HETATM    9  C2  UNL     1     -37.161  16.297  -5.990  1.00 20.00     0.117 C 
HETATM   10  O10 UNL     1     -34.954  16.589  -6.752  1.00 20.00    -0.274 OA
HETATM   11  H27 UNL     1     -36.065  16.615  -3.750  1.00 20.00     0.162 HD
ENDBRANCH   2   7
TORSDOF 2
ENDMDL
MODEL 7
REMARK VINA RESULT:      -3.2     12.556     13.892
REMARK  2 active torsions:
REMARK  status: ('A' for Active; 'I' for Inactive)
REMARK       I    between atoms: C1_1  and  N9_9 
REMARK    1  A    between atoms: C7_7  and  C8_8 
REMARK    2  A    between atoms: C7_7  and  N9_9 
ROOT
HETATM    1  C3  UNL     1     -34.454  17.862  -6.636  1.00 20.00     0.033 C 
HETATM    2  C7  UNL     1     -34.636  16.596  -5.797  1.00 20.00     0.087 C 
ENDROOT
BRANCH   2   3
HETATM    3  C8  UNL     1     -35.986  15.840  -6.027  1.00 20.00    -0.031 C 
HETATM    4  C4  UNL     1     -35.944  14.399  -5.486  1.00 20.00     0.016 C 
HETATM    5  C5  UNL     1     -37.145  16.587  -5.335  1.00 20.00     0.016 C 
HETATM    6  C6  UNL     1     -36.302  15.785  -7.538  1.00 20.00     0.016 C 
ENDBRANCH   2   3
BRANCH   2   7
HETATM    7  N9  UNL     1     -34.432  16.926  -4.401  1.00 20.00    -0.356 N 
HETATM    8  C1  UNL     1     -33.510  16.282  -3.602  1.00 20.00     0.213 C 
HETATM    9  C2  UNL     1     -33.468  16.787  -2.198  1.00 20.00     0.117 C 
HETATM   10  O10 UNL     1     -32.759  15.374  -3.940  1.00 20.00    -0.274 OA
HETATM   11  H27 UNL     1     -34.994  17.666  -3.992  1.00 20.00     0.162 HD
ENDBRANCH   2   7
TORSDOF 2
ENDMDL
MODEL 8
REMARK VINA RESULT:      -3.2     12.790     13.825
REMARK  2 active torsions:
REMARK  status: ('A' for Active; 'I' for Inactive)
REMARK       I    between atoms: C1_1  and  N9_9 
REMARK    1  A    between atoms: C7_7  and  C8_8 
REMARK    2  A    between atoms: C7_7  and  N9_9 
ROOT
HETATM    1  C3  UNL     1     -33.696  14.911  -3.821  1.00 20.00     0.033 C 
HETATM    2  C7  UNL     1     -33.833  16.264  -4.522  1.00 20.00     0.087 C 
ENDROOT
BRANCH   2   3
HETATM    3  C8  UNL     1     -33.989  17.491  -3.565  1.00 20.00    -0.031 C 
HETATM    4  C4  UNL     1     -33.650  17.136  -2.105  1.00 20.00     0.016 C 
HETATM    5  C5  UNL     1     -33.066  18.642  -4.014  1.00 20.00     0.016 C 
HETATM    6  C6  UNL     1     -35.443  18.011  -3.616  1.00 20.00     0.016 C 
ENDBRANCH   2   3
BRANCH   2   7
HETATM    7  N9  UNL     1     -34.915  16.185  -5.482  1.00 20.00    -0.356 N 
HETATM    8  C1  UNL     1     -34.788  15.570  -6.710  1.00 20.00     0.213 C 
HETATM    9  C2  UNL     1     -36.031  15.606  -7.538  1.00 20.00     0.117 C 
HETATM   10  O10 UNL     1     -33.784  15.022  -7.152  1.00 20.00    -0.274 OA
HETATM   11  H27 UNL     1     -35.808  16.602  -5.240  1.00 20.00     0.162 HD
ENDBRANCH   2   7
TORSDOF 2
ENDMDL
MODEL 9
REMARK VINA RESULT:      -3.2     20.318     21.854
REMARK  2 active torsions:
REMARK  status: ('A' for Active; 'I' for Inactive)
REMARK       I    between atoms: C1_1  and  N9_9 
REMARK    1  A    between atoms: C7_7  and  C8_8 
REMARK    2  A    between atoms: C7_7  and  N9_9 
ROOT
HETATM    1  C3  UNL     1     -28.327  -3.272  10.097  1.00 20.00     0.033 C 
HETATM    2  C7  UNL     1     -27.099  -2.620  10.735  1.00 20.00     0.087 C 
ENDROOT
BRANCH   2   3
HETATM    3  C8  UNL     1     -27.338  -1.187  11.313  1.00 20.00    -0.031 C 
HETATM    4  C4  UNL     1     -26.100  -0.643  12.048  1.00 20.00     0.016 C 
HETATM    5  C5  UNL     1     -27.704  -0.206  10.181  1.00 20.00     0.016 C 
HETATM    6  C6  UNL     1     -28.522  -1.216  12.306  1.00 20.00     0.016 C 
ENDBRANCH   2   3
BRANCH   2   7
HETATM    7  N9  UNL     1     -26.008  -2.645   9.782  1.00 20.00    -0.356 N 
HETATM    8  C1  UNL     1     -24.811  -3.286  10.025  1.00 20.00     0.213 C 
HETATM    9  C2  UNL     1     -23.830  -3.184   8.904  1.00 20.00     0.117 C 
HETATM   10  O10 UNL     1     -24.507  -3.904  11.040  1.00 20.00    -0.274 OA
HETATM   11  H27 UNL     1     -26.130  -2.168   8.895  1.00 20.00     0.162 HD
ENDBRANCH   2   7
TORSDOF 2
ENDMDL
