MODEL 1
REMARK VINA RESULT:      -3.7      0.000      0.000
REMARK  1 active torsions:
REMARK  status: ('A' for Active; 'I' for Inactive)
REMARK    1  A    between atoms: C1_1  and  C5_5 
ROOT
HETATM    1  C2  UNL     1     -31.861   8.331   4.659  1.00 20.00     0.006 C 
HETATM    2  C3  UNL     1     -32.999   8.692   5.625  1.00 20.00     0.006 C 
HETATM    3  C4  UNL     1     -33.920   8.388   3.479  1.00 20.00     0.011 C 
HETATM    4  C5  UNL     1     -33.025   6.213   3.995  1.00 20.00     0.059 C 
HETATM    5  C6  UNL     1     -32.598   7.620   3.509  1.00 20.00    -0.003 C 
HETATM    6  C7  UNL     1     -34.240   8.079   4.946  1.00 20.00    -0.006 C 
HETATM    7  C8  UNL     1     -34.210   6.513   4.966  1.00 20.00    -0.034 C 
HETATM    8  C9  UNL     1     -35.573   5.957   4.500  1.00 20.00     0.016 C 
HETATM    9  C10 UNL     1     -33.939   5.925   6.360  1.00 20.00     0.016 C 
ENDROOT
BRANCH   4  10
HETATM   10  C1  UNL     1     -33.366   5.331   2.830  1.00 20.00     0.236 C 
HETATM   11  O11 UNL     1     -32.574   4.542   2.325  1.00 20.00    -0.306 OA
ENDBRANCH   4  10
TORSDOF 1
ENDMDL
MODEL 2
REMARK VINA RESULT:      -3.5     11.730     13.286
REMARK  1 active torsions:
REMARK  status: ('A' for Active; 'I' for Inactive)
REMARK    1  A    between atoms: C1_1  and  C5_5 
ROOT
HETATM    1  C2  UNL     1     -28.894  -3.629  10.087  1.00 20.00     0.006 C 
HETATM    2  C3  UNL     1     -29.495  -2.484  10.915  1.00 20.00     0.006 C 
HETATM    3  C4  UNL     1     -27.715  -3.423  12.136  1.00 20.00     0.011 C 
HETATM    4  C5  UNL     1     -26.626  -2.566  10.168  1.00 20.00     0.059 C 
HETATM    5  C6  UNL     1     -27.474  -3.763  10.664  1.00 20.00    -0.003 C 
HETATM    6  C7  UNL     1     -28.322  -2.052  11.816  1.00 20.00    -0.006 C 
HETATM    7  C8  UNL     1     -27.174  -1.367  11.002  1.00 20.00    -0.034 C 
HETATM    8  C9  UNL     1     -26.147  -0.741  11.970  1.00 20.00     0.016 C 
HETATM    9  C10 UNL     1     -27.668  -0.238  10.082  1.00 20.00     0.016 C 
ENDROOT
BRANCH   4  10
HETATM   10  C1  UNL     1     -25.162  -2.846  10.341  1.00 20.00     0.236 C 
HETATM   11  O11 UNL     1     -24.403  -3.082   9.408  1.00 20.00    -0.306 OA
ENDBRANCH   4  10
TORSDOF 1
ENDMDL
MODEL 3
REMARK VINA RESULT:      -3.4     11.681     13.107
REMARK  1 active torsions:
REMARK  status: ('A' for Active; 'I' for Inactive)
REMARK    1  A    between atoms: C1_1  and  C5_5 
ROOT
HETATM    1  C2  UNL     1     -28.034  -0.388  10.455  1.00 20.00     0.006 C 
HETATM    2  C3  UNL     1     -26.758  -0.445  11.306  1.00 20.00     0.006 C 
HETATM    3  C4  UNL     1     -28.361  -1.868  12.281  1.00 20.00     0.011 C 
HETATM    4  C5  UNL     1     -27.989  -2.872  10.125  1.00 20.00     0.059 C 
HETATM    5  C6  UNL     1     -28.745  -1.706  10.810  1.00 20.00    -0.003 C 
HETATM    6  C7  UNL     1     -26.856  -1.823  11.989  1.00 20.00    -0.006 C 
HETATM    7  C8  UNL     1     -26.684  -3.000  10.971  1.00 20.00    -0.034 C 
HETATM    8  C9  UNL     1     -26.547  -4.336  11.733  1.00 20.00     0.016 C 
HETATM    9  C10 UNL     1     -25.438  -2.862  10.082  1.00 20.00     0.016 C 
ENDROOT
BRANCH   4  10
HETATM   10  C1  UNL     1     -28.844  -4.105  10.082  1.00 20.00     0.236 C 
HETATM   11  O11 UNL     1     -30.037  -4.111  10.367  1.00 20.00    -0.306 OA
ENDBRANCH   4  10
TORSDOF 1
ENDMDL
MODEL 4
REMARK VINA RESULT:      -3.4     12.045     13.170
REMARK  1 active torsions:
REMARK  status: ('A' for Active; 'I' for Inactive)
REMARK    1  A    between atoms: C1_1  and  C5_5 
ROOT
HETATM    1  C2  UNL     1     -34.039  17.932  -0.617  1.00 20.00     0.006 C 
HETATM    2  C3  UNL     1     -34.553  19.250  -1.215  1.00 20.00     0.006 C 
HETATM    3  C4  UNL     1     -32.542  18.680  -2.301  1.00 20.00     0.011 C 
HETATM    4  C5  UNL     1     -34.004  16.858  -2.881  1.00 20.00     0.059 C 
HETATM    5  C6  UNL     1     -33.120  17.386  -1.725  1.00 20.00    -0.003 C 
HETATM    6  C7  UNL     1     -33.924  19.263  -2.622  1.00 20.00    -0.006 C 
HETATM    7  C8  UNL     1     -34.536  18.162  -3.552  1.00 20.00    -0.034 C 
HETATM    8  C9  UNL     1     -34.053  18.375  -5.003  1.00 20.00     0.016 C 
HETATM    9  C10 UNL     1     -36.073  18.176  -3.585  1.00 20.00     0.016 C 
ENDROOT
BRANCH   4  10
HETATM   10  C1  UNL     1     -33.214  15.955  -3.783  1.00 20.00     0.236 C 
HETATM   11  O11 UNL     1     -33.596  14.843  -4.130  1.00 20.00    -0.306 OA
ENDBRANCH   4  10
TORSDOF 1
ENDMDL
MODEL 5
REMARK VINA RESULT:      -3.3     11.978     13.432
REMARK  1 active torsions:
REMARK  status: ('A' for Active; 'I' for Inactive)
REMARK    1  A    between atoms: C1_1  and  C5_5 
ROOT
HETATM    1  C2  UNL     1     -28.770  -1.445  12.073  1.00 20.00     0.006 C 
HETATM    2  C3  UNL     1     -28.996  -2.519  10.999  1.00 20.00     0.006 C 
HETATM    3  C4  UNL     1     -27.628  -0.835  10.083  1.00 20.00     0.011 C 
HETATM    4  C5  UNL     1     -26.284  -1.704  11.881  1.00 20.00     0.059 C 
HETATM    5  C6  UNL     1     -27.476  -0.756  11.603  1.00 20.00    -0.003 C 
HETATM    6  C7  UNL     1     -27.766  -2.362  10.084  1.00 20.00    -0.006 C 
HETATM    7  C8  UNL     1     -26.443  -2.811  10.792  1.00 20.00    -0.034 C 
HETATM    8  C9  UNL     1     -25.292  -2.865   9.765  1.00 20.00     0.016 C 
HETATM    9  C10 UNL     1     -26.536  -4.204  11.435  1.00 20.00     0.016 C 
ENDROOT
BRANCH   4  10
HETATM   10  C1  UNL     1     -24.986  -0.951  11.838  1.00 20.00     0.236 C 
HETATM   11  O11 UNL     1     -23.945  -1.370  12.332  1.00 20.00    -0.306 OA
ENDBRANCH   4  10
TORSDOF 1
ENDMDL
MODEL 6
REMARK VINA RESULT:      -3.2     10.599     11.783
REMARK  1 active torsions:
REMARK  status: ('A' for Active; 'I' for Inactive)
REMARK    1  A    between atoms: C1_1  and  C5_5 
ROOT
HETATM    1  C2  UNL     1     -42.665  15.862   7.966  1.00 20.00     0.006 C 
HETATM    2  C3  UNL     1     -41.426  16.118   7.096  1.00 20.00     0.006 C 
HETATM    3  C4  UNL     1     -40.989  14.258   8.472  1.00 20.00     0.011 C 
HETATM    4  C5  UNL     1     -42.835  13.508   7.122  1.00 20.00     0.059 C 
HETATM    5  C6  UNL     1     -42.509  14.381   8.359  1.00 20.00    -0.003 C 
HETATM    6  C7  UNL     1     -40.751  14.734   7.034  1.00 20.00    -0.006 C 
HETATM    7  C8  UNL     1     -41.589  13.705   6.204  1.00 20.00    -0.034 C 
HETATM    8  C9  UNL     1     -40.760  12.423   5.970  1.00 20.00     0.016 C 
HETATM    9  C10 UNL     1     -42.003  14.229   4.820  1.00 20.00     0.016 C 
ENDROOT
BRANCH   4  10
HETATM   10  C1  UNL     1     -43.107  12.090   7.531  1.00 20.00     0.236 C 
HETATM   11  O11 UNL     1     -43.416  11.763   8.671  1.00 20.00    -0.306 OA
ENDBRANCH   4  10
TORSDOF 1
ENDMDL
MODEL 7
REMARK VINA RESULT:      -3.2     10.039     11.281
REMARK  1 active torsions:
REMARK  status: ('A' for Active; 'I' for Inactive)
REMARK    1  A    between atoms: C1_1  and  C5_5 
ROOT
HETATM    1  C2  UNL     1     -42.837  14.368   5.411  1.00 20.00     0.006 C 
HETATM    2  C3  UNL     1     -43.253  15.230   6.611  1.00 20.00     0.006 C 
HETATM    3  C4  UNL     1     -42.683  13.088   7.404  1.00 20.00     0.011 C 
HETATM    4  C5  UNL     1     -40.614  13.883   6.464  1.00 20.00     0.059 C 
HETATM    5  C6  UNL     1     -41.977  13.268   6.059  1.00 20.00    -0.003 C 
HETATM    6  C7  UNL     1     -42.521  14.562   7.791  1.00 20.00    -0.006 C 
HETATM    7  C8  UNL     1     -40.969  14.755   7.708  1.00 20.00    -0.034 C 
HETATM    8  C9  UNL     1     -40.312  14.285   9.024  1.00 20.00     0.016 C 
HETATM    9  C10 UNL     1     -40.545  16.217   7.493  1.00 20.00     0.016 C 
ENDROOT
BRANCH   4  10
HETATM   10  C1  UNL     1     -39.599  12.805   6.710  1.00 20.00     0.236 C 
HETATM   11  O11 UNL     1     -39.733  11.649   6.324  1.00 20.00    -0.306 OA
ENDBRANCH   4  10
TORSDOF 1
ENDMDL
MODEL 8
REMARK VINA RESULT:      -3.2     10.059     11.168
REMARK  1 active torsions:
REMARK  status: ('A' for Active; 'I' for Inactive)
REMARK    1  A    between atoms: C1_1  and  C5_5 
ROOT
HETATM    1  C2  UNL     1     -41.371  14.392   9.313  1.00 20.00     0.006 C 
HETATM    2  C3  UNL     1     -42.617  15.081   8.740  1.00 20.00     0.006 C 
HETATM    3  C4  UNL     1     -40.771  15.660   7.399  1.00 20.00     0.011 C 
HETATM    4  C5  UNL     1     -40.916  13.274   7.116  1.00 20.00     0.059 C 
HETATM    5  C6  UNL     1     -40.414  14.353   8.108  1.00 20.00    -0.003 C 
HETATM    6  C7  UNL     1     -42.251  15.288   7.258  1.00 20.00    -0.006 C 
HETATM    7  C8  UNL     1     -42.176  13.934   6.475  1.00 20.00    -0.034 C 
HETATM    8  C9  UNL     1     -42.049  14.211   4.961  1.00 20.00     0.016 C 
HETATM    9  C10 UNL     1     -43.417  13.048   6.666  1.00 20.00     0.016 C 
ENDROOT
BRANCH   4  10
HETATM   10  C1  UNL     1     -39.831  12.899   6.149  1.00 20.00     0.236 C 
HETATM   11  O11 UNL     1     -39.266  11.811   6.156  1.00 20.00    -0.306 OA
ENDBRANCH   4  10
TORSDOF 1
ENDMDL
MODEL 9
REMARK VINA RESULT:      -3.2     10.613     11.861
REMARK  1 active torsions:
REMARK  status: ('A' for Active; 'I' for Inactive)
REMARK    1  A    between atoms: C1_1  and  C5_5 
ROOT
HETATM    1  C2  UNL     1     -40.797  13.281   5.215  1.00 20.00     0.006 C 
HETATM    2  C3  UNL     1     -42.170  13.858   4.845  1.00 20.00     0.006 C 
HETATM    3  C4  UNL     1     -42.361  12.779   6.929  1.00 20.00     0.011 C 
HETATM    4  C5  UNL     1     -40.790  14.546   7.378  1.00 20.00     0.059 C 
HETATM    5  C6  UNL     1     -40.885  13.136   6.745  1.00 20.00    -0.003 C 
HETATM    6  C7  UNL     1     -42.852  14.044   6.215  1.00 20.00    -0.006 C 
HETATM    7  C8  UNL     1     -42.180  15.178   7.059  1.00 20.00    -0.034 C 
HETATM    8  C9  UNL     1     -43.042  15.485   8.303  1.00 20.00     0.016 C 
HETATM    9  C10 UNL     1     -42.019  16.499   6.289  1.00 20.00     0.016 C 
ENDROOT
BRANCH   4  10
HETATM   10  C1  UNL     1     -40.455  14.450   8.838  1.00 20.00     0.236 C 
HETATM   11  O11 UNL     1     -39.736  15.254   9.422  1.00 20.00    -0.306 OA
ENDBRANCH   4  10
TORSDOF 1
ENDMDL
