MODEL 1
REMARK VINA RESULT:      -4.5      0.000      0.000
REMARK  0 active torsions:
REMARK  status: ('A' for Active; 'I' for Inactive)
ROOT
HETATM    1  C1  UNL     1     -31.818   8.128   3.356  1.00 20.00     0.143 A 
HETATM    2  C2  UNL     1     -33.032   6.222   3.421  1.00 20.00     0.059 A 
HETATM    3  C3  UNL     1     -33.612   6.627   4.610  1.00 20.00     0.063 A 
HETATM    4  C4  UNL     1     -32.403   8.538   4.546  1.00 20.00     0.048 A 
HETATM    5  C5  UNL     1     -33.585   4.906   2.964  1.00 20.00     0.062 C 
HETATM    6  C6  UNL     1     -34.198   4.383   4.275  1.00 20.00     0.016 C 
HETATM    7  C7  UNL     1     -34.633   5.626   5.083  1.00 20.00     0.036 C 
HETATM    8  C8  UNL     1     -32.024   9.846   5.150  1.00 20.00     0.072 C 
HETATM    9  C9  UNL     1     -34.619   5.384   6.582  1.00 20.00     0.016 C 
HETATM   10  N10 UNL     1     -32.127   6.954   2.760  1.00 20.00    -0.261 NA
HETATM   11  N11 UNL     1     -33.324   7.795   5.200  1.00 20.00    -0.254 NA
ENDROOT
TORSDOF 0
ENDMDL
MODEL 2
REMARK VINA RESULT:      -4.3      1.503      3.890
REMARK  0 active torsions:
REMARK  status: ('A' for Active; 'I' for Inactive)
ROOT
HETATM    1  C1  UNL     1     -33.928   4.201   3.911  1.00 20.00     0.143 A 
HETATM    2  C2  UNL     1     -34.202   5.894   5.384  1.00 20.00     0.059 A 
HETATM    3  C3  UNL     1     -33.573   6.762   4.510  1.00 20.00     0.063 A 
HETATM    4  C4  UNL     1     -33.301   5.072   3.031  1.00 20.00     0.048 A 
HETATM    5  C5  UNL     1     -34.663   6.604   6.621  1.00 20.00     0.062 C 
HETATM    6  C6  UNL     1     -33.801   7.876   6.558  1.00 20.00     0.016 C 
HETATM    7  C7  UNL     1     -33.549   8.163   5.061  1.00 20.00     0.036 C 
HETATM    8  C8  UNL     1     -32.806   4.575   1.717  1.00 20.00     0.072 C 
HETATM    9  C9  UNL     1     -32.247   8.905   4.818  1.00 20.00     0.016 C 
HETATM   10  N10 UNL     1     -34.401   4.598   5.114  1.00 20.00    -0.261 NA
HETATM   11  N11 UNL     1     -33.115   6.381   3.310  1.00 20.00    -0.254 NA
ENDROOT
TORSDOF 0
ENDMDL
MODEL 3
REMARK VINA RESULT:      -4.0      9.950     11.018
REMARK  0 active torsions:
REMARK  status: ('A' for Active; 'I' for Inactive)
ROOT
HETATM    1  C1  UNL     1     -39.360  12.176   6.261  1.00 20.00     0.143 A 
HETATM    2  C2  UNL     1     -41.080  13.520   6.847  1.00 20.00     0.059 A 
HETATM    3  C3  UNL     1     -41.438  13.650   5.517  1.00 20.00     0.063 A 
HETATM    4  C4  UNL     1     -39.721  12.301   4.927  1.00 20.00     0.048 A 
HETATM    5  C5  UNL     1     -42.028  14.260   7.741  1.00 20.00     0.062 C 
HETATM    6  C6  UNL     1     -42.686  15.216   6.732  1.00 20.00     0.016 C 
HETATM    7  C7  UNL     1     -42.679  14.489   5.369  1.00 20.00     0.036 C 
HETATM    8  C8  UNL     1     -38.932  11.601   3.873  1.00 20.00     0.072 C 
HETATM    9  C9  UNL     1     -42.645  15.449   4.193  1.00 20.00     0.016 C 
HETATM   10  N10 UNL     1     -40.041  12.783   7.258  1.00 20.00    -0.261 NA
HETATM   11  N11 UNL     1     -40.778  13.039   4.523  1.00 20.00    -0.254 NA
ENDROOT
TORSDOF 0
ENDMDL
MODEL 4
REMARK VINA RESULT:      -4.0     10.242     11.271
REMARK  0 active torsions:
REMARK  status: ('A' for Active; 'I' for Inactive)
ROOT
HETATM    1  C1  UNL     1     -41.396  15.874   8.403  1.00 20.00     0.143 A 
HETATM    2  C2  UNL     1     -41.513  14.629   6.520  1.00 20.00     0.059 A 
HETATM    3  C3  UNL     1     -40.707  13.667   7.101  1.00 20.00     0.063 A 
HETATM    4  C4  UNL     1     -40.592  14.907   8.989  1.00 20.00     0.048 A 
HETATM    5  C5  UNL     1     -41.946  14.222   5.144  1.00 20.00     0.062 C 
HETATM    6  C6  UNL     1     -40.903  13.137   4.827  1.00 20.00     0.016 C 
HETATM    7  C7  UNL     1     -40.514  12.493   6.177  1.00 20.00     0.036 C 
HETATM    8  C8  UNL     1     -40.090  15.096  10.379  1.00 20.00     0.072 C 
HETATM    9  C9  UNL     1     -39.103  11.931   6.173  1.00 20.00     0.016 C 
HETATM   10  N10 UNL     1     -41.884  15.752   7.148  1.00 20.00    -0.261 NA
HETATM   11  N11 UNL     1     -40.233  13.772   8.349  1.00 20.00    -0.254 NA
ENDROOT
TORSDOF 0
ENDMDL
MODEL 5
REMARK VINA RESULT:      -4.0      1.262      2.659
REMARK  0 active torsions:
REMARK  status: ('A' for Active; 'I' for Inactive)
ROOT
HETATM    1  C1  UNL     1     -32.346   8.999   3.631  1.00 20.00     0.143 A 
HETATM    2  C2  UNL     1     -33.281   7.824   5.321  1.00 20.00     0.059 A 
HETATM    3  C3  UNL     1     -33.370   6.711   4.505  1.00 20.00     0.063 A 
HETATM    4  C4  UNL     1     -32.429   7.881   2.813  1.00 20.00     0.048 A 
HETATM    5  C5  UNL     1     -33.780   7.529   6.703  1.00 20.00     0.062 C 
HETATM    6  C6  UNL     1     -34.604   6.257   6.443  1.00 20.00     0.016 C 
HETATM    7  C7  UNL     1     -33.933   5.533   5.255  1.00 20.00     0.036 C 
HETATM    8  C8  UNL     1     -31.941   7.949   1.407  1.00 20.00     0.072 C 
HETATM    9  C9  UNL     1     -34.911   4.695   4.451  1.00 20.00     0.016 C 
HETATM   10  N10 UNL     1     -32.768   8.993   4.915  1.00 20.00    -0.261 NA
HETATM   11  N11 UNL     1     -32.939   6.704   3.236  1.00 20.00    -0.254 NA
ENDROOT
TORSDOF 0
ENDMDL
MODEL 6
REMARK VINA RESULT:      -3.9      1.534      2.245
REMARK  0 active torsions:
REMARK  status: ('A' for Active; 'I' for Inactive)
ROOT
HETATM    1  C1  UNL     1     -32.629   5.932   2.198  1.00 20.00     0.143 A 
HETATM    2  C2  UNL     1     -33.799   5.433   4.066  1.00 20.00     0.059 A 
HETATM    3  C3  UNL     1     -33.709   6.750   4.480  1.00 20.00     0.063 A 
HETATM    4  C4  UNL     1     -32.543   7.254   2.608  1.00 20.00     0.048 A 
HETATM    5  C5  UNL     1     -34.598   4.611   5.032  1.00 20.00     0.062 C 
HETATM    6  C6  UNL     1     -34.546   5.507   6.281  1.00 20.00     0.016 C 
HETATM    7  C7  UNL     1     -34.450   6.963   5.773  1.00 20.00     0.036 C 
HETATM    8  C8  UNL     1     -31.827   8.252   1.764  1.00 20.00     0.072 C 
HETATM    9  C9  UNL     1     -33.739   7.880   6.753  1.00 20.00     0.016 C 
HETATM   10  N10 UNL     1     -33.270   4.986   2.920  1.00 20.00    -0.261 NA
HETATM   11  N11 UNL     1     -33.090   7.697   3.762  1.00 20.00    -0.254 NA
ENDROOT
TORSDOF 0
ENDMDL
MODEL 7
REMARK VINA RESULT:      -3.8     15.443     15.844
REMARK  0 active torsions:
REMARK  status: ('A' for Active; 'I' for Inactive)
ROOT
HETATM    1  C1  UNL     1     -23.705  18.872   8.230  1.00 20.00     0.143 A 
HETATM    2  C2  UNL     1     -24.839  18.693  10.177  1.00 20.00     0.059 A 
HETATM    3  C3  UNL     1     -23.905  17.786  10.643  1.00 20.00     0.063 A 
HETATM    4  C4  UNL     1     -22.764  17.966   8.697  1.00 20.00     0.048 A 
HETATM    5  C5  UNL     1     -25.885  18.979  11.211  1.00 20.00     0.062 C 
HETATM    6  C6  UNL     1     -25.704  17.768  12.143  1.00 20.00     0.016 C 
HETATM    7  C7  UNL     1     -24.216  17.365  12.055  1.00 20.00     0.036 C 
HETATM    8  C8  UNL     1     -21.610  17.579   7.838  1.00 20.00     0.072 C 
HETATM    9  C9  UNL     1     -23.992  15.888  12.327  1.00 20.00     0.016 C 
HETATM   10  N10 UNL     1     -24.768  19.263   8.967  1.00 20.00    -0.261 NA
HETATM   11  N11 UNL     1     -22.840  17.404   9.925  1.00 20.00    -0.254 NA
ENDROOT
TORSDOF 0
ENDMDL
MODEL 8
REMARK VINA RESULT:      -3.8     12.674     14.176
REMARK  0 active torsions:
REMARK  status: ('A' for Active; 'I' for Inactive)
ROOT
HETATM    1  C1  UNL     1     -35.789  15.561  -7.273  1.00 20.00     0.143 A 
HETATM    2  C2  UNL     1     -34.584  15.286  -5.380  1.00 20.00     0.059 A 
HETATM    3  C3  UNL     1     -34.709  16.634  -5.099  1.00 20.00     0.063 A 
HETATM    4  C4  UNL     1     -35.920  16.913  -6.990  1.00 20.00     0.048 A 
HETATM    5  C5  UNL     1     -33.831  14.570  -4.300  1.00 20.00     0.062 C 
HETATM    6  C6  UNL     1     -33.131  15.753  -3.609  1.00 20.00     0.016 C 
HETATM    7  C7  UNL     1     -34.058  16.976  -3.785  1.00 20.00     0.036 C 
HETATM    8  C8  UNL     1     -36.677  17.799  -7.918  1.00 20.00     0.072 C 
HETATM    9  C9  UNL     1     -33.298  18.291  -3.791  1.00 20.00     0.016 C 
HETATM   10  N10 UNL     1     -35.118  14.710  -6.465  1.00 20.00    -0.261 NA
HETATM   11  N11 UNL     1     -35.386  17.482  -5.886  1.00 20.00    -0.254 NA
ENDROOT
TORSDOF 0
ENDMDL
MODEL 9
REMARK VINA RESULT:      -3.7     14.826     16.403
REMARK  0 active torsions:
REMARK  status: ('A' for Active; 'I' for Inactive)
ROOT
HETATM    1  C1  UNL     1     -25.824  19.261   9.185  1.00 20.00     0.143 A 
HETATM    2  C2  UNL     1     -23.722  18.932   9.948  1.00 20.00     0.059 A 
HETATM    3  C3  UNL     1     -23.266  18.806   8.648  1.00 20.00     0.063 A 
HETATM    4  C4  UNL     1     -25.367  19.141   7.881  1.00 20.00     0.048 A 
HETATM    5  C5  UNL     1     -22.598  18.825  10.934  1.00 20.00     0.062 C 
HETATM    6  C6  UNL     1     -21.523  18.147  10.068  1.00 20.00     0.016 C 
HETATM    7  C7  UNL     1     -21.773  18.609   8.615  1.00 20.00     0.036 C 
HETATM    8  C8  UNL     1     -26.321  19.263   6.742  1.00 20.00     0.072 C 
HETATM    9  C9  UNL     1     -21.303  17.593   7.589  1.00 20.00     0.016 C 
HETATM   10  N10 UNL     1     -25.004  19.165  10.255  1.00 20.00    -0.261 NA
HETATM   11  N11 UNL     1     -24.069  18.916   7.581  1.00 20.00    -0.254 NA
ENDROOT
TORSDOF 0
ENDMDL
