MODEL 1
REMARK VINA RESULT:      -3.4      0.000      0.000
REMARK  0 active torsions:
REMARK  status: ('A' for Active; 'I' for Inactive)
ROOT
HETATM    1  C1  UNL     1     -23.530  17.189   9.972  1.00 20.00     0.292 C 
HETATM    2  C2  UNL     1     -21.728  18.535  10.665  1.00 20.00     0.346 C 
HETATM    3  C3  UNL     1     -24.097  17.558  11.356  1.00 20.00     0.029 C 
HETATM    4  C4  UNL     1     -24.610  16.327  12.099  1.00 20.00     0.028 C 
HETATM    5  C5  UNL     1     -25.190  18.629  11.266  1.00 20.00     0.028 C 
HETATM    6  C6  UNL     1     -21.957  18.005   8.313  1.00 20.00     0.310 C 
HETATM    7  N7  UNL     1     -22.656  18.294   9.557  1.00 20.00     0.094 N 
HETATM    8  S8  UNL     1     -22.644  18.264  12.212  1.00 20.00    -0.128 SA
ENDROOT
TORSDOF 0
ENDMDL
MODEL 2
REMARK VINA RESULT:      -3.3     15.899     16.620
REMARK  0 active torsions:
REMARK  status: ('A' for Active; 'I' for Inactive)
ROOT
HETATM    1  C1  UNL     1     -33.326   6.714   4.163  1.00 20.00     0.292 C 
HETATM    2  C2  UNL     1     -33.520   7.424   6.399  1.00 20.00     0.346 C 
HETATM    3  C3  UNL     1     -34.401   5.694   4.588  1.00 20.00     0.029 C 
HETATM    4  C4  UNL     1     -34.038   4.279   4.145  1.00 20.00     0.028 C 
HETATM    5  C5  UNL     1     -35.795   6.079   4.082  1.00 20.00     0.028 C 
HETATM    6  C6  UNL     1     -32.456   8.891   4.792  1.00 20.00     0.310 C 
HETATM    7  N7  UNL     1     -33.499   7.899   5.014  1.00 20.00     0.094 N 
HETATM    8  S8  UNL     1     -34.377   5.820   6.412  1.00 20.00    -0.128 SA
ENDROOT
TORSDOF 0
ENDMDL
MODEL 3
REMARK VINA RESULT:      -3.3      1.627      2.163
REMARK  0 active torsions:
REMARK  status: ('A' for Active; 'I' for Inactive)
ROOT
HETATM    1  C1  UNL     1     -22.104  17.977   9.927  1.00 20.00     0.292 C 
HETATM    2  C2  UNL     1     -23.488  18.938   8.283  1.00 20.00     0.346 C 
HETATM    3  C3  UNL     1     -23.396  18.007  10.766  1.00 20.00     0.029 C 
HETATM    4  C4  UNL     1     -23.148  18.590  12.156  1.00 20.00     0.028 C 
HETATM    5  C5  UNL     1     -24.052  16.625  10.869  1.00 20.00     0.028 C 
HETATM    6  C6  UNL     1     -21.375  17.963   7.611  1.00 20.00     0.310 C 
HETATM    7  N7  UNL     1     -22.510  17.873   8.519  1.00 20.00     0.094 N 
HETATM    8  S8  UNL     1     -24.484  19.109   9.794  1.00 20.00    -0.128 SA
ENDROOT
TORSDOF 0
ENDMDL
MODEL 4
REMARK VINA RESULT:      -3.1      1.710      3.459
REMARK  0 active torsions:
REMARK  status: ('A' for Active; 'I' for Inactive)
ROOT
HETATM    1  C1  UNL     1     -23.565  17.075  10.568  1.00 20.00     0.292 C 
HETATM    2  C2  UNL     1     -25.025  18.911  10.379  1.00 20.00     0.346 C 
HETATM    3  C3  UNL     1     -22.641  17.958   9.707  1.00 20.00     0.029 C 
HETATM    4  C4  UNL     1     -22.054  17.177   8.533  1.00 20.00     0.028 C 
HETATM    5  C5  UNL     1     -21.527  18.609  10.534  1.00 20.00     0.028 C 
HETATM    6  C6  UNL     1     -25.437  17.261  12.103  1.00 20.00     0.310 C 
HETATM    7  N7  UNL     1     -24.427  17.981  11.339  1.00 20.00     0.094 N 
HETATM    8  S8  UNL     1     -23.773  19.262   9.107  1.00 20.00    -0.128 SA
ENDROOT
TORSDOF 0
ENDMDL
MODEL 5
REMARK VINA RESULT:      -3.0     15.770     16.478
REMARK  0 active torsions:
REMARK  status: ('A' for Active; 'I' for Inactive)
ROOT
HETATM    1  C1  UNL     1     -34.090   7.587   4.879  1.00 20.00     0.292 C 
HETATM    2  C2  UNL     1     -32.276   7.114   3.456  1.00 20.00     0.346 C 
HETATM    3  C3  UNL     1     -34.399   6.091   4.675  1.00 20.00     0.029 C 
HETATM    4  C4  UNL     1     -35.869   5.864   4.330  1.00 20.00     0.028 C 
HETATM    5  C5  UNL     1     -33.993   5.246   5.888  1.00 20.00     0.028 C 
HETATM    6  C6  UNL     1     -32.234   9.147   4.770  1.00 20.00     0.310 C 
HETATM    7  N7  UNL     1     -32.638   7.749   4.725  1.00 20.00     0.094 N 
HETATM    8  S8  UNL     1     -33.332   5.647   3.259  1.00 20.00    -0.128 SA
ENDROOT
TORSDOF 0
ENDMDL
MODEL 6
REMARK VINA RESULT:      -2.9     14.770     15.494
REMARK  0 active torsions:
REMARK  status: ('A' for Active; 'I' for Inactive)
ROOT
HETATM    1  C1  UNL     1     -34.227  19.074  -0.808  1.00 20.00     0.292 C 
HETATM    2  C2  UNL     1     -32.702  18.777   0.959  1.00 20.00     0.346 C 
HETATM    3  C3  UNL     1     -33.101  18.431  -1.642  1.00 20.00     0.029 C 
HETATM    4  C4  UNL     1     -32.824  19.224  -2.917  1.00 20.00     0.028 C 
HETATM    5  C5  UNL     1     -33.391  16.962  -1.970  1.00 20.00     0.028 C 
HETATM    6  C6  UNL     1     -35.030  19.194   1.479  1.00 20.00     0.310 C 
HETATM    7  N7  UNL     1     -34.094  18.559   0.561  1.00 20.00     0.094 N 
HETATM    8  S8  UNL     1     -31.666  18.513  -0.512  1.00 20.00    -0.128 SA
ENDROOT
TORSDOF 0
ENDMDL
MODEL 7
REMARK VINA RESULT:      -2.8     18.605     19.276
REMARK  0 active torsions:
REMARK  status: ('A' for Active; 'I' for Inactive)
ROOT
HETATM    1  C1  UNL     1     -34.450  17.065  -5.280  1.00 20.00     0.292 C 
HETATM    2  C2  UNL     1     -33.440  16.220  -3.330  1.00 20.00     0.346 C 
HETATM    3  C3  UNL     1     -34.527  15.574  -5.663  1.00 20.00     0.029 C 
HETATM    4  C4  UNL     1     -34.027  15.335  -7.086  1.00 20.00     0.028 C 
HETATM    5  C5  UNL     1     -35.937  15.002  -5.482  1.00 20.00     0.028 C 
HETATM    6  C6  UNL     1     -34.284  18.489  -3.321  1.00 20.00     0.310 C 
HETATM    7  N7  UNL     1     -34.478  17.132  -3.812  1.00 20.00     0.094 N 
HETATM    8  S8  UNL     1     -33.407  14.788  -4.450  1.00 20.00    -0.128 SA
ENDROOT
TORSDOF 0
ENDMDL
MODEL 8
REMARK VINA RESULT:      -2.7     16.406     16.949
REMARK  0 active torsions:
REMARK  status: ('A' for Active; 'I' for Inactive)
ROOT
HETATM    1  C1  UNL     1     -33.189  16.749  -2.444  1.00 20.00     0.292 C 
HETATM    2  C2  UNL     1     -33.568  17.998  -4.403  1.00 20.00     0.346 C 
HETATM    3  C3  UNL     1     -33.124  18.143  -1.790  1.00 20.00     0.029 C 
HETATM    4  C4  UNL     1     -31.904  18.281  -0.883  1.00 20.00     0.028 C 
HETATM    5  C5  UNL     1     -34.408  18.483  -1.024  1.00 20.00     0.028 C 
HETATM    6  C6  UNL     1     -34.107  15.637  -4.397  1.00 20.00     0.310 C 
HETATM    7  N7  UNL     1     -34.065  16.867  -3.618  1.00 20.00     0.094 N 
HETATM    8  S8  UNL     1     -32.980  19.259  -3.231  1.00 20.00    -0.128 SA
ENDROOT
TORSDOF 0
ENDMDL
MODEL 9
REMARK VINA RESULT:      -2.7     18.644     19.261
REMARK  0 active torsions:
REMARK  status: ('A' for Active; 'I' for Inactive)
ROOT
HETATM    1  C1  UNL     1     -34.166  15.368  -3.980  1.00 20.00     0.292 C 
HETATM    2  C2  UNL     1     -34.723  17.652  -4.090  1.00 20.00     0.346 C 
HETATM    3  C3  UNL     1     -34.919  15.310  -5.323  1.00 20.00     0.029 C 
HETATM    4  C4  UNL     1     -35.922  14.159  -5.355  1.00 20.00     0.028 C 
HETATM    5  C5  UNL     1     -33.963  15.227  -6.519  1.00 20.00     0.028 C 
HETATM    6  C6  UNL     1     -32.984  16.943  -2.561  1.00 20.00     0.310 C 
HETATM    7  N7  UNL     1     -33.615  16.723  -3.855  1.00 20.00     0.094 N 
HETATM    8  S8  UNL     1     -35.787  16.918  -5.368  1.00 20.00    -0.128 SA
ENDROOT
TORSDOF 0
ENDMDL
