MODEL 1
REMARK VINA RESULT:      -4.1      0.000      0.000
REMARK  2 active torsions:
REMARK  status: ('A' for Active; 'I' for Inactive)
REMARK    1  A    between atoms: C1_1  and  C6_6 
REMARK    2  A    between atoms: C7_7  and  N8_8 
ROOT
HETATM    1  C3  UNL     1     -35.878   5.946   4.310  1.00 20.00     0.039 C 
HETATM    2  C4  UNL     1     -33.973   4.311   4.435  1.00 20.00     0.039 C 
HETATM    3  C5  UNL     1     -34.487   5.790   6.401  1.00 20.00     0.039 C 
HETATM    4  C7  UNL     1     -34.483   5.682   4.876  1.00 20.00     0.042 C 
ENDROOT
BRANCH   4   5
HETATM    5  N8  UNL     1     -33.566   6.698   4.341  1.00 20.00    -0.296 NA
HETATM    6  C1  UNL     1     -33.329   7.638   5.184  1.00 20.00     0.084 C 
BRANCH   6   7
HETATM    7  C6  UNL     1     -32.417   8.774   4.815  1.00 20.00     0.042 C 
HETATM    8  C2  UNL     1     -32.366   8.926   3.307  1.00 20.00     0.010 C 
ENDBRANCH   6   7
ENDBRANCH   4   5
TORSDOF 2
ENDMDL
MODEL 2
REMARK VINA RESULT:      -4.1      0.019      1.539
REMARK  2 active torsions:
REMARK  status: ('A' for Active; 'I' for Inactive)
REMARK    1  A    between atoms: C1_1  and  C6_6 
REMARK    2  A    between atoms: C7_7  and  N8_8 
ROOT
HETATM    1  C3  UNL     1     -34.492   5.785   6.400  1.00 20.00     0.039 C 
HETATM    2  C4  UNL     1     -35.872   5.939   4.305  1.00 20.00     0.039 C 
HETATM    3  C5  UNL     1     -33.964   4.308   4.431  1.00 20.00     0.039 C 
HETATM    4  C7  UNL     1     -34.479   5.678   4.875  1.00 20.00     0.042 C 
ENDROOT
BRANCH   4   5
HETATM    5  N8  UNL     1     -33.575   6.708   4.346  1.00 20.00    -0.296 NA
HETATM    6  C1  UNL     1     -33.329   7.632   5.204  1.00 20.00     0.084 C 
BRANCH   6   7
HETATM    7  C6  UNL     1     -32.428   8.779   4.843  1.00 20.00     0.042 C 
HETATM    8  C2  UNL     1     -32.369   8.936   3.336  1.00 20.00     0.010 C 
ENDBRANCH   6   7
ENDBRANCH   4   5
TORSDOF 2
ENDMDL
MODEL 3
REMARK VINA RESULT:      -4.1      0.031      1.535
REMARK  2 active torsions:
REMARK  status: ('A' for Active; 'I' for Inactive)
REMARK    1  A    between atoms: C1_1  and  C6_6 
REMARK    2  A    between atoms: C7_7  and  N8_8 
ROOT
HETATM    1  C3  UNL     1     -33.975   4.319   4.428  1.00 20.00     0.039 C 
HETATM    2  C4  UNL     1     -34.465   5.795   6.402  1.00 20.00     0.039 C 
HETATM    3  C5  UNL     1     -35.872   5.970   4.327  1.00 20.00     0.039 C 
HETATM    4  C7  UNL     1     -34.473   5.692   4.878  1.00 20.00     0.042 C 
ENDROOT
BRANCH   4   5
HETATM    5  N8  UNL     1     -33.555   6.713   4.352  1.00 20.00    -0.296 NA
HETATM    6  C1  UNL     1     -33.340   7.659   5.195  1.00 20.00     0.084 C 
BRANCH   6   7
HETATM    7  C6  UNL     1     -32.431   8.800   4.836  1.00 20.00     0.042 C 
HETATM    8  C2  UNL     1     -32.314   8.912   3.328  1.00 20.00     0.010 C 
ENDBRANCH   6   7
ENDBRANCH   4   5
TORSDOF 2
ENDMDL
MODEL 4
REMARK VINA RESULT:      -3.5      9.070      9.744
REMARK  2 active torsions:
REMARK  status: ('A' for Active; 'I' for Inactive)
REMARK    1  A    between atoms: C1_1  and  C6_6 
REMARK    2  A    between atoms: C7_7  and  N8_8 
ROOT
HETATM    1  C3  UNL     1     -42.426  13.965   5.654  1.00 20.00     0.039 C 
HETATM    2  C4  UNL     1     -43.170  12.234   7.317  1.00 20.00     0.039 C 
HETATM    3  C5  UNL     1     -41.461  13.954   7.979  1.00 20.00     0.039 C 
HETATM    4  C7  UNL     1     -42.003  13.094   6.836  1.00 20.00     0.042 C 
ENDROOT
BRANCH   4   5
HETATM    5  N8  UNL     1     -40.933  12.191   6.388  1.00 20.00    -0.296 NA
HETATM    6  C1  UNL     1     -39.913  12.826   5.934  1.00 20.00     0.084 C 
BRANCH   6   7
HETATM    7  C6  UNL     1     -38.719  12.072   5.421  1.00 20.00     0.042 C 
HETATM    8  C2  UNL     1     -38.964  11.624   3.993  1.00 20.00     0.010 C 
ENDBRANCH   6   7
ENDBRANCH   4   5
TORSDOF 2
ENDMDL
MODEL 5
REMARK VINA RESULT:      -3.5      9.122      9.883
REMARK  2 active torsions:
REMARK  status: ('A' for Active; 'I' for Inactive)
REMARK    1  A    between atoms: C1_1  and  C6_6 
REMARK    2  A    between atoms: C7_7  and  N8_8 
ROOT
HETATM    1  C3  UNL     1     -43.289  12.215   7.228  1.00 20.00     0.039 C 
HETATM    2  C4  UNL     1     -41.707  13.987   8.048  1.00 20.00     0.039 C 
HETATM    3  C5  UNL     1     -42.389  13.938   5.630  1.00 20.00     0.039 C 
HETATM    4  C7  UNL     1     -42.092  13.094   6.870  1.00 20.00     0.042 C 
ENDROOT
BRANCH   4   5
HETATM    5  N8  UNL     1     -40.947  12.221   6.573  1.00 20.00    -0.296 NA
HETATM    6  C1  UNL     1     -40.077  12.792   5.820  1.00 20.00     0.084 C 
BRANCH   6   7
HETATM    7  C6  UNL     1     -38.837  12.053   5.402  1.00 20.00     0.042 C 
HETATM    8  C2  UNL     1     -38.939  11.656   3.942  1.00 20.00     0.010 C 
ENDBRANCH   6   7
ENDBRANCH   4   5
TORSDOF 2
ENDMDL
MODEL 6
REMARK VINA RESULT:      -3.4      9.152      9.888
REMARK  2 active torsions:
REMARK  status: ('A' for Active; 'I' for Inactive)
REMARK    1  A    between atoms: C1_1  and  C6_6 
REMARK    2  A    between atoms: C7_7  and  N8_8 
ROOT
HETATM    1  C3  UNL     1     -41.543  14.294   7.881  1.00 20.00     0.039 C 
HETATM    2  C4  UNL     1     -42.378  13.914   5.541  1.00 20.00     0.039 C 
HETATM    3  C5  UNL     1     -43.193  12.452   7.414  1.00 20.00     0.039 C 
HETATM    4  C7  UNL     1     -42.010  13.251   6.867  1.00 20.00     0.042 C 
ENDROOT
BRANCH   4   5
HETATM    5  N8  UNL     1     -40.900  12.322   6.612  1.00 20.00    -0.296 NA
HETATM    6  C1  UNL     1     -40.015  12.819   5.824  1.00 20.00     0.084 C 
BRANCH   6   7
HETATM    7  C6  UNL     1     -38.806  12.014   5.441  1.00 20.00     0.042 C 
HETATM    8  C2  UNL     1     -38.882  11.632   3.975  1.00 20.00     0.010 C 
ENDBRANCH   6   7
ENDBRANCH   4   5
TORSDOF 2
ENDMDL
MODEL 7
REMARK VINA RESULT:      -3.3      1.260      3.887
REMARK  2 active torsions:
REMARK  status: ('A' for Active; 'I' for Inactive)
REMARK    1  A    between atoms: C1_1  and  C6_6 
REMARK    2  A    between atoms: C7_7  and  N8_8 
ROOT
HETATM    1  C3  UNL     1     -31.884   9.134   4.846  1.00 20.00     0.039 C 
HETATM    2  C4  UNL     1     -31.827   7.308   3.119  1.00 20.00     0.039 C 
HETATM    3  C5  UNL     1     -33.262   9.337   2.750  1.00 20.00     0.039 C 
HETATM    4  C7  UNL     1     -32.689   8.376   3.791  1.00 20.00     0.042 C 
ENDROOT
BRANCH   4   5
HETATM    5  N8  UNL     1     -33.807   7.696   4.461  1.00 20.00    -0.296 NA
HETATM    6  C1  UNL     1     -33.499   7.292   5.641  1.00 20.00     0.084 C 
BRANCH   6   7
HETATM    7  C6  UNL     1     -34.512   6.567   6.481  1.00 20.00     0.042 C 
HETATM    8  C2  UNL     1     -34.727   5.168   5.938  1.00 20.00     0.010 C 
ENDBRANCH   6   7
ENDBRANCH   4   5
TORSDOF 2
ENDMDL
MODEL 8
REMARK VINA RESULT:      -3.3      1.240      3.883
REMARK  2 active torsions:
REMARK  status: ('A' for Active; 'I' for Inactive)
REMARK    1  A    between atoms: C1_1  and  C6_6 
REMARK    2  A    between atoms: C7_7  and  N8_8 
ROOT
HETATM    1  C3  UNL     1     -33.261   9.342   2.760  1.00 20.00     0.039 C 
HETATM    2  C4  UNL     1     -31.895   9.133   4.860  1.00 20.00     0.039 C 
HETATM    3  C5  UNL     1     -31.806   7.320   3.122  1.00 20.00     0.039 C 
HETATM    4  C7  UNL     1     -32.685   8.375   3.794  1.00 20.00     0.042 C 
ENDROOT
BRANCH   4   5
HETATM    5  N8  UNL     1     -33.802   7.692   4.463  1.00 20.00    -0.296 NA
HETATM    6  C1  UNL     1     -33.483   7.256   5.628  1.00 20.00     0.084 C 
BRANCH   6   7
HETATM    7  C6  UNL     1     -34.493   6.522   6.465  1.00 20.00     0.042 C 
HETATM    8  C2  UNL     1     -34.724   5.135   5.898  1.00 20.00     0.010 C 
ENDBRANCH   6   7
ENDBRANCH   4   5
TORSDOF 2
ENDMDL
MODEL 9
REMARK VINA RESULT:      -3.2     15.424     16.525
REMARK  2 active torsions:
REMARK  status: ('A' for Active; 'I' for Inactive)
REMARK    1  A    between atoms: C1_1  and  C6_6 
REMARK    2  A    between atoms: C7_7  and  N8_8 
ROOT
HETATM    1  C3  UNL     1     -24.418  16.269  11.917  1.00 20.00     0.039 C 
HETATM    2  C4  UNL     1     -22.781  18.146  12.258  1.00 20.00     0.039 C 
HETATM    3  C5  UNL     1     -24.899  18.550  10.967  1.00 20.00     0.039 C 
HETATM    4  C7  UNL     1     -23.810  17.533  11.309  1.00 20.00     0.042 C 
ENDROOT
BRANCH   4   5
HETATM    5  N8  UNL     1     -23.114  17.163  10.069  1.00 20.00    -0.296 NA
HETATM    6  C1  UNL     1     -22.136  17.951   9.801  1.00 20.00     0.084 C 
BRANCH   6   7
HETATM    7  C6  UNL     1     -21.307  17.737   8.567  1.00 20.00     0.042 C 
HETATM    8  C2  UNL     1     -21.918  18.484   7.397  1.00 20.00     0.010 C 
ENDBRANCH   6   7
ENDBRANCH   4   5
TORSDOF 2
ENDMDL
