MODEL 1
REMARK VINA RESULT:      -4.5      0.000      0.000
REMARK  3 active torsions:
REMARK  status: ('A' for Active; 'I' for Inactive)
REMARK    1  A    between atoms: C5_5  and  N8_8 
REMARK    2  A    between atoms: C6_6  and  C7_7 
REMARK    3  A    between atoms: C7_7  and  N8_8 
ROOT
HETATM    1  C1  UNL     1     -32.959   4.968   2.568  1.00 20.00     0.013 C 
HETATM    2  C2  UNL     1     -32.684   6.106   2.834  1.00 20.00    -0.087 C 
HETATM    3  C5  UNL     1     -32.347   7.495   3.155  1.00 20.00     0.364 C 
ENDROOT
BRANCH   3   4
HETATM    4  N8  UNL     1     -32.561   7.764   4.576  1.00 20.00     0.095 N 
HETATM    5  C4  UNL     1     -32.176   9.136   4.901  1.00 20.00     0.310 C 
BRANCH   4   6
HETATM    6  C7  UNL     1     -33.958   7.526   4.937  1.00 20.00     0.272 C 
BRANCH   6   7
HETATM    7  C6  UNL     1     -34.097   6.796   6.269  1.00 20.00     0.026 C 
HETATM    8  C3  UNL     1     -34.583   5.362   6.106  1.00 20.00     0.007 C 
ENDBRANCH   6   7
ENDBRANCH   4   6
ENDBRANCH   3   4
TORSDOF 3
ENDMDL
MODEL 2
REMARK VINA RESULT:      -3.8      1.332      3.543
REMARK  3 active torsions:
REMARK  status: ('A' for Active; 'I' for Inactive)
REMARK    1  A    between atoms: C5_5  and  N8_8 
REMARK    2  A    between atoms: C6_6  and  C7_7 
REMARK    3  A    between atoms: C7_7  and  N8_8 
ROOT
HETATM    1  C1  UNL     1     -32.256   8.703   4.431  1.00 20.00     0.013 C 
HETATM    2  C2  UNL     1     -33.061   8.132   5.116  1.00 20.00    -0.087 C 
HETATM    3  C5  UNL     1     -34.044   7.441   5.953  1.00 20.00     0.364 C 
ENDROOT
BRANCH   3   4
HETATM    4  N8  UNL     1     -34.036   6.004   5.680  1.00 20.00     0.095 N 
HETATM    5  C4  UNL     1     -34.751   5.280   6.729  1.00 20.00     0.310 C 
BRANCH   4   6
HETATM    6  C7  UNL     1     -34.632   5.729   4.372  1.00 20.00     0.272 C 
BRANCH   6   7
HETATM    7  C6  UNL     1     -33.832   4.706   3.574  1.00 20.00     0.026 C 
HETATM    8  C3  UNL     1     -32.857   5.351   2.599  1.00 20.00     0.007 C 
ENDBRANCH   6   7
ENDBRANCH   4   6
ENDBRANCH   3   4
TORSDOF 3
ENDMDL
MODEL 3
REMARK VINA RESULT:      -3.7      1.381      2.813
REMARK  3 active torsions:
REMARK  status: ('A' for Active; 'I' for Inactive)
REMARK    1  A    between atoms: C5_5  and  N8_8 
REMARK    2  A    between atoms: C6_6  and  C7_7 
REMARK    3  A    between atoms: C7_7  and  N8_8 
ROOT
HETATM    1  C1  UNL     1     -32.856   5.226   2.494  1.00 20.00     0.013 C 
HETATM    2  C2  UNL     1     -33.566   5.031   3.443  1.00 20.00    -0.087 C 
HETATM    3  C5  UNL     1     -34.432   4.788   4.599  1.00 20.00     0.364 C 
ENDROOT
BRANCH   3   4
HETATM    4  N8  UNL     1     -34.823   6.050   5.226  1.00 20.00     0.095 N 
HETATM    5  C4  UNL     1     -34.330   6.113   6.600  1.00 20.00     0.310 C 
BRANCH   4   6
HETATM    6  C7  UNL     1     -34.322   7.184   4.449  1.00 20.00     0.272 C 
BRANCH   6   7
HETATM    7  C6  UNL     1     -33.525   8.164   5.302  1.00 20.00     0.026 C 
HETATM    8  C3  UNL     1     -32.251   8.640   4.617  1.00 20.00     0.007 C 
ENDBRANCH   6   7
ENDBRANCH   4   6
ENDBRANCH   3   4
TORSDOF 3
ENDMDL
MODEL 4
REMARK VINA RESULT:      -3.6      0.761      2.993
REMARK  3 active torsions:
REMARK  status: ('A' for Active; 'I' for Inactive)
REMARK    1  A    between atoms: C5_5  and  N8_8 
REMARK    2  A    between atoms: C6_6  and  C7_7 
REMARK    3  A    between atoms: C7_7  and  N8_8 
ROOT
HETATM    1  C1  UNL     1     -34.761   5.085   6.188  1.00 20.00     0.013 C 
HETATM    2  C2  UNL     1     -34.287   6.186   6.242  1.00 20.00    -0.087 C 
HETATM    3  C5  UNL     1     -33.707   7.530   6.314  1.00 20.00     0.364 C 
ENDROOT
BRANCH   3   4
HETATM    4  N8  UNL     1     -33.610   8.122   4.980  1.00 20.00     0.095 N 
HETATM    5  C4  UNL     1     -32.272   8.670   4.760  1.00 20.00     0.310 C 
BRANCH   4   6
HETATM    6  C7  UNL     1     -33.931   7.129   3.955  1.00 20.00     0.272 C 
BRANCH   6   7
HETATM    7  C6  UNL     1     -32.699   6.675   3.180  1.00 20.00     0.026 C 
HETATM    8  C3  UNL     1     -32.823   5.250   2.660  1.00 20.00     0.007 C 
ENDBRANCH   6   7
ENDBRANCH   4   6
ENDBRANCH   3   4
TORSDOF 3
ENDMDL
MODEL 5
REMARK VINA RESULT:      -3.5      1.073      1.872
REMARK  3 active torsions:
REMARK  status: ('A' for Active; 'I' for Inactive)
REMARK    1  A    between atoms: C5_5  and  N8_8 
REMARK    2  A    between atoms: C6_6  and  C7_7 
REMARK    3  A    between atoms: C7_7  and  N8_8 
ROOT
HETATM    1  C1  UNL     1     -32.874   9.501   1.580  1.00 20.00     0.013 C 
HETATM    2  C2  UNL     1     -32.569   8.574   2.280  1.00 20.00    -0.087 C 
HETATM    3  C5  UNL     1     -32.194   7.441   3.129  1.00 20.00     0.364 C 
ENDROOT
BRANCH   3   4
HETATM    4  N8  UNL     1     -32.505   7.720   4.530  1.00 20.00     0.095 N 
HETATM    5  C4  UNL     1     -32.183   9.107   4.860  1.00 20.00     0.310 C 
BRANCH   4   6
HETATM    6  C7  UNL     1     -33.915   7.443   4.806  1.00 20.00     0.272 C 
BRANCH   6   7
HETATM    7  C6  UNL     1     -34.132   6.868   6.201  1.00 20.00     0.026 C 
HETATM    8  C3  UNL     1     -34.601   5.420   6.174  1.00 20.00     0.007 C 
ENDBRANCH   6   7
ENDBRANCH   4   6
ENDBRANCH   3   4
TORSDOF 3
ENDMDL
MODEL 6
REMARK VINA RESULT:      -3.5      1.152      2.801
REMARK  3 active torsions:
REMARK  status: ('A' for Active; 'I' for Inactive)
REMARK    1  A    between atoms: C5_5  and  N8_8 
REMARK    2  A    between atoms: C6_6  and  C7_7 
REMARK    3  A    between atoms: C7_7  and  N8_8 
ROOT
HETATM    1  C1  UNL     1     -32.294   9.093   5.036  1.00 20.00     0.013 C 
HETATM    2  C2  UNL     1     -32.234   8.279   4.155  1.00 20.00    -0.087 C 
HETATM    3  C5  UNL     1     -32.156   7.289   3.079  1.00 20.00     0.364 C 
ENDROOT
BRANCH   3   4
HETATM    4  N8  UNL     1     -33.330   6.417   3.092  1.00 20.00     0.095 N 
HETATM    5  C4  UNL     1     -32.939   5.028   2.857  1.00 20.00     0.310 C 
BRANCH   4   6
HETATM    6  C7  UNL     1     -34.043   6.539   4.364  1.00 20.00     0.272 C 
BRANCH   6   7
HETATM    7  C6  UNL     1     -34.571   5.200   4.864  1.00 20.00     0.026 C 
HETATM    8  C3  UNL     1     -34.570   5.096   6.383  1.00 20.00     0.007 C 
ENDBRANCH   6   7
ENDBRANCH   4   6
ENDBRANCH   3   4
TORSDOF 3
ENDMDL
MODEL 7
REMARK VINA RESULT:      -3.5      1.257      3.511
REMARK  3 active torsions:
REMARK  status: ('A' for Active; 'I' for Inactive)
REMARK    1  A    between atoms: C5_5  and  N8_8 
REMARK    2  A    between atoms: C6_6  and  C7_7 
REMARK    3  A    between atoms: C7_7  and  N8_8 
ROOT
HETATM    1  C1  UNL     1     -34.645   5.421   6.591  1.00 20.00     0.013 C 
HETATM    2  C2  UNL     1     -34.580   5.623   5.409  1.00 20.00    -0.087 C 
HETATM    3  C5  UNL     1     -34.505   5.870   3.968  1.00 20.00     0.364 C 
ENDROOT
BRANCH   3   4
HETATM    4  N8  UNL     1     -33.113   5.946   3.527  1.00 20.00     0.095 N 
HETATM    5  C4  UNL     1     -32.858   4.974   2.466  1.00 20.00     0.310 C 
BRANCH   4   6
HETATM    6  C7  UNL     1     -32.794   7.299   3.070  1.00 20.00     0.272 C 
BRANCH   6   7
HETATM    7  C6  UNL     1     -31.900   8.048   4.051  1.00 20.00     0.026 C 
HETATM    8  C3  UNL     1     -32.691   8.793   5.117  1.00 20.00     0.007 C 
ENDBRANCH   6   7
ENDBRANCH   4   6
ENDBRANCH   3   4
TORSDOF 3
ENDMDL
MODEL 8
REMARK VINA RESULT:      -3.4      1.369      3.989
REMARK  3 active torsions:
REMARK  status: ('A' for Active; 'I' for Inactive)
REMARK    1  A    between atoms: C5_5  and  N8_8 
REMARK    2  A    between atoms: C6_6  and  C7_7 
REMARK    3  A    between atoms: C7_7  and  N8_8 
ROOT
HETATM    1  C1  UNL     1     -34.453   5.806   6.404  1.00 20.00     0.013 C 
HETATM    2  C2  UNL     1     -34.053   6.768   5.807  1.00 20.00    -0.087 C 
HETATM    3  C5  UNL     1     -33.569   7.945   5.081  1.00 20.00     0.364 C 
ENDROOT
BRANCH   3   4
HETATM    4  N8  UNL     1     -32.606   7.558   4.052  1.00 20.00     0.095 N 
HETATM    5  C4  UNL     1     -33.059   6.357   3.353  1.00 20.00     0.310 C 
BRANCH   4   6
HETATM    6  C7  UNL     1     -32.401   8.654   3.104  1.00 20.00     0.272 C 
BRANCH   6   7
HETATM    7  C6  UNL     1     -32.244   8.160   1.671  1.00 20.00     0.026 C 
HETATM    8  C3  UNL     1     -32.650   9.206   0.641  1.00 20.00     0.007 C 
ENDBRANCH   6   7
ENDBRANCH   4   6
ENDBRANCH   3   4
TORSDOF 3
ENDMDL
MODEL 9
REMARK VINA RESULT:      -3.4      1.737      3.872
REMARK  3 active torsions:
REMARK  status: ('A' for Active; 'I' for Inactive)
REMARK    1  A    between atoms: C5_5  and  N8_8 
REMARK    2  A    between atoms: C6_6  and  C7_7 
REMARK    3  A    between atoms: C7_7  and  N8_8 
ROOT
HETATM    1  C1  UNL     1     -33.215   8.246   5.323  1.00 20.00     0.013 C 
HETATM    2  C2  UNL     1     -33.740   7.278   5.801  1.00 20.00    -0.087 C 
HETATM    3  C5  UNL     1     -34.379   6.098   6.389  1.00 20.00     0.364 C 
ENDROOT
BRANCH   3   4
HETATM    4  N8  UNL     1     -34.886   5.210   5.344  1.00 20.00     0.095 N 
HETATM    5  C4  UNL     1     -35.715   5.955   4.397  1.00 20.00     0.310 C 
BRANCH   4   6
HETATM    6  C7  UNL     1     -33.779   4.554   4.648  1.00 20.00     0.272 C 
BRANCH   6   7
HETATM    7  C6  UNL     1     -33.796   4.822   3.148  1.00 20.00     0.026 C 
HETATM    8  C3  UNL     1     -32.621   5.673   2.688  1.00 20.00     0.007 C 
ENDBRANCH   6   7
ENDBRANCH   4   6
ENDBRANCH   3   4
TORSDOF 3
ENDMDL
