MODEL 1
REMARK VINA RESULT:      -6.2      0.000      0.000
REMARK  0 active torsions:
REMARK  status: ('A' for Active; 'I' for Inactive)
ROOT
HETATM    1  C1  UNL     1     -33.677   6.130   4.184  1.00 20.00     0.011 C 
HETATM    2  C2  UNL     1     -34.353   4.901   4.726  1.00 20.00     0.054 C 
HETATM    3  C3  UNL     1     -34.953   5.419   6.034  1.00 20.00     0.006 C 
HETATM    4  C4  UNL     1     -32.508   8.565   3.494  1.00 20.00     0.022 C 
HETATM    5  C5  UNL     1     -34.110   6.640   6.408  1.00 20.00     0.011 C 
HETATM    6  C6  UNL     1     -32.707   8.267   4.974  1.00 20.00     0.012 C 
HETATM    7  C7  UNL     1     -32.213   7.288   2.708  1.00 20.00     0.148 C 
HETATM    8  C8  UNL     1     -33.884   7.326   5.068  1.00 20.00     0.033 C 
HETATM    9  N9  UNL     1     -32.987   6.104   3.103  1.00 20.00    -0.298 NA
ENDROOT
TORSDOF 0
ENDMDL
MODEL 2
REMARK VINA RESULT:      -5.7      0.722      3.174
REMARK  0 active torsions:
REMARK  status: ('A' for Active; 'I' for Inactive)
ROOT
HETATM    1  C1  UNL     1     -33.262   6.677   4.208  1.00 20.00     0.011 C 
HETATM    2  C2  UNL     1     -32.556   7.564   3.221  1.00 20.00     0.054 C 
HETATM    3  C3  UNL     1     -32.130   8.741   4.099  1.00 20.00     0.006 C 
HETATM    4  C4  UNL     1     -34.532   5.302   6.274  1.00 20.00     0.022 C 
HETATM    5  C5  UNL     1     -33.094   8.726   5.288  1.00 20.00     0.011 C 
HETATM    6  C6  UNL     1     -34.461   6.820   6.370  1.00 20.00     0.012 C 
HETATM    7  C7  UNL     1     -34.652   4.844   4.822  1.00 20.00     0.148 C 
HETATM    8  C8  UNL     1     -33.234   7.242   5.599  1.00 20.00     0.033 C 
HETATM    9  N9  UNL     1     -33.837   5.586   3.851  1.00 20.00    -0.298 NA
ENDROOT
TORSDOF 0
ENDMDL
MODEL 3
REMARK VINA RESULT:      -5.6      1.293      3.722
REMARK  0 active torsions:
REMARK  status: ('A' for Active; 'I' for Inactive)
ROOT
HETATM    1  C1  UNL     1     -33.470   7.411   5.199  1.00 20.00     0.011 C 
HETATM    2  C2  UNL     1     -32.643   8.665   5.124  1.00 20.00     0.054 C 
HETATM    3  C3  UNL     1     -32.266   8.709   3.643  1.00 20.00     0.006 C 
HETATM    4  C4  UNL     1     -34.906   5.031   4.995  1.00 20.00     0.022 C 
HETATM    5  C5  UNL     1     -32.376   7.262   3.156  1.00 20.00     0.011 C 
HETATM    6  C6  UNL     1     -33.770   5.262   4.008  1.00 20.00     0.012 C 
HETATM    7  C7  UNL     1     -34.595   5.659   6.352  1.00 20.00     0.148 C 
HETATM    8  C8  UNL     1     -33.630   6.757   3.858  1.00 20.00     0.033 C 
HETATM    9  N9  UNL     1     -33.937   6.972   6.311  1.00 20.00    -0.298 NA
ENDROOT
TORSDOF 0
ENDMDL
MODEL 4
REMARK VINA RESULT:      -5.6      1.216      3.728
REMARK  0 active torsions:
REMARK  status: ('A' for Active; 'I' for Inactive)
ROOT
HETATM    1  C1  UNL     1     -33.308   7.133   4.606  1.00 20.00     0.011 C 
HETATM    2  C2  UNL     1     -32.335   8.016   3.874  1.00 20.00     0.054 C 
HETATM    3  C3  UNL     1     -32.273   7.350   2.499  1.00 20.00     0.006 C 
HETATM    4  C4  UNL     1     -35.098   5.281   5.673  1.00 20.00     0.022 C 
HETATM    5  C5  UNL     1     -32.699   5.899   2.735  1.00 20.00     0.011 C 
HETATM    6  C6  UNL     1     -34.171   4.813   4.559  1.00 20.00     0.012 C 
HETATM    7  C7  UNL     1     -34.420   6.331   6.551  1.00 20.00     0.148 C 
HETATM    8  C8  UNL     1     -33.841   6.033   3.734  1.00 20.00     0.033 C 
HETATM    9  N9  UNL     1     -33.594   7.318   5.843  1.00 20.00    -0.298 NA
ENDROOT
TORSDOF 0
ENDMDL
MODEL 5
REMARK VINA RESULT:      -5.4      1.096      2.069
REMARK  0 active torsions:
REMARK  status: ('A' for Active; 'I' for Inactive)
ROOT
HETATM    1  C1  UNL     1     -33.559   7.104   5.240  1.00 20.00     0.011 C 
HETATM    2  C2  UNL     1     -34.376   6.835   6.473  1.00 20.00     0.054 C 
HETATM    3  C3  UNL     1     -34.732   5.357   6.302  1.00 20.00     0.006 C 
HETATM    4  C4  UNL     1     -32.136   7.271   2.849  1.00 20.00     0.022 C 
HETATM    5  C5  UNL     1     -34.626   5.089   4.799  1.00 20.00     0.011 C 
HETATM    6  C6  UNL     1     -33.256   6.244   2.938  1.00 20.00     0.012 C 
HETATM    7  C7  UNL     1     -32.461   8.517   3.670  1.00 20.00     0.148 C 
HETATM    8  C8  UNL     1     -33.385   5.875   4.396  1.00 20.00     0.033 C 
HETATM    9  N9  UNL     1     -33.110   8.275   4.966  1.00 20.00    -0.298 NA
ENDROOT
TORSDOF 0
ENDMDL
MODEL 6
REMARK VINA RESULT:      -5.1      1.107      2.012
REMARK  0 active torsions:
REMARK  status: ('A' for Active; 'I' for Inactive)
ROOT
HETATM    1  C1  UNL     1     -33.117   6.547   3.812  1.00 20.00     0.011 C 
HETATM    2  C2  UNL     1     -33.004   5.302   2.977  1.00 20.00     0.054 C 
HETATM    3  C3  UNL     1     -34.070   4.402   3.602  1.00 20.00     0.006 C 
HETATM    4  C4  UNL     1     -33.555   8.668   5.567  1.00 20.00     0.022 C 
HETATM    5  C5  UNL     1     -34.257   4.929   5.027  1.00 20.00     0.011 C 
HETATM    6  C6  UNL     1     -33.858   7.261   6.064  1.00 20.00     0.012 C 
HETATM    7  C7  UNL     1     -32.376   8.670   4.596  1.00 20.00     0.148 C 
HETATM    8  C8  UNL     1     -34.201   6.440   4.844  1.00 20.00     0.033 C 
HETATM    9  N9  UNL     1     -32.332   7.549   3.646  1.00 20.00    -0.298 NA
ENDROOT
TORSDOF 0
ENDMDL
MODEL 7
REMARK VINA RESULT:      -4.5      1.386      2.358
REMARK  0 active torsions:
REMARK  status: ('A' for Active; 'I' for Inactive)
ROOT
HETATM    1  C1  UNL     1     -33.851   6.499   4.895  1.00 20.00     0.011 C 
HETATM    2  C2  UNL     1     -34.639   5.221   4.985  1.00 20.00     0.054 C 
HETATM    3  C3  UNL     1     -33.986   4.368   3.897  1.00 20.00     0.006 C 
HETATM    4  C4  UNL     1     -32.235   8.723   4.435  1.00 20.00     0.022 C 
HETATM    5  C5  UNL     1     -33.346   5.367   2.930  1.00 20.00     0.011 C 
HETATM    6  C6  UNL     1     -32.499   7.784   3.267  1.00 20.00     0.012 C 
HETATM    7  C7  UNL     1     -33.441   8.795   5.371  1.00 20.00     0.148 C 
HETATM    8  C8  UNL     1     -32.764   6.423   3.862  1.00 20.00     0.033 C 
HETATM    9  N9  UNL     1     -34.133   7.522   5.616  1.00 20.00    -0.298 NA
ENDROOT
TORSDOF 0
ENDMDL
MODEL 8
REMARK VINA RESULT:      -4.2      1.511      2.692
REMARK  0 active torsions:
REMARK  status: ('A' for Active; 'I' for Inactive)
ROOT
HETATM    1  C1  UNL     1     -33.546   6.458   4.369  1.00 20.00     0.011 C 
HETATM    2  C2  UNL     1     -33.989   5.117   3.853  1.00 20.00     0.054 C 
HETATM    3  C3  UNL     1     -33.084   4.932   2.634  1.00 20.00     0.006 C 
HETATM    4  C4  UNL     1     -32.523   8.966   5.029  1.00 20.00     0.022 C 
HETATM    5  C5  UNL     1     -32.667   6.345   2.222  1.00 20.00     0.011 C 
HETATM    6  C6  UNL     1     -32.478   8.543   3.567  1.00 20.00     0.012 C 
HETATM    7  C7  UNL     1     -33.756   8.399   5.731  1.00 20.00     0.148 C 
HETATM    8  C8  UNL     1     -32.422   7.035   3.558  1.00 20.00     0.033 C 
HETATM    9  N9  UNL     1     -34.116   7.021   5.372  1.00 20.00    -0.298 NA
ENDROOT
TORSDOF 0
ENDMDL
MODEL 9
REMARK VINA RESULT:      -4.0     16.189     16.934
REMARK  0 active torsions:
REMARK  status: ('A' for Active; 'I' for Inactive)
ROOT
HETATM    1  C1  UNL     1     -23.733  18.675   9.654  1.00 20.00     0.011 C 
HETATM    2  C2  UNL     1     -23.255  18.936   8.253  1.00 20.00     0.054 C 
HETATM    3  C3  UNL     1     -21.788  18.511   8.333  1.00 20.00     0.006 C 
HETATM    4  C4  UNL     1     -24.275  18.119  12.332  1.00 20.00     0.022 C 
HETATM    5  C5  UNL     1     -21.417  18.622   9.813  1.00 20.00     0.011 C 
HETATM    6  C6  UNL     1     -22.848  18.500  11.960  1.00 20.00     0.012 C 
HETATM    7  C7  UNL     1     -25.288  18.844  11.448  1.00 20.00     0.148 C 
HETATM    8  C8  UNL     1     -22.656  18.089  10.520  1.00 20.00     0.033 C 
HETATM    9  N9  UNL     1     -24.925  18.966  10.030  1.00 20.00    -0.298 NA
ENDROOT
TORSDOF 0
ENDMDL
