MODEL 1
REMARK VINA RESULT:      -4.8      0.000      0.000
REMARK  1 active torsions:
REMARK  status: ('A' for Active; 'I' for Inactive)
REMARK    1  A    between atoms: C1_1  and  C6_6 
ROOT
HETATM    1  C2  UNL     1     -34.288   7.070   6.732  1.00 20.00     0.001 C 
HETATM    2  C3  UNL     1     -33.326   8.011   6.014  1.00 20.00     0.011 C 
HETATM    3  C4  UNL     1     -34.185   5.641   6.198  1.00 20.00     0.009 C 
HETATM    4  C5  UNL     1     -33.405   6.534   3.962  1.00 20.00     0.020 C 
HETATM    5  C6  UNL     1     -33.514   7.965   4.498  1.00 20.00     0.048 C 
HETATM    6  C7  UNL     1     -34.361   5.544   4.666  1.00 20.00    -0.047 C 
HETATM    7  C8  UNL     1     -34.019   4.110   4.215  1.00 20.00     0.015 C 
HETATM    8  C9  UNL     1     -35.823   5.827   4.269  1.00 20.00     0.015 C 
ENDROOT
BRANCH   5   9
HETATM    9  C1  UNL     1     -32.473   8.828   3.851  1.00 20.00     0.235 C 
HETATM   10  O10 UNL     1     -32.487   9.126   2.661  1.00 20.00    -0.306 OA
ENDBRANCH   5   9
TORSDOF 1
ENDMDL
MODEL 2
REMARK VINA RESULT:      -4.0      2.247      4.104
REMARK  1 active torsions:
REMARK  status: ('A' for Active; 'I' for Inactive)
REMARK    1  A    between atoms: C1_1  and  C6_6 
ROOT
HETATM    1  C2  UNL     1     -32.821   6.149   2.647  1.00 20.00     0.001 C 
HETATM    2  C3  UNL     1     -33.524   5.307   3.707  1.00 20.00     0.011 C 
HETATM    3  C4  UNL     1     -32.035   7.302   3.271  1.00 20.00     0.009 C 
HETATM    4  C5  UNL     1     -33.619   7.313   5.245  1.00 20.00     0.020 C 
HETATM    5  C6  UNL     1     -34.408   6.161   4.615  1.00 20.00     0.048 C 
HETATM    6  C7  UNL     1     -32.886   8.192   4.205  1.00 20.00    -0.047 C 
HETATM    7  C8  UNL     1     -31.955   9.172   4.945  1.00 20.00     0.015 C 
HETATM    8  C9  UNL     1     -33.895   9.023   3.391  1.00 20.00     0.015 C 
ENDROOT
BRANCH   5   9
HETATM    9  C1  UNL     1     -34.983   5.293   5.693  1.00 20.00     0.235 C 
HETATM   10  O10 UNL     1     -34.381   5.006   6.723  1.00 20.00    -0.306 OA
ENDBRANCH   5   9
TORSDOF 1
ENDMDL
MODEL 3
REMARK VINA RESULT:      -3.7     12.558     13.846
REMARK  1 active torsions:
REMARK  status: ('A' for Active; 'I' for Inactive)
REMARK    1  A    between atoms: C1_1  and  C6_6 
ROOT
HETATM    1  C2  UNL     1     -33.006  15.468  -3.920  1.00 20.00     0.001 C 
HETATM    2  C3  UNL     1     -34.078  14.938  -4.867  1.00 20.00     0.011 C 
HETATM    3  C4  UNL     1     -33.575  16.496  -2.942  1.00 20.00     0.009 C 
HETATM    4  C5  UNL     1     -35.371  17.098  -4.620  1.00 20.00     0.020 C 
HETATM    5  C6  UNL     1     -34.796  16.071  -5.599  1.00 20.00     0.048 C 
HETATM    6  C7  UNL     1     -34.318  17.660  -3.636  1.00 20.00    -0.047 C 
HETATM    7  C8  UNL     1     -35.034  18.505  -2.565  1.00 20.00     0.015 C 
HETATM    8  C9  UNL     1     -33.323  18.576  -4.373  1.00 20.00     0.015 C 
ENDROOT
BRANCH   5   9
HETATM    9  C1  UNL     1     -35.902  15.490  -6.430  1.00 20.00     0.235 C 
HETATM   10  O10 UNL     1     -35.902  14.335  -6.842  1.00 20.00    -0.306 OA
ENDBRANCH   5   9
TORSDOF 1
ENDMDL
MODEL 4
REMARK VINA RESULT:      -3.6     12.094     13.280
REMARK  1 active torsions:
REMARK  status: ('A' for Active; 'I' for Inactive)
REMARK    1  A    between atoms: C1_1  and  C6_6 
ROOT
HETATM    1  C2  UNL     1     -34.824  18.682  -3.386  1.00 20.00     0.001 C 
HETATM    2  C3  UNL     1     -34.409  17.445  -4.177  1.00 20.00     0.011 C 
HETATM    3  C4  UNL     1     -33.675  19.216  -2.530  1.00 20.00     0.009 C 
HETATM    4  C5  UNL     1     -32.679  16.893  -2.416  1.00 20.00     0.020 C 
HETATM    5  C6  UNL     1     -33.834  16.359  -3.270  1.00 20.00     0.048 C 
HETATM    6  C7  UNL     1     -33.055  18.150  -1.599  1.00 20.00    -0.047 C 
HETATM    7  C8  UNL     1     -31.779  18.730  -0.958  1.00 20.00     0.015 C 
HETATM    8  C9  UNL     1     -34.031  17.787  -0.464  1.00 20.00     0.015 C 
ENDROOT
BRANCH   5   9
HETATM    9  C1  UNL     1     -33.351  15.221  -4.118  1.00 20.00     0.235 C 
HETATM   10  O10 UNL     1     -33.874  14.111  -4.120  1.00 20.00    -0.306 OA
ENDBRANCH   5   9
TORSDOF 1
ENDMDL
MODEL 5
REMARK VINA RESULT:      -3.6     11.982     13.687
REMARK  1 active torsions:
REMARK  status: ('A' for Active; 'I' for Inactive)
REMARK    1  A    between atoms: C1_1  and  C6_6 
ROOT
HETATM    1  C2  UNL     1     -33.634  17.916  -2.092  1.00 20.00     0.001 C 
HETATM    2  C3  UNL     1     -33.406  16.447  -2.433  1.00 20.00     0.011 C 
HETATM    3  C4  UNL     1     -34.922  18.449  -2.719  1.00 20.00     0.009 C 
HETATM    4  C5  UNL     1     -34.729  16.734  -4.570  1.00 20.00     0.020 C 
HETATM    5  C6  UNL     1     -33.436  16.205  -3.942  1.00 20.00     0.048 C 
HETATM    6  C7  UNL     1     -35.002  18.221  -4.246  1.00 20.00    -0.047 C 
HETATM    7  C8  UNL     1     -36.418  18.588  -4.731  1.00 20.00     0.015 C 
HETATM    8  C9  UNL     1     -33.999  19.129  -4.983  1.00 20.00     0.015 C 
ENDROOT
BRANCH   5   9
HETATM    9  C1  UNL     1     -33.313  14.734  -4.202  1.00 20.00     0.235 C 
HETATM   10  O10 UNL     1     -34.229  13.937  -4.026  1.00 20.00    -0.306 OA
ENDBRANCH   5   9
TORSDOF 1
ENDMDL
MODEL 6
REMARK VINA RESULT:      -3.6      9.408     10.399
REMARK  1 active torsions:
REMARK  status: ('A' for Active; 'I' for Inactive)
REMARK    1  A    between atoms: C1_1  and  C6_6 
ROOT
HETATM    1  C2  UNL     1     -42.241  14.342   5.346  1.00 20.00     0.001 C 
HETATM    2  C3  UNL     1     -41.167  13.388   4.832  1.00 20.00     0.011 C 
HETATM    3  C4  UNL     1     -41.721  15.216   6.488  1.00 20.00     0.009 C 
HETATM    4  C5  UNL     1     -40.049  13.418   7.100  1.00 20.00     0.020 C 
HETATM    5  C6  UNL     1     -40.575  12.543   5.958  1.00 20.00     0.048 C 
HETATM    6  C7  UNL     1     -41.104  14.405   7.650  1.00 20.00    -0.047 C 
HETATM    7  C8  UNL     1     -40.419  15.378   8.628  1.00 20.00     0.015 C 
HETATM    8  C9  UNL     1     -42.200  13.649   8.425  1.00 20.00     0.015 C 
ENDROOT
BRANCH   5   9
HETATM    9  C1  UNL     1     -39.459  11.708   5.406  1.00 20.00     0.235 C 
HETATM   10  O10 UNL     1     -38.327  12.138   5.207  1.00 20.00    -0.306 OA
ENDBRANCH   5   9
TORSDOF 1
ENDMDL
MODEL 7
REMARK VINA RESULT:      -3.5     12.565     13.077
REMARK  1 active torsions:
REMARK  status: ('A' for Active; 'I' for Inactive)
REMARK    1  A    between atoms: C1_1  and  C6_6 
ROOT
HETATM    1  C2  UNL     1     -34.395  19.216  -0.143  1.00 20.00     0.001 C 
HETATM    2  C3  UNL     1     -33.174  19.144   0.768  1.00 20.00     0.011 C 
HETATM    3  C4  UNL     1     -34.405  18.081  -1.167  1.00 20.00     0.009 C 
HETATM    4  C5  UNL     1     -31.879  17.961  -1.055  1.00 20.00     0.020 C 
HETATM    5  C6  UNL     1     -31.873  19.102  -0.033  1.00 20.00     0.048 C 
HETATM    6  C7  UNL     1     -33.104  17.993  -1.998  1.00 20.00    -0.047 C 
HETATM    7  C8  UNL     1     -33.131  16.696  -2.829  1.00 20.00     0.015 C 
HETATM    8  C9  UNL     1     -33.004  19.179  -2.976  1.00 20.00     0.015 C 
ENDROOT
BRANCH   5   9
HETATM    9  C1  UNL     1     -30.724  18.925   0.914  1.00 20.00     0.235 C 
HETATM   10  O10 UNL     1     -30.804  18.296   1.964  1.00 20.00    -0.306 OA
ENDBRANCH   5   9
TORSDOF 1
ENDMDL
MODEL 8
REMARK VINA RESULT:      -3.5     10.133     10.825
REMARK  1 active torsions:
REMARK  status: ('A' for Active; 'I' for Inactive)
REMARK    1  A    between atoms: C1_1  and  C6_6 
ROOT
HETATM    1  C2  UNL     1     -43.186  13.390   7.517  1.00 20.00     0.001 C 
HETATM    2  C3  UNL     1     -42.412  14.312   8.454  1.00 20.00     0.011 C 
HETATM    3  C4  UNL     1     -42.263  12.396   6.812  1.00 20.00     0.009 C 
HETATM    4  C5  UNL     1     -40.341  14.028   7.028  1.00 20.00     0.020 C 
HETATM    5  C6  UNL     1     -41.270  15.024   7.730  1.00 20.00     0.048 C 
HETATM    6  C7  UNL     1     -41.086  13.070   6.071  1.00 20.00    -0.047 C 
HETATM    7  C8  UNL     1     -40.108  11.979   5.593  1.00 20.00     0.015 C 
HETATM    8  C9  UNL     1     -41.591  13.829   4.829  1.00 20.00     0.015 C 
ENDROOT
BRANCH   5   9
HETATM    9  C1  UNL     1     -40.489  15.828   8.726  1.00 20.00     0.235 C 
HETATM   10  O10 UNL     1     -39.756  15.328   9.572  1.00 20.00    -0.306 OA
ENDBRANCH   5   9
TORSDOF 1
ENDMDL
MODEL 9
REMARK VINA RESULT:      -3.5     12.167     13.722
REMARK  1 active torsions:
REMARK  status: ('A' for Active; 'I' for Inactive)
REMARK    1  A    between atoms: C1_1  and  C6_6 
ROOT
HETATM    1  C2  UNL     1     -33.833  14.716  -4.186  1.00 20.00     0.001 C 
HETATM    2  C3  UNL     1     -33.253  15.937  -3.479  1.00 20.00     0.011 C 
HETATM    3  C4  UNL     1     -34.040  14.973  -5.679  1.00 20.00     0.009 C 
HETATM    4  C5  UNL     1     -34.304  17.447  -5.216  1.00 20.00     0.020 C 
HETATM    5  C6  UNL     1     -34.100  17.186  -3.720  1.00 20.00     0.048 C 
HETATM    6  C7  UNL     1     -34.886  16.232  -5.974  1.00 20.00    -0.047 C 
HETATM    7  C8  UNL     1     -34.843  16.519  -7.487  1.00 20.00     0.015 C 
HETATM    8  C9  UNL     1     -36.357  16.001  -5.578  1.00 20.00     0.015 C 
ENDROOT
BRANCH   5   9
HETATM    9  C1  UNL     1     -33.422  18.365  -3.089  1.00 20.00     0.235 C 
HETATM   10  O10 UNL     1     -32.627  18.269  -2.160  1.00 20.00    -0.306 OA
ENDBRANCH   5   9
TORSDOF 1
ENDMDL
