MODEL 1
REMARK VINA RESULT:      -4.6      0.000      0.000
REMARK  0 active torsions:
REMARK  status: ('A' for Active; 'I' for Inactive)
ROOT
HETATM    1  C1  UNL     1     -32.316   7.873   2.770  1.00 20.00     0.131 C 
HETATM    2  C2  UNL     1     -32.495   9.267   3.308  1.00 20.00     0.079 C 
HETATM    3  C3  UNL     1     -32.365   9.053   4.810  1.00 20.00     0.013 C 
HETATM    4  C4  UNL     1     -33.627   5.854   3.559  1.00 20.00     0.021 C 
HETATM    5  C5  UNL     1     -34.383   7.493   5.158  1.00 20.00     0.014 C 
HETATM    6  C6  UNL     1     -32.468   6.811   3.841  1.00 20.00     0.060 C 
HETATM    7  C7  UNL     1     -32.864   7.638   5.071  1.00 20.00    -0.002 C 
HETATM    8  C8  UNL     1     -34.638   6.045   4.709  1.00 20.00    -0.047 C 
HETATM    9  C9  UNL     1     -36.080   5.859   4.229  1.00 20.00     0.015 C 
HETATM   10  C10 UNL     1     -34.358   5.049   5.849  1.00 20.00     0.015 C 
HETATM   11  O11 UNL     1     -32.101   7.626   1.589  1.00 20.00    -0.298 OA
ENDROOT
TORSDOF 0
ENDMDL
MODEL 2
REMARK VINA RESULT:      -4.5      1.802      3.826
REMARK  0 active torsions:
REMARK  status: ('A' for Active; 'I' for Inactive)
ROOT
HETATM    1  C1  UNL     1     -34.246   4.966   4.971  1.00 20.00     0.131 C 
HETATM    2  C2  UNL     1     -34.198   5.179   6.460  1.00 20.00     0.079 C 
HETATM    3  C3  UNL     1     -34.706   6.607   6.599  1.00 20.00     0.013 C 
HETATM    4  C4  UNL     1     -33.196   6.519   3.267  1.00 20.00     0.021 C 
HETATM    5  C5  UNL     1     -32.856   7.811   5.274  1.00 20.00     0.014 C 
HETATM    6  C6  UNL     1     -34.380   6.265   4.201  1.00 20.00     0.060 C 
HETATM    7  C7  UNL     1     -34.303   7.317   5.314  1.00 20.00    -0.002 C 
HETATM    8  C8  UNL     1     -32.508   7.803   3.777  1.00 20.00    -0.047 C 
HETATM    9  C9  UNL     1     -30.994   7.755   3.560  1.00 20.00     0.015 C 
HETATM   10  C10 UNL     1     -33.077   9.042   3.064  1.00 20.00     0.015 C 
HETATM   11  O11 UNL     1     -34.157   3.864   4.442  1.00 20.00    -0.298 OA
ENDROOT
TORSDOF 0
ENDMDL
MODEL 3
REMARK VINA RESULT:      -4.0     11.818     12.781
REMARK  0 active torsions:
REMARK  status: ('A' for Active; 'I' for Inactive)
ROOT
HETATM    1  C1  UNL     1     -34.860  18.154  -3.003  1.00 20.00     0.131 C 
HETATM    2  C2  UNL     1     -34.150  17.639  -1.780  1.00 20.00     0.079 C 
HETATM    3  C3  UNL     1     -32.875  17.053  -2.370  1.00 20.00     0.013 C 
HETATM    4  C4  UNL     1     -35.319  16.776  -5.079  1.00 20.00     0.021 C 
HETATM    5  C5  UNL     1     -33.931  15.233  -3.853  1.00 20.00     0.014 C 
HETATM    6  C6  UNL     1     -34.291  17.588  -4.289  1.00 20.00     0.060 C 
HETATM    7  C7  UNL     1     -33.241  16.595  -3.776  1.00 20.00    -0.002 C 
HETATM    8  C8  UNL     1     -34.788  15.329  -5.126  1.00 20.00    -0.047 C 
HETATM    9  C9  UNL     1     -35.929  14.308  -5.105  1.00 20.00     0.015 C 
HETATM   10  C10 UNL     1     -33.938  15.103  -6.389  1.00 20.00     0.015 C 
HETATM   11  O11 UNL     1     -35.814  18.923  -2.958  1.00 20.00    -0.298 OA
ENDROOT
TORSDOF 0
ENDMDL
MODEL 4
REMARK VINA RESULT:      -3.9     11.574     12.913
REMARK  0 active torsions:
REMARK  status: ('A' for Active; 'I' for Inactive)
ROOT
HETATM    1  C1  UNL     1     -34.525  14.713  -4.515  1.00 20.00     0.131 C 
HETATM    2  C2  UNL     1     -35.775  14.995  -5.306  1.00 20.00     0.079 C 
HETATM    3  C3  UNL     1     -35.394  16.253  -6.075  1.00 20.00     0.013 C 
HETATM    4  C4  UNL     1     -33.349  16.407  -3.043  1.00 20.00     0.021 C 
HETATM    5  C5  UNL     1     -35.002  17.828  -4.076  1.00 20.00     0.014 C 
HETATM    6  C6  UNL     1     -33.586  15.902  -4.468  1.00 20.00     0.060 C 
HETATM    7  C7  UNL     1     -34.389  16.987  -5.196  1.00 20.00    -0.002 C 
HETATM    8  C8  UNL     1     -33.911  17.844  -2.993  1.00 20.00    -0.047 C 
HETATM    9  C9  UNL     1     -34.499  18.171  -1.618  1.00 20.00     0.015 C 
HETATM   10  C10 UNL     1     -32.811  18.868  -3.323  1.00 20.00     0.015 C 
HETATM   11  O11 UNL     1     -34.309  13.648  -3.948  1.00 20.00    -0.298 OA
ENDROOT
TORSDOF 0
ENDMDL
MODEL 5
REMARK VINA RESULT:      -3.9     11.687     13.101
REMARK  0 active torsions:
REMARK  status: ('A' for Active; 'I' for Inactive)
ROOT
HETATM    1  C1  UNL     1     -34.403  16.941  -4.368  1.00 20.00     0.131 C 
HETATM    2  C2  UNL     1     -35.043  18.182  -4.929  1.00 20.00     0.079 C 
HETATM    3  C3  UNL     1     -33.935  19.215  -4.775  1.00 20.00     0.013 C 
HETATM    4  C4  UNL     1     -33.285  16.807  -2.097  1.00 20.00     0.021 C 
HETATM    5  C5  UNL     1     -33.717  19.176  -2.210  1.00 20.00     0.014 C 
HETATM    6  C6  UNL     1     -33.157  17.243  -3.558  1.00 20.00     0.060 C 
HETATM    7  C7  UNL     1     -33.125  18.777  -3.562  1.00 20.00    -0.002 C 
HETATM    8  C8  UNL     1     -33.199  18.094  -1.250  1.00 20.00    -0.047 C 
HETATM    9  C9  UNL     1     -34.072  18.002   0.005  1.00 20.00     0.015 C 
HETATM   10  C10 UNL     1     -31.745  18.369  -0.829  1.00 20.00     0.015 C 
HETATM   11  O11 UNL     1     -34.858  15.814  -4.525  1.00 20.00    -0.298 OA
ENDROOT
TORSDOF 0
ENDMDL
MODEL 6
REMARK VINA RESULT:      -3.9     11.696     12.719
REMARK  0 active torsions:
REMARK  status: ('A' for Active; 'I' for Inactive)
ROOT
HETATM    1  C1  UNL     1     -33.750  18.843   0.856  1.00 20.00     0.131 C 
HETATM    2  C2  UNL     1     -32.393  18.582   1.454  1.00 20.00     0.079 C 
HETATM    3  C3  UNL     1     -31.463  19.235   0.442  1.00 20.00     0.013 C 
HETATM    4  C4  UNL     1     -34.395  18.283  -1.529  1.00 20.00     0.021 C 
HETATM    5  C5  UNL     1     -32.036  17.788  -1.608  1.00 20.00     0.014 C 
HETATM    6  C6  UNL     1     -33.674  19.260  -0.599  1.00 20.00     0.060 C 
HETATM    7  C7  UNL     1     -32.175  19.136  -0.900  1.00 20.00    -0.002 C 
HETATM    8  C8  UNL     1     -33.314  17.687  -2.456  1.00 20.00    -0.047 C 
HETATM    9  C9  UNL     1     -33.624  16.234  -2.822  1.00 20.00     0.015 C 
HETATM   10  C10 UNL     1     -33.193  18.513  -3.749  1.00 20.00     0.015 C 
HETATM   11  O11 UNL     1     -34.800  18.703   1.473  1.00 20.00    -0.298 OA
ENDROOT
TORSDOF 0
ENDMDL
MODEL 7
REMARK VINA RESULT:      -3.8      1.477      2.434
REMARK  0 active torsions:
REMARK  status: ('A' for Active; 'I' for Inactive)
ROOT
HETATM    1  C1  UNL     1     -32.309   8.568   4.520  1.00 20.00     0.131 C 
HETATM    2  C2  UNL     1     -31.259   7.930   3.651  1.00 20.00     0.079 C 
HETATM    3  C3  UNL     1     -32.095   7.284   2.555  1.00 20.00     0.013 C 
HETATM    4  C4  UNL     1     -34.328   7.354   5.453  1.00 20.00     0.021 C 
HETATM    5  C5  UNL     1     -33.442   5.640   4.007  1.00 20.00     0.014 C 
HETATM    6  C6  UNL     1     -33.701   8.037   4.237  1.00 20.00     0.060 C 
HETATM    7  C7  UNL     1     -33.431   6.939   3.201  1.00 20.00    -0.002 C 
HETATM    8  C8  UNL     1     -34.534   5.875   5.063  1.00 20.00    -0.047 C 
HETATM    9  C9  UNL     1     -34.353   4.944   6.265  1.00 20.00     0.015 C 
HETATM   10  C10 UNL     1     -35.939   5.661   4.472  1.00 20.00     0.015 C 
HETATM   11  O11 UNL     1     -32.059   9.403   5.382  1.00 20.00    -0.298 OA
ENDROOT
TORSDOF 0
ENDMDL
MODEL 8
REMARK VINA RESULT:      -3.7     10.486     11.619
REMARK  0 active torsions:
REMARK  status: ('A' for Active; 'I' for Inactive)
ROOT
HETATM    1  C1  UNL     1     -42.485  13.458   9.335  1.00 20.00     0.131 C 
HETATM    2  C2  UNL     1     -41.466  14.326  10.025  1.00 20.00     0.079 C 
HETATM    3  C3  UNL     1     -41.316  15.485   9.049  1.00 20.00     0.013 C 
HETATM    4  C4  UNL     1     -42.302  12.665   6.936  1.00 20.00     0.021 C 
HETATM    5  C5  UNL     1     -40.424  14.176   7.020  1.00 20.00     0.014 C 
HETATM    6  C6  UNL     1     -42.663  13.818   7.874  1.00 20.00     0.060 C 
HETATM    7  C7  UNL     1     -41.600  14.905   7.670  1.00 20.00    -0.002 C 
HETATM    8  C8  UNL     1     -41.098  13.145   6.099  1.00 20.00    -0.047 C 
HETATM    9  C9  UNL     1     -40.146  11.993   5.766  1.00 20.00     0.015 C 
HETATM   10  C10 UNL     1     -41.574  13.795   4.787  1.00 20.00     0.015 C 
HETATM   11  O11 UNL     1     -43.081  12.542   9.891  1.00 20.00    -0.298 OA
ENDROOT
TORSDOF 0
ENDMDL
MODEL 9
REMARK VINA RESULT:      -3.7     10.349     11.463
REMARK  0 active torsions:
REMARK  status: ('A' for Active; 'I' for Inactive)
ROOT
HETATM    1  C1  UNL     1     -41.586  13.794   4.667  1.00 20.00     0.131 C 
HETATM    2  C2  UNL     1     -40.423  12.852   4.825  1.00 20.00     0.079 C 
HETATM    3  C3  UNL     1     -40.691  12.233   6.189  1.00 20.00     0.013 C 
HETATM    4  C4  UNL     1     -42.264  15.531   6.383  1.00 20.00     0.021 C 
HETATM    5  C5  UNL     1     -40.553  14.368   7.621  1.00 20.00     0.014 C 
HETATM    6  C6  UNL     1     -42.303  14.057   5.976  1.00 20.00     0.060 C 
HETATM    7  C7  UNL     1     -41.437  13.294   6.987  1.00 20.00    -0.002 C 
HETATM    8  C8  UNL     1     -41.473  15.596   7.706  1.00 20.00    -0.047 C 
HETATM    9  C9  UNL     1     -40.663  16.890   7.816  1.00 20.00     0.015 C 
HETATM   10  C10 UNL     1     -42.425  15.499   8.912  1.00 20.00     0.015 C 
HETATM   11  O11 UNL     1     -41.896  14.314   3.601  1.00 20.00    -0.298 OA
ENDROOT
TORSDOF 0
ENDMDL
