MODEL 1
REMARK VINA RESULT:      -4.2      0.000      0.000
REMARK  3 active torsions:
REMARK  status: ('A' for Active; 'I' for Inactive)
REMARK    1  A    between atoms: C2_2  and  C7_7 
REMARK    2  A    between atoms: C5_5  and  C8_8 
REMARK    3  A    between atoms: C7_7  and  C8_8 
ROOT
HETATM    1  C3  UNL     1     -34.112  15.509  -7.336  1.00 20.00     0.281 C 
HETATM    2  C4  UNL     1     -35.589  15.155  -7.417  1.00 20.00     0.106 C 
HETATM    3  C5  UNL     1     -34.486  15.179  -5.023  1.00 20.00     0.282 C 
HETATM    4  N9  UNL     1     -33.558  14.884  -6.126  1.00 20.00     0.098 N 
HETATM    5  S10 UNL     1     -36.164  15.305  -5.712  1.00 20.00    -0.132 SA
HETATM    6  H25 UNL     1     -33.464  13.879  -6.251  1.00 20.00     0.317 HD
ENDROOT
BRANCH   3   7
HETATM    7  C8  UNL     1     -34.101  16.475  -4.317  1.00 20.00     0.050 C 
BRANCH   7   8
HETATM    8  C7  UNL     1     -33.110  16.220  -3.181  1.00 20.00     0.030 C 
BRANCH   8   9
HETATM    9  C2  UNL     1     -33.546  16.901  -1.916  1.00 20.00    -0.031 C 
HETATM   10  C1  UNL     1     -32.797  17.796  -1.254  1.00 20.00    -0.035 C 
HETATM   11  C6  UNL     1     -33.226  18.470   0.007  1.00 20.00     0.036 C 
ENDBRANCH   8   9
ENDBRANCH   7   8
ENDBRANCH   3   7
TORSDOF 3
ENDMDL
MODEL 2
REMARK VINA RESULT:      -4.2      1.726      2.314
REMARK  3 active torsions:
REMARK  status: ('A' for Active; 'I' for Inactive)
REMARK    1  A    between atoms: C2_2  and  C7_7 
REMARK    2  A    between atoms: C5_5  and  C8_8 
REMARK    3  A    between atoms: C7_7  and  C8_8 
ROOT
HETATM    1  C3  UNL     1     -35.085  16.674  -5.146  1.00 20.00     0.281 C 
HETATM    2  C4  UNL     1     -35.029  15.181  -5.429  1.00 20.00     0.106 C 
HETATM    3  C5  UNL     1     -33.183  16.174  -3.831  1.00 20.00     0.282 C 
HETATM    4  N9  UNL     1     -33.727  17.127  -4.810  1.00 20.00     0.098 N 
HETATM    5  S10 UNL     1     -33.914  14.541  -4.161  1.00 20.00    -0.132 SA
HETATM    6  H25 UNL     1     -33.142  17.154  -5.641  1.00 20.00     0.317 HD
ENDROOT
BRANCH   3   7
HETATM    7  C8  UNL     1     -33.495  16.618  -2.405  1.00 20.00     0.050 C 
BRANCH   7   8
HETATM    8  C7  UNL     1     -32.930  18.009  -2.117  1.00 20.00     0.030 C 
BRANCH   8   9
HETATM    9  C2  UNL     1     -32.501  18.136  -0.684  1.00 20.00    -0.031 C 
HETATM   10  C1  UNL     1     -31.270  18.508  -0.303  1.00 20.00    -0.035 C 
HETATM   11  C6  UNL     1     -30.841  18.628   1.121  1.00 20.00     0.036 C 
ENDBRANCH   8   9
ENDBRANCH   7   8
ENDBRANCH   3   7
TORSDOF 3
ENDMDL
MODEL 3
REMARK VINA RESULT:      -3.9      1.247      1.435
REMARK  3 active torsions:
REMARK  status: ('A' for Active; 'I' for Inactive)
REMARK    1  A    between atoms: C2_2  and  C7_7 
REMARK    2  A    between atoms: C5_5  and  C8_8 
REMARK    3  A    between atoms: C7_7  and  C8_8 
ROOT
HETATM    1  C3  UNL     1     -35.649  17.198  -5.395  1.00 20.00     0.281 C 
HETATM    2  C4  UNL     1     -36.589  16.190  -6.037  1.00 20.00     0.106 C 
HETATM    3  C5  UNL     1     -34.189  15.338  -5.358  1.00 20.00     0.282 C 
HETATM    4  N9  UNL     1     -34.268  16.774  -5.666  1.00 20.00     0.098 N 
HETATM    5  S10 UNL     1     -35.817  14.595  -5.689  1.00 20.00    -0.132 SA
HETATM    6  H25 UNL     1     -34.025  16.942  -6.639  1.00 20.00     0.317 HD
ENDROOT
BRANCH   3   7
HETATM    7  C8  UNL     1     -33.787  15.112  -3.904  1.00 20.00     0.050 C 
BRANCH   7   8
HETATM    8  C7  UNL     1     -33.003  16.302  -3.350  1.00 20.00     0.030 C 
BRANCH   8   9
HETATM    9  C2  UNL     1     -33.549  16.742  -2.022  1.00 20.00    -0.031 C 
HETATM   10  C1  UNL     1     -33.049  17.765  -1.312  1.00 20.00    -0.035 C 
HETATM   11  C6  UNL     1     -33.587  18.199   0.011  1.00 20.00     0.036 C 
ENDBRANCH   8   9
ENDBRANCH   7   8
ENDBRANCH   3   7
TORSDOF 3
ENDMDL
MODEL 4
REMARK VINA RESULT:      -3.9      3.185      4.698
REMARK  3 active torsions:
REMARK  status: ('A' for Active; 'I' for Inactive)
REMARK    1  A    between atoms: C2_2  and  C7_7 
REMARK    2  A    between atoms: C5_5  and  C8_8 
REMARK    3  A    between atoms: C7_7  and  C8_8 
ROOT
HETATM    1  C3  UNL     1     -33.228  16.333  -3.039  1.00 20.00     0.281 C 
HETATM    2  C4  UNL     1     -33.630  17.407  -4.039  1.00 20.00     0.106 C 
HETATM    3  C5  UNL     1     -33.416  18.131  -1.513  1.00 20.00     0.282 C 
HETATM    4  N9  UNL     1     -33.755  16.715  -1.721  1.00 20.00     0.098 N 
HETATM    5  S10 UNL     1     -33.386  18.952  -3.136  1.00 20.00    -0.132 SA
HETATM    6  H25 UNL     1     -34.763  16.582  -1.685  1.00 20.00     0.317 HD
ENDROOT
BRANCH   3   7
HETATM    7  C8  UNL     1     -32.066  18.273  -0.819  1.00 20.00     0.050 C 
BRANCH   7   8
HETATM    8  C7  UNL     1     -32.233  18.588   0.668  1.00 20.00     0.030 C 
BRANCH   8   9
HETATM    9  C2  UNL     1     -30.956  19.113   1.259  1.00 20.00    -0.031 C 
HETATM   10  C1  UNL     1     -30.341  18.560   2.316  1.00 20.00    -0.035 C 
HETATM   11  C6  UNL     1     -29.075  19.084   2.908  1.00 20.00     0.036 C 
ENDBRANCH   8   9
ENDBRANCH   7   8
ENDBRANCH   3   7
TORSDOF 3
ENDMDL
MODEL 5
REMARK VINA RESULT:      -3.8     11.834     12.886
REMARK  3 active torsions:
REMARK  status: ('A' for Active; 'I' for Inactive)
REMARK    1  A    between atoms: C2_2  and  C7_7 
REMARK    2  A    between atoms: C5_5  and  C8_8 
REMARK    3  A    between atoms: C7_7  and  C8_8 
ROOT
HETATM    1  C3  UNL     1     -34.021   5.750   6.608  1.00 20.00     0.281 C 
HETATM    2  C4  UNL     1     -34.624   4.927   5.481  1.00 20.00     0.106 C 
HETATM    3  C5  UNL     1     -34.066   7.450   4.964  1.00 20.00     0.282 C 
HETATM    4  N9  UNL     1     -34.360   7.161   6.376  1.00 20.00     0.098 N 
HETATM    5  S10 UNL     1     -34.325   5.925   4.007  1.00 20.00    -0.132 SA
HETATM    6  H25 UNL     1     -35.343   7.332   6.577  1.00 20.00     0.317 HD
ENDROOT
BRANCH   3   7
HETATM    7  C8  UNL     1     -32.634   7.949   4.795  1.00 20.00     0.050 C 
BRANCH   7   8
HETATM    8  C7  UNL     1     -32.086   7.613   3.408  1.00 20.00     0.030 C 
BRANCH   8   9
HETATM    9  C2  UNL     1     -32.518   8.631   2.392  1.00 20.00    -0.031 C 
HETATM   10  C1  UNL     1     -32.308   8.504   1.073  1.00 20.00    -0.035 C 
HETATM   11  C6  UNL     1     -32.731   9.517   0.062  1.00 20.00     0.036 C 
ENDBRANCH   8   9
ENDBRANCH   7   8
ENDBRANCH   3   7
TORSDOF 3
ENDMDL
MODEL 6
REMARK VINA RESULT:      -3.8      1.418      1.759
REMARK  3 active torsions:
REMARK  status: ('A' for Active; 'I' for Inactive)
REMARK    1  A    between atoms: C2_2  and  C7_7 
REMARK    2  A    between atoms: C5_5  and  C8_8 
REMARK    3  A    between atoms: C7_7  and  C8_8 
ROOT
HETATM    1  C3  UNL     1     -33.861  14.822  -5.335  1.00 20.00     0.281 C 
HETATM    2  C4  UNL     1     -34.380  15.444  -6.622  1.00 20.00     0.106 C 
HETATM    3  C5  UNL     1     -34.695  16.829  -4.402  1.00 20.00     0.282 C 
HETATM    4  N9  UNL     1     -34.638  15.371  -4.215  1.00 20.00     0.098 N 
HETATM    5  S10 UNL     1     -34.652  17.175  -6.187  1.00 20.00    -0.132 SA
HETATM    6  H25 UNL     1     -35.576  14.979  -4.202  1.00 20.00     0.317 HD
ENDROOT
BRANCH   3   7
HETATM    7  C8  UNL     1     -33.528  17.516  -3.699  1.00 20.00     0.050 C 
BRANCH   7   8
HETATM    8  C7  UNL     1     -33.247  16.883  -2.336  1.00 20.00     0.030 C 
BRANCH   8   9
HETATM    9  C2  UNL     1     -32.968  17.931  -1.297  1.00 20.00    -0.031 C 
HETATM   10  C1  UNL     1     -31.739  18.226  -0.846  1.00 20.00    -0.035 C 
HETATM   11  C6  UNL     1     -31.462  19.263   0.191  1.00 20.00     0.036 C 
ENDBRANCH   8   9
ENDBRANCH   7   8
ENDBRANCH   3   7
TORSDOF 3
ENDMDL
MODEL 7
REMARK VINA RESULT:      -3.7      3.887      6.610
REMARK  3 active torsions:
REMARK  status: ('A' for Active; 'I' for Inactive)
REMARK    1  A    between atoms: C2_2  and  C7_7 
REMARK    2  A    between atoms: C5_5  and  C8_8 
REMARK    3  A    between atoms: C7_7  and  C8_8 
ROOT
HETATM    1  C3  UNL     1     -31.042  18.504   0.817  1.00 20.00     0.281 C 
HETATM    2  C4  UNL     1     -31.792  19.129   1.983  1.00 20.00     0.106 C 
HETATM    3  C5  UNL     1     -32.997  19.126  -0.361  1.00 20.00     0.282 C 
HETATM    4  N9  UNL     1     -31.528  19.124  -0.424  1.00 20.00     0.098 N 
HETATM    5  S10 UNL     1     -33.491  19.263   1.384  1.00 20.00    -0.132 SA
HETATM    6  H25 UNL     1     -31.175  20.074  -0.513  1.00 20.00     0.317 HD
ENDROOT
BRANCH   3   7
HETATM    7  C8  UNL     1     -33.572  17.855  -0.979  1.00 20.00     0.050 C 
BRANCH   7   8
HETATM    8  C7  UNL     1     -32.995  17.601  -2.372  1.00 20.00     0.030 C 
BRANCH   8   9
HETATM    9  C2  UNL     1     -33.312  16.212  -2.846  1.00 20.00    -0.031 C 
HETATM   10  C1  UNL     1     -33.868  15.939  -4.036  1.00 20.00    -0.035 C 
HETATM   11  C6  UNL     1     -34.190  14.560  -4.507  1.00 20.00     0.036 C 
ENDBRANCH   8   9
ENDBRANCH   7   8
ENDBRANCH   3   7
TORSDOF 3
ENDMDL
MODEL 8
REMARK VINA RESULT:      -3.6      1.706      1.894
REMARK  3 active torsions:
REMARK  status: ('A' for Active; 'I' for Inactive)
REMARK    1  A    between atoms: C2_2  and  C7_7 
REMARK    2  A    between atoms: C5_5  and  C8_8 
REMARK    3  A    between atoms: C7_7  and  C8_8 
ROOT
HETATM    1  C3  UNL     1     -37.018  16.153  -5.489  1.00 20.00     0.281 C 
HETATM    2  C4  UNL     1     -36.636  16.243  -6.958  1.00 20.00     0.106 C 
HETATM    3  C5  UNL     1     -34.742  16.725  -5.190  1.00 20.00     0.282 C 
HETATM    4  N9  UNL     1     -36.106  17.019  -4.726  1.00 20.00     0.098 N 
HETATM    5  S10 UNL     1     -34.830  16.230  -6.938  1.00 20.00    -0.132 SA
HETATM    6  H25 UNL     1     -36.330  17.999  -4.879  1.00 20.00     0.317 HD
ENDROOT
BRANCH   3   7
HETATM    7  C8  UNL     1     -34.107  15.617  -4.355  1.00 20.00     0.050 C 
BRANCH   7   8
HETATM    8  C7  UNL     1     -33.032  16.170  -3.419  1.00 20.00     0.030 C 
BRANCH   8   9
HETATM    9  C2  UNL     1     -33.625  16.622  -2.115  1.00 20.00    -0.031 C 
HETATM   10  C1  UNL     1     -33.134  17.634  -1.384  1.00 20.00    -0.035 C 
HETATM   11  C6  UNL     1     -33.719  18.080  -0.085  1.00 20.00     0.036 C 
ENDBRANCH   8   9
ENDBRANCH   7   8
ENDBRANCH   3   7
TORSDOF 3
ENDMDL
MODEL 9
REMARK VINA RESULT:      -3.6     12.304     14.249
REMARK  3 active torsions:
REMARK  status: ('A' for Active; 'I' for Inactive)
REMARK    1  A    between atoms: C2_2  and  C7_7 
REMARK    2  A    between atoms: C5_5  and  C8_8 
REMARK    3  A    between atoms: C7_7  and  C8_8 
ROOT
HETATM    1  C3  UNL     1     -40.789  14.776   9.772  1.00 20.00     0.281 C 
HETATM    2  C4  UNL     1     -40.828  16.295   9.836  1.00 20.00     0.106 C 
HETATM    3  C5  UNL     1     -40.558  15.196   7.455  1.00 20.00     0.282 C 
HETATM    4  N9  UNL     1     -40.038  14.388   8.569  1.00 20.00     0.098 N 
HETATM    5  S10 UNL     1     -41.115  16.793   8.124  1.00 20.00    -0.132 SA
HETATM    6  H25 UNL     1     -39.043  14.558   8.696  1.00 20.00     0.317 HD
ENDROOT
BRANCH   3   7
HETATM    7  C8  UNL     1     -41.709  14.482   6.754  1.00 20.00     0.050 C 
BRANCH   7   8
HETATM    8  C7  UNL     1     -41.410  12.995   6.561  1.00 20.00     0.030 C 
BRANCH   8   9
HETATM    9  C2  UNL     1     -40.598  12.760   5.320  1.00 20.00    -0.031 C 
HETATM   10  C1  UNL     1     -39.654  11.813   5.215  1.00 20.00    -0.035 C 
HETATM   11  C6  UNL     1     -38.842  11.582   3.983  1.00 20.00     0.036 C 
ENDBRANCH   8   9
ENDBRANCH   7   8
ENDBRANCH   3   7
TORSDOF 3
ENDMDL
