MODEL 1
REMARK VINA RESULT:      -3.2      0.000      0.000
REMARK  2 active torsions:
REMARK  status: ('A' for Active; 'I' for Inactive)
REMARK    1  A    between atoms: C1_1  and  S9_9 
REMARK    2  A    between atoms: C2_2  and  N7_7 
ROOT
HETATM    1  C1  UNL     1     -35.008  16.412  -5.090  1.00 20.00     0.102 C 
HETATM    2  C2  UNL     1     -33.964  16.269  -4.251  1.00 20.00     0.011 C 
HETATM    3  C3  UNL     1     -33.245  14.944  -4.203  1.00 20.00     0.068 C 
ENDROOT
BRANCH   2   4
HETATM    4  N7  UNL     1     -33.460  17.216  -3.401  1.00 20.00    -0.393 N 
HETATM    5  C4  UNL     1     -33.191  18.572  -3.857  1.00 20.00     0.148 C 
HETATM    6  C5  UNL     1     -33.404  16.992  -1.965  1.00 20.00     0.148 C 
ENDBRANCH   2   4
BRANCH   1   7
HETATM    7  S9  UNL     1     -35.563  15.081  -6.148  1.00 20.00     0.036 S 
HETATM    8  C6  UNL     1     -36.263  16.120  -7.450  1.00 20.00     0.132 C 
HETATM    9  O8  UNL     1     -36.693  14.425  -5.413  1.00 20.00    -0.254 OA
ENDBRANCH   1   7
TORSDOF 2
ENDMDL
MODEL 2
REMARK VINA RESULT:      -3.0      3.602      4.788
REMARK  2 active torsions:
REMARK  status: ('A' for Active; 'I' for Inactive)
REMARK    1  A    between atoms: C1_1  and  S9_9 
REMARK    2  A    between atoms: C2_2  and  N7_7 
ROOT
HETATM    1  C1  UNL     1     -33.799  18.129  -2.867  1.00 20.00     0.102 C 
HETATM    2  C2  UNL     1     -34.032  17.127  -3.737  1.00 20.00     0.011 C 
HETATM    3  C3  UNL     1     -33.265  15.837  -3.584  1.00 20.00     0.068 C 
ENDROOT
BRANCH   2   4
HETATM    4  N7  UNL     1     -34.913  17.139  -4.785  1.00 20.00    -0.393 N 
HETATM    5  C4  UNL     1     -34.717  16.282  -5.945  1.00 20.00     0.148 C 
HETATM    6  C5  UNL     1     -36.201  17.808  -4.683  1.00 20.00     0.148 C 
ENDBRANCH   2   4
BRANCH   1   7
HETATM    7  S9  UNL     1     -32.611  17.975  -1.540  1.00 20.00     0.036 S 
HETATM    8  C6  UNL     1     -33.797  18.064  -0.180  1.00 20.00     0.132 C 
HETATM    9  O8  UNL     1     -31.819  19.247  -1.556  1.00 20.00    -0.254 OA
ENDBRANCH   1   7
TORSDOF 2
ENDMDL
MODEL 3
REMARK VINA RESULT:      -2.9      3.491      5.051
REMARK  2 active torsions:
REMARK  status: ('A' for Active; 'I' for Inactive)
REMARK    1  A    between atoms: C1_1  and  S9_9 
REMARK    2  A    between atoms: C2_2  and  N7_7 
ROOT
HETATM    1  C1  UNL     1     -33.185  17.106  -2.121  1.00 20.00     0.102 C 
HETATM    2  C2  UNL     1     -33.858  17.211  -3.284  1.00 20.00     0.011 C 
HETATM    3  C3  UNL     1     -34.713  18.430  -3.522  1.00 20.00     0.068 C 
ENDROOT
BRANCH   2   4
HETATM    4  N7  UNL     1     -33.860  16.310  -4.314  1.00 20.00    -0.393 N 
HETATM    5  C4  UNL     1     -33.225  15.008  -4.179  1.00 20.00     0.148 C 
HETATM    6  C5  UNL     1     -34.700  16.502  -5.487  1.00 20.00     0.148 C 
ENDBRANCH   2   4
BRANCH   1   7
HETATM    7  S9  UNL     1     -33.276  18.367  -0.857  1.00 20.00     0.036 S 
HETATM    8  C6  UNL     1     -31.501  18.479  -0.538  1.00 20.00     0.132 C 
HETATM    9  O8  UNL     1     -33.923  17.709   0.324  1.00 20.00    -0.254 OA
ENDBRANCH   1   7
TORSDOF 2
ENDMDL
MODEL 4
REMARK VINA RESULT:      -2.9      1.634      2.347
REMARK  2 active torsions:
REMARK  status: ('A' for Active; 'I' for Inactive)
REMARK    1  A    between atoms: C1_1  and  S9_9 
REMARK    2  A    between atoms: C2_2  and  N7_7 
ROOT
HETATM    1  C1  UNL     1     -34.047  16.123  -4.714  1.00 20.00     0.102 C 
HETATM    2  C2  UNL     1     -34.270  17.320  -4.136  1.00 20.00     0.011 C 
HETATM    3  C3  UNL     1     -35.300  18.240  -4.741  1.00 20.00     0.068 C 
ENDROOT
BRANCH   2   4
HETATM    4  N7  UNL     1     -33.649  17.821  -3.024  1.00 20.00    -0.393 N 
HETATM    5  C4  UNL     1     -33.498  17.021  -1.818  1.00 20.00     0.148 C 
HETATM    6  C5  UNL     1     -32.897  19.067  -3.073  1.00 20.00     0.148 C 
ENDBRANCH   2   4
BRANCH   1   7
HETATM    7  S9  UNL     1     -34.935  15.596  -6.173  1.00 20.00     0.036 S 
HETATM    8  C6  UNL     1     -35.944  14.334  -5.365  1.00 20.00     0.132 C 
HETATM    9  O8  UNL     1     -33.923  14.905  -7.036  1.00 20.00    -0.254 OA
ENDBRANCH   1   7
TORSDOF 2
ENDMDL
MODEL 5
REMARK VINA RESULT:      -2.9      3.158      4.284
REMARK  2 active torsions:
REMARK  status: ('A' for Active; 'I' for Inactive)
REMARK    1  A    between atoms: C1_1  and  S9_9 
REMARK    2  A    between atoms: C2_2  and  N7_7 
ROOT
HETATM    1  C1  UNL     1     -33.652  17.186  -1.517  1.00 20.00     0.102 C 
HETATM    2  C2  UNL     1     -33.079  18.202  -0.841  1.00 20.00     0.011 C 
HETATM    3  C3  UNL     1     -32.180  19.155  -1.587  1.00 20.00     0.068 C 
ENDROOT
BRANCH   2   4
HETATM    4  N7  UNL     1     -33.218  18.482   0.491  1.00 20.00    -0.393 N 
HETATM    5  C4  UNL     1     -32.059  18.604   1.362  1.00 20.00     0.148 C 
HETATM    6  C5  UNL     1     -34.493  18.913   1.045  1.00 20.00     0.148 C 
ENDBRANCH   2   4
BRANCH   1   7
HETATM    7  S9  UNL     1     -33.379  16.938  -3.266  1.00 20.00     0.036 S 
HETATM    8  C6  UNL     1     -34.838  17.835  -3.840  1.00 20.00     0.132 C 
HETATM    9  O8  UNL     1     -33.602  15.476  -3.508  1.00 20.00    -0.254 OA
ENDBRANCH   1   7
TORSDOF 2
ENDMDL
MODEL 6
REMARK VINA RESULT:      -2.8      9.287     10.873
REMARK  2 active torsions:
REMARK  status: ('A' for Active; 'I' for Inactive)
REMARK    1  A    between atoms: C1_1  and  S9_9 
REMARK    2  A    between atoms: C2_2  and  N7_7 
ROOT
HETATM    1  C1  UNL     1     -28.604  18.959   3.291  1.00 20.00     0.102 C 
HETATM    2  C2  UNL     1     -29.928  19.084   3.510  1.00 20.00     0.011 C 
HETATM    3  C3  UNL     1     -30.420  19.235   4.927  1.00 20.00     0.068 C 
ENDROOT
BRANCH   2   4
HETATM    4  N7  UNL     1     -30.918  19.089   2.564  1.00 20.00    -0.393 N 
HETATM    5  C4  UNL     1     -30.651  18.689   1.191  1.00 20.00     0.148 C 
HETATM    6  C5  UNL     1     -32.316  19.248   2.933  1.00 20.00     0.148 C 
ENDBRANCH   2   4
BRANCH   1   7
HETATM    7  S9  UNL     1     -27.418  18.968   4.629  1.00 20.00     0.036 S 
HETATM    8  C6  UNL     1     -25.953  19.263   3.614  1.00 20.00     0.132 C 
HETATM    9  O8  UNL     1     -27.364  17.557   5.132  1.00 20.00    -0.254 OA
ENDBRANCH   1   7
TORSDOF 2
ENDMDL
MODEL 7
REMARK VINA RESULT:      -2.7      1.268      2.007
REMARK  2 active torsions:
REMARK  status: ('A' for Active; 'I' for Inactive)
REMARK    1  A    between atoms: C1_1  and  S9_9 
REMARK    2  A    between atoms: C2_2  and  N7_7 
ROOT
HETATM    1  C1  UNL     1     -35.043  16.075  -5.155  1.00 20.00     0.102 C 
HETATM    2  C2  UNL     1     -34.389  17.222  -4.883  1.00 20.00     0.011 C 
HETATM    3  C3  UNL     1     -34.405  18.329  -5.907  1.00 20.00     0.068 C 
ENDROOT
BRANCH   2   4
HETATM    4  N7  UNL     1     -33.684  17.513  -3.747  1.00 20.00    -0.393 N 
HETATM    5  C4  UNL     1     -33.332  16.475  -2.790  1.00 20.00     0.148 C 
HETATM    6  C5  UNL     1     -33.043  18.807  -3.565  1.00 20.00     0.148 C 
ENDBRANCH   2   4
BRANCH   1   7
HETATM    7  S9  UNL     1     -35.927  15.830  -6.690  1.00 20.00     0.036 S 
HETATM    8  C6  UNL     1     -37.536  16.407  -6.105  1.00 20.00     0.132 C 
HETATM    9  O8  UNL     1     -36.003  14.345  -6.880  1.00 20.00    -0.254 OA
ENDBRANCH   1   7
TORSDOF 2
ENDMDL
MODEL 8
REMARK VINA RESULT:      -2.7      2.619      3.447
REMARK  2 active torsions:
REMARK  status: ('A' for Active; 'I' for Inactive)
REMARK    1  A    between atoms: C1_1  and  S9_9 
REMARK    2  A    between atoms: C2_2  and  N7_7 
ROOT
HETATM    1  C1  UNL     1     -33.381  16.792  -2.725  1.00 20.00     0.102 C 
HETATM    2  C2  UNL     1     -33.735  17.739  -1.835  1.00 20.00     0.011 C 
HETATM    3  C3  UNL     1     -34.976  18.555  -2.096  1.00 20.00     0.068 C 
ENDROOT
BRANCH   2   4
HETATM    4  N7  UNL     1     -33.079  18.064  -0.679  1.00 20.00    -0.393 N 
HETATM    5  C4  UNL     1     -31.687  18.487  -0.694  1.00 20.00     0.148 C 
HETATM    6  C5  UNL     1     -33.796  18.242   0.575  1.00 20.00     0.148 C 
ENDBRANCH   2   4
BRANCH   1   7
HETATM    7  S9  UNL     1     -34.337  16.475  -4.203  1.00 20.00     0.036 S 
HETATM    8  C6  UNL     1     -33.510  14.937  -4.667  1.00 20.00     0.132 C 
HETATM    9  O8  UNL     1     -33.934  17.537  -5.181  1.00 20.00    -0.254 OA
ENDBRANCH   1   7
TORSDOF 2
ENDMDL
MODEL 9
REMARK VINA RESULT:      -2.7      2.057      2.861
REMARK  2 active torsions:
REMARK  status: ('A' for Active; 'I' for Inactive)
REMARK    1  A    between atoms: C1_1  and  S9_9 
REMARK    2  A    between atoms: C2_2  and  N7_7 
ROOT
HETATM    1  C1  UNL     1     -33.485  16.255  -2.828  1.00 20.00     0.102 C 
HETATM    2  C2  UNL     1     -33.235  17.556  -2.585  1.00 20.00     0.011 C 
HETATM    3  C3  UNL     1     -32.982  18.479  -3.751  1.00 20.00     0.068 C 
ENDROOT
BRANCH   2   4
HETATM    4  N7  UNL     1     -33.179  18.165  -1.360  1.00 20.00    -0.393 N 
HETATM    5  C4  UNL     1     -31.905  18.459  -0.721  1.00 20.00     0.148 C 
HETATM    6  C5  UNL     1     -34.360  18.767  -0.759  1.00 20.00     0.148 C 
ENDBRANCH   2   4
BRANCH   1   7
HETATM    7  S9  UNL     1     -33.526  15.592  -4.489  1.00 20.00     0.036 S 
HETATM    8  C6  UNL     1     -35.217  16.096  -4.878  1.00 20.00     0.132 C 
HETATM    9  O8  UNL     1     -33.506  14.102  -4.331  1.00 20.00    -0.254 OA
ENDBRANCH   1   7
TORSDOF 2
ENDMDL
