MODEL 1
REMARK VINA RESULT:      -4.0      0.000      0.000
REMARK  1 active torsions:
REMARK  status: ('A' for Active; 'I' for Inactive)
REMARK    1  A    between atoms: C10_10  and  O11_11 
ROOT
HETATM    1  C1  UNL     1     -43.399   5.255  -0.279  1.00 20.00    -0.025 C 
HETATM    2  C2  UNL     1     -42.161   5.209  -0.791  1.00 20.00    -0.025 C 
HETATM    3  C3  UNL     1     -43.417   8.087   0.830  1.00 20.00     0.008 C 
HETATM    4  C4  UNL     1     -42.585   8.416  -0.405  1.00 20.00     0.032 C 
HETATM    5  C5  UNL     1     -41.988   4.650   1.433  1.00 20.00     0.018 C 
HETATM    6  C6  UNL     1     -43.263   5.478   1.206  1.00 20.00     0.013 C 
HETATM    7  C7  UNL     1     -41.195   5.403   0.352  1.00 20.00     0.015 C 
HETATM    8  C8  UNL     1     -42.723   6.904   1.505  1.00 20.00     0.000 C 
HETATM    9  C9  UNL     1     -41.277   6.846   0.919  1.00 20.00     0.027 C 
HETATM   10  C10 UNL     1     -41.157   8.048  -0.017  1.00 20.00     0.123 C 
ENDROOT
BRANCH  10  11
HETATM   11  O11 UNL     1     -40.365   7.786  -1.158  1.00 20.00    -0.395 OA
HETATM   12  H25 UNL     1     -40.902   8.010  -1.939  1.00 20.00     0.210 HD
ENDBRANCH  10  11
TORSDOF 1
ENDMDL
MODEL 2
REMARK VINA RESULT:      -4.0      1.777      3.412
REMARK  1 active torsions:
REMARK  status: ('A' for Active; 'I' for Inactive)
REMARK    1  A    between atoms: C10_10  and  O11_11 
ROOT
HETATM    1  C1  UNL     1     -42.890   7.920  -0.418  1.00 20.00    -0.025 C 
HETATM    2  C2  UNL     1     -43.037   7.801   0.909  1.00 20.00    -0.025 C 
HETATM    3  C3  UNL     1     -42.405   5.012  -1.167  1.00 20.00     0.008 C 
HETATM    4  C4  UNL     1     -43.417   4.715  -0.065  1.00 20.00     0.032 C 
HETATM    5  C5  UNL     1     -40.781   7.980   0.498  1.00 20.00     0.018 C 
HETATM    6  C6  UNL     1     -41.496   7.456  -0.758  1.00 20.00     0.013 C 
HETATM    7  C7  UNL     1     -41.741   7.256   1.458  1.00 20.00     0.015 C 
HETATM    8  C8  UNL     1     -41.352   5.924  -0.541  1.00 20.00     0.000 C 
HETATM    9  C9  UNL     1     -41.511   5.788   1.006  1.00 20.00     0.027 C 
HETATM   10  C10 UNL     1     -42.600   4.738   1.223  1.00 20.00     0.123 C 
ENDROOT
BRANCH  10  11
HETATM   11  O11 UNL     1     -43.417   5.008   2.345  1.00 20.00    -0.395 OA
HETATM   12  H25 UNL     1     -43.991   5.758   2.109  1.00 20.00     0.210 HD
ENDBRANCH  10  11
TORSDOF 1
ENDMDL
MODEL 3
REMARK VINA RESULT:      -3.9     12.368     13.569
REMARK  1 active torsions:
REMARK  status: ('A' for Active; 'I' for Inactive)
REMARK    1  A    between atoms: C10_10  and  O11_11 
ROOT
HETATM    1  C1  UNL     1     -34.254  16.875  -7.157  1.00 20.00    -0.025 C 
HETATM    2  C2  UNL     1     -34.060  15.552  -7.250  1.00 20.00    -0.025 C 
HETATM    3  C3  UNL     1     -34.406  17.186  -4.135  1.00 20.00     0.008 C 
HETATM    4  C4  UNL     1     -33.338  16.098  -4.119  1.00 20.00     0.032 C 
HETATM    5  C5  UNL     1     -36.331  15.887  -7.106  1.00 20.00     0.018 C 
HETATM    6  C6  UNL     1     -35.592  17.087  -6.492  1.00 20.00     0.013 C 
HETATM    7  C7  UNL     1     -35.267  14.877  -6.645  1.00 20.00     0.015 C 
HETATM    8  C8  UNL     1     -35.545  16.650  -5.002  1.00 20.00     0.000 C 
HETATM    9  C9  UNL     1     -35.330  15.107  -5.111  1.00 20.00     0.027 C 
HETATM   10  C10 UNL     1     -34.117  14.792  -4.235  1.00 20.00     0.123 C 
ENDROOT
BRANCH  10  11
HETATM   11  O11 UNL     1     -33.310  13.756  -4.757  1.00 20.00    -0.395 OA
HETATM   12  H25 UNL     1     -32.386  13.974  -4.543  1.00 20.00     0.210 HD
ENDBRANCH  10  11
TORSDOF 1
ENDMDL
MODEL 4
REMARK VINA RESULT:      -3.6      8.524      9.450
REMARK  1 active torsions:
REMARK  status: ('A' for Active; 'I' for Inactive)
REMARK    1  A    between atoms: C10_10  and  O11_11 
ROOT
HETATM    1  C1  UNL     1     -35.671   5.897   4.638  1.00 20.00    -0.025 C 
HETATM    2  C2  UNL     1     -35.004   6.176   3.509  1.00 20.00    -0.025 C 
HETATM    3  C3  UNL     1     -34.042   7.512   6.636  1.00 20.00     0.008 C 
HETATM    4  C4  UNL     1     -33.923   8.520   5.498  1.00 20.00     0.032 C 
HETATM    5  C5  UNL     1     -33.926   4.404   4.503  1.00 20.00     0.018 C 
HETATM    6  C6  UNL     1     -34.710   5.193   5.564  1.00 20.00     0.013 C 
HETATM    7  C7  UNL     1     -33.596   5.660   3.679  1.00 20.00     0.015 C 
HETATM    8  C8  UNL     1     -33.604   6.166   6.059  1.00 20.00     0.000 C 
HETATM    9  C9  UNL     1     -32.822   6.482   4.746  1.00 20.00     0.027 C 
HETATM   10  C10 UNL     1     -32.764   8.006   4.649  1.00 20.00     0.123 C 
ENDROOT
BRANCH  10  11
HETATM   11  O11 UNL     1     -32.849   8.482   3.321  1.00 20.00    -0.395 OA
HETATM   12  H25 UNL     1     -33.326   9.330   3.349  1.00 20.00     0.210 HD
ENDBRANCH  10  11
TORSDOF 1
ENDMDL
MODEL 5
REMARK VINA RESULT:      -3.6      8.865      9.938
REMARK  1 active torsions:
REMARK  status: ('A' for Active; 'I' for Inactive)
REMARK    1  A    between atoms: C10_10  and  O11_11 
ROOT
HETATM    1  C1  UNL     1     -33.454   4.825   6.017  1.00 20.00    -0.025 C 
HETATM    2  C2  UNL     1     -33.056   5.954   6.621  1.00 20.00    -0.025 C 
HETATM    3  C3  UNL     1     -33.638   5.792   3.139  1.00 20.00     0.008 C 
HETATM    4  C4  UNL     1     -32.412   6.626   3.498  1.00 20.00     0.032 C 
HETATM    5  C5  UNL     1     -35.350   6.039   6.489  1.00 20.00     0.018 C 
HETATM    6  C6  UNL     1     -34.805   5.098   5.403  1.00 20.00     0.013 C 
HETATM    7  C7  UNL     1     -34.139   6.983   6.410  1.00 20.00     0.015 C 
HETATM    8  C8  UNL     1     -34.683   6.090   4.213  1.00 20.00     0.000 C 
HETATM    9  C9  UNL     1     -34.230   7.406   4.918  1.00 20.00     0.027 C 
HETATM   10  C10 UNL     1     -32.979   7.871   4.173  1.00 20.00     0.123 C 
ENDROOT
BRANCH  10  11
HETATM   11  O11 UNL     1     -32.021   8.477   5.018  1.00 20.00    -0.395 OA
HETATM   12  H25 UNL     1     -31.174   8.479   4.539  1.00 20.00     0.210 HD
ENDBRANCH  10  11
TORSDOF 1
ENDMDL
MODEL 6
REMARK VINA RESULT:      -3.6      9.774     11.105
REMARK  1 active torsions:
REMARK  status: ('A' for Active; 'I' for Inactive)
REMARK    1  A    between atoms: C10_10  and  O11_11 
ROOT
HETATM    1  C1  UNL     1     -42.460  14.595   9.088  1.00 20.00    -0.025 C 
HETATM    2  C2  UNL     1     -41.179  14.308   9.360  1.00 20.00    -0.025 C 
HETATM    3  C3  UNL     1     -42.584  13.777   6.161  1.00 20.00     0.008 C 
HETATM    4  C4  UNL     1     -41.641  12.657   6.589  1.00 20.00     0.032 C 
HETATM    5  C5  UNL     1     -41.215  16.427   8.468  1.00 20.00     0.018 C 
HETATM    6  C6  UNL     1     -42.463  15.654   8.014  1.00 20.00     0.013 C 
HETATM    7  C7  UNL     1     -40.324  15.173   8.466  1.00 20.00     0.015 C 
HETATM    8  C8  UNL     1     -41.956  15.076   6.664  1.00 20.00     0.000 C 
HETATM    9  C9  UNL     1     -40.461  14.752   6.978  1.00 20.00     0.027 C 
HETATM   10  C10 UNL     1     -40.255  13.293   6.570  1.00 20.00     0.123 C 
ENDROOT
BRANCH  10  11
HETATM   11  O11 UNL     1     -39.360  12.601   7.416  1.00 20.00    -0.395 OA
HETATM   12  H25 UNL     1     -38.460  12.892   7.185  1.00 20.00     0.210 HD
ENDBRANCH  10  11
TORSDOF 1
ENDMDL
MODEL 7
REMARK VINA RESULT:      -3.6     11.475     13.429
REMARK  1 active torsions:
REMARK  status: ('A' for Active; 'I' for Inactive)
REMARK    1  A    between atoms: C10_10  and  O11_11 
ROOT
HETATM    1  C1  UNL     1     -36.218  17.047  -5.028  1.00 20.00    -0.025 C 
HETATM    2  C2  UNL     1     -34.929  17.407  -5.115  1.00 20.00    -0.025 C 
HETATM    3  C3  UNL     1     -35.931  14.019  -5.026  1.00 20.00     0.008 C 
HETATM    4  C4  UNL     1     -34.674  14.289  -4.206  1.00 20.00     0.032 C 
HETATM    5  C5  UNL     1     -35.669  17.044  -7.262  1.00 20.00     0.018 C 
HETATM    6  C6  UNL     1     -36.549  16.263  -6.273  1.00 20.00     0.013 C 
HETATM    7  C7  UNL     1     -34.397  16.862  -6.418  1.00 20.00     0.015 C 
HETATM    8  C8  UNL     1     -35.818  14.892  -6.275  1.00 20.00     0.000 C 
HETATM    9  C9  UNL     1     -34.318  15.311  -6.387  1.00 20.00     0.027 C 
HETATM   10  C10 UNL     1     -33.598  14.600  -5.242  1.00 20.00     0.123 C 
ENDROOT
BRANCH  10  11
HETATM   11  O11 UNL     1     -32.552  15.367  -4.682  1.00 20.00    -0.395 OA
HETATM   12  H25 UNL     1     -32.490  16.190  -5.198  1.00 20.00     0.210 HD
ENDBRANCH  10  11
TORSDOF 1
ENDMDL
MODEL 8
REMARK VINA RESULT:      -3.4      9.387     10.677
REMARK  1 active torsions:
REMARK  status: ('A' for Active; 'I' for Inactive)
REMARK    1  A    between atoms: C10_10  and  O11_11 
ROOT
HETATM    1  C1  UNL     1     -41.227  13.106   5.841  1.00 20.00    -0.025 C 
HETATM    2  C2  UNL     1     -42.003  12.439   6.708  1.00 20.00    -0.025 C 
HETATM    3  C3  UNL     1     -40.402  15.471   7.568  1.00 20.00     0.008 C 
HETATM    4  C4  UNL     1     -40.382  14.446   8.698  1.00 20.00     0.032 C 
HETATM    5  C5  UNL     1     -43.334  14.017   5.694  1.00 20.00     0.018 C 
HETATM    6  C6  UNL     1     -41.863  14.455   5.617  1.00 20.00     0.013 C 
HETATM    7  C7  UNL     1     -43.157  13.343   7.065  1.00 20.00     0.015 C 
HETATM    8  C8  UNL     1     -41.767  15.333   6.896  1.00 20.00     0.000 C 
HETATM    9  C9  UNL     1     -42.680  14.562   7.901  1.00 20.00     0.027 C 
HETATM   10  C10 UNL     1     -41.834  14.349   9.156  1.00 20.00     0.123 C 
ENDROOT
BRANCH  10  11
HETATM   11  O11 UNL     1     -42.089  13.116   9.796  1.00 20.00    -0.395 OA
HETATM   12  H25 UNL     1     -41.713  12.416   9.235  1.00 20.00     0.210 HD
ENDBRANCH  10  11
TORSDOF 1
ENDMDL
MODEL 9
REMARK VINA RESULT:      -3.4     18.803     20.074
REMARK  1 active torsions:
REMARK  status: ('A' for Active; 'I' for Inactive)
REMARK    1  A    between atoms: C10_10  and  O11_11 
ROOT
HETATM    1  C1  UNL     1     -27.093  -1.458  10.097  1.00 20.00    -0.025 C 
HETATM    2  C2  UNL     1     -28.205  -0.806  10.467  1.00 20.00    -0.025 C 
HETATM    3  C3  UNL     1     -27.851  -4.298  10.878  1.00 20.00     0.008 C 
HETATM    4  C4  UNL     1     -29.247  -3.893  10.417  1.00 20.00     0.032 C 
HETATM    5  C5  UNL     1     -26.868  -0.961  12.331  1.00 20.00     0.018 C 
HETATM    6  C6  UNL     1     -26.502  -2.076  11.339  1.00 20.00     0.013 C 
HETATM    7  C7  UNL     1     -28.359  -0.990  11.957  1.00 20.00     0.015 C 
HETATM    8  C8  UNL     1     -27.404  -3.225  11.869  1.00 20.00     0.000 C 
HETATM    9  C9  UNL     1     -28.693  -2.464  12.310  1.00 20.00     0.027 C 
HETATM   10  C10 UNL     1     -29.856  -3.176  11.619  1.00 20.00     0.123 C 
ENDROOT
BRANCH  10  11
HETATM   11  O11 UNL     1     -30.890  -2.297  11.223  1.00 20.00    -0.395 OA
HETATM   12  H25 UNL     1     -31.714  -2.623  11.624  1.00 20.00     0.210 HD
ENDBRANCH  10  11
TORSDOF 1
ENDMDL
