MODEL 1
REMARK VINA RESULT:      -3.6      0.000      0.000
REMARK  0 active torsions:
REMARK  status: ('A' for Active; 'I' for Inactive)
ROOT
HETATM    1  C1  UNL     1     -23.942  17.530  10.921  1.00 20.00     0.135 C 
HETATM    2  C2  UNL     1     -24.369  19.198   9.240  1.00 20.00     0.092 C 
HETATM    3  C3  UNL     1     -22.836  19.247   9.289  1.00 20.00     0.073 C 
HETATM    4  C4  UNL     1     -24.978  19.258   7.848  1.00 20.00     0.033 C 
HETATM    5  C5  UNL     1     -22.117  18.492   8.175  1.00 20.00     0.024 C 
HETATM    6  N6  UNL     1     -24.792  18.007   9.952  1.00 20.00    -0.370 N 
HETATM    7  S7  UNL     1     -24.291  16.276  11.951  1.00 20.00    -0.053 SA
HETATM    8  S8  UNL     1     -22.448  18.447  10.891  1.00 20.00    -0.094 SA
HETATM    9  H17 UNL     1     -25.633  17.507   9.694  1.00 20.00     0.161 HD
ENDROOT
TORSDOF 0
ENDMDL
MODEL 2
REMARK VINA RESULT:      -3.2     15.584     16.577
REMARK  0 active torsions:
REMARK  status: ('A' for Active; 'I' for Inactive)
ROOT
HETATM    1  C1  UNL     1     -33.779  16.207  -3.652  1.00 20.00     0.135 C 
HETATM    2  C2  UNL     1     -33.428  17.733  -1.826  1.00 20.00     0.092 C 
HETATM    3  C3  UNL     1     -34.203  18.639  -2.793  1.00 20.00     0.073 C 
HETATM    4  C4  UNL     1     -33.833  17.847  -0.364  1.00 20.00     0.033 C 
HETATM    5  C5  UNL     1     -35.687  18.814  -2.488  1.00 20.00     0.024 C 
HETATM    6  N6  UNL     1     -33.555  16.371  -2.306  1.00 20.00    -0.370 N 
HETATM    7  S7  UNL     1     -33.807  14.743  -4.435  1.00 20.00    -0.053 SA
HETATM    8  S8  UNL     1     -34.028  17.774  -4.399  1.00 20.00    -0.094 SA
HETATM    9  H17 UNL     1     -33.556  15.583  -1.670  1.00 20.00     0.161 HD
ENDROOT
TORSDOF 0
ENDMDL
MODEL 3
REMARK VINA RESULT:      -3.1     16.918     17.966
REMARK  0 active torsions:
REMARK  status: ('A' for Active; 'I' for Inactive)
ROOT
HETATM    1  C1  UNL     1     -35.770  17.745  -4.495  1.00 20.00     0.135 C 
HETATM    2  C2  UNL     1     -34.061  16.053  -4.558  1.00 20.00     0.092 C 
HETATM    3  C3  UNL     1     -33.391  17.082  -3.637  1.00 20.00     0.073 C 
HETATM    4  C4  UNL     1     -33.903  14.600  -4.135  1.00 20.00     0.033 C 
HETATM    5  C5  UNL     1     -33.462  16.774  -2.145  1.00 20.00     0.024 C 
HETATM    6  N6  UNL     1     -35.459  16.419  -4.681  1.00 20.00    -0.370 N 
HETATM    7  S7  UNL     1     -37.273  18.406  -4.733  1.00 20.00    -0.053 SA
HETATM    8  S8  UNL     1     -34.339  18.614  -3.971  1.00 20.00    -0.094 SA
HETATM    9  H17 UNL     1     -36.179  15.721  -4.819  1.00 20.00     0.161 HD
ENDROOT
TORSDOF 0
ENDMDL
MODEL 4
REMARK VINA RESULT:      -3.1     17.305     18.414
REMARK  0 active torsions:
REMARK  status: ('A' for Active; 'I' for Inactive)
ROOT
HETATM    1  C1  UNL     1     -33.950  16.404  -3.598  1.00 20.00     0.135 C 
HETATM    2  C2  UNL     1     -35.455  16.217  -5.466  1.00 20.00     0.092 C 
HETATM    3  C3  UNL     1     -34.941  14.773  -5.385  1.00 20.00     0.073 C 
HETATM    4  C4  UNL     1     -36.947  16.363  -5.725  1.00 20.00     0.033 C 
HETATM    5  C5  UNL     1     -35.873  13.779  -4.699  1.00 20.00     0.024 C 
HETATM    6  N6  UNL     1     -35.061  16.891  -4.244  1.00 20.00    -0.370 N 
HETATM    7  S7  UNL     1     -33.241  17.109  -2.274  1.00 20.00    -0.053 SA
HETATM    8  S8  UNL     1     -33.411  14.934  -4.389  1.00 20.00    -0.094 SA
HETATM    9  H17 UNL     1     -35.622  17.633  -3.845  1.00 20.00     0.161 HD
ENDROOT
TORSDOF 0
ENDMDL
MODEL 5
REMARK VINA RESULT:      -3.1     17.314     18.200
REMARK  0 active torsions:
REMARK  status: ('A' for Active; 'I' for Inactive)
ROOT
HETATM    1  C1  UNL     1     -40.688  14.249   8.050  1.00 20.00     0.135 C 
HETATM    2  C2  UNL     1     -40.443  12.544   6.370  1.00 20.00     0.092 C 
HETATM    3  C3  UNL     1     -41.825  13.098   5.997  1.00 20.00     0.073 C 
HETATM    4  C4  UNL     1     -39.523  12.249   5.195  1.00 20.00     0.033 C 
HETATM    5  C5  UNL     1     -41.850  14.072   4.823  1.00 20.00     0.024 C 
HETATM    6  N6  UNL     1     -39.834  13.476   7.299  1.00 20.00    -0.370 N 
HETATM    7  S7  UNL     1     -40.213  15.267   9.271  1.00 20.00    -0.053 SA
HETATM    8  S8  UNL     1     -42.337  13.988   7.515  1.00 20.00    -0.094 SA
HETATM    9  H17 UNL     1     -38.831  13.607   7.335  1.00 20.00     0.161 HD
ENDROOT
TORSDOF 0
ENDMDL
MODEL 6
REMARK VINA RESULT:      -3.0     16.875     17.971
REMARK  0 active torsions:
REMARK  status: ('A' for Active; 'I' for Inactive)
ROOT
HETATM    1  C1  UNL     1     -34.913  15.944  -5.145  1.00 20.00     0.135 C 
HETATM    2  C2  UNL     1     -33.524  16.924  -3.443  1.00 20.00     0.092 C 
HETATM    3  C3  UNL     1     -34.102  18.192  -4.086  1.00 20.00     0.073 C 
HETATM    4  C4  UNL     1     -33.452  16.940  -1.923  1.00 20.00     0.033 C 
HETATM    5  C5  UNL     1     -35.260  18.842  -3.336  1.00 20.00     0.024 C 
HETATM    6  N6  UNL     1     -34.298  15.797  -3.924  1.00 20.00    -0.370 N 
HETATM    7  S7  UNL     1     -35.721  14.737  -5.948  1.00 20.00    -0.053 SA
HETATM    8  S8  UNL     1     -34.710  17.592  -5.707  1.00 20.00    -0.094 SA
HETATM    9  H17 UNL     1     -34.443  14.972  -3.355  1.00 20.00     0.161 HD
ENDROOT
TORSDOF 0
ENDMDL
MODEL 7
REMARK VINA RESULT:      -3.0     17.365     18.291
REMARK  0 active torsions:
REMARK  status: ('A' for Active; 'I' for Inactive)
ROOT
HETATM    1  C1  UNL     1     -40.204  12.975   5.736  1.00 20.00     0.135 C 
HETATM    2  C2  UNL     1     -40.458  14.560   7.528  1.00 20.00     0.092 C 
HETATM    3  C3  UNL     1     -41.901  14.502   7.009  1.00 20.00     0.073 C 
HETATM    4  C4  UNL     1     -40.312  14.575   9.042  1.00 20.00     0.033 C 
HETATM    5  C5  UNL     1     -42.858  13.629   7.815  1.00 20.00     0.024 C 
HETATM    6  N6  UNL     1     -39.736  13.449   6.938  1.00 20.00    -0.370 N 
HETATM    7  S7  UNL     1     -39.449  11.818   4.817  1.00 20.00    -0.053 SA
HETATM    8  S8  UNL     1     -41.710  13.780   5.336  1.00 20.00    -0.094 SA
HETATM    9  H17 UNL     1     -38.973  12.996   7.425  1.00 20.00     0.161 HD
ENDROOT
TORSDOF 0
ENDMDL
MODEL 8
REMARK VINA RESULT:      -2.9      2.340      3.400
REMARK  0 active torsions:
REMARK  status: ('A' for Active; 'I' for Inactive)
ROOT
HETATM    1  C1  UNL     1     -24.895  19.096   8.659  1.00 20.00     0.135 C 
HETATM    2  C2  UNL     1     -22.778  18.904   9.785  1.00 20.00     0.092 C 
HETATM    3  C3  UNL     1     -23.729  18.511  10.924  1.00 20.00     0.073 C 
HETATM    4  C4  UNL     1     -21.517  18.061   9.670  1.00 20.00     0.033 C 
HETATM    5  C5  UNL     1     -23.859  17.015  11.187  1.00 20.00     0.024 C 
HETATM    6  N6  UNL     1     -23.541  18.887   8.552  1.00 20.00    -0.370 N 
HETATM    7  S7  UNL     1     -25.930  19.263   7.373  1.00 20.00    -0.053 SA
HETATM    8  S8  UNL     1     -25.346  19.155  10.352  1.00 20.00    -0.094 SA
HETATM    9  H17 UNL     1     -23.110  18.654   7.666  1.00 20.00     0.161 HD
ENDROOT
TORSDOF 0
ENDMDL
MODEL 9
REMARK VINA RESULT:      -2.8     15.487     16.304
REMARK  0 active torsions:
REMARK  status: ('A' for Active; 'I' for Inactive)
ROOT
HETATM    1  C1  UNL     1     -33.397   5.797   3.386  1.00 20.00     0.135 C 
HETATM    2  C2  UNL     1     -33.376   7.992   4.371  1.00 20.00     0.092 C 
HETATM    3  C3  UNL     1     -34.257   7.247   5.383  1.00 20.00     0.073 C 
HETATM    4  C4  UNL     1     -32.353   8.942   4.974  1.00 20.00     0.033 C 
HETATM    5  C5  UNL     1     -33.559   6.805   6.665  1.00 20.00     0.024 C 
HETATM    6  N6  UNL     1     -32.742   6.997   3.528  1.00 20.00    -0.370 N 
HETATM    7  S7  UNL     1     -32.929   4.580   2.358  1.00 20.00    -0.053 SA
HETATM    8  S8  UNL     1     -34.787   5.759   4.454  1.00 20.00    -0.094 SA
HETATM    9  H17 UNL     1     -31.825   7.150   3.127  1.00 20.00     0.161 HD
ENDROOT
TORSDOF 0
ENDMDL
