MODEL 1
REMARK VINA RESULT:      -4.0      0.000      0.000
REMARK  3 active torsions:
REMARK  status: ('A' for Active; 'I' for Inactive)
REMARK    1  A    between atoms: C1_1  and  C7_7 
REMARK    2  A    between atoms: C6_6  and  C7_7 
REMARK    3  A    between atoms: C6_6  and  C8_8 
ROOT
HETATM    1  C6  UNL     1     -34.073   7.570   4.637  1.00 20.00     0.019 C 
ENDROOT
BRANCH   1   2
HETATM    2  C7  UNL     1     -32.619   7.887   4.237  1.00 20.00     0.043 C 
HETATM    3  C2  UNL     1     -32.067   9.028   5.092  1.00 20.00     0.017 C 
BRANCH   2   4
HETATM    4  C1  UNL     1     -32.535   8.335   2.793  1.00 20.00     0.235 C 
HETATM    5  O9  UNL     1     -32.115   7.620   1.889  1.00 20.00    -0.306 OA
ENDBRANCH   2   4
ENDBRANCH   1   2
BRANCH   1   6
HETATM    6  C8  UNL     1     -34.461   6.068   4.766  1.00 20.00    -0.051 C 
HETATM    7  C3  UNL     1     -33.566   5.158   3.911  1.00 20.00     0.014 C 
HETATM    8  C4  UNL     1     -34.396   5.606   6.232  1.00 20.00     0.014 C 
HETATM    9  C5  UNL     1     -35.916   5.913   4.276  1.00 20.00     0.014 C 
ENDBRANCH   1   6
TORSDOF 3
ENDMDL
MODEL 2
REMARK VINA RESULT:      -4.0      1.519      2.235
REMARK  3 active torsions:
REMARK  status: ('A' for Active; 'I' for Inactive)
REMARK    1  A    between atoms: C1_1  and  C7_7 
REMARK    2  A    between atoms: C6_6  and  C7_7 
REMARK    3  A    between atoms: C6_6  and  C8_8 
ROOT
HETATM    1  C6  UNL     1     -33.309   6.800   5.073  1.00 20.00     0.019 C 
ENDROOT
BRANCH   1   2
HETATM    2  C7  UNL     1     -33.156   7.650   3.798  1.00 20.00     0.043 C 
HETATM    3  C2  UNL     1     -32.250   6.942   2.790  1.00 20.00     0.017 C 
BRANCH   2   4
HETATM    4  C1  UNL     1     -32.515   8.987   4.105  1.00 20.00     0.235 C 
HETATM    5  O9  UNL     1     -32.146   9.313   5.229  1.00 20.00    -0.306 OA
ENDBRANCH   2   4
ENDBRANCH   1   2
BRANCH   1   6
HETATM    6  C8  UNL     1     -34.425   5.716   5.073  1.00 20.00    -0.051 C 
HETATM    7  C3  UNL     1     -35.679   6.168   4.309  1.00 20.00     0.014 C 
HETATM    8  C4  UNL     1     -33.913   4.398   4.465  1.00 20.00     0.014 C 
HETATM    9  C5  UNL     1     -34.824   5.447   6.539  1.00 20.00     0.014 C 
ENDBRANCH   1   6
TORSDOF 3
ENDMDL
MODEL 3
REMARK VINA RESULT:      -3.9      0.078      1.443
REMARK  3 active torsions:
REMARK  status: ('A' for Active; 'I' for Inactive)
REMARK    1  A    between atoms: C1_1  and  C7_7 
REMARK    2  A    between atoms: C6_6  and  C7_7 
REMARK    3  A    between atoms: C6_6  and  C8_8 
ROOT
HETATM    1  C6  UNL     1     -34.065   7.638   4.612  1.00 20.00     0.019 C 
ENDROOT
BRANCH   1   2
HETATM    2  C7  UNL     1     -32.606   7.931   4.212  1.00 20.00     0.043 C 
HETATM    3  C2  UNL     1     -32.028   9.046   5.082  1.00 20.00     0.017 C 
BRANCH   2   4
HETATM    4  C1  UNL     1     -32.518   8.400   2.775  1.00 20.00     0.235 C 
HETATM    5  O9  UNL     1     -32.139   7.682   1.855  1.00 20.00    -0.306 OA
ENDBRANCH   2   4
ENDBRANCH   1   2
BRANCH   1   6
HETATM    6  C8  UNL     1     -34.480   6.143   4.735  1.00 20.00    -0.051 C 
HETATM    7  C3  UNL     1     -35.928   5.900   4.284  1.00 20.00     0.014 C 
HETATM    8  C4  UNL     1     -33.539   5.241   3.917  1.00 20.00     0.014 C 
HETATM    9  C5  UNL     1     -34.363   5.740   6.220  1.00 20.00     0.014 C 
ENDBRANCH   1   6
TORSDOF 3
ENDMDL
MODEL 4
REMARK VINA RESULT:      -3.7      1.841      3.756
REMARK  3 active torsions:
REMARK  status: ('A' for Active; 'I' for Inactive)
REMARK    1  A    between atoms: C1_1  and  C7_7 
REMARK    2  A    between atoms: C6_6  and  C7_7 
REMARK    3  A    between atoms: C6_6  and  C8_8 
ROOT
HETATM    1  C6  UNL     1     -33.204   7.010   5.473  1.00 20.00     0.019 C 
ENDROOT
BRANCH   1   2
HETATM    2  C7  UNL     1     -34.531   6.236   5.365  1.00 20.00     0.043 C 
HETATM    3  C2  UNL     1     -34.826   5.496   6.670  1.00 20.00     0.017 C 
BRANCH   2   4
HETATM    4  C1  UNL     1     -34.467   5.192   4.270  1.00 20.00     0.235 C 
HETATM    5  O9  UNL     1     -34.080   4.042   4.458  1.00 20.00    -0.306 OA
ENDBRANCH   2   4
ENDBRANCH   1   2
BRANCH   1   6
HETATM    6  C8  UNL     1     -32.906   8.064   4.367  1.00 20.00    -0.051 C 
HETATM    7  C3  UNL     1     -32.138   7.463   3.180  1.00 20.00     0.014 C 
HETATM    8  C4  UNL     1     -34.207   8.705   3.852  1.00 20.00     0.014 C 
HETATM    9  C5  UNL     1     -32.037   9.174   4.993  1.00 20.00     0.014 C 
ENDBRANCH   1   6
TORSDOF 3
ENDMDL
MODEL 5
REMARK VINA RESULT:      -3.6      2.035      4.019
REMARK  3 active torsions:
REMARK  status: ('A' for Active; 'I' for Inactive)
REMARK    1  A    between atoms: C1_1  and  C7_7 
REMARK    2  A    between atoms: C6_6  and  C7_7 
REMARK    3  A    between atoms: C6_6  and  C8_8 
ROOT
HETATM    1  C6  UNL     1     -34.145   7.834   4.298  1.00 20.00     0.019 C 
ENDROOT
BRANCH   1   2
HETATM    2  C7  UNL     1     -34.191   6.380   4.802  1.00 20.00     0.043 C 
HETATM    3  C2  UNL     1     -35.508   5.716   4.399  1.00 20.00     0.017 C 
BRANCH   2   4
HETATM    4  C1  UNL     1     -34.111   6.323   6.313  1.00 20.00     0.235 C 
HETATM    5  O9  UNL     1     -34.408   7.267   7.038  1.00 20.00    -0.306 OA
ENDBRANCH   2   4
ENDBRANCH   1   2
BRANCH   1   6
HETATM    6  C8  UNL     1     -32.789   8.346   3.730  1.00 20.00    -0.051 C 
HETATM    7  C3  UNL     1     -32.978   9.399   2.628  1.00 20.00     0.014 C 
HETATM    8  C4  UNL     1     -31.912   8.938   4.848  1.00 20.00     0.014 C 
HETATM    9  C5  UNL     1     -32.045   7.139   3.123  1.00 20.00     0.014 C 
ENDBRANCH   1   6
TORSDOF 3
ENDMDL
MODEL 6
REMARK VINA RESULT:      -3.4      8.869      9.643
REMARK  3 active torsions:
REMARK  status: ('A' for Active; 'I' for Inactive)
REMARK    1  A    between atoms: C1_1  and  C7_7 
REMARK    2  A    between atoms: C6_6  and  C7_7 
REMARK    3  A    between atoms: C6_6  and  C8_8 
ROOT
HETATM    1  C6  UNL     1     -40.725  13.202   5.164  1.00 20.00     0.019 C 
ENDROOT
BRANCH   1   2
HETATM    2  C7  UNL     1     -39.963  11.890   5.428  1.00 20.00     0.043 C 
HETATM    3  C2  UNL     1     -38.892  12.101   6.498  1.00 20.00     0.017 C 
BRANCH   2   4
HETATM    4  C1  UNL     1     -39.254  11.409   4.180  1.00 20.00     0.235 C 
HETATM    5  O9  UNL     1     -39.239  12.042   3.129  1.00 20.00    -0.306 OA
ENDBRANCH   2   4
ENDBRANCH   1   2
BRANCH   1   6
HETATM    6  C8  UNL     1     -41.883  13.559   6.141  1.00 20.00    -0.051 C 
HETATM    7  C3  UNL     1     -42.468  12.317   6.830  1.00 20.00     0.014 C 
HETATM    8  C4  UNL     1     -41.412  14.556   7.214  1.00 20.00     0.014 C 
HETATM    9  C5  UNL     1     -43.005  14.229   5.320  1.00 20.00     0.014 C 
ENDBRANCH   1   6
TORSDOF 3
ENDMDL
MODEL 7
REMARK VINA RESULT:      -3.4     11.707     12.729
REMARK  3 active torsions:
REMARK  status: ('A' for Active; 'I' for Inactive)
REMARK    1  A    between atoms: C1_1  and  C7_7 
REMARK    2  A    between atoms: C6_6  and  C7_7 
REMARK    3  A    between atoms: C6_6  and  C8_8 
ROOT
HETATM    1  C6  UNL     1     -33.474  16.720  -2.344  1.00 20.00     0.019 C 
ENDROOT
BRANCH   1   2
HETATM    2  C7  UNL     1     -33.406  16.475  -3.863  1.00 20.00     0.043 C 
HETATM    3  C2  UNL     1     -34.772  16.720  -4.505  1.00 20.00     0.017 C 
BRANCH   2   4
HETATM    4  C1  UNL     1     -33.025  15.043  -4.169  1.00 20.00     0.235 C 
HETATM    5  O9  UNL     1     -33.830  14.117  -4.168  1.00 20.00    -0.306 OA
ENDBRANCH   2   4
ENDBRANCH   1   2
BRANCH   1   6
HETATM    6  C8  UNL     1     -33.160  18.159  -1.842  1.00 20.00    -0.051 C 
HETATM    7  C3  UNL     1     -32.030  18.181  -0.803  1.00 20.00     0.014 C 
HETATM    8  C4  UNL     1     -32.783  19.082  -3.016  1.00 20.00     0.014 C 
HETATM    9  C5  UNL     1     -34.436  18.719  -1.180  1.00 20.00     0.014 C 
ENDBRANCH   1   6
TORSDOF 3
ENDMDL
MODEL 8
REMARK VINA RESULT:      -3.3      1.429      2.456
REMARK  3 active torsions:
REMARK  status: ('A' for Active; 'I' for Inactive)
REMARK    1  A    between atoms: C1_1  and  C7_7 
REMARK    2  A    between atoms: C6_6  and  C7_7 
REMARK    3  A    between atoms: C6_6  and  C8_8 
ROOT
HETATM    1  C6  UNL     1     -33.233   5.582   4.475  1.00 20.00     0.019 C 
ENDROOT
BRANCH   1   2
HETATM    2  C7  UNL     1     -33.216   6.036   3.004  1.00 20.00     0.043 C 
HETATM    3  C2  UNL     1     -32.883   4.860   2.086  1.00 20.00     0.017 C 
BRANCH   2   4
HETATM    4  C1  UNL     1     -32.156   7.092   2.771  1.00 20.00     0.235 C 
HETATM    5  O9  UNL     1     -31.820   7.908   3.624  1.00 20.00    -0.306 OA
ENDBRANCH   2   4
ENDBRANCH   1   2
BRANCH   1   6
HETATM    6  C8  UNL     1     -34.419   6.073   5.355  1.00 20.00    -0.051 C 
HETATM    7  C3  UNL     1     -34.707   5.125   6.529  1.00 20.00     0.014 C 
HETATM    8  C4  UNL     1     -34.151   7.486   5.903  1.00 20.00     0.014 C 
HETATM    9  C5  UNL     1     -35.677   6.132   4.463  1.00 20.00     0.014 C 
ENDBRANCH   1   6
TORSDOF 3
ENDMDL
MODEL 9
REMARK VINA RESULT:      -3.2     11.971     13.110
REMARK  3 active torsions:
REMARK  status: ('A' for Active; 'I' for Inactive)
REMARK    1  A    between atoms: C1_1  and  C7_7 
REMARK    2  A    between atoms: C6_6  and  C7_7 
REMARK    3  A    between atoms: C6_6  and  C8_8 
ROOT
HETATM    1  C6  UNL     1     -33.917  18.847  -1.680  1.00 20.00     0.019 C 
ENDROOT
BRANCH   1   2
HETATM    2  C7  UNL     1     -33.105  18.217  -0.533  1.00 20.00     0.043 C 
HETATM    3  C2  UNL     1     -33.921  18.211   0.759  1.00 20.00     0.017 C 
BRANCH   2   4
HETATM    4  C1  UNL     1     -31.845  19.009  -0.257  1.00 20.00     0.235 C 
HETATM    5  O9  UNL     1     -30.732  18.660  -0.640  1.00 20.00    -0.306 OA
ENDBRANCH   2   4
ENDBRANCH   1   2
BRANCH   1   6
HETATM    6  C8  UNL     1     -33.871  18.129  -3.060  1.00 20.00    -0.051 C 
HETATM    7  C3  UNL     1     -33.331  16.695  -2.954  1.00 20.00     0.014 C 
HETATM    8  C4  UNL     1     -35.265  18.095  -3.711  1.00 20.00     0.014 C 
HETATM    9  C5  UNL     1     -32.929  18.933  -3.980  1.00 20.00     0.014 C 
ENDBRANCH   1   6
TORSDOF 3
ENDMDL
