MODEL 1
REMARK VINA RESULT:      -3.9      0.000      0.000
REMARK  0 active torsions:
REMARK  status: ('A' for Active; 'I' for Inactive)
ROOT
HETATM    1  C1  UNL     1     -21.301  19.137   8.848  1.00 20.00     0.015 C 
HETATM    2  C2  UNL     1     -22.156  18.485   9.382  1.00 20.00    -0.071 C 
HETATM    3  C3  UNL     1     -22.994  18.679  12.332  1.00 20.00     0.039 C 
HETATM    4  C4  UNL     1     -23.950  16.419  12.035  1.00 20.00     0.039 C 
HETATM    5  C5  UNL     1     -24.417  19.241  12.182  1.00 20.00     0.273 C 
HETATM    6  C6  UNL     1     -25.337  17.046  11.823  1.00 20.00     0.273 C 
HETATM    7  C7  UNL     1     -24.582  18.363   9.947  1.00 20.00     0.329 C 
HETATM    8  C8  UNL     1     -22.871  17.383  11.510  1.00 20.00     0.043 C 
HETATM    9  C9  UNL     1     -23.201  17.686  10.036  1.00 20.00     0.195 C 
HETATM   10  N10 UNL     1     -25.245  18.417  11.273  1.00 20.00     0.092 N 
HETATM   11  F11 UNL     1     -23.259  16.501   9.361  1.00 20.00    -0.227 F 
ENDROOT
TORSDOF 0
ENDMDL
MODEL 2
REMARK VINA RESULT:      -3.6     18.459     19.685
REMARK  0 active torsions:
REMARK  status: ('A' for Active; 'I' for Inactive)
ROOT
HETATM    1  C1  UNL     1     -33.621  17.020  -2.196  1.00 20.00     0.015 C 
HETATM    2  C2  UNL     1     -33.949  16.877  -3.342  1.00 20.00    -0.071 C 
HETATM    3  C3  UNL     1     -34.622  14.205  -4.704  1.00 20.00     0.039 C 
HETATM    4  C4  UNL     1     -34.184  15.374  -6.837  1.00 20.00     0.039 C 
HETATM    5  C5  UNL     1     -36.124  14.398  -4.970  1.00 20.00     0.273 C 
HETATM    6  C6  UNL     1     -35.694  15.598  -7.012  1.00 20.00     0.273 C 
HETATM    7  C7  UNL     1     -35.876  16.792  -4.923  1.00 20.00     0.329 C 
HETATM    8  C8  UNL     1     -33.841  15.371  -5.337  1.00 20.00     0.043 C 
HETATM    9  C9  UNL     1     -34.349  16.700  -4.744  1.00 20.00     0.195 C 
HETATM   10  N10 UNL     1     -36.398  15.649  -5.711  1.00 20.00     0.092 N 
HETATM   11  F11 UNL     1     -33.773  17.723  -5.441  1.00 20.00    -0.227 F 
ENDROOT
TORSDOF 0
ENDMDL
MODEL 3
REMARK VINA RESULT:      -3.6     23.240     24.517
REMARK  0 active torsions:
REMARK  status: ('A' for Active; 'I' for Inactive)
ROOT
HETATM    1  C1  UNL     1     -43.408   4.032  -1.789  1.00 20.00     0.015 C 
HETATM    2  C2  UNL     1     -42.672   4.786  -1.213  1.00 20.00    -0.071 C 
HETATM    3  C3  UNL     1     -43.417   7.570  -0.146  1.00 20.00     0.039 C 
HETATM    4  C4  UNL     1     -40.991   8.041  -0.158  1.00 20.00     0.039 C 
HETATM    5  C5  UNL     1     -43.306   7.328   1.369  1.00 20.00     0.273 C 
HETATM    6  C6  UNL     1     -40.931   7.717   1.343  1.00 20.00     0.273 C 
HETATM    7  C7  UNL     1     -41.795   5.488   1.013  1.00 20.00     0.329 C 
HETATM    8  C8  UNL     1     -42.087   7.186  -0.819  1.00 20.00     0.043 C 
HETATM    9  C9  UNL     1     -41.771   5.710  -0.510  1.00 20.00     0.195 C 
HETATM   10  N10 UNL     1     -41.990   6.764   1.744  1.00 20.00     0.092 N 
HETATM   11  F11 UNL     1     -40.512   5.441  -0.964  1.00 20.00    -0.227 F 
ENDROOT
TORSDOF 0
ENDMDL
MODEL 4
REMARK VINA RESULT:      -3.6     19.184     20.417
REMARK  0 active torsions:
REMARK  status: ('A' for Active; 'I' for Inactive)
ROOT
HETATM    1  C1  UNL     1     -33.228  16.255  -3.079  1.00 20.00     0.015 C 
HETATM    2  C2  UNL     1     -33.924  15.909  -3.994  1.00 20.00    -0.071 C 
HETATM    3  C3  UNL     1     -35.135  17.752  -6.134  1.00 20.00     0.039 C 
HETATM    4  C4  UNL     1     -36.755  15.930  -6.547  1.00 20.00     0.039 C 
HETATM    5  C5  UNL     1     -34.368  17.276  -7.380  1.00 20.00     0.273 C 
HETATM    6  C6  UNL     1     -35.906  15.460  -7.739  1.00 20.00     0.273 C 
HETATM    7  C7  UNL     1     -33.949  15.134  -6.365  1.00 20.00     0.329 C 
HETATM    8  C8  UNL     1     -35.833  16.546  -5.479  1.00 20.00     0.043 C 
HETATM    9  C9  UNL     1     -34.776  15.486  -5.114  1.00 20.00     0.195 C 
HETATM   10  N10 UNL     1     -34.479  15.813  -7.573  1.00 20.00     0.092 N 
HETATM   11  F11 UNL     1     -35.428  14.361  -4.699  1.00 20.00    -0.227 F 
ENDROOT
TORSDOF 0
ENDMDL
MODEL 5
REMARK VINA RESULT:      -3.6     17.782     18.797
REMARK  0 active torsions:
REMARK  status: ('A' for Active; 'I' for Inactive)
ROOT
HETATM    1  C1  UNL     1     -39.002  12.138   5.580  1.00 20.00     0.015 C 
HETATM    2  C2  UNL     1     -40.044  12.530   6.031  1.00 20.00    -0.071 C 
HETATM    3  C3  UNL     1     -40.418  14.987   7.838  1.00 20.00     0.039 C 
HETATM    4  C4  UNL     1     -42.561  13.957   8.512  1.00 20.00     0.039 C 
HETATM    5  C5  UNL     1     -41.218  15.905   6.900  1.00 20.00     0.273 C 
HETATM    6  C6  UNL     1     -43.297  14.854   7.504  1.00 20.00     0.273 C 
HETATM    7  C7  UNL     1     -42.012  14.012   5.643  1.00 20.00     0.329 C 
HETATM    8  C8  UNL     1     -41.153  13.641   7.978  1.00 20.00     0.043 C 
HETATM    9  C9  UNL     1     -41.319  13.008   6.583  1.00 20.00     0.195 C 
HETATM   10  N10 UNL     1     -42.427  15.237   6.370  1.00 20.00     0.092 N 
HETATM   11  F11 UNL     1     -42.121  11.911   6.707  1.00 20.00    -0.227 F 
ENDROOT
TORSDOF 0
ENDMDL
MODEL 6
REMARK VINA RESULT:      -3.4     18.325     19.146
REMARK  0 active torsions:
REMARK  status: ('A' for Active; 'I' for Inactive)
ROOT
HETATM    1  C1  UNL     1     -39.457  11.765   4.833  1.00 20.00     0.015 C 
HETATM    2  C2  UNL     1     -40.061  12.407   5.648  1.00 20.00    -0.071 C 
HETATM    3  C3  UNL     1     -42.141  14.587   5.045  1.00 20.00     0.039 C 
HETATM    4  C4  UNL     1     -41.716  15.393   7.343  1.00 20.00     0.039 C 
HETATM    5  C5  UNL     1     -43.416  13.912   5.578  1.00 20.00     0.273 C 
HETATM    6  C6  UNL     1     -42.963  14.638   7.828  1.00 20.00     0.273 C 
HETATM    7  C7  UNL     1     -42.121  12.515   7.050  1.00 20.00     0.329 C 
HETATM    8  C8  UNL     1     -41.085  14.629   6.164  1.00 20.00     0.043 C 
HETATM    9  C9  UNL     1     -40.799  13.194   6.645  1.00 20.00     0.195 C 
HETATM   10  N10 UNL     1     -43.260  13.462   6.980  1.00 20.00     0.092 N 
HETATM   11  F11 UNL     1     -39.998  13.267   7.748  1.00 20.00    -0.227 F 
ENDROOT
TORSDOF 0
ENDMDL
MODEL 7
REMARK VINA RESULT:      -3.4     18.032     19.156
REMARK  0 active torsions:
REMARK  status: ('A' for Active; 'I' for Inactive)
ROOT
HETATM    1  C1  UNL     1     -39.667  11.390   5.736  1.00 20.00     0.015 C 
HETATM    2  C2  UNL     1     -40.341  12.382   5.789  1.00 20.00    -0.071 C 
HETATM    3  C3  UNL     1     -42.659  12.883   7.743  1.00 20.00     0.039 C 
HETATM    4  C4  UNL     1     -43.417  14.605   6.140  1.00 20.00     0.039 C 
HETATM    5  C5  UNL     1     -42.066  14.017   8.596  1.00 20.00     0.273 C 
HETATM    6  C6  UNL     1     -42.743  15.686   6.999  1.00 20.00     0.273 C 
HETATM    7  C7  UNL     1     -40.574  14.644   6.813  1.00 20.00     0.329 C 
HETATM    8  C8  UNL     1     -42.623  13.292   6.260  1.00 20.00     0.043 C 
HETATM    9  C9  UNL     1     -41.167  13.595   5.854  1.00 20.00     0.195 C 
HETATM   10  N10 UNL     1     -41.596  15.147   7.764  1.00 20.00     0.092 N 
HETATM   11  F11 UNL     1     -41.178  14.122   4.595  1.00 20.00    -0.227 F 
ENDROOT
TORSDOF 0
ENDMDL
MODEL 8
REMARK VINA RESULT:      -3.3     19.340     20.611
REMARK  0 active torsions:
REMARK  status: ('A' for Active; 'I' for Inactive)
ROOT
HETATM    1  C1  UNL     1     -24.320  -3.501   9.709  1.00 20.00     0.015 C 
HETATM    2  C2  UNL     1     -25.112  -2.868  10.354  1.00 20.00    -0.071 C 
HETATM    3  C3  UNL     1     -28.099  -2.534   9.715  1.00 20.00     0.039 C 
HETATM    4  C4  UNL     1     -28.015  -0.538  11.171  1.00 20.00     0.039 C 
HETATM    5  C5  UNL     1     -28.724  -3.298  10.894  1.00 20.00     0.273 C 
HETATM    6  C6  UNL     1     -28.576  -1.374  12.332  1.00 20.00     0.273 C 
HETATM    7  C7  UNL     1     -26.752  -2.950  12.230  1.00 20.00     0.329 C 
HETATM    8  C8  UNL     1     -27.163  -1.440  10.261  1.00 20.00     0.043 C 
HETATM    9  C9  UNL     1     -26.080  -2.093  11.141  1.00 20.00     0.195 C 
HETATM   10  N10 UNL     1     -28.229  -2.806  12.199  1.00 20.00     0.092 N 
HETATM   11  F11 UNL     1     -25.372  -1.099  11.752  1.00 20.00    -0.227 F 
ENDROOT
TORSDOF 0
ENDMDL
MODEL 9
REMARK VINA RESULT:      -3.2     19.658     20.885
REMARK  0 active torsions:
REMARK  status: ('A' for Active; 'I' for Inactive)
ROOT
HETATM    1  C1  UNL     1     -33.670  14.490  -3.832  1.00 20.00     0.015 C 
HETATM    2  C2  UNL     1     -34.039  14.977  -4.866  1.00 20.00    -0.071 C 
HETATM    3  C3  UNL     1     -36.926  15.774  -5.553  1.00 20.00     0.039 C 
HETATM    4  C4  UNL     1     -36.212  15.680  -7.918  1.00 20.00     0.039 C 
HETATM    5  C5  UNL     1     -36.784  17.303  -5.629  1.00 20.00     0.273 C 
HETATM    6  C6  UNL     1     -36.020  17.205  -7.910  1.00 20.00     0.273 C 
HETATM    7  C7  UNL     1     -34.430  17.111  -6.097  1.00 20.00     0.329 C 
HETATM    8  C8  UNL     1     -35.915  15.123  -6.514  1.00 20.00     0.043 C 
HETATM    9  C9  UNL     1     -34.491  15.572  -6.131  1.00 20.00     0.195 C 
HETATM   10  N10 UNL     1     -35.706  17.713  -6.556  1.00 20.00     0.092 N 
HETATM   11  F11 UNL     1     -33.632  15.129  -7.094  1.00 20.00    -0.227 F 
ENDROOT
TORSDOF 0
ENDMDL
