MODEL 1
REMARK VINA RESULT:      -4.7      0.000      0.000
REMARK  2 active torsions:
REMARK  status: ('A' for Active; 'I' for Inactive)
REMARK    1  A    between atoms: C6_6  and  C10_10 
REMARK    2  A    between atoms: C7_7  and  C11_11 
ROOT
HETATM    1  C1  UNL     1     -31.785  18.701  -0.825  1.00 20.00     0.059 C 
HETATM    2  C10 UNL     1     -33.119  18.909  -1.372  1.00 20.00     0.128 C 
HETATM    3  N12 UNL     1     -30.730  18.554  -0.364  1.00 20.00    -0.197 NA
ENDROOT
BRANCH   2   4
HETATM    4  C6  UNL     1     -33.129  18.087  -2.659  1.00 20.00    -0.002 C 
HETATM    5  C2  UNL     1     -33.376  16.604  -2.354  1.00 20.00     0.006 C 
HETATM    6  C4  UNL     1     -33.441  15.768  -3.630  1.00 20.00     0.005 C 
HETATM    7  C7  UNL     1     -34.494  16.306  -4.608  1.00 20.00    -0.011 C 
HETATM    8  C5  UNL     1     -34.246  17.788  -4.913  1.00 20.00     0.005 C 
HETATM    9  C3  UNL     1     -34.181  18.625  -3.637  1.00 20.00     0.006 C 
BRANCH   7  10
HETATM   10  C11 UNL     1     -34.505  15.484  -5.895  1.00 20.00    -0.019 C 
HETATM   11  C8  UNL     1     -35.750  14.603  -5.959  1.00 20.00     0.010 C 
HETATM   12  C9  UNL     1     -34.429  16.397  -7.115  1.00 20.00     0.010 C 
ENDBRANCH   7  10
ENDBRANCH   2   4
TORSDOF 2
ENDMDL
MODEL 2
REMARK VINA RESULT:      -4.6      2.647      5.283
REMARK  2 active torsions:
REMARK  status: ('A' for Active; 'I' for Inactive)
REMARK    1  A    between atoms: C6_6  and  C10_10 
REMARK    2  A    between atoms: C7_7  and  C11_11 
ROOT
HETATM    1  C1  UNL     1     -35.524  15.255  -5.819  1.00 20.00     0.059 C 
HETATM    2  C10 UNL     1     -34.546  16.328  -5.940  1.00 20.00     0.128 C 
HETATM    3  N12 UNL     1     -36.299  14.393  -5.754  1.00 20.00    -0.197 NA
ENDROOT
BRANCH   2   4
HETATM    4  C6  UNL     1     -34.440  16.900  -4.528  1.00 20.00    -0.002 C 
HETATM    5  C2  UNL     1     -33.462  16.075  -3.681  1.00 20.00     0.006 C 
HETATM    6  C4  UNL     1     -33.301  16.658  -2.279  1.00 20.00     0.005 C 
HETATM    7  C7  UNL     1     -32.875  18.132  -2.322  1.00 20.00    -0.011 C 
HETATM    8  C5  UNL     1     -33.854  18.955  -3.168  1.00 20.00     0.005 C 
HETATM    9  C3  UNL     1     -34.016  18.373  -4.571  1.00 20.00     0.006 C 
BRANCH   7  10
HETATM   10  C11 UNL     1     -32.768  18.704  -0.911  1.00 20.00    -0.019 C 
HETATM   11  C8  UNL     1     -33.812  18.071   0.006  1.00 20.00     0.010 C 
HETATM   12  C9  UNL     1     -31.364  18.494  -0.351  1.00 20.00     0.010 C 
ENDBRANCH   7  10
ENDBRANCH   2   4
TORSDOF 2
ENDMDL
MODEL 3
REMARK VINA RESULT:      -4.4      2.739      5.423
REMARK  2 active torsions:
REMARK  status: ('A' for Active; 'I' for Inactive)
REMARK    1  A    between atoms: C6_6  and  C10_10 
REMARK    2  A    between atoms: C7_7  and  C11_11 
ROOT
HETATM    1  C1  UNL     1     -35.961  14.416  -5.506  1.00 20.00     0.059 C 
HETATM    2  C10 UNL     1     -35.114  15.246  -6.352  1.00 20.00     0.128 C 
HETATM    3  N12 UNL     1     -36.647  13.741  -4.858  1.00 20.00    -0.197 NA
ENDROOT
BRANCH   2   4
HETATM    4  C6  UNL     1     -34.306  16.087  -5.366  1.00 20.00    -0.002 C 
HETATM    5  C2  UNL     1     -35.207  17.107  -4.659  1.00 20.00     0.006 C 
HETATM    6  C4  UNL     1     -34.431  17.927  -3.630  1.00 20.00     0.005 C 
HETATM    7  C7  UNL     1     -33.720  17.029  -2.609  1.00 20.00    -0.011 C 
HETATM    8  C5  UNL     1     -32.819  16.010  -3.316  1.00 20.00     0.005 C 
HETATM    9  C3  UNL     1     -33.594  15.189  -4.346  1.00 20.00     0.006 C 
BRANCH   7  10
HETATM   10  C11 UNL     1     -32.912  17.869  -1.622  1.00 20.00    -0.019 C 
HETATM   11  C8  UNL     1     -32.654  19.263  -2.189  1.00 20.00     0.010 C 
HETATM   12  C9  UNL     1     -33.634  17.961  -0.280  1.00 20.00     0.010 C 
ENDBRANCH   7  10
ENDBRANCH   2   4
TORSDOF 2
ENDMDL
MODEL 4
REMARK VINA RESULT:      -4.3      2.926      5.112
REMARK  2 active torsions:
REMARK  status: ('A' for Active; 'I' for Inactive)
REMARK    1  A    between atoms: C6_6  and  C10_10 
REMARK    2  A    between atoms: C7_7  and  C11_11 
ROOT
HETATM    1  C1  UNL     1     -29.503  19.095   3.402  1.00 20.00     0.059 C 
HETATM    2  C10 UNL     1     -30.957  19.137   3.485  1.00 20.00     0.128 C 
HETATM    3  N12 UNL     1     -28.344  19.059   3.367  1.00 20.00    -0.197 NA
ENDROOT
BRANCH   2   4
HETATM    4  C6  UNL     1     -31.414  19.252   2.032  1.00 20.00    -0.002 C 
HETATM    5  C2  UNL     1     -30.703  18.211   1.158  1.00 20.00     0.006 C 
HETATM    6  C4  UNL     1     -31.181  18.272  -0.292  1.00 20.00     0.005 C 
HETATM    7  C7  UNL     1     -32.705  18.121  -0.394  1.00 20.00    -0.011 C 
HETATM    8  C5  UNL     1     -33.413  19.163   0.480  1.00 20.00     0.005 C 
HETATM    9  C3  UNL     1     -32.937  19.102   1.930  1.00 20.00     0.006 C 
BRANCH   7  10
HETATM   10  C11 UNL     1     -33.161  18.235  -1.847  1.00 20.00    -0.019 C 
HETATM   11  C8  UNL     1     -33.381  16.850  -2.451  1.00 20.00     0.010 C 
HETATM   12  C9  UNL     1     -34.434  19.072  -1.945  1.00 20.00     0.010 C 
ENDBRANCH   7  10
ENDBRANCH   2   4
TORSDOF 2
ENDMDL
MODEL 5
REMARK VINA RESULT:      -4.3      1.102      1.937
REMARK  2 active torsions:
REMARK  status: ('A' for Active; 'I' for Inactive)
REMARK    1  A    between atoms: C6_6  and  C10_10 
REMARK    2  A    between atoms: C7_7  and  C11_11 
ROOT
HETATM    1  C1  UNL     1     -32.078  18.547  -0.455  1.00 20.00     0.059 C 
HETATM    2  C10 UNL     1     -33.458  18.231  -0.115  1.00 20.00     0.128 C 
HETATM    3  N12 UNL     1     -30.972  18.807  -0.694  1.00 20.00    -0.197 NA
ENDROOT
BRANCH   2   4
HETATM    4  C6  UNL     1     -34.061  17.726  -1.425  1.00 20.00    -0.002 C 
HETATM    5  C2  UNL     1     -34.474  18.902  -2.320  1.00 20.00     0.006 C 
HETATM    6  C4  UNL     1     -35.033  18.423  -3.658  1.00 20.00     0.005 C 
HETATM    7  C7  UNL     1     -34.046  17.502  -4.388  1.00 20.00    -0.011 C 
HETATM    8  C5  UNL     1     -33.635  16.327  -3.493  1.00 20.00     0.005 C 
HETATM    9  C3  UNL     1     -33.075  16.805  -2.155  1.00 20.00     0.006 C 
BRANCH   7  10
HETATM   10  C11 UNL     1     -34.648  16.998  -5.698  1.00 20.00    -0.019 C 
HETATM   11  C8  UNL     1     -34.321  15.522  -5.906  1.00 20.00     0.010 C 
HETATM   12  C9  UNL     1     -36.157  17.222  -5.716  1.00 20.00     0.010 C 
ENDBRANCH   7  10
ENDBRANCH   2   4
TORSDOF 2
ENDMDL
MODEL 6
REMARK VINA RESULT:      -4.0     11.447     13.001
REMARK  2 active torsions:
REMARK  status: ('A' for Active; 'I' for Inactive)
REMARK    1  A    between atoms: C6_6  and  C10_10 
REMARK    2  A    between atoms: C7_7  and  C11_11 
ROOT
HETATM    1  C1  UNL     1     -32.447   8.952   0.891  1.00 20.00     0.059 C 
HETATM    2  C10 UNL     1     -31.616   7.787   1.159  1.00 20.00     0.128 C 
HETATM    3  N12 UNL     1     -33.095   9.884   0.648  1.00 20.00    -0.197 NA
ENDROOT
BRANCH   2   4
HETATM    4  C6  UNL     1     -32.101   7.285   2.518  1.00 20.00    -0.002 C 
HETATM    5  C2  UNL     1     -32.786   8.413   3.299  1.00 20.00     0.006 C 
HETATM    6  C4  UNL     1     -33.325   7.923   4.642  1.00 20.00     0.005 C 
HETATM    7  C7  UNL     1     -34.270   6.726   4.471  1.00 20.00    -0.011 C 
HETATM    8  C5  UNL     1     -33.584   5.599   3.691  1.00 20.00     0.005 C 
HETATM    9  C3  UNL     1     -33.045   6.088   2.348  1.00 20.00     0.006 C 
BRANCH   7  10
HETATM   10  C11 UNL     1     -34.756   6.225   5.829  1.00 20.00    -0.019 C 
HETATM   11  C8  UNL     1     -34.378   4.759   6.027  1.00 20.00     0.010 C 
HETATM   12  C9  UNL     1     -34.183   7.084   6.954  1.00 20.00     0.010 C 
ENDBRANCH   7  10
ENDBRANCH   2   4
TORSDOF 2
ENDMDL
MODEL 7
REMARK VINA RESULT:      -4.0      1.425      2.081
REMARK  2 active torsions:
REMARK  status: ('A' for Active; 'I' for Inactive)
REMARK    1  A    between atoms: C6_6  and  C10_10 
REMARK    2  A    between atoms: C7_7  and  C11_11 
ROOT
HETATM    1  C1  UNL     1     -33.473  18.112  -0.326  1.00 20.00     0.059 C 
HETATM    2  C10 UNL     1     -32.729  17.929  -1.565  1.00 20.00     0.128 C 
HETATM    3  N12 UNL     1     -34.041  18.275   0.673  1.00 20.00    -0.197 NA
ENDROOT
BRANCH   2   4
HETATM    4  C6  UNL     1     -33.700  17.184  -2.479  1.00 20.00    -0.002 C 
HETATM    5  C2  UNL     1     -34.305  18.136  -3.519  1.00 20.00     0.006 C 
HETATM    6  C4  UNL     1     -35.241  17.404  -4.477  1.00 20.00     0.005 C 
HETATM    7  C7  UNL     1     -34.542  16.223  -5.163  1.00 20.00    -0.011 C 
HETATM    8  C5  UNL     1     -33.938  15.271  -4.122  1.00 20.00     0.005 C 
HETATM    9  C3  UNL     1     -33.001  16.002  -3.164  1.00 20.00     0.006 C 
BRANCH   7  10
HETATM   10  C11 UNL     1     -35.512  15.478  -6.077  1.00 20.00    -0.019 C 
HETATM   11  C8  UNL     1     -36.031  14.215  -5.394  1.00 20.00     0.010 C 
HETATM   12  C9  UNL     1     -36.671  16.385  -6.481  1.00 20.00     0.010 C 
ENDBRANCH   7  10
ENDBRANCH   2   4
TORSDOF 2
ENDMDL
MODEL 8
REMARK VINA RESULT:      -3.8     11.971     13.447
REMARK  2 active torsions:
REMARK  status: ('A' for Active; 'I' for Inactive)
REMARK    1  A    between atoms: C6_6  and  C10_10 
REMARK    2  A    between atoms: C7_7  and  C11_11 
ROOT
HETATM    1  C1  UNL     1     -39.452  11.795   4.491  1.00 20.00     0.059 C 
HETATM    2  C10 UNL     1     -39.922  11.878   5.867  1.00 20.00     0.128 C 
HETATM    3  N12 UNL     1     -39.074  11.697   3.398  1.00 20.00    -0.197 NA
ENDROOT
BRANCH   2   4
HETATM    4  C6  UNL     1     -40.276  13.352   6.054  1.00 20.00    -0.002 C 
HETATM    5  C2  UNL     1     -41.682  13.644   5.515  1.00 20.00     0.006 C 
HETATM    6  C4  UNL     1     -42.080  15.102   5.736  1.00 20.00     0.005 C 
HETATM    7  C7  UNL     1     -41.968  15.503   7.214  1.00 20.00    -0.011 C 
HETATM    8  C5  UNL     1     -40.562  15.211   7.751  1.00 20.00     0.005 C 
HETATM    9  C3  UNL     1     -40.164  13.753   7.530  1.00 20.00     0.006 C 
BRANCH   7  10
HETATM   10  C11 UNL     1     -42.323  16.976   7.401  1.00 20.00    -0.019 C 
HETATM   11  C8  UNL     1     -41.071  17.796   7.703  1.00 20.00     0.010 C 
HETATM   12  C9  UNL     1     -43.035  17.518   6.165  1.00 20.00     0.010 C 
ENDBRANCH   7  10
ENDBRANCH   2   4
TORSDOF 2
ENDMDL
MODEL 9
REMARK VINA RESULT:      -3.8      1.465      1.667
REMARK  2 active torsions:
REMARK  status: ('A' for Active; 'I' for Inactive)
REMARK    1  A    between atoms: C6_6  and  C10_10 
REMARK    2  A    between atoms: C7_7  and  C11_11 
ROOT
HETATM    1  C1  UNL     1     -33.525  18.740  -0.174  1.00 20.00     0.059 C 
HETATM    2  C10 UNL     1     -32.222  18.566  -0.802  1.00 20.00     0.128 C 
HETATM    3  N12 UNL     1     -34.549  18.892   0.352  1.00 20.00    -0.197 NA
ENDROOT
BRANCH   2   4
HETATM    4  C6  UNL     1     -32.542  17.970  -2.172  1.00 20.00    -0.002 C 
HETATM    5  C2  UNL     1     -33.293  16.641  -2.023  1.00 20.00     0.006 C 
HETATM    6  C4  UNL     1     -33.669  16.050  -3.380  1.00 20.00     0.005 C 
HETATM    7  C7  UNL     1     -34.479  17.041  -4.225  1.00 20.00    -0.011 C 
HETATM    8  C5  UNL     1     -33.728  18.370  -4.374  1.00 20.00     0.005 C 
HETATM    9  C3  UNL     1     -33.352  18.961  -3.017  1.00 20.00     0.006 C 
BRANCH   7  10
HETATM   10  C11 UNL     1     -34.800  16.446  -5.594  1.00 20.00    -0.019 C 
HETATM   11  C8  UNL     1     -34.041  15.138  -5.802  1.00 20.00     0.010 C 
HETATM   12  C9  UNL     1     -36.303  16.224  -5.744  1.00 20.00     0.010 C 
ENDBRANCH   7  10
ENDBRANCH   2   4
TORSDOF 2
ENDMDL
