MODEL 1
REMARK VINA RESULT:      -6.0      0.000      0.000
REMARK  0 active torsions:
REMARK  status: ('A' for Active; 'I' for Inactive)
ROOT
HETATM    1  C1  UNL     1     -33.072   6.126   3.301  1.00 20.00     0.222 C 
HETATM    2  C2  UNL     1     -34.589   5.582   6.433  1.00 20.00     0.001 C 
HETATM    3  C3  UNL     1     -34.627   5.052   5.002  1.00 20.00     0.014 C 
HETATM    4  C4  UNL     1     -33.664   6.786   6.361  1.00 20.00     0.007 C 
HETATM    5  C5  UNL     1     -32.967   8.234   4.368  1.00 20.00     0.128 C 
HETATM    6  C6  UNL     1     -34.352   6.259   4.106  1.00 20.00     0.083 C 
HETATM    7  C7  UNL     1     -34.068   7.443   5.044  1.00 20.00     0.016 C 
HETATM    8  N8  UNL     1     -32.328   7.282   3.502  1.00 20.00    -0.360 N 
HETATM    9  O9  UNL     1     -32.776   5.177   2.592  1.00 20.00    -0.273 OA
HETATM   10  H20 UNL     1     -31.420   7.439   3.076  1.00 20.00     0.162 HD
ENDROOT
TORSDOF 0
ENDMDL
MODEL 2
REMARK VINA RESULT:      -4.9      1.258      1.494
REMARK  0 active torsions:
REMARK  status: ('A' for Active; 'I' for Inactive)
ROOT
HETATM    1  C1  UNL     1     -33.785   5.016   3.906  1.00 20.00     0.222 C 
HETATM    2  C2  UNL     1     -34.156   7.147   6.685  1.00 20.00     0.001 C 
HETATM    3  C3  UNL     1     -34.810   5.924   6.047  1.00 20.00     0.014 C 
HETATM    4  C4  UNL     1     -33.095   7.569   5.681  1.00 20.00     0.007 C 
HETATM    5  C5  UNL     1     -32.881   7.076   3.178  1.00 20.00     0.128 C 
HETATM    6  C6  UNL     1     -34.636   6.101   4.540  1.00 20.00     0.083 C 
HETATM    7  C7  UNL     1     -33.803   7.377   4.343  1.00 20.00     0.016 C 
HETATM    8  N8  UNL     1     -32.801   5.642   3.150  1.00 20.00    -0.360 N 
HETATM    9  O9  UNL     1     -33.960   3.814   4.029  1.00 20.00    -0.273 OA
HETATM   10  H20 UNL     1     -32.095   5.134   2.628  1.00 20.00     0.162 HD
ENDROOT
TORSDOF 0
ENDMDL
MODEL 3
REMARK VINA RESULT:      -4.8      1.967      3.065
REMARK  0 active torsions:
REMARK  status: ('A' for Active; 'I' for Inactive)
ROOT
HETATM    1  C1  UNL     1     -33.244   7.529   5.326  1.00 20.00     0.222 C 
HETATM    2  C2  UNL     1     -33.164   5.020   2.856  1.00 20.00     0.001 C 
HETATM    3  C3  UNL     1     -32.926   6.519   3.015  1.00 20.00     0.014 C 
HETATM    4  C4  UNL     1     -33.705   4.582   4.207  1.00 20.00     0.007 C 
HETATM    5  C5  UNL     1     -34.824   5.935   6.070  1.00 20.00     0.128 C 
HETATM    6  C6  UNL     1     -33.918   6.985   4.080  1.00 20.00     0.083 C 
HETATM    7  C7  UNL     1     -34.644   5.727   4.580  1.00 20.00     0.016 C 
HETATM    8  N8  UNL     1     -33.803   6.883   6.422  1.00 20.00    -0.360 N 
HETATM    9  O9  UNL     1     -32.383   8.395   5.347  1.00 20.00    -0.273 OA
HETATM   10  H20 UNL     1     -33.517   7.064   7.379  1.00 20.00     0.162 HD
ENDROOT
TORSDOF 0
ENDMDL
MODEL 4
REMARK VINA RESULT:      -4.5      2.227      3.513
REMARK  0 active torsions:
REMARK  status: ('A' for Active; 'I' for Inactive)
ROOT
HETATM    1  C1  UNL     1     -34.274   6.593   6.030  1.00 20.00     0.222 C 
HETATM    2  C2  UNL     1     -32.358   7.432   3.196  1.00 20.00     0.001 C 
HETATM    3  C3  UNL     1     -33.152   8.099   4.316  1.00 20.00     0.014 C 
HETATM    4  C4  UNL     1     -32.626   5.947   3.381  1.00 20.00     0.007 C 
HETATM    5  C5  UNL     1     -34.533   4.738   4.587  1.00 20.00     0.128 C 
HETATM    6  C6  UNL     1     -34.313   7.153   4.620  1.00 20.00     0.083 C 
HETATM    7  C7  UNL     1     -34.111   5.915   3.732  1.00 20.00     0.016 C 
HETATM    8  N8  UNL     1     -34.397   5.212   5.937  1.00 20.00    -0.360 N 
HETATM    9  O9  UNL     1     -34.175   7.253   7.052  1.00 20.00    -0.273 OA
HETATM   10  H20 UNL     1     -34.393   4.599   6.745  1.00 20.00     0.162 HD
ENDROOT
TORSDOF 0
ENDMDL
MODEL 5
REMARK VINA RESULT:      -4.0     16.268     17.482
REMARK  0 active torsions:
REMARK  status: ('A' for Active; 'I' for Inactive)
ROOT
HETATM    1  C1  UNL     1     -22.188  18.342  11.548  1.00 20.00     0.222 C 
HETATM    2  C2  UNL     1     -21.516  18.298   8.092  1.00 20.00     0.001 C 
HETATM    3  C3  UNL     1     -21.293  19.176   9.320  1.00 20.00     0.014 C 
HETATM    4  C4  UNL     1     -22.407  17.173   8.593  1.00 20.00     0.007 C 
HETATM    5  C5  UNL     1     -23.948  17.055  10.634  1.00 20.00     0.128 C 
HETATM    6  C6  UNL     1     -22.520  18.968  10.206  1.00 20.00     0.083 C 
HETATM    7  C7  UNL     1     -23.383  17.903   9.513  1.00 20.00     0.016 C 
HETATM    8  N8  UNL     1     -23.034  17.254  11.725  1.00 20.00    -0.360 N 
HETATM    9  O9  UNL     1     -21.343  18.748  12.331  1.00 20.00    -0.273 OA
HETATM   10  H20 UNL     1     -23.009  16.659  12.546  1.00 20.00     0.162 HD
ENDROOT
TORSDOF 0
ENDMDL
MODEL 6
REMARK VINA RESULT:      -4.0     16.026     16.916
REMARK  0 active torsions:
REMARK  status: ('A' for Active; 'I' for Inactive)
ROOT
HETATM    1  C1  UNL     1     -24.579  18.601   9.830  1.00 20.00     0.222 C 
HETATM    2  C2  UNL     1     -21.421  18.513  11.386  1.00 20.00     0.001 C 
HETATM    3  C3  UNL     1     -22.046  18.470   9.994  1.00 20.00     0.014 C 
HETATM    4  C4  UNL     1     -22.610  18.470  12.331  1.00 20.00     0.007 C 
HETATM    5  C5  UNL     1     -25.007  17.653  11.954  1.00 20.00     0.128 C 
HETATM    6  C6  UNL     1     -23.376  17.737  10.161  1.00 20.00     0.083 C 
HETATM    7  C7  UNL     1     -23.534  17.455  11.663  1.00 20.00     0.016 C 
HETATM    8  N8  UNL     1     -25.465  18.513  10.897  1.00 20.00    -0.360 N 
HETATM    9  O9  UNL     1     -24.736  19.235   8.798  1.00 20.00    -0.273 OA
HETATM   10  H20 UNL     1     -26.351  19.007  10.926  1.00 20.00     0.162 HD
ENDROOT
TORSDOF 0
ENDMDL
MODEL 7
REMARK VINA RESULT:      -4.0      1.761      2.465
REMARK  0 active torsions:
REMARK  status: ('A' for Active; 'I' for Inactive)
ROOT
HETATM    1  C1  UNL     1     -32.659   8.138   4.536  1.00 20.00     0.222 C 
HETATM    2  C2  UNL     1     -35.092   5.927   5.798  1.00 20.00     0.001 C 
HETATM    3  C3  UNL     1     -34.049   6.929   6.287  1.00 20.00     0.014 C 
HETATM    4  C4  UNL     1     -34.859   5.846   4.298  1.00 20.00     0.007 C 
HETATM    5  C5  UNL     1     -32.796   6.435   2.901  1.00 20.00     0.128 C 
HETATM    6  C6  UNL     1     -32.894   6.843   5.290  1.00 20.00     0.083 C 
HETATM    7  C7  UNL     1     -33.336   5.860   4.195  1.00 20.00     0.016 C 
HETATM    8  N8  UNL     1     -32.621   7.834   3.181  1.00 20.00    -0.360 N 
HETATM    9  O9  UNL     1     -32.509   9.238   5.044  1.00 20.00    -0.273 OA
HETATM   10  H20 UNL     1     -32.481   8.533   2.458  1.00 20.00     0.162 HD
ENDROOT
TORSDOF 0
ENDMDL
MODEL 8
REMARK VINA RESULT:      -4.0      1.537      2.675
REMARK  0 active torsions:
REMARK  status: ('A' for Active; 'I' for Inactive)
ROOT
HETATM    1  C1  UNL     1     -34.063   5.569   4.117  1.00 20.00     0.222 C 
HETATM    2  C2  UNL     1     -32.925   8.840   4.756  1.00 20.00     0.001 C 
HETATM    3  C3  UNL     1     -32.558   7.610   3.931  1.00 20.00     0.014 C 
HETATM    4  C4  UNL     1     -34.088   8.379   5.618  1.00 20.00     0.007 C 
HETATM    5  C5  UNL     1     -34.814   6.024   6.313  1.00 20.00     0.128 C 
HETATM    6  C6  UNL     1     -32.980   6.407   4.773  1.00 20.00     0.083 C 
HETATM    7  C7  UNL     1     -33.666   6.970   6.027  1.00 20.00     0.016 C 
HETATM    8  N8  UNL     1     -35.080   5.396   5.048  1.00 20.00    -0.360 N 
HETATM    9  O9  UNL     1     -34.022   5.117   2.984  1.00 20.00    -0.273 OA
HETATM   10  H20 UNL     1     -35.928   4.874   4.852  1.00 20.00     0.162 HD
ENDROOT
TORSDOF 0
ENDMDL
MODEL 9
REMARK VINA RESULT:      -3.9     15.432     16.236
REMARK  0 active torsions:
REMARK  status: ('A' for Active; 'I' for Inactive)
ROOT
HETATM    1  C1  UNL     1     -24.878  16.816  11.854  1.00 20.00     0.222 C 
HETATM    2  C2  UNL     1     -23.767  19.123   9.436  1.00 20.00     0.001 C 
HETATM    3  C3  UNL     1     -23.224  18.030  10.352  1.00 20.00     0.014 C 
HETATM    4  C4  UNL     1     -25.225  19.263   9.843  1.00 20.00     0.007 C 
HETATM    5  C5  UNL     1     -26.418  18.603  12.010  1.00 20.00     0.128 C 
HETATM    6  C6  UNL     1     -24.081  18.086  11.615  1.00 20.00     0.083 C 
HETATM    7  C7  UNL     1     -25.161  19.149  11.364  1.00 20.00     0.016 C 
HETATM    8  N8  UNL     1     -26.201  17.184  12.064  1.00 20.00    -0.360 N 
HETATM    9  O9  UNL     1     -24.419  15.685  11.876  1.00 20.00    -0.273 OA
HETATM   10  H20 UNL     1     -26.942  16.514  12.241  1.00 20.00     0.162 HD
ENDROOT
TORSDOF 0
ENDMDL
