MODEL 1
REMARK VINA RESULT:      -5.7      0.000      0.000
REMARK  1 active torsions:
REMARK  status: ('A' for Active; 'I' for Inactive)
REMARK    1  A    between atoms: C3_3  and  C4_4 
ROOT
HETATM    1  C1  UNL     1     -33.503   7.931   5.356  1.00 20.00     0.065 A 
HETATM    2  C2  UNL     1     -32.473   8.506   4.661  1.00 20.00     0.172 A 
HETATM    3  C3  UNL     1     -33.767   6.749   4.644  1.00 20.00     0.169 A 
HETATM    4  N5  UNL     1     -32.963   6.601   3.588  1.00 20.00    -0.124 NA
HETATM    5  O6  UNL     1     -32.142   7.722   3.603  1.00 20.00    -0.225 OA
ENDROOT
BRANCH   3   6
HETATM    6  C4  UNL     1     -34.784   5.726   4.940  1.00 20.00     0.436 C 
HETATM    7  F7  UNL     1     -34.438   4.454   4.550  1.00 20.00    -0.164 F 
HETATM    8  F8  UNL     1     -35.088   5.598   6.274  1.00 20.00    -0.164 F 
HETATM    9  F9  UNL     1     -35.989   5.961   4.328  1.00 20.00    -0.164 F 
ENDBRANCH   3   6
TORSDOF 1
ENDMDL
MODEL 2
REMARK VINA RESULT:      -5.4      1.145      1.261
REMARK  1 active torsions:
REMARK  status: ('A' for Active; 'I' for Inactive)
REMARK    1  A    between atoms: C3_3  and  C4_4 
ROOT
HETATM    1  C1  UNL     1     -32.920   6.909   3.625  1.00 20.00     0.065 A 
HETATM    2  C2  UNL     1     -32.234   8.061   3.908  1.00 20.00     0.172 A 
HETATM    3  C3  UNL     1     -33.799   6.768   4.712  1.00 20.00     0.169 A 
HETATM    4  N5  UNL     1     -33.668   7.756   5.602  1.00 20.00    -0.124 NA
HETATM    5  O6  UNL     1     -32.671   8.575   5.086  1.00 20.00    -0.225 OA
ENDROOT
BRANCH   3   6
HETATM    6  C4  UNL     1     -34.785   5.700   4.943  1.00 20.00     0.436 C 
HETATM    7  F7  UNL     1     -34.396   4.462   4.490  1.00 20.00    -0.164 F 
HETATM    8  F8  UNL     1     -35.097   5.492   6.265  1.00 20.00    -0.164 F 
HETATM    9  F9  UNL     1     -35.992   5.931   4.332  1.00 20.00    -0.164 F 
ENDBRANCH   3   6
TORSDOF 1
ENDMDL
MODEL 3
REMARK VINA RESULT:      -5.2      2.934      3.494
REMARK  1 active torsions:
REMARK  status: ('A' for Active; 'I' for Inactive)
REMARK    1  A    between atoms: C3_3  and  C4_4 
ROOT
HETATM    1  C1  UNL     1     -33.945   6.958   6.217  1.00 20.00     0.065 A 
HETATM    2  C2  UNL     1     -34.708   5.821   6.231  1.00 20.00     0.172 A 
HETATM    3  C3  UNL     1     -33.492   7.040   4.890  1.00 20.00     0.169 A 
HETATM    4  N5  UNL     1     -33.939   6.030   4.138  1.00 20.00    -0.124 NA
HETATM    5  O6  UNL     1     -34.712   5.258   4.996  1.00 20.00    -0.225 OA
ENDROOT
BRANCH   3   6
HETATM    6  C4  UNL     1     -32.627   8.071   4.293  1.00 20.00     0.436 C 
HETATM    7  F7  UNL     1     -31.508   7.578   3.666  1.00 20.00    -0.164 F 
HETATM    8  F8  UNL     1     -33.240   8.840   3.333  1.00 20.00    -0.164 F 
HETATM    9  F9  UNL     1     -32.144   8.974   5.207  1.00 20.00    -0.164 F 
ENDBRANCH   3   6
TORSDOF 1
ENDMDL
MODEL 4
REMARK VINA RESULT:      -5.1      3.065      3.706
REMARK  1 active torsions:
REMARK  status: ('A' for Active; 'I' for Inactive)
REMARK    1  A    between atoms: C3_3  and  C4_4 
ROOT
HETATM    1  C1  UNL     1     -34.199   6.053   4.328  1.00 20.00     0.065 A 
HETATM    2  C2  UNL     1     -34.870   5.451   5.360  1.00 20.00     0.172 A 
HETATM    3  C3  UNL     1     -33.522   7.117   4.947  1.00 20.00     0.169 A 
HETATM    4  N5  UNL     1     -33.756   7.174   6.260  1.00 20.00    -0.124 NA
HETATM    5  O6  UNL     1     -34.615   6.112   6.518  1.00 20.00    -0.225 OA
ENDROOT
BRANCH   3   6
HETATM    6  C4  UNL     1     -32.636   8.110   4.317  1.00 20.00     0.436 C 
HETATM    7  F7  UNL     1     -31.516   7.577   3.725  1.00 20.00    -0.164 F 
HETATM    8  F8  UNL     1     -33.228   8.845   3.317  1.00 20.00    -0.164 F 
HETATM    9  F9  UNL     1     -32.152   9.046   5.197  1.00 20.00    -0.164 F 
ENDBRANCH   3   6
TORSDOF 1
ENDMDL
MODEL 5
REMARK VINA RESULT:      -5.0      1.336      2.009
REMARK  1 active torsions:
REMARK  status: ('A' for Active; 'I' for Inactive)
REMARK    1  A    between atoms: C3_3  and  C4_4 
ROOT
HETATM    1  C1  UNL     1     -33.194   6.469   3.487  1.00 20.00     0.065 A 
HETATM    2  C2  UNL     1     -32.287   7.426   3.115  1.00 20.00     0.172 A 
HETATM    3  C3  UNL     1     -33.567   6.850   4.787  1.00 20.00     0.169 A 
HETATM    4  N5  UNL     1     -32.940   7.957   5.191  1.00 20.00    -0.124 NA
HETATM    5  O6  UNL     1     -32.127   8.320   4.125  1.00 20.00    -0.225 OA
ENDROOT
BRANCH   3   6
HETATM    6  C4  UNL     1     -34.524   6.180   5.683  1.00 20.00     0.436 C 
HETATM    7  F7  UNL     1     -34.833   6.893   6.817  1.00 20.00    -0.164 F 
HETATM    8  F8  UNL     1     -35.744   5.912   5.111  1.00 20.00    -0.164 F 
HETATM    9  F9  UNL     1     -34.082   4.966   6.145  1.00 20.00    -0.164 F 
ENDBRANCH   3   6
TORSDOF 1
ENDMDL
MODEL 6
REMARK VINA RESULT:      -4.3      8.244      8.763
REMARK  1 active torsions:
REMARK  status: ('A' for Active; 'I' for Inactive)
REMARK    1  A    between atoms: C3_3  and  C4_4 
ROOT
HETATM    1  C1  UNL     1     -41.038  13.284   5.214  1.00 20.00     0.065 A 
HETATM    2  C2  UNL     1     -41.435  13.589   6.489  1.00 20.00     0.172 A 
HETATM    3  C3  UNL     1     -39.970  12.391   5.402  1.00 20.00     0.169 A 
HETATM    4  N5  UNL     1     -39.722  12.161   6.694  1.00 20.00    -0.124 NA
HETATM    5  O6  UNL     1     -40.656  12.925   7.381  1.00 20.00    -0.225 OA
ENDROOT
BRANCH   3   6
HETATM    6  C4  UNL     1     -39.154  11.730   4.370  1.00 20.00     0.436 C 
HETATM    7  F7  UNL     1     -39.446  10.401   4.180  1.00 20.00    -0.164 F 
HETATM    8  F8  UNL     1     -39.269  12.283   3.117  1.00 20.00    -0.164 F 
HETATM    9  F9  UNL     1     -37.808  11.755   4.639  1.00 20.00    -0.164 F 
ENDBRANCH   3   6
TORSDOF 1
ENDMDL
MODEL 7
REMARK VINA RESULT:      -4.3      2.873      3.220
REMARK  1 active torsions:
REMARK  status: ('A' for Active; 'I' for Inactive)
REMARK    1  A    between atoms: C3_3  and  C4_4 
ROOT
HETATM    1  C1  UNL     1     -33.836   6.829   5.072  1.00 20.00     0.065 A 
HETATM    2  C2  UNL     1     -34.541   6.365   6.151  1.00 20.00     0.172 A 
HETATM    3  C3  UNL     1     -33.778   5.722   4.209  1.00 20.00     0.169 A 
HETATM    4  N5  UNL     1     -34.399   4.652   4.714  1.00 20.00    -0.124 NA
HETATM    5  O6  UNL     1     -34.882   5.067   5.949  1.00 20.00    -0.225 OA
ENDROOT
BRANCH   3   6
HETATM    6  C4  UNL     1     -33.137   5.642   2.886  1.00 20.00     0.436 C 
HETATM    7  F7  UNL     1     -32.268   4.587   2.741  1.00 20.00    -0.164 F 
HETATM    8  F8  UNL     1     -34.015   5.502   1.839  1.00 20.00    -0.164 F 
HETATM    9  F9  UNL     1     -32.393   6.751   2.572  1.00 20.00    -0.164 F 
ENDBRANCH   3   6
TORSDOF 1
ENDMDL
MODEL 8
REMARK VINA RESULT:      -4.2      3.101      3.641
REMARK  1 active torsions:
REMARK  status: ('A' for Active; 'I' for Inactive)
REMARK    1  A    between atoms: C3_3  and  C4_4 
ROOT
HETATM    1  C1  UNL     1     -32.586   6.241   2.800  1.00 20.00     0.065 A 
HETATM    2  C2  UNL     1     -33.258   5.052   2.896  1.00 20.00     0.172 A 
HETATM    3  C3  UNL     1     -33.081   6.992   3.880  1.00 20.00     0.169 A 
HETATM    4  N5  UNL     1     -33.992   6.321   4.590  1.00 20.00    -0.124 NA
HETATM    5  O6  UNL     1     -34.100   5.088   3.960  1.00 20.00    -0.225 OA
ENDROOT
BRANCH   3   6
HETATM    6  C4  UNL     1     -32.711   8.362   4.271  1.00 20.00     0.436 C 
HETATM    7  F7  UNL     1     -33.507   8.908   5.249  1.00 20.00    -0.164 F 
HETATM    8  F8  UNL     1     -31.435   8.484   4.768  1.00 20.00    -0.164 F 
HETATM    9  F9  UNL     1     -32.768   9.260   3.235  1.00 20.00    -0.164 F 
ENDBRANCH   3   6
TORSDOF 1
ENDMDL
MODEL 9
REMARK VINA RESULT:      -4.0      1.869      2.463
REMARK  1 active torsions:
REMARK  status: ('A' for Active; 'I' for Inactive)
REMARK    1  A    between atoms: C3_3  and  C4_4 
ROOT
HETATM    1  C1  UNL     1     -32.162   7.679   3.530  1.00 20.00     0.065 A 
HETATM    2  C2  UNL     1     -32.415   8.663   4.449  1.00 20.00     0.172 A 
HETATM    3  C3  UNL     1     -33.095   6.677   3.849  1.00 20.00     0.169 A 
HETATM    4  N5  UNL     1     -33.867   7.014   4.886  1.00 20.00    -0.124 NA
HETATM    5  O6  UNL     1     -33.430   8.277   5.264  1.00 20.00    -0.225 OA
ENDROOT
BRANCH   3   6
HETATM    6  C4  UNL     1     -33.285   5.377   3.186  1.00 20.00     0.436 C 
HETATM    7  F7  UNL     1     -33.986   5.440   2.005  1.00 20.00    -0.164 F 
HETATM    8  F8  UNL     1     -32.117   4.736   2.850  1.00 20.00    -0.164 F 
HETATM    9  F9  UNL     1     -33.973   4.469   3.951  1.00 20.00    -0.164 F 
ENDBRANCH   3   6
TORSDOF 1
ENDMDL
