MODEL 1
REMARK VINA RESULT:      -3.9      0.000      0.000
REMARK  1 active torsions:
REMARK  status: ('A' for Active; 'I' for Inactive)
REMARK    1  A    between atoms: C4_4  and  C7_7 
ROOT
HETATM    1  C1  UNL     1     -33.929  14.484  -4.435  1.00 20.00     0.035 A 
HETATM    2  C2  UNL     1     -33.316  15.507  -3.833  1.00 20.00    -0.008 A 
HETATM    3  C3  UNL     1     -34.984  14.932  -5.352  1.00 20.00     0.085 A 
HETATM    4  C4  UNL     1     -33.761  16.897  -4.160  1.00 20.00     0.080 A 
HETATM    5  N8  UNL     1     -35.743  14.181  -6.066  1.00 20.00    -0.293 NA
HETATM    6  S9  UNL     1     -35.106  16.677  -5.377  1.00 20.00    -0.102 SA
HETATM    7  H20 UNL     1     -35.503  13.196  -5.903  1.00 20.00     0.187 HD
ENDROOT
BRANCH   4   8
HETATM    8  C7  UNL     1     -34.268  17.646  -2.937  1.00 20.00    -0.005 C 
HETATM    9  C5  UNL     1     -33.556  17.167  -1.672  1.00 20.00     0.011 C 
HETATM   10  C6  UNL     1     -34.087  19.155  -3.111  1.00 20.00     0.011 C 
ENDBRANCH   4   8
TORSDOF 1
ENDMDL
MODEL 2
REMARK VINA RESULT:      -3.8     16.854     18.168
REMARK  1 active torsions:
REMARK  status: ('A' for Active; 'I' for Inactive)
REMARK    1  A    between atoms: C4_4  and  C7_7 
ROOT
HETATM    1  C1  UNL     1     -24.945  17.797  11.071  1.00 20.00     0.035 A 
HETATM    2  C2  UNL     1     -24.735  18.853  10.281  1.00 20.00    -0.008 A 
HETATM    3  C3  UNL     1     -23.689  17.197  11.540  1.00 20.00     0.085 A 
HETATM    4  C4  UNL     1     -23.325  19.263   9.997  1.00 20.00     0.080 A 
HETATM    5  N8  UNL     1     -23.573  16.174  12.308  1.00 20.00    -0.293 NA
HETATM    6  S9  UNL     1     -22.301  18.062  10.919  1.00 20.00    -0.102 SA
HETATM    7  H20 UNL     1     -24.506  15.823  12.555  1.00 20.00     0.187 HD
ENDROOT
BRANCH   4   8
HETATM    8  C7  UNL     1     -22.994  19.214   8.513  1.00 20.00    -0.005 C 
HETATM    9  C5  UNL     1     -22.183  17.961   8.179  1.00 20.00     0.011 C 
HETATM   10  C6  UNL     1     -24.269  19.263   7.671  1.00 20.00     0.011 C 
ENDBRANCH   4   8
TORSDOF 1
ENDMDL
MODEL 3
REMARK VINA RESULT:      -3.8     12.546     13.621
REMARK  1 active torsions:
REMARK  status: ('A' for Active; 'I' for Inactive)
REMARK    1  A    between atoms: C4_4  and  C7_7 
ROOT
HETATM    1  C1  UNL     1     -33.450   7.438   6.319  1.00 20.00     0.035 A 
HETATM    2  C2  UNL     1     -34.314   6.557   5.807  1.00 20.00    -0.008 A 
HETATM    3  C3  UNL     1     -32.797   8.243   5.280  1.00 20.00     0.085 A 
HETATM    4  C4  UNL     1     -34.492   6.513   4.322  1.00 20.00     0.080 A 
HETATM    5  N8  UNL     1     -31.921   9.164   5.467  1.00 20.00    -0.293 NA
HETATM    6  S9  UNL     1     -33.361   7.798   3.684  1.00 20.00    -0.102 SA
HETATM    7  H20 UNL     1     -31.737   9.263   6.471  1.00 20.00     0.187 HD
ENDROOT
BRANCH   4   8
HETATM    8  C7  UNL     1     -34.137   5.155   3.736  1.00 20.00    -0.005 C 
HETATM    9  C5  UNL     1     -32.954   5.271   2.774  1.00 20.00     0.011 C 
HETATM   10  C6  UNL     1     -33.825   4.150   4.845  1.00 20.00     0.011 C 
ENDBRANCH   4   8
TORSDOF 1
ENDMDL
MODEL 4
REMARK VINA RESULT:      -3.8     12.427     13.225
REMARK  1 active torsions:
REMARK  status: ('A' for Active; 'I' for Inactive)
REMARK    1  A    between atoms: C4_4  and  C7_7 
ROOT
HETATM    1  C1  UNL     1     -34.054   4.594   4.456  1.00 20.00     0.035 A 
HETATM    2  C2  UNL     1     -33.610   5.307   3.417  1.00 20.00    -0.008 A 
HETATM    3  C3  UNL     1     -34.518   5.448   5.556  1.00 20.00     0.085 A 
HETATM    4  C4  UNL     1     -33.647   6.799   3.507  1.00 20.00     0.080 A 
HETATM    5  N8  UNL     1     -34.995   5.051   6.681  1.00 20.00    -0.293 NA
HETATM    6  S9  UNL     1     -34.351   7.144   5.158  1.00 20.00    -0.102 SA
HETATM    7  H20 UNL     1     -35.007   4.025   6.705  1.00 20.00     0.187 HD
ENDROOT
BRANCH   4   8
HETATM    8  C7  UNL     1     -32.265   7.423   3.379  1.00 20.00    -0.005 C 
HETATM    9  C5  UNL     1     -32.033   7.941   1.959  1.00 20.00     0.011 C 
HETATM   10  C6  UNL     1     -32.083   8.552   4.394  1.00 20.00     0.011 C 
ENDBRANCH   4   8
TORSDOF 1
ENDMDL
MODEL 5
REMARK VINA RESULT:      -3.7     12.603     13.538
REMARK  1 active torsions:
REMARK  status: ('A' for Active; 'I' for Inactive)
REMARK    1  A    between atoms: C4_4  and  C7_7 
ROOT
HETATM    1  C1  UNL     1     -32.999   8.200   5.058  1.00 20.00     0.035 A 
HETATM    2  C2  UNL     1     -34.158   7.595   5.331  1.00 20.00    -0.008 A 
HETATM    3  C3  UNL     1     -32.359   7.657   3.853  1.00 20.00     0.085 A 
HETATM    4  C4  UNL     1     -34.624   6.504   4.420  1.00 20.00     0.080 A 
HETATM    5  N8  UNL     1     -31.241   8.035   3.347  1.00 20.00    -0.293 NA
HETATM    6  S9  UNL     1     -33.323   6.381   3.143  1.00 20.00    -0.102 SA
HETATM    7  H20 UNL     1     -30.845   8.792   3.916  1.00 20.00     0.187 HD
ENDROOT
BRANCH   4   8
HETATM    8  C7  UNL     1     -34.787   5.175   5.142  1.00 20.00    -0.005 C 
HETATM    9  C5  UNL     1     -33.874   4.110   4.532  1.00 20.00     0.011 C 
HETATM   10  C6  UNL     1     -34.499   5.330   6.636  1.00 20.00     0.011 C 
ENDBRANCH   4   8
TORSDOF 1
ENDMDL
MODEL 6
REMARK VINA RESULT:      -3.6      1.633      2.183
REMARK  1 active torsions:
REMARK  status: ('A' for Active; 'I' for Inactive)
REMARK    1  A    between atoms: C4_4  and  C7_7 
ROOT
HETATM    1  C1  UNL     1     -34.570  16.717  -5.964  1.00 20.00     0.035 A 
HETATM    2  C2  UNL     1     -34.760  17.203  -4.735  1.00 20.00    -0.008 A 
HETATM    3  C3  UNL     1     -33.816  15.458  -5.952  1.00 20.00     0.085 A 
HETATM    4  C4  UNL     1     -34.210  16.439  -3.573  1.00 20.00     0.080 A 
HETATM    5  N8  UNL     1     -33.480  14.760  -6.977  1.00 20.00    -0.293 NA
HETATM    6  S9  UNL     1     -33.402  14.980  -4.320  1.00 20.00    -0.102 SA
HETATM    7  H20 UNL     1     -33.823  15.217  -7.830  1.00 20.00     0.187 HD
ENDROOT
BRANCH   4   8
HETATM    8  C7  UNL     1     -33.203  17.250  -2.770  1.00 20.00    -0.005 C 
HETATM    9  C5  UNL     1     -33.036  18.649  -3.363  1.00 20.00     0.011 C 
HETATM   10  C6  UNL     1     -33.626  17.340  -1.303  1.00 20.00     0.011 C 
ENDBRANCH   4   8
TORSDOF 1
ENDMDL
MODEL 7
REMARK VINA RESULT:      -3.6      1.842      2.474
REMARK  1 active torsions:
REMARK  status: ('A' for Active; 'I' for Inactive)
REMARK    1  A    between atoms: C4_4  and  C7_7 
ROOT
HETATM    1  C1  UNL     1     -33.295  16.062  -3.426  1.00 20.00     0.035 A 
HETATM    2  C2  UNL     1     -33.732  17.295  -3.693  1.00 20.00    -0.008 A 
HETATM    3  C3  UNL     1     -33.588  15.122  -4.515  1.00 20.00     0.085 A 
HETATM    4  C4  UNL     1     -34.422  17.541  -4.997  1.00 20.00     0.080 A 
HETATM    5  N8  UNL     1     -33.292  13.872  -4.543  1.00 20.00    -0.293 NA
HETATM    6  S9  UNL     1     -34.419  15.916  -5.834  1.00 20.00    -0.102 SA
HETATM    7  H20 UNL     1     -32.809  13.614  -3.675  1.00 20.00     0.187 HD
ENDROOT
BRANCH   4   8
HETATM    8  C7  UNL     1     -35.848  18.040  -4.814  1.00 20.00    -0.005 C 
HETATM    9  C5  UNL     1     -36.856  16.951  -5.181  1.00 20.00     0.011 C 
HETATM   10  C6  UNL     1     -36.076  18.514  -3.377  1.00 20.00     0.011 C 
ENDBRANCH   4   8
TORSDOF 1
ENDMDL
MODEL 8
REMARK VINA RESULT:      -3.6     11.682     12.537
REMARK  1 active torsions:
REMARK  status: ('A' for Active; 'I' for Inactive)
REMARK    1  A    between atoms: C4_4  and  C7_7 
ROOT
HETATM    1  C1  UNL     1     -32.641   6.230   2.128  1.00 20.00     0.035 A 
HETATM    2  C2  UNL     1     -32.978   5.774   3.338  1.00 20.00    -0.008 A 
HETATM    3  C3  UNL     1     -32.366   7.672   2.136  1.00 20.00     0.085 A 
HETATM    4  C4  UNL     1     -33.025   6.742   4.477  1.00 20.00     0.080 A 
HETATM    5  N8  UNL     1     -32.023   8.388   1.126  1.00 20.00    -0.293 NA
HETATM    6  S9  UNL     1     -32.561   8.348   3.738  1.00 20.00    -0.102 SA
HETATM    7  H20 UNL     1     -31.965   7.796   0.289  1.00 20.00     0.187 HD
ENDROOT
BRANCH   4   8
HETATM    8  C7  UNL     1     -34.406   6.828   5.109  1.00 20.00    -0.005 C 
HETATM    9  C5  UNL     1     -35.291   5.674   4.639  1.00 20.00     0.011 C 
HETATM   10  C6  UNL     1     -34.305   6.834   6.635  1.00 20.00     0.011 C 
ENDBRANCH   4   8
TORSDOF 1
ENDMDL
MODEL 9
REMARK VINA RESULT:      -3.5      1.506      1.685
REMARK  1 active torsions:
REMARK  status: ('A' for Active; 'I' for Inactive)
REMARK    1  A    between atoms: C4_4  and  C7_7 
ROOT
HETATM    1  C1  UNL     1     -33.907  14.600  -3.950  1.00 20.00     0.035 A 
HETATM    2  C2  UNL     1     -33.554  15.844  -4.283  1.00 20.00    -0.008 A 
HETATM    3  C3  UNL     1     -35.173  14.197  -4.574  1.00 20.00     0.085 A 
HETATM    4  C4  UNL     1     -34.447  16.618  -5.201  1.00 20.00     0.080 A 
HETATM    5  N8  UNL     1     -35.763  13.064  -4.438  1.00 20.00    -0.293 NA
HETATM    6  S9  UNL     1     -35.827  15.478  -5.571  1.00 20.00    -0.102 SA
HETATM    7  H20 UNL     1     -35.212  12.462  -3.816  1.00 20.00     0.187 HD
ENDROOT
BRANCH   4   8
HETATM    8  C7  UNL     1     -34.971  17.894  -4.561  1.00 20.00    -0.005 C 
HETATM    9  C5  UNL     1     -33.973  18.438  -3.537  1.00 20.00     0.011 C 
HETATM   10  C6  UNL     1     -35.271  18.951  -5.625  1.00 20.00     0.011 C 
ENDBRANCH   4   8
TORSDOF 1
ENDMDL
