MODEL 1
REMARK VINA RESULT:      -5.0      0.000      0.000
REMARK  3 active torsions:
REMARK  status: ('A' for Active; 'I' for Inactive)
REMARK    1  A    between atoms: C2_2  and  C9_9 
REMARK    2  A    between atoms: C7_7  and  C9_9 
REMARK    3  A    between atoms: C8_8  and  O10_10 
ROOT
HETATM    1  C3  UNL     1     -33.332   7.734   5.900  1.00 20.00     0.003 C 
HETATM    2  C4  UNL     1     -32.949   8.176   4.489  1.00 20.00     0.005 C 
HETATM    3  C5  UNL     1     -34.464   6.715   5.881  1.00 20.00     0.032 C 
HETATM    4  C6  UNL     1     -33.750   5.960   3.577  1.00 20.00     0.036 C 
HETATM    5  C7  UNL     1     -32.604   6.979   3.591  1.00 20.00    -0.009 C 
HETATM    6  C8  UNL     1     -34.130   5.519   4.991  1.00 20.00     0.118 C 
ENDROOT
BRANCH   5   7
HETATM    7  C9  UNL     1     -32.277   7.444   2.174  1.00 20.00     0.031 C 
BRANCH   7   8
HETATM    8  C2  UNL     1     -32.610   8.891   1.988  1.00 20.00    -0.037 C 
HETATM    9  C1  UNL     1     -32.778   9.470   0.793  1.00 20.00     0.007 C 
ENDBRANCH   7   8
ENDBRANCH   5   7
BRANCH   6  10
HETATM   10  O10 UNL     1     -35.247   4.640   4.932  1.00 20.00    -0.396 OA
HETATM   11  H26 UNL     1     -36.022   5.158   5.202  1.00 20.00     0.210 HD
ENDBRANCH   6  10
TORSDOF 3
ENDMDL
MODEL 2
REMARK VINA RESULT:      -4.3      1.297      2.093
REMARK  3 active torsions:
REMARK  status: ('A' for Active; 'I' for Inactive)
REMARK    1  A    between atoms: C2_2  and  C9_9 
REMARK    2  A    between atoms: C7_7  and  C9_9 
REMARK    3  A    between atoms: C8_8  and  O10_10 
ROOT
HETATM    1  C3  UNL     1     -34.370   4.719   4.274  1.00 20.00     0.003 C 
HETATM    2  C4  UNL     1     -33.234   5.335   3.460  1.00 20.00     0.005 C 
HETATM    3  C5  UNL     1     -34.402   5.264   5.697  1.00 20.00     0.032 C 
HETATM    4  C6  UNL     1     -33.325   7.408   4.902  1.00 20.00     0.036 C 
HETATM    5  C7  UNL     1     -33.296   6.869   3.466  1.00 20.00    -0.009 C 
HETATM    6  C8  UNL     1     -34.464   6.790   5.713  1.00 20.00     0.118 C 
ENDROOT
BRANCH   5   7
HETATM    7  C9  UNL     1     -32.119   7.459   2.691  1.00 20.00     0.031 C 
BRANCH   7   8
HETATM    8  C2  UNL     1     -32.512   8.720   1.988  1.00 20.00    -0.037 C 
HETATM    9  C1  UNL     1     -32.510   8.863   0.658  1.00 20.00     0.007 C 
ENDBRANCH   7   8
ENDBRANCH   5   7
BRANCH   6  10
HETATM   10  O10 UNL     1     -34.402   7.256   7.056  1.00 20.00    -0.396 OA
HETATM   11  H26 UNL     1     -34.780   8.150   7.057  1.00 20.00     0.210 HD
ENDBRANCH   6  10
TORSDOF 3
ENDMDL
MODEL 3
REMARK VINA RESULT:      -4.3      1.088      2.066
REMARK  3 active torsions:
REMARK  status: ('A' for Active; 'I' for Inactive)
REMARK    1  A    between atoms: C2_2  and  C9_9 
REMARK    2  A    between atoms: C7_7  and  C9_9 
REMARK    3  A    between atoms: C8_8  and  O10_10 
ROOT
HETATM    1  C3  UNL     1     -33.406   4.926   2.914  1.00 20.00     0.003 C 
HETATM    2  C4  UNL     1     -32.560   6.192   3.021  1.00 20.00     0.005 C 
HETATM    3  C5  UNL     1     -33.972   4.512   4.267  1.00 20.00     0.032 C 
HETATM    4  C6  UNL     1     -33.903   6.919   5.034  1.00 20.00     0.036 C 
HETATM    5  C7  UNL     1     -33.339   7.344   3.672  1.00 20.00    -0.009 C 
HETATM    6  C8  UNL     1     -34.750   5.652   4.922  1.00 20.00     0.118 C 
ENDROOT
BRANCH   5   7
HETATM    7  C9  UNL     1     -32.454   8.581   3.816  1.00 20.00     0.031 C 
BRANCH   7   8
HETATM    8  C2  UNL     1     -32.818   9.627   2.810  1.00 20.00    -0.037 C 
HETATM    9  C1  UNL     1     -32.823   9.419   1.488  1.00 20.00     0.007 C 
ENDBRANCH   7   8
ENDBRANCH   5   7
BRANCH   6  10
HETATM   10  O10 UNL     1     -35.183   5.251   6.218  1.00 20.00    -0.396 OA
HETATM   11  H26 UNL     1     -35.087   4.286   6.256  1.00 20.00     0.210 HD
ENDBRANCH   6  10
TORSDOF 3
ENDMDL
MODEL 4
REMARK VINA RESULT:      -4.2     15.684     16.031
REMARK  3 active torsions:
REMARK  status: ('A' for Active; 'I' for Inactive)
REMARK    1  A    between atoms: C2_2  and  C9_9 
REMARK    2  A    between atoms: C7_7  and  C9_9 
REMARK    3  A    between atoms: C8_8  and  O10_10 
ROOT
HETATM    1  C3  UNL     1     -25.656  19.018  11.478  1.00 20.00     0.003 C 
HETATM    2  C4  UNL     1     -25.126  19.228  10.062  1.00 20.00     0.005 C 
HETATM    3  C5  UNL     1     -25.342  17.620  11.995  1.00 20.00     0.032 C 
HETATM    4  C6  UNL     1     -23.317  17.515  10.486  1.00 20.00     0.036 C 
HETATM    5  C7  UNL     1     -23.623  18.925   9.966  1.00 20.00    -0.009 C 
HETATM    6  C8  UNL     1     -23.849  17.310  11.904  1.00 20.00     0.118 C 
ENDROOT
BRANCH   5   7
HETATM    7  C9  UNL     1     -23.129  19.091   8.530  1.00 20.00     0.031 C 
BRANCH   7   8
HETATM    8  C2  UNL     1     -22.217  17.971   8.139  1.00 20.00    -0.037 C 
HETATM    9  C1  UNL     1     -21.304  18.060   7.164  1.00 20.00     0.007 C 
ENDBRANCH   7   8
ENDBRANCH   5   7
BRANCH   6  10
HETATM   10  O10 UNL     1     -23.614  15.967  12.312  1.00 20.00    -0.396 OA
HETATM   11  H26 UNL     1     -24.352  15.440  11.968  1.00 20.00     0.210 HD
ENDBRANCH   6  10
TORSDOF 3
ENDMDL
MODEL 5
REMARK VINA RESULT:      -4.2     11.319     12.564
REMARK  3 active torsions:
REMARK  status: ('A' for Active; 'I' for Inactive)
REMARK    1  A    between atoms: C2_2  and  C9_9 
REMARK    2  A    between atoms: C7_7  and  C9_9 
REMARK    3  A    between atoms: C8_8  and  O10_10 
ROOT
HETATM    1  C3  UNL     1     -34.996  16.463  -5.938  1.00 20.00     0.003 C 
HETATM    2  C4  UNL     1     -34.355  17.572  -5.106  1.00 20.00     0.005 C 
HETATM    3  C5  UNL     1     -34.144  15.200  -5.943  1.00 20.00     0.032 C 
HETATM    4  C6  UNL     1     -33.187  15.835  -3.690  1.00 20.00     0.036 C 
HETATM    5  C7  UNL     1     -34.047  17.105  -3.676  1.00 20.00    -0.009 C 
HETATM    6  C8  UNL     1     -33.833  14.727  -4.523  1.00 20.00     0.118 C 
ENDROOT
BRANCH   5   7
HETATM    7  C9  UNL     1     -33.359  18.214  -2.883  1.00 20.00     0.031 C 
BRANCH   7   8
HETATM    8  C2  UNL     1     -32.955  17.737  -1.523  1.00 20.00    -0.037 C 
HETATM    9  C1  UNL     1     -33.732  17.834  -0.438  1.00 20.00     0.007 C 
ENDBRANCH   7   8
ENDBRANCH   5   7
BRANCH   6  10
HETATM   10  O10 UNL     1     -32.965  13.601  -4.575  1.00 20.00    -0.396 OA
HETATM   11  H26 UNL     1     -32.062  13.942  -4.475  1.00 20.00     0.210 HD
ENDBRANCH   6  10
TORSDOF 3
ENDMDL
MODEL 6
REMARK VINA RESULT:      -3.9     15.432     16.644
REMARK  3 active torsions:
REMARK  status: ('A' for Active; 'I' for Inactive)
REMARK    1  A    between atoms: C2_2  and  C9_9 
REMARK    2  A    between atoms: C7_7  and  C9_9 
REMARK    3  A    between atoms: C8_8  and  O10_10 
ROOT
HETATM    1  C3  UNL     1     -21.307  18.343   9.035  1.00 20.00     0.003 C 
HETATM    2  C4  UNL     1     -21.980  17.955  10.350  1.00 20.00     0.005 C 
HETATM    3  C5  UNL     1     -22.301  18.364   7.880  1.00 20.00     0.032 C 
HETATM    4  C6  UNL     1     -24.175  18.872   9.498  1.00 20.00     0.036 C 
HETATM    5  C7  UNL     1     -23.180  18.859  10.665  1.00 20.00    -0.009 C 
HETATM    6  C8  UNL     1     -23.498  19.263   8.185  1.00 20.00     0.118 C 
ENDROOT
BRANCH   5   7
HETATM    7  C9  UNL     1     -23.866  18.416  11.956  1.00 20.00     0.031 C 
BRANCH   7   8
HETATM    8  C2  UNL     1     -24.823  17.294  11.702  1.00 20.00    -0.037 C 
HETATM    9  C1  UNL     1     -24.530  16.004  11.903  1.00 20.00     0.007 C 
ENDBRANCH   7   8
ENDBRANCH   5   7
BRANCH   6  10
HETATM   10  O10 UNL     1     -24.439  19.182   7.120  1.00 20.00    -0.396 OA
HETATM   11  H26 UNL     1     -24.038  18.620   6.438  1.00 20.00     0.210 HD
ENDBRANCH   6  10
TORSDOF 3
ENDMDL
MODEL 7
REMARK VINA RESULT:      -3.8     12.085     12.562
REMARK  3 active torsions:
REMARK  status: ('A' for Active; 'I' for Inactive)
REMARK    1  A    between atoms: C2_2  and  C9_9 
REMARK    2  A    between atoms: C7_7  and  C9_9 
REMARK    3  A    between atoms: C8_8  and  O10_10 
ROOT
HETATM    1  C3  UNL     1     -34.150  18.517   0.737  1.00 20.00     0.003 C 
HETATM    2  C4  UNL     1     -32.916  19.157   1.368  1.00 20.00     0.005 C 
HETATM    3  C5  UNL     1     -34.092  18.564  -0.786  1.00 20.00     0.032 C 
HETATM    4  C6  UNL     1     -31.566  18.584  -0.690  1.00 20.00     0.036 C 
HETATM    5  C7  UNL     1     -31.617  18.530   0.842  1.00 20.00    -0.009 C 
HETATM    6  C8  UNL     1     -32.803  17.941  -1.318  1.00 20.00     0.118 C 
ENDROOT
BRANCH   5   7
HETATM    7  C9  UNL     1     -30.398  19.223   1.448  1.00 20.00     0.031 C 
BRANCH   7   8
HETATM    8  C2  UNL     1     -30.111  18.710   2.824  1.00 20.00    -0.037 C 
HETATM    9  C1  UNL     1     -28.892  18.701   3.376  1.00 20.00     0.007 C 
ENDBRANCH   7   8
ENDBRANCH   5   7
BRANCH   6  10
HETATM   10  O10 UNL     1     -32.750  18.087  -2.732  1.00 20.00    -0.396 OA
HETATM   11  H26 UNL     1     -31.878  17.767  -3.013  1.00 20.00     0.210 HD
ENDBRANCH   6  10
TORSDOF 3
ENDMDL
MODEL 8
REMARK VINA RESULT:      -3.8      1.646      4.010
REMARK  3 active torsions:
REMARK  status: ('A' for Active; 'I' for Inactive)
REMARK    1  A    between atoms: C2_2  and  C9_9 
REMARK    2  A    between atoms: C7_7  and  C9_9 
REMARK    3  A    between atoms: C8_8  and  O10_10 
ROOT
HETATM    1  C3  UNL     1     -32.288   8.623   3.103  1.00 20.00     0.003 C 
HETATM    2  C4  UNL     1     -32.655   8.504   4.580  1.00 20.00     0.005 C 
HETATM    3  C5  UNL     1     -31.975   7.262   2.491  1.00 20.00     0.032 C 
HETATM    4  C6  UNL     1     -33.485   6.151   4.186  1.00 20.00     0.036 C 
HETATM    5  C7  UNL     1     -33.809   7.517   4.803  1.00 20.00    -0.009 C 
HETATM    6  C8  UNL     1     -33.119   6.273   2.707  1.00 20.00     0.118 C 
ENDROOT
BRANCH   5   7
HETATM    7  C9  UNL     1     -34.120   7.377   6.292  1.00 20.00     0.031 C 
BRANCH   7   8
HETATM    8  C2  UNL     1     -34.105   5.942   6.716  1.00 20.00    -0.037 C 
HETATM    9  C1  UNL     1     -34.995   5.033   6.301  1.00 20.00     0.007 C 
ENDBRANCH   7   8
ENDBRANCH   5   7
BRANCH   6  10
HETATM   10  O10 UNL     1     -32.749   4.997   2.199  1.00 20.00    -0.396 OA
HETATM   11  H26 UNL     1     -32.092   5.155   1.503  1.00 20.00     0.210 HD
ENDBRANCH   6  10
TORSDOF 3
ENDMDL
MODEL 9
REMARK VINA RESULT:      -3.7     10.114     10.897
REMARK  3 active torsions:
REMARK  status: ('A' for Active; 'I' for Inactive)
REMARK    1  A    between atoms: C2_2  and  C9_9 
REMARK    2  A    between atoms: C7_7  and  C9_9 
REMARK    3  A    between atoms: C8_8  and  O10_10 
ROOT
HETATM    1  C3  UNL     1     -42.273  15.591   5.961  1.00 20.00     0.003 C 
HETATM    2  C4  UNL     1     -42.095  14.090   5.748  1.00 20.00     0.005 C 
HETATM    3  C5  UNL     1     -41.932  16.000   7.389  1.00 20.00     0.032 C 
HETATM    4  C6  UNL     1     -40.352  14.035   7.576  1.00 20.00     0.036 C 
HETATM    5  C7  UNL     1     -40.686  13.622   6.137  1.00 20.00    -0.009 C 
HETATM    6  C8  UNL     1     -40.530  15.539   7.786  1.00 20.00     0.118 C 
ENDROOT
BRANCH   5   7
HETATM    7  C9  UNL     1     -40.552  12.110   5.965  1.00 20.00     0.031 C 
BRANCH   7   8
HETATM    8  C2  UNL     1     -39.231  11.749   5.361  1.00 20.00    -0.037 C 
HETATM    9  C1  UNL     1     -39.007  11.684   4.043  1.00 20.00     0.007 C 
ENDBRANCH   7   8
ENDBRANCH   5   7
BRANCH   6  10
HETATM   10  O10 UNL     1     -40.289  15.863   9.151  1.00 20.00    -0.396 OA
HETATM   11  H26 UNL     1     -40.534  15.080   9.669  1.00 20.00     0.210 HD
ENDBRANCH   6  10
TORSDOF 3
ENDMDL
