MODEL 1
REMARK VINA RESULT:      -4.6      0.000      0.000
REMARK  0 active torsions:
REMARK  status: ('A' for Active; 'I' for Inactive)
ROOT
HETATM    1  C1  UNL     1     -32.853   8.183   4.857  1.00 20.00     0.124 C 
HETATM    2  C2  UNL     1     -34.073   6.690   6.333  1.00 20.00     0.024 C 
HETATM    3  C3  UNL     1     -33.603   7.018   5.133  1.00 20.00     0.145 C 
HETATM    4  C4  UNL     1     -34.844   5.434   6.212  1.00 20.00     0.057 C 
HETATM    5  C5  UNL     1     -34.496   5.010   4.789  1.00 20.00     0.180 C 
HETATM    6  N6  UNL     1     -32.237   9.139   4.630  1.00 20.00    -0.189 NA
HETATM    7  O7  UNL     1     -33.924   6.142   4.103  1.00 20.00    -0.341 OA
ENDROOT
TORSDOF 0
ENDMDL
MODEL 2
REMARK VINA RESULT:      -4.3      1.049      1.473
REMARK  0 active torsions:
REMARK  status: ('A' for Active; 'I' for Inactive)
ROOT
HETATM    1  C1  UNL     1     -32.875   8.189   4.822  1.00 20.00     0.124 C 
HETATM    2  C2  UNL     1     -34.071   6.162   4.220  1.00 20.00     0.024 C 
HETATM    3  C3  UNL     1     -33.589   7.008   5.127  1.00 20.00     0.145 C 
HETATM    4  C4  UNL     1     -34.708   5.028   4.922  1.00 20.00     0.057 C 
HETATM    5  C5  UNL     1     -34.706   5.533   6.362  1.00 20.00     0.180 C 
HETATM    6  N6  UNL     1     -32.290   9.158   4.572  1.00 20.00    -0.189 NA
HETATM    7  O7  UNL     1     -33.795   6.646   6.453  1.00 20.00    -0.341 OA
ENDROOT
TORSDOF 0
ENDMDL
MODEL 3
REMARK VINA RESULT:      -4.2      2.265      3.318
REMARK  0 active torsions:
REMARK  status: ('A' for Active; 'I' for Inactive)
ROOT
HETATM    1  C1  UNL     1     -34.416   5.689   4.790  1.00 20.00     0.124 C 
HETATM    2  C2  UNL     1     -33.495   7.858   5.379  1.00 20.00     0.024 C 
HETATM    3  C3  UNL     1     -33.585   6.809   4.565  1.00 20.00     0.145 C 
HETATM    4  C4  UNL     1     -32.490   8.795   4.833  1.00 20.00     0.057 C 
HETATM    5  C5  UNL     1     -32.238   8.189   3.456  1.00 20.00     0.180 C 
HETATM    6  N6  UNL     1     -35.099   4.770   4.975  1.00 20.00    -0.189 NA
HETATM    7  O7  UNL     1     -32.761   6.845   3.447  1.00 20.00    -0.341 OA
ENDROOT
TORSDOF 0
ENDMDL
MODEL 4
REMARK VINA RESULT:      -4.0      1.525      1.934
REMARK  0 active torsions:
REMARK  status: ('A' for Active; 'I' for Inactive)
ROOT
HETATM    1  C1  UNL     1     -32.702   7.256   3.378  1.00 20.00     0.124 C 
HETATM    2  C2  UNL     1     -34.278   5.776   4.484  1.00 20.00     0.024 C 
HETATM    3  C3  UNL     1     -33.428   6.798   4.500  1.00 20.00     0.145 C 
HETATM    4  C4  UNL     1     -34.799   5.572   5.852  1.00 20.00     0.057 C 
HETATM    5  C5  UNL     1     -34.273   6.818   6.558  1.00 20.00     0.180 C 
HETATM    6  N6  UNL     1     -32.107   7.632   2.456  1.00 20.00    -0.189 NA
HETATM    7  O7  UNL     1     -33.244   7.406   5.737  1.00 20.00    -0.341 OA
ENDROOT
TORSDOF 0
ENDMDL
MODEL 5
REMARK VINA RESULT:      -3.8      2.366      3.615
REMARK  0 active torsions:
REMARK  status: ('A' for Active; 'I' for Inactive)
ROOT
HETATM    1  C1  UNL     1     -34.371   5.714   4.773  1.00 20.00     0.124 C 
HETATM    2  C2  UNL     1     -32.799   7.036   3.477  1.00 20.00     0.024 C 
HETATM    3  C3  UNL     1     -33.581   6.862   4.539  1.00 20.00     0.145 C 
HETATM    4  C4  UNL     1     -32.177   8.374   3.563  1.00 20.00     0.057 C 
HETATM    5  C5  UNL     1     -32.563   8.789   4.979  1.00 20.00     0.180 C 
HETATM    6  N6  UNL     1     -35.019   4.771   4.965  1.00 20.00    -0.189 NA
HETATM    7  O7  UNL     1     -33.620   7.922   5.436  1.00 20.00    -0.341 OA
ENDROOT
TORSDOF 0
ENDMDL
MODEL 6
REMARK VINA RESULT:      -3.6     15.772     16.315
REMARK  0 active torsions:
REMARK  status: ('A' for Active; 'I' for Inactive)
ROOT
HETATM    1  C1  UNL     1     -22.153  17.366   8.625  1.00 20.00     0.124 C 
HETATM    2  C2  UNL     1     -22.153  18.451  10.798  1.00 20.00     0.024 C 
HETATM    3  C3  UNL     1     -22.637  17.558   9.939  1.00 20.00     0.145 C 
HETATM    4  C4  UNL     1     -22.947  18.387  12.044  1.00 20.00     0.057 C 
HETATM    5  C5  UNL     1     -23.779  17.132  11.799  1.00 20.00     0.180 C 
HETATM    6  N6  UNL     1     -21.756  17.209   7.547  1.00 20.00    -0.189 NA
HETATM    7  O7  UNL     1     -23.713  16.808  10.396  1.00 20.00    -0.341 OA
ENDROOT
TORSDOF 0
ENDMDL
MODEL 7
REMARK VINA RESULT:      -3.5      2.518      3.249
REMARK  0 active torsions:
REMARK  status: ('A' for Active; 'I' for Inactive)
ROOT
HETATM    1  C1  UNL     1     -32.922   5.772   3.011  1.00 20.00     0.124 C 
HETATM    2  C2  UNL     1     -33.907   7.070   4.812  1.00 20.00     0.024 C 
HETATM    3  C3  UNL     1     -32.962   6.872   3.897  1.00 20.00     0.145 C 
HETATM    4  C4  UNL     1     -33.579   8.294   5.574  1.00 20.00     0.057 C 
HETATM    5  C5  UNL     1     -32.429   8.857   4.746  1.00 20.00     0.180 C 
HETATM    6  N6  UNL     1     -32.889   4.869   2.284  1.00 20.00    -0.189 NA
HETATM    7  O7  UNL     1     -31.945   7.819   3.870  1.00 20.00    -0.341 OA
ENDROOT
TORSDOF 0
ENDMDL
MODEL 8
REMARK VINA RESULT:      -3.4     13.212     13.872
REMARK  0 active torsions:
REMARK  status: ('A' for Active; 'I' for Inactive)
ROOT
HETATM    1  C1  UNL     1     -35.369  14.890  -6.224  1.00 20.00     0.124 C 
HETATM    2  C2  UNL     1     -33.929  14.919  -4.268  1.00 20.00     0.024 C 
HETATM    3  C3  UNL     1     -34.628  15.542  -5.213  1.00 20.00     0.145 C 
HETATM    4  C4  UNL     1     -33.255  15.934  -3.432  1.00 20.00     0.057 C 
HETATM    5  C5  UNL     1     -33.912  17.215  -3.935  1.00 20.00     0.180 C 
HETATM    6  N6  UNL     1     -35.978  14.355  -7.053  1.00 20.00    -0.189 NA
HETATM    7  O7  UNL     1     -34.568  16.930  -5.187  1.00 20.00    -0.341 OA
ENDROOT
TORSDOF 0
ENDMDL
MODEL 9
REMARK VINA RESULT:      -3.4     12.768     12.997
REMARK  0 active torsions:
REMARK  status: ('A' for Active; 'I' for Inactive)
ROOT
HETATM    1  C1  UNL     1     -30.220  18.663   2.090  1.00 20.00     0.124 C 
HETATM    2  C2  UNL     1     -32.460  18.608   1.153  1.00 20.00     0.024 C 
HETATM    3  C3  UNL     1     -31.137  18.636   1.016  1.00 20.00     0.145 C 
HETATM    4  C4  UNL     1     -33.075  18.636  -0.191  1.00 20.00     0.057 C 
HETATM    5  C5  UNL     1     -31.853  18.430  -1.080  1.00 20.00     0.180 C 
HETATM    6  N6  UNL     1     -29.468  18.685   2.972  1.00 20.00    -0.189 NA
HETATM    7  O7  UNL     1     -30.670  18.674  -0.293  1.00 20.00    -0.341 OA
ENDROOT
TORSDOF 0
ENDMDL
