MODEL 1
REMARK VINA RESULT:      -5.9      0.000      0.000
REMARK  0 active torsions:
REMARK  status: ('A' for Active; 'I' for Inactive)
ROOT
HETATM    1  C1  UNL     1     -32.533   8.573   4.914  1.00 20.00     0.047 A 
HETATM    2  C2  UNL     1     -32.030   8.338   3.618  1.00 20.00     0.141 A 
HETATM    3  C3  UNL     1     -33.330   7.484   5.181  1.00 20.00     0.032 A 
HETATM    4  C4  UNL     1     -34.168   7.109   6.352  1.00 20.00     0.059 C 
HETATM    5  C5  UNL     1     -34.515   5.618   6.345  1.00 20.00     0.008 C 
HETATM    6  C6  UNL     1     -34.983   5.170   4.958  1.00 20.00     0.022 C 
HETATM    7  C7  UNL     1     -33.894   5.404   3.911  1.00 20.00     0.151 C 
HETATM    8  N8  UNL     1     -32.468   7.190   3.093  1.00 20.00    -0.185 NA
HETATM    9  N9  UNL     1     -33.261   6.699   4.061  1.00 20.00    -0.274 N 
ENDROOT
TORSDOF 0
ENDMDL
MODEL 2
REMARK VINA RESULT:      -5.7      1.073      2.033
REMARK  0 active torsions:
REMARK  status: ('A' for Active; 'I' for Inactive)
ROOT
HETATM    1  C1  UNL     1     -32.437   7.512   3.237  1.00 20.00     0.047 A 
HETATM    2  C2  UNL     1     -32.166   8.659   4.011  1.00 20.00     0.141 A 
HETATM    3  C3  UNL     1     -33.223   6.724   4.047  1.00 20.00     0.032 A 
HETATM    4  C4  UNL     1     -33.838   5.382   3.860  1.00 20.00     0.059 C 
HETATM    5  C5  UNL     1     -34.962   5.129   4.868  1.00 20.00     0.008 C 
HETATM    6  C6  UNL     1     -34.530   5.528   6.282  1.00 20.00     0.022 C 
HETATM    7  C7  UNL     1     -34.167   7.011   6.345  1.00 20.00     0.151 C 
HETATM    8  N8  UNL     1     -32.732   8.614   5.220  1.00 20.00    -0.185 NA
HETATM    9  N9  UNL     1     -33.360   7.425   5.215  1.00 20.00    -0.274 N 
ENDROOT
TORSDOF 0
ENDMDL
MODEL 3
REMARK VINA RESULT:      -5.5      1.164      3.132
REMARK  0 active torsions:
REMARK  status: ('A' for Active; 'I' for Inactive)
ROOT
HETATM    1  C1  UNL     1     -34.458   6.419   6.372  1.00 20.00     0.047 A 
HETATM    2  C2  UNL     1     -34.888   5.145   5.946  1.00 20.00     0.141 A 
HETATM    3  C3  UNL     1     -33.723   6.908   5.316  1.00 20.00     0.032 A 
HETATM    4  C4  UNL     1     -32.976   8.178   5.110  1.00 20.00     0.059 C 
HETATM    5  C5  UNL     1     -32.689   8.432   3.627  1.00 20.00     0.008 C 
HETATM    6  C6  UNL     1     -32.153   7.168   2.948  1.00 20.00     0.022 C 
HETATM    7  C7  UNL     1     -33.164   6.025   3.044  1.00 20.00     0.151 C 
HETATM    8  N8  UNL     1     -34.464   4.840   4.716  1.00 20.00    -0.185 NA
HETATM    9  N9  UNL     1     -33.754   5.925   4.364  1.00 20.00    -0.274 N 
ENDROOT
TORSDOF 0
ENDMDL
MODEL 4
REMARK VINA RESULT:      -5.4      1.227      3.672
REMARK  0 active torsions:
REMARK  status: ('A' for Active; 'I' for Inactive)
ROOT
HETATM    1  C1  UNL     1     -34.499   4.919   4.869  1.00 20.00     0.047 A 
HETATM    2  C2  UNL     1     -34.817   5.403   6.154  1.00 20.00     0.141 A 
HETATM    3  C3  UNL     1     -33.771   5.932   4.287  1.00 20.00     0.032 A 
HETATM    4  C4  UNL     1     -33.149   6.085   2.944  1.00 20.00     0.059 C 
HETATM    5  C5  UNL     1     -32.095   7.195   2.931  1.00 20.00     0.008 C 
HETATM    6  C6  UNL     1     -32.619   8.456   3.625  1.00 20.00     0.022 C 
HETATM    7  C7  UNL     1     -32.981   8.168   5.082  1.00 20.00     0.151 C 
HETATM    8  N8  UNL     1     -34.332   6.627   6.382  1.00 20.00    -0.185 NA
HETATM    9  N9  UNL     1     -33.710   6.924   5.228  1.00 20.00    -0.274 N 
ENDROOT
TORSDOF 0
ENDMDL
MODEL 5
REMARK VINA RESULT:      -5.4      1.029      2.147
REMARK  0 active torsions:
REMARK  status: ('A' for Active; 'I' for Inactive)
ROOT
HETATM    1  C1  UNL     1     -32.787   5.990   2.604  1.00 20.00     0.047 A 
HETATM    2  C2  UNL     1     -32.208   7.275   2.592  1.00 20.00     0.141 A 
HETATM    3  C3  UNL     1     -33.440   5.914   3.814  1.00 20.00     0.032 A 
HETATM    4  C4  UNL     1     -34.232   4.838   4.467  1.00 20.00     0.059 C 
HETATM    5  C5  UNL     1     -35.101   5.385   5.604  1.00 20.00     0.008 C 
HETATM    6  C6  UNL     1     -34.298   6.329   6.503  1.00 20.00     0.022 C 
HETATM    7  C7  UNL     1     -33.762   7.518   5.706  1.00 20.00     0.151 C 
HETATM    8  N8  UNL     1     -32.467   7.971   3.704  1.00 20.00    -0.185 NA
HETATM    9  N9  UNL     1     -33.209   7.116   4.428  1.00 20.00    -0.274 N 
ENDROOT
TORSDOF 0
ENDMDL
MODEL 6
REMARK VINA RESULT:      -4.9      0.977      2.971
REMARK  0 active torsions:
REMARK  status: ('A' for Active; 'I' for Inactive)
ROOT
HETATM    1  C1  UNL     1     -34.534   5.043   5.171  1.00 20.00     0.047 A 
HETATM    2  C2  UNL     1     -34.121   4.451   3.960  1.00 20.00     0.141 A 
HETATM    3  C3  UNL     1     -33.962   6.295   5.158  1.00 20.00     0.032 A 
HETATM    4  C4  UNL     1     -33.976   7.422   6.130  1.00 20.00     0.059 C 
HETATM    5  C5  UNL     1     -33.555   8.740   5.474  1.00 20.00     0.008 C 
HETATM    6  C6  UNL     1     -32.301   8.551   4.617  1.00 20.00     0.022 C 
HETATM    7  C7  UNL     1     -32.547   7.530   3.506  1.00 20.00     0.151 C 
HETATM    8  N8  UNL     1     -33.346   5.256   3.227  1.00 20.00    -0.185 NA
HETATM    9  N9  UNL     1     -33.262   6.364   3.983  1.00 20.00    -0.274 N 
ENDROOT
TORSDOF 0
ENDMDL
MODEL 7
REMARK VINA RESULT:      -4.7      1.320      3.355
REMARK  0 active torsions:
REMARK  status: ('A' for Active; 'I' for Inactive)
ROOT
HETATM    1  C1  UNL     1     -33.175   5.247   3.012  1.00 20.00     0.047 A 
HETATM    2  C2  UNL     1     -34.002   4.441   3.820  1.00 20.00     0.141 A 
HETATM    3  C3  UNL     1     -33.082   6.441   3.691  1.00 20.00     0.032 A 
HETATM    4  C4  UNL     1     -32.386   7.721   3.391  1.00 20.00     0.059 C 
HETATM    5  C5  UNL     1     -32.229   8.587   4.644  1.00 20.00     0.008 C 
HETATM    6  C6  UNL     1     -33.540   8.654   5.432  1.00 20.00     0.022 C 
HETATM    7  C7  UNL     1     -33.982   7.259   5.876  1.00 20.00     0.151 C 
HETATM    8  N8  UNL     1     -34.407   5.065   4.931  1.00 20.00    -0.185 NA
HETATM    9  N9  UNL     1     -33.839   6.278   4.820  1.00 20.00    -0.274 N 
ENDROOT
TORSDOF 0
ENDMDL
MODEL 8
REMARK VINA RESULT:      -4.5      1.340      2.884
REMARK  0 active torsions:
REMARK  status: ('A' for Active; 'I' for Inactive)
ROOT
HETATM    1  C1  UNL     1     -33.458   8.039   5.801  1.00 20.00     0.047 A 
HETATM    2  C2  UNL     1     -34.311   7.203   6.550  1.00 20.00     0.141 A 
HETATM    3  C3  UNL     1     -33.191   7.326   4.654  1.00 20.00     0.032 A 
HETATM    4  C4  UNL     1     -32.352   7.612   3.460  1.00 20.00     0.059 C 
HETATM    5  C5  UNL     1     -32.719   6.708   2.280  1.00 20.00     0.008 C 
HETATM    6  C6  UNL     1     -32.853   5.249   2.727  1.00 20.00     0.022 C 
HETATM    7  C7  UNL     1     -33.942   5.101   3.790  1.00 20.00     0.151 C 
HETATM    8  N8  UNL     1     -34.573   6.046   5.935  1.00 20.00    -0.185 NA
HETATM    9  N9  UNL     1     -33.874   6.147   4.792  1.00 20.00    -0.274 N 
ENDROOT
TORSDOF 0
ENDMDL
MODEL 9
REMARK VINA RESULT:      -3.8     15.203     15.743
REMARK  0 active torsions:
REMARK  status: ('A' for Active; 'I' for Inactive)
ROOT
HETATM    1  C1  UNL     1     -22.765  17.329   9.484  1.00 20.00     0.047 A 
HETATM    2  C2  UNL     1     -22.950  18.471   8.678  1.00 20.00     0.141 A 
HETATM    3  C3  UNL     1     -23.708  17.450  10.479  1.00 20.00     0.032 A 
HETATM    4  C4  UNL     1     -24.043  16.609  11.659  1.00 20.00     0.059 C 
HETATM    5  C5  UNL     1     -25.434  16.936  12.211  1.00 20.00     0.008 C 
HETATM    6  C6  UNL     1     -25.634  18.449  12.332  1.00 20.00     0.022 C 
HETATM    7  C7  UNL     1     -25.496  19.129  10.969  1.00 20.00     0.151 C 
HETATM    8  N8  UNL     1     -23.932  19.263   9.118  1.00 20.00    -0.185 NA
HETATM    9  N9  UNL     1     -24.367  18.621  10.216  1.00 20.00    -0.274 N 
ENDROOT
TORSDOF 0
ENDMDL
