MODEL 1
REMARK VINA RESULT:      -4.6      0.000      0.000
REMARK  0 active torsions:
REMARK  status: ('A' for Active; 'I' for Inactive)
ROOT
HETATM    1  C1  UNL     1     -33.009   5.853   2.659  1.00 20.00     0.004 C 
HETATM    2  C2  UNL     1     -32.189   7.019   3.196  1.00 20.00     0.027 C 
HETATM    3  C3  UNL     1     -33.502   5.004   3.824  1.00 20.00     0.027 C 
HETATM    4  C4  UNL     1     -32.965   7.877   4.218  1.00 20.00     0.037 C 
HETATM    5  C5  UNL     1     -34.306   5.818   4.860  1.00 20.00     0.037 C 
HETATM    6  C6  UNL     1     -33.966   8.804   3.501  1.00 20.00     0.034 C 
HETATM    7  C7  UNL     1     -31.944   8.777   4.949  1.00 20.00     0.034 C 
HETATM    8  C8  UNL     1     -34.431   4.961   6.140  1.00 20.00     0.034 C 
HETATM    9  C9  UNL     1     -35.734   6.089   4.348  1.00 20.00     0.034 C 
HETATM   10  N10 UNL     1     -33.603   7.049   5.254  1.00 20.00    -0.137 NA
HETATM   11  F11 UNL     1     -34.329   7.801   6.148  1.00 20.00    -0.132 F 
ENDROOT
TORSDOF 0
ENDMDL
MODEL 2
REMARK VINA RESULT:      -3.9      1.658      3.696
REMARK  0 active torsions:
REMARK  status: ('A' for Active; 'I' for Inactive)
ROOT
HETATM    1  C1  UNL     1     -34.254   7.163   6.669  1.00 20.00     0.004 C 
HETATM    2  C2  UNL     1     -34.308   5.699   6.252  1.00 20.00     0.027 C 
HETATM    3  C3  UNL     1     -33.052   7.830   6.012  1.00 20.00     0.027 C 
HETATM    4  C4  UNL     1     -34.339   5.512   4.720  1.00 20.00     0.037 C 
HETATM    5  C5  UNL     1     -33.056   7.690   4.474  1.00 20.00     0.037 C 
HETATM    6  C6  UNL     1     -35.746   5.807   4.166  1.00 20.00     0.034 C 
HETATM    7  C7  UNL     1     -34.026   4.029   4.420  1.00 20.00     0.034 C 
HETATM    8  C8  UNL     1     -31.648   8.067   3.962  1.00 20.00     0.034 C 
HETATM    9  C9  UNL     1     -34.054   8.678   3.841  1.00 20.00     0.034 C 
HETATM   10  N10 UNL     1     -33.291   6.300   4.052  1.00 20.00    -0.137 NA
HETATM   11  F11 UNL     1     -33.335   6.171   2.683  1.00 20.00    -0.132 F 
ENDROOT
TORSDOF 0
ENDMDL
MODEL 3
REMARK VINA RESULT:      -3.8     12.381     13.555
REMARK  0 active torsions:
REMARK  status: ('A' for Active; 'I' for Inactive)
ROOT
HETATM    1  C1  UNL     1     -33.017  15.872  -3.612  1.00 20.00     0.004 C 
HETATM    2  C2  UNL     1     -33.829  17.066  -3.128  1.00 20.00     0.027 C 
HETATM    3  C3  UNL     1     -33.962  14.798  -4.136  1.00 20.00     0.027 C 
HETATM    4  C4  UNL     1     -34.766  17.635  -4.216  1.00 20.00     0.037 C 
HETATM    5  C5  UNL     1     -34.901  15.317  -5.246  1.00 20.00     0.037 C 
HETATM    6  C6  UNL     1     -33.971  18.481  -5.228  1.00 20.00     0.034 C 
HETATM    7  C7  UNL     1     -35.777  18.573  -3.523  1.00 20.00     0.034 C 
HETATM    8  C8  UNL     1     -36.029  14.278  -5.434  1.00 20.00     0.034 C 
HETATM    9  C9  UNL     1     -34.150  15.426  -6.587  1.00 20.00     0.034 C 
HETATM   10  N10 UNL     1     -35.558  16.576  -4.862  1.00 20.00    -0.137 NA
HETATM   11  F11 UNL     1     -36.368  17.067  -5.860  1.00 20.00    -0.132 F 
ENDROOT
TORSDOF 0
ENDMDL
MODEL 4
REMARK VINA RESULT:      -3.5     12.619     14.150
REMARK  0 active torsions:
REMARK  status: ('A' for Active; 'I' for Inactive)
ROOT
HETATM    1  C1  UNL     1     -33.691  15.520  -3.427  1.00 20.00     0.004 C 
HETATM    2  C2  UNL     1     -33.679  14.999  -4.858  1.00 20.00     0.027 C 
HETATM    3  C3  UNL     1     -33.270  16.984  -3.419  1.00 20.00     0.027 C 
HETATM    4  C4  UNL     1     -34.563  15.834  -5.808  1.00 20.00     0.037 C 
HETATM    5  C5  UNL     1     -34.145  17.863  -4.338  1.00 20.00     0.037 C 
HETATM    6  C6  UNL     1     -36.051  15.490  -5.608  1.00 20.00     0.034 C 
HETATM    7  C7  UNL     1     -34.191  15.450  -7.257  1.00 20.00     0.034 C 
HETATM    8  C8  UNL     1     -33.418  19.213  -4.534  1.00 20.00     0.034 C 
HETATM    9  C9  UNL     1     -35.501  18.165  -3.671  1.00 20.00     0.034 C 
HETATM   10  N10 UNL     1     -34.294  17.275  -5.679  1.00 20.00    -0.137 NA
HETATM   11  F11 UNL     1     -35.103  18.032  -6.494  1.00 20.00    -0.132 F 
ENDROOT
TORSDOF 0
ENDMDL
MODEL 5
REMARK VINA RESULT:      -3.5     10.161     11.418
REMARK  0 active torsions:
REMARK  status: ('A' for Active; 'I' for Inactive)
ROOT
HETATM    1  C1  UNL     1     -42.907  15.139   5.246  1.00 20.00     0.004 C 
HETATM    2  C2  UNL     1     -42.212  16.187   6.106  1.00 20.00     0.027 C 
HETATM    3  C3  UNL     1     -41.907  14.053   4.870  1.00 20.00     0.027 C 
HETATM    4  C4  UNL     1     -41.547  15.587   7.363  1.00 20.00     0.037 C 
HETATM    5  C5  UNL     1     -41.234  13.406   6.099  1.00 20.00     0.037 C 
HETATM    6  C6  UNL     1     -42.602  15.281   8.443  1.00 20.00     0.034 C 
HETATM    7  C7  UNL     1     -40.588  16.651   7.942  1.00 20.00     0.034 C 
HETATM    8  C8  UNL     1     -40.009  12.607   5.602  1.00 20.00     0.034 C 
HETATM    9  C9  UNL     1     -42.190  12.405   6.777  1.00 20.00     0.034 C 
HETATM   10  N10 UNL     1     -40.717  14.416   7.035  1.00 20.00    -0.137 NA
HETATM   11  F11 UNL     1     -40.149  13.850   8.153  1.00 20.00    -0.132 F 
ENDROOT
TORSDOF 0
ENDMDL
MODEL 6
REMARK VINA RESULT:      -3.4     10.013     11.283
REMARK  0 active torsions:
REMARK  status: ('A' for Active; 'I' for Inactive)
ROOT
HETATM    1  C1  UNL     1     -43.379  13.007   8.013  1.00 20.00     0.004 C 
HETATM    2  C2  UNL     1     -42.497  12.220   7.053  1.00 20.00     0.027 C 
HETATM    3  C3  UNL     1     -42.516  13.604   9.118  1.00 20.00     0.027 C 
HETATM    4  C4  UNL     1     -41.349  13.066   6.462  1.00 20.00     0.037 C 
HETATM    5  C5  UNL     1     -41.368  14.481   8.572  1.00 20.00     0.037 C 
HETATM    6  C6  UNL     1     -41.875  13.993   5.350  1.00 20.00     0.034 C 
HETATM    7  C7  UNL     1     -40.334  12.098   5.816  1.00 20.00     0.034 C 
HETATM    8  C8  UNL     1     -40.369  14.721   9.726  1.00 20.00     0.034 C 
HETATM    9  C9  UNL     1     -41.899  15.858   8.131  1.00 20.00     0.034 C 
HETATM   10  N10 UNL     1     -40.616  13.798   7.508  1.00 20.00    -0.137 NA
HETATM   11  F11 UNL     1     -39.615  14.586   6.989  1.00 20.00    -0.132 F 
ENDROOT
TORSDOF 0
ENDMDL
MODEL 7
REMARK VINA RESULT:      -3.3     12.795     14.075
REMARK  0 active torsions:
REMARK  status: ('A' for Active; 'I' for Inactive)
ROOT
HETATM    1  C1  UNL     1     -24.336  -1.442  12.327  1.00 20.00     0.004 C 
HETATM    2  C2  UNL     1     -23.769  -2.149  11.103  1.00 20.00     0.027 C 
HETATM    3  C3  UNL     1     -25.592  -0.675  11.931  1.00 20.00     0.027 C 
HETATM    4  C4  UNL     1     -24.794  -3.080  10.420  1.00 20.00     0.037 C 
HETATM    5  C5  UNL     1     -26.656  -1.574  11.266  1.00 20.00     0.037 C 
HETATM    6  C6  UNL     1     -24.946  -4.393  11.210  1.00 20.00     0.034 C 
HETATM    7  C7  UNL     1     -24.243  -3.442   9.023  1.00 20.00     0.034 C 
HETATM    8  C8  UNL     1     -27.697  -0.652  10.591  1.00 20.00     0.034 C 
HETATM    9  C9  UNL     1     -27.402  -2.408  12.325  1.00 20.00     0.034 C 
HETATM   10  N10 UNL     1     -26.082  -2.403  10.195  1.00 20.00    -0.137 NA
HETATM   11  F11 UNL     1     -27.015  -3.235   9.621  1.00 20.00    -0.132 F 
ENDROOT
TORSDOF 0
ENDMDL
MODEL 8
REMARK VINA RESULT:      -3.3     12.472     14.024
REMARK  0 active torsions:
REMARK  status: ('A' for Active; 'I' for Inactive)
ROOT
HETATM    1  C1  UNL     1     -36.245  18.712  -4.228  1.00 20.00     0.004 C 
HETATM    2  C2  UNL     1     -36.537  17.399  -4.943  1.00 20.00     0.027 C 
HETATM    3  C3  UNL     1     -35.423  18.434  -2.976  1.00 20.00     0.027 C 
HETATM    4  C4  UNL     1     -35.258  16.605  -5.285  1.00 20.00     0.037 C 
HETATM    5  C5  UNL     1     -34.120  17.663  -3.275  1.00 20.00     0.037 C 
HETATM    6  C6  UNL     1     -34.554  17.212  -6.514  1.00 20.00     0.034 C 
HETATM    7  C7  UNL     1     -35.681  15.168  -5.659  1.00 20.00     0.034 C 
HETATM    8  C8  UNL     1     -33.569  17.127  -1.934  1.00 20.00     0.034 C 
HETATM    9  C9  UNL     1     -33.053  18.606  -3.865  1.00 20.00     0.034 C 
HETATM   10  N10 UNL     1     -34.362  16.485  -4.123  1.00 20.00    -0.137 NA
HETATM   11  F11 UNL     1     -33.202  15.812  -4.427  1.00 20.00    -0.132 F 
ENDROOT
TORSDOF 0
ENDMDL
MODEL 9
REMARK VINA RESULT:      -3.2     12.320     14.061
REMARK  0 active torsions:
REMARK  status: ('A' for Active; 'I' for Inactive)
ROOT
HETATM    1  C1  UNL     1     -34.903  18.075  -5.363  1.00 20.00     0.004 C 
HETATM    2  C2  UNL     1     -36.396  17.838  -5.173  1.00 20.00     0.027 C 
HETATM    3  C3  UNL     1     -34.124  16.950  -4.693  1.00 20.00     0.027 C 
HETATM    4  C4  UNL     1     -36.855  16.460  -5.694  1.00 20.00     0.037 C 
HETATM    5  C5  UNL     1     -34.534  15.552  -5.203  1.00 20.00     0.037 C 
HETATM    6  C6  UNL     1     -36.968  16.470  -7.230  1.00 20.00     0.034 C 
HETATM    7  C7  UNL     1     -38.267  16.189  -5.128  1.00 20.00     0.034 C 
HETATM    8  C8  UNL     1     -33.964  14.505  -4.220  1.00 20.00     0.034 C 
HETATM    9  C9  UNL     1     -33.909  15.273  -6.583  1.00 20.00     0.034 C 
HETATM   10  N10 UNL     1     -35.994  15.374  -5.197  1.00 20.00    -0.137 NA
HETATM   11  F11 UNL     1     -36.372  14.145  -5.686  1.00 20.00    -0.132 F 
ENDROOT
TORSDOF 0
ENDMDL
