MODEL 1
REMARK VINA RESULT:      -4.6      0.000      0.000
REMARK  2 active torsions:
REMARK  status: ('A' for Active; 'I' for Inactive)
REMARK    1  A    between atoms: C3_3  and  C7_7 
REMARK    2  A    between atoms: C3_3  and  O11_11 
ROOT
HETATM    1  C1  UNL     1     -33.740   7.103   4.896  1.00 20.00    -0.070 C 
HETATM    2  C2  UNL     1     -33.000   7.945   4.164  1.00 20.00    -0.027 C 
HETATM    3  C4  UNL     1     -33.827   7.146   6.396  1.00 20.00     0.034 C 
HETATM    4  C5  UNL     1     -34.475   5.813   6.746  1.00 20.00     0.005 C 
HETATM    5  C6  UNL     1     -35.390   5.519   5.561  1.00 20.00     0.019 C 
HETATM    6  C7  UNL     1     -34.608   6.007   4.343  1.00 20.00     0.114 C 
HETATM    7  C8  UNL     1     -32.175   9.046   4.739  1.00 20.00     0.036 C 
ENDROOT
BRANCH   6   8
HETATM    8  C3  UNL     1     -33.735   4.924   3.785  1.00 20.00     0.266 C 
HETATM    9  O10 UNL     1     -33.756   3.761   4.167  1.00 20.00    -0.265 OA
BRANCH   8  10
HETATM   10  O11 UNL     1     -32.936   5.441   2.808  1.00 20.00    -0.326 OA
HETATM   11  C9  UNL     1     -32.878   4.684   1.596  1.00 20.00     0.213 C 
ENDBRANCH   8  10
ENDBRANCH   6   8
TORSDOF 2
ENDMDL
MODEL 2
REMARK VINA RESULT:      -4.5     10.495     11.417
REMARK  2 active torsions:
REMARK  status: ('A' for Active; 'I' for Inactive)
REMARK    1  A    between atoms: C3_3  and  C7_7 
REMARK    2  A    between atoms: C3_3  and  O11_11 
ROOT
HETATM    1  C1  UNL     1     -40.843  13.038   5.853  1.00 20.00    -0.070 C 
HETATM    2  C2  UNL     1     -39.818  12.181   5.758  1.00 20.00    -0.027 C 
HETATM    3  C4  UNL     1     -41.501  13.696   4.673  1.00 20.00     0.034 C 
HETATM    4  C5  UNL     1     -42.328  14.804   5.309  1.00 20.00     0.005 C 
HETATM    5  C6  UNL     1     -42.730  14.240   6.667  1.00 20.00     0.019 C 
HETATM    6  C7  UNL     1     -41.504  13.459   7.135  1.00 20.00     0.114 C 
HETATM    7  C8  UNL     1     -39.204  11.755   4.467  1.00 20.00     0.036 C 
ENDROOT
BRANCH   6   8
HETATM    8  C3  UNL     1     -40.563  14.331   7.910  1.00 20.00     0.266 C 
HETATM    9  O10 UNL     1     -40.164  15.422   7.523  1.00 20.00    -0.265 OA
BRANCH   8  10
HETATM   10  O11 UNL     1     -40.235  13.720   9.084  1.00 20.00    -0.326 OA
HETATM   11  C9  UNL     1     -40.725  14.358  10.267  1.00 20.00     0.213 C 
ENDBRANCH   8  10
ENDBRANCH   6   8
TORSDOF 2
ENDMDL
MODEL 3
REMARK VINA RESULT:      -4.1     10.070     10.655
REMARK  2 active torsions:
REMARK  status: ('A' for Active; 'I' for Inactive)
REMARK    1  A    between atoms: C3_3  and  C7_7 
REMARK    2  A    between atoms: C3_3  and  O11_11 
ROOT
HETATM    1  C1  UNL     1     -41.264  14.162   7.725  1.00 20.00    -0.070 C 
HETATM    2  C2  UNL     1     -40.272  14.887   8.256  1.00 20.00    -0.027 C 
HETATM    3  C4  UNL     1     -42.448  13.660   8.503  1.00 20.00     0.034 C 
HETATM    4  C5  UNL     1     -43.068  12.629   7.569  1.00 20.00     0.005 C 
HETATM    5  C6  UNL     1     -42.767  13.162   6.172  1.00 20.00     0.019 C 
HETATM    6  C7  UNL     1     -41.365  13.755   6.281  1.00 20.00     0.114 C 
HETATM    7  C8  UNL     1     -40.217  15.305   9.686  1.00 20.00     0.036 C 
ENDROOT
BRANCH   6   8
HETATM    8  C3  UNL     1     -40.312  12.729   5.986  1.00 20.00     0.266 C 
HETATM    9  O10 UNL     1     -39.695  12.113   6.846  1.00 20.00    -0.265 OA
BRANCH   8  10
HETATM   10  O11 UNL     1     -40.163  12.603   4.637  1.00 20.00    -0.326 OA
HETATM   11  C9  UNL     1     -39.136  11.702   4.213  1.00 20.00     0.213 C 
ENDBRANCH   8  10
ENDBRANCH   6   8
TORSDOF 2
ENDMDL
MODEL 4
REMARK VINA RESULT:      -4.1     12.727     14.057
REMARK  2 active torsions:
REMARK  status: ('A' for Active; 'I' for Inactive)
REMARK    1  A    between atoms: C3_3  and  C7_7 
REMARK    2  A    between atoms: C3_3  and  O11_11 
ROOT
HETATM    1  C1  UNL     1     -33.953  17.081  -2.899  1.00 20.00    -0.070 C 
HETATM    2  C2  UNL     1     -33.293  15.924  -3.043  1.00 20.00    -0.027 C 
HETATM    3  C4  UNL     1     -34.727  17.750  -3.999  1.00 20.00     0.034 C 
HETATM    4  C5  UNL     1     -34.970  19.150  -3.453  1.00 20.00     0.005 C 
HETATM    5  C6  UNL     1     -35.078  18.951  -1.945  1.00 20.00     0.019 C 
HETATM    6  C7  UNL     1     -34.041  17.876  -1.626  1.00 20.00     0.114 C 
HETATM    7  C8  UNL     1     -33.252  15.140  -4.311  1.00 20.00     0.036 C 
ENDROOT
BRANCH   6   8
HETATM    8  C3  UNL     1     -32.701  18.479  -1.330  1.00 20.00     0.266 C 
HETATM    9  O10 UNL     1     -32.070  19.167  -2.121  1.00 20.00    -0.265 OA
BRANCH   8  10
HETATM   10  O11 UNL     1     -32.316  18.138  -0.067  1.00 20.00    -0.326 OA
HETATM   11  C9  UNL     1     -31.042  18.642   0.344  1.00 20.00     0.213 C 
ENDBRANCH   8  10
ENDBRANCH   6   8
TORSDOF 2
ENDMDL
MODEL 5
REMARK VINA RESULT:      -4.1     12.937     14.235
REMARK  2 active torsions:
REMARK  status: ('A' for Active; 'I' for Inactive)
REMARK    1  A    between atoms: C3_3  and  C7_7 
REMARK    2  A    between atoms: C3_3  and  O11_11 
ROOT
HETATM    1  C1  UNL     1     -34.499  16.518  -4.871  1.00 20.00    -0.070 C 
HETATM    2  C2  UNL     1     -34.647  17.804  -5.213  1.00 20.00    -0.027 C 
HETATM    3  C4  UNL     1     -33.437  16.013  -3.934  1.00 20.00     0.034 C 
HETATM    4  C5  UNL     1     -33.466  14.507  -4.154  1.00 20.00     0.005 C 
HETATM    5  C6  UNL     1     -34.922  14.205  -4.492  1.00 20.00     0.019 C 
HETATM    6  C7  UNL     1     -35.371  15.389  -5.346  1.00 20.00     0.114 C 
HETATM    7  C8  UNL     1     -33.787  18.908  -4.697  1.00 20.00     0.036 C 
ENDROOT
BRANCH   6   8
HETATM    8  C3  UNL     1     -35.108  15.144  -6.801  1.00 20.00     0.266 C 
HETATM    9  O10 UNL     1     -33.989  15.045  -7.288  1.00 20.00    -0.265 OA
BRANCH   8  10
HETATM   10  O11 UNL     1     -36.293  15.054  -7.470  1.00 20.00    -0.326 OA
HETATM   11  C9  UNL     1     -36.841  16.298  -7.918  1.00 20.00     0.213 C 
ENDBRANCH   8  10
ENDBRANCH   6   8
TORSDOF 2
ENDMDL
MODEL 6
REMARK VINA RESULT:      -4.0      1.904      3.799
REMARK  2 active torsions:
REMARK  status: ('A' for Active; 'I' for Inactive)
REMARK    1  A    between atoms: C3_3  and  C7_7 
REMARK    2  A    between atoms: C3_3  and  O11_11 
ROOT
HETATM    1  C1  UNL     1     -33.289   6.810   3.784  1.00 20.00    -0.070 C 
HETATM    2  C2  UNL     1     -33.594   5.580   3.352  1.00 20.00    -0.027 C 
HETATM    3  C4  UNL     1     -32.107   7.602   3.299  1.00 20.00     0.034 C 
HETATM    4  C5  UNL     1     -32.002   8.729   4.318  1.00 20.00     0.005 C 
HETATM    5  C6  UNL     1     -33.443   8.983   4.746  1.00 20.00     0.019 C 
HETATM    6  C7  UNL     1     -34.079   7.595   4.793  1.00 20.00     0.114 C 
HETATM    7  C8  UNL     1     -32.810   4.839   2.322  1.00 20.00     0.036 C 
ENDROOT
BRANCH   6   8
HETATM    8  C3  UNL     1     -33.915   6.964   6.143  1.00 20.00     0.266 C 
HETATM    9  O10 UNL     1     -32.940   7.131   6.864  1.00 20.00    -0.265 OA
BRANCH   8  10
HETATM   10  O11 UNL     1     -35.006   6.194   6.421  1.00 20.00    -0.326 OA
HETATM   11  C9  UNL     1     -34.775   4.782   6.431  1.00 20.00     0.213 C 
ENDBRANCH   8  10
ENDBRANCH   6   8
TORSDOF 2
ENDMDL
MODEL 7
REMARK VINA RESULT:      -4.0     12.435     13.862
REMARK  2 active torsions:
REMARK  status: ('A' for Active; 'I' for Inactive)
REMARK    1  A    between atoms: C3_3  and  C7_7 
REMARK    2  A    between atoms: C3_3  and  O11_11 
ROOT
HETATM    1  C1  UNL     1     -34.177  15.958  -4.671  1.00 20.00    -0.070 C 
HETATM    2  C2  UNL     1     -33.790  15.683  -3.418  1.00 20.00    -0.027 C 
HETATM    3  C4  UNL     1     -34.208  17.342  -5.257  1.00 20.00     0.034 C 
HETATM    4  C5  UNL     1     -35.030  17.164  -6.526  1.00 20.00     0.005 C 
HETATM    5  C6  UNL     1     -34.716  15.743  -6.980  1.00 20.00     0.019 C 
HETATM    6  C7  UNL     1     -34.616  14.940  -5.685  1.00 20.00     0.114 C 
HETATM    7  C8  UNL     1     -33.326  16.713  -2.444  1.00 20.00     0.036 C 
ENDROOT
BRANCH   6   8
HETATM    8  C3  UNL     1     -35.950  14.388  -5.280  1.00 20.00     0.266 C 
HETATM    9  O10 UNL     1     -36.097  13.447  -4.511  1.00 20.00    -0.265 OA
BRANCH   8  10
HETATM   10  O11 UNL     1     -36.941  15.090  -5.899  1.00 20.00    -0.326 OA
HETATM   11  C9  UNL     1     -37.922  15.664  -5.030  1.00 20.00     0.213 C 
ENDBRANCH   8  10
ENDBRANCH   6   8
TORSDOF 2
ENDMDL
MODEL 8
REMARK VINA RESULT:      -3.9      2.331      3.889
REMARK  2 active torsions:
REMARK  status: ('A' for Active; 'I' for Inactive)
REMARK    1  A    between atoms: C3_3  and  C7_7 
REMARK    2  A    between atoms: C3_3  and  O11_11 
ROOT
HETATM    1  C1  UNL     1     -32.897   6.811   3.741  1.00 20.00    -0.070 C 
HETATM    2  C2  UNL     1     -32.860   5.747   2.928  1.00 20.00    -0.027 C 
HETATM    3  C4  UNL     1     -33.800   6.925   4.937  1.00 20.00     0.034 C 
HETATM    4  C5  UNL     1     -33.725   8.404   5.291  1.00 20.00     0.005 C 
HETATM    5  C6  UNL     1     -32.313   8.814   4.888  1.00 20.00     0.019 C 
HETATM    6  C7  UNL     1     -32.040   8.038   3.602  1.00 20.00     0.114 C 
HETATM    7  C8  UNL     1     -33.700   4.528   3.112  1.00 20.00     0.036 C 
ENDROOT
BRANCH   6   8
HETATM    8  C3  UNL     1     -32.480   8.810   2.394  1.00 20.00     0.266 C 
HETATM    9  O10 UNL     1     -33.079   9.876   2.443  1.00 20.00    -0.265 OA
BRANCH   8  10
HETATM   10  O11 UNL     1     -32.111   8.139   1.265  1.00 20.00    -0.326 OA
HETATM   11  C9  UNL     1     -32.501   8.751   0.032  1.00 20.00     0.213 C 
ENDBRANCH   8  10
ENDBRANCH   6   8
TORSDOF 2
ENDMDL
MODEL 9
REMARK VINA RESULT:      -3.8     12.860     13.619
REMARK  2 active torsions:
REMARK  status: ('A' for Active; 'I' for Inactive)
REMARK    1  A    between atoms: C3_3  and  C7_7 
REMARK    2  A    between atoms: C3_3  and  O11_11 
ROOT
HETATM    1  C1  UNL     1     -32.236  18.288   0.356  1.00 20.00    -0.070 C 
HETATM    2  C2  UNL     1     -31.731  18.580   1.561  1.00 20.00    -0.027 C 
HETATM    3  C4  UNL     1     -31.475  18.432  -0.933  1.00 20.00     0.034 C 
HETATM    4  C5  UNL     1     -32.563  18.326  -1.993  1.00 20.00     0.005 C 
HETATM    5  C6  UNL     1     -33.594  17.385  -1.380  1.00 20.00     0.019 C 
HETATM    6  C7  UNL     1     -33.619  17.756   0.101  1.00 20.00     0.114 C 
HETATM    7  C8  UNL     1     -30.341  19.074   1.785  1.00 20.00     0.036 C 
ENDROOT
BRANCH   6   8
HETATM    8  C3  UNL     1     -34.619  18.838   0.377  1.00 20.00     0.266 C 
HETATM    9  O10 UNL     1     -35.415  19.263  -0.451  1.00 20.00    -0.265 OA
BRANCH   8  10
HETATM   10  O11 UNL     1     -34.493  19.257   1.668  1.00 20.00    -0.326 OA
HETATM   11  C9  UNL     1     -35.699  19.247   2.438  1.00 20.00     0.213 C 
ENDBRANCH   8  10
ENDBRANCH   6   8
TORSDOF 2
ENDMDL
