MODEL 1
REMARK VINA RESULT:      -3.9      0.000      0.000
REMARK  2 active torsions:
REMARK  status: ('A' for Active; 'I' for Inactive)
REMARK    1  A    between atoms: C3_3  and  C7_7 
REMARK    2  A    between atoms: C3_3  and  O11_11 
ROOT
HETATM    1  C1  UNL     1     -40.574  13.492   5.930  1.00 20.00    -0.070 C 
HETATM    2  C2  UNL     1     -39.616  12.558   5.898  1.00 20.00    -0.027 C 
HETATM    3  C4  UNL     1     -41.565  13.721   4.824  1.00 20.00     0.034 C 
HETATM    4  C5  UNL     1     -42.623  14.599   5.478  1.00 20.00     0.005 C 
HETATM    5  C6  UNL     1     -41.845  15.425   6.497  1.00 20.00     0.019 C 
HETATM    6  C7  UNL     1     -40.803  14.462   7.057  1.00 20.00     0.114 C 
HETATM    7  C8  UNL     1     -39.404  11.621   4.756  1.00 20.00     0.036 C 
ENDROOT
BRANCH   6   8
HETATM    8  C3  UNL     1     -41.332  13.715   8.245  1.00 20.00     0.266 C 
HETATM    9  O10 UNL     1     -42.378  13.079   8.245  1.00 20.00    -0.265 OA
BRANCH   8  10
HETATM   10  O11 UNL     1     -40.474  13.863   9.296  1.00 20.00    -0.326 OA
HETATM   11  C9  UNL     1     -40.098  15.211   9.597  1.00 20.00     0.213 C 
ENDBRANCH   8  10
ENDBRANCH   6   8
TORSDOF 2
ENDMDL
MODEL 2
REMARK VINA RESULT:      -3.9     12.554     12.980
REMARK  2 active torsions:
REMARK  status: ('A' for Active; 'I' for Inactive)
REMARK    1  A    between atoms: C3_3  and  C7_7 
REMARK    2  A    between atoms: C3_3  and  O11_11 
ROOT
HETATM    1  C1  UNL     1     -33.735  16.886  -3.803  1.00 20.00    -0.070 C 
HETATM    2  C2  UNL     1     -33.248  15.640  -3.780  1.00 20.00    -0.027 C 
HETATM    3  C4  UNL     1     -35.105  17.245  -4.306  1.00 20.00     0.034 C 
HETATM    4  C5  UNL     1     -35.305  18.665  -3.794  1.00 20.00     0.005 C 
HETATM    5  C6  UNL     1     -33.901  19.262  -3.792  1.00 20.00     0.019 C 
HETATM    6  C7  UNL     1     -32.996  18.115  -3.349  1.00 20.00     0.114 C 
HETATM    7  C8  UNL     1     -34.001  14.441  -4.253  1.00 20.00     0.036 C 
ENDROOT
BRANCH   6   8
HETATM    8  C3  UNL     1     -32.853  18.077  -1.857  1.00 20.00     0.266 C 
HETATM    9  O10 UNL     1     -33.583  17.434  -1.115  1.00 20.00    -0.265 OA
BRANCH   8  10
HETATM   10  O11 UNL     1     -31.802  18.862  -1.480  1.00 20.00    -0.326 OA
HETATM   11  C9  UNL     1     -31.261  18.583  -0.185  1.00 20.00     0.213 C 
ENDBRANCH   8  10
ENDBRANCH   6   8
TORSDOF 2
ENDMDL
MODEL 3
REMARK VINA RESULT:      -3.8      9.178     10.847
REMARK  2 active torsions:
REMARK  status: ('A' for Active; 'I' for Inactive)
REMARK    1  A    between atoms: C3_3  and  C7_7 
REMARK    2  A    between atoms: C3_3  and  O11_11 
ROOT
HETATM    1  C1  UNL     1     -33.020   7.283   4.123  1.00 20.00    -0.070 C 
HETATM    2  C2  UNL     1     -32.556   6.933   2.917  1.00 20.00    -0.027 C 
HETATM    3  C4  UNL     1     -33.086   8.700   4.621  1.00 20.00     0.034 C 
HETATM    4  C5  UNL     1     -33.994   8.601   5.839  1.00 20.00     0.005 C 
HETATM    5  C6  UNL     1     -33.715   7.210   6.400  1.00 20.00     0.019 C 
HETATM    6  C7  UNL     1     -33.530   6.328   5.167  1.00 20.00     0.114 C 
HETATM    7  C8  UNL     1     -32.041   7.904   1.908  1.00 20.00     0.036 C 
ENDROOT
BRANCH   6   8
HETATM    8  C3  UNL     1     -34.835   5.751   4.707  1.00 20.00     0.266 C 
HETATM    9  O10 UNL     1     -35.780   6.421   4.312  1.00 20.00    -0.265 OA
BRANCH   8  10
HETATM   10  O11 UNL     1     -34.791   4.391   4.803  1.00 20.00    -0.326 OA
HETATM   11  C9  UNL     1     -33.617   3.775   4.266  1.00 20.00     0.213 C 
ENDBRANCH   8  10
ENDBRANCH   6   8
TORSDOF 2
ENDMDL
MODEL 4
REMARK VINA RESULT:      -3.7      9.983     11.176
REMARK  2 active torsions:
REMARK  status: ('A' for Active; 'I' for Inactive)
REMARK    1  A    between atoms: C3_3  and  C7_7 
REMARK    2  A    between atoms: C3_3  and  O11_11 
ROOT
HETATM    1  C1  UNL     1     -33.741   5.553   3.839  1.00 20.00    -0.070 C 
HETATM    2  C2  UNL     1     -33.112   5.500   2.659  1.00 20.00    -0.027 C 
HETATM    3  C4  UNL     1     -34.089   4.346   4.663  1.00 20.00     0.034 C 
HETATM    4  C5  UNL     1     -34.441   4.938   6.021  1.00 20.00     0.005 C 
HETATM    5  C6  UNL     1     -35.042   6.300   5.690  1.00 20.00     0.019 C 
HETATM    6  C7  UNL     1     -34.210   6.812   4.516  1.00 20.00     0.114 C 
HETATM    7  C8  UNL     1     -32.673   4.233   2.005  1.00 20.00     0.036 C 
ENDROOT
BRANCH   6   8
HETATM    8  C3  UNL     1     -33.017   7.587   4.990  1.00 20.00     0.266 C 
HETATM    9  O10 UNL     1     -32.804   7.871   6.161  1.00 20.00    -0.265 OA
BRANCH   8  10
HETATM   10  O11 UNL     1     -32.233   7.913   3.922  1.00 20.00    -0.326 OA
HETATM   11  C9  UNL     1     -32.612   9.102   3.222  1.00 20.00     0.213 C 
ENDBRANCH   8  10
ENDBRANCH   6   8
TORSDOF 2
ENDMDL
MODEL 5
REMARK VINA RESULT:      -3.7      9.395     11.016
REMARK  2 active torsions:
REMARK  status: ('A' for Active; 'I' for Inactive)
REMARK    1  A    between atoms: C3_3  and  C7_7 
REMARK    2  A    between atoms: C3_3  and  O11_11 
ROOT
HETATM    1  C1  UNL     1     -33.906   6.265   4.550  1.00 20.00    -0.070 C 
HETATM    2  C2  UNL     1     -33.707   5.324   3.619  1.00 20.00    -0.027 C 
HETATM    3  C4  UNL     1     -34.275   5.972   5.977  1.00 20.00     0.034 C 
HETATM    4  C5  UNL     1     -34.028   7.300   6.682  1.00 20.00     0.005 C 
HETATM    5  C6  UNL     1     -34.338   8.349   5.619  1.00 20.00     0.019 C 
HETATM    6  C7  UNL     1     -33.808   7.748   4.320  1.00 20.00     0.114 C 
HETATM    7  C8  UNL     1     -33.827   3.859   3.875  1.00 20.00     0.036 C 
ENDROOT
BRANCH   6   8
HETATM    8  C3  UNL     1     -32.372   8.115   4.093  1.00 20.00     0.266 C 
HETATM    9  O10 UNL     1     -31.734   8.869   4.817  1.00 20.00    -0.265 OA
BRANCH   8  10
HETATM   10  O11 UNL     1     -31.912   7.484   2.975  1.00 20.00    -0.326 OA
HETATM   11  C9  UNL     1     -32.202   8.140   1.736  1.00 20.00     0.213 C 
ENDBRANCH   8  10
ENDBRANCH   6   8
TORSDOF 2
ENDMDL
MODEL 6
REMARK VINA RESULT:      -3.6     10.508     11.291
REMARK  2 active torsions:
REMARK  status: ('A' for Active; 'I' for Inactive)
REMARK    1  A    between atoms: C3_3  and  C7_7 
REMARK    2  A    between atoms: C3_3  and  O11_11 
ROOT
HETATM    1  C1  UNL     1     -33.879   6.971   4.783  1.00 20.00    -0.070 C 
HETATM    2  C2  UNL     1     -34.598   5.846   4.883  1.00 20.00    -0.027 C 
HETATM    3  C4  UNL     1     -33.260   7.682   5.953  1.00 20.00     0.034 C 
HETATM    4  C5  UNL     1     -32.282   8.648   5.298  1.00 20.00     0.005 C 
HETATM    5  C6  UNL     1     -32.943   9.005   3.971  1.00 20.00     0.019 C 
HETATM    6  C7  UNL     1     -33.590   7.704   3.502  1.00 20.00     0.114 C 
HETATM    7  C8  UNL     1     -34.880   5.150   6.172  1.00 20.00     0.036 C 
ENDROOT
BRANCH   6   8
HETATM    8  C3  UNL     1     -32.642   6.889   2.674  1.00 20.00     0.266 C 
HETATM    9  O10 UNL     1     -32.665   5.667   2.608  1.00 20.00    -0.265 OA
BRANCH   8  10
HETATM   10  O11 UNL     1     -31.772   7.719   2.029  1.00 20.00    -0.326 OA
HETATM   11  C9  UNL     1     -32.183   8.147   0.726  1.00 20.00     0.213 C 
ENDBRANCH   8  10
ENDBRANCH   6   8
TORSDOF 2
ENDMDL
MODEL 7
REMARK VINA RESULT:      -3.5      2.538      3.609
REMARK  2 active torsions:
REMARK  status: ('A' for Active; 'I' for Inactive)
REMARK    1  A    between atoms: C3_3  and  C7_7 
REMARK    2  A    between atoms: C3_3  and  O11_11 
ROOT
HETATM    1  C1  UNL     1     -40.940  13.394   5.869  1.00 20.00    -0.070 C 
HETATM    2  C2  UNL     1     -40.262  12.467   5.182  1.00 20.00    -0.027 C 
HETATM    3  C4  UNL     1     -40.390  14.132   7.057  1.00 20.00     0.034 C 
HETATM    4  C5  UNL     1     -41.367  15.286   7.235  1.00 20.00     0.005 C 
HETATM    5  C6  UNL     1     -42.704  14.720   6.766  1.00 20.00     0.019 C 
HETATM    6  C7  UNL     1     -42.349  13.833   5.576  1.00 20.00     0.114 C 
HETATM    7  C8  UNL     1     -38.869  12.041   5.508  1.00 20.00     0.036 C 
ENDROOT
BRANCH   6   8
HETATM    8  C3  UNL     1     -42.363  14.609   4.293  1.00 20.00     0.266 C 
HETATM    9  O10 UNL     1     -41.759  14.274   3.282  1.00 20.00    -0.265 OA
BRANCH   8  10
HETATM   10  O11 UNL     1     -43.141  15.720   4.441  1.00 20.00    -0.326 OA
HETATM   11  C9  UNL     1     -42.757  16.848   3.649  1.00 20.00     0.213 C 
ENDBRANCH   8  10
ENDBRANCH   6   8
TORSDOF 2
ENDMDL
MODEL 8
REMARK VINA RESULT:      -3.5     12.799     14.159
REMARK  2 active torsions:
REMARK  status: ('A' for Active; 'I' for Inactive)
REMARK    1  A    between atoms: C3_3  and  C7_7 
REMARK    2  A    between atoms: C3_3  and  O11_11 
ROOT
HETATM    1  C1  UNL     1     -34.727  16.655  -4.636  1.00 20.00    -0.070 C 
HETATM    2  C2  UNL     1     -35.451  17.760  -4.419  1.00 20.00    -0.027 C 
HETATM    3  C4  UNL     1     -33.667  16.145  -3.701  1.00 20.00     0.034 C 
HETATM    4  C5  UNL     1     -33.417  14.727  -4.195  1.00 20.00     0.005 C 
HETATM    5  C6  UNL     1     -33.665  14.805  -5.697  1.00 20.00     0.019 C 
HETATM    6  C7  UNL     1     -34.845  15.764  -5.843  1.00 20.00     0.114 C 
HETATM    7  C8  UNL     1     -35.300  18.633  -3.219  1.00 20.00     0.036 C 
ENDROOT
BRANCH   6   8
HETATM    8  C3  UNL     1     -36.153  15.032  -5.785  1.00 20.00     0.266 C 
HETATM    9  O10 UNL     1     -36.385  14.101  -5.025  1.00 20.00    -0.265 OA
BRANCH   8  10
HETATM   10  O11 UNL     1     -37.014  15.566  -6.699  1.00 20.00    -0.326 OA
HETATM   11  C9  UNL     1     -36.415  16.016  -7.918  1.00 20.00     0.213 C 
ENDBRANCH   8  10
ENDBRANCH   6   8
TORSDOF 2
ENDMDL
MODEL 9
REMARK VINA RESULT:      -3.4      1.252      2.776
REMARK  2 active torsions:
REMARK  status: ('A' for Active; 'I' for Inactive)
REMARK    1  A    between atoms: C3_3  and  C7_7 
REMARK    2  A    between atoms: C3_3  and  O11_11 
ROOT
HETATM    1  C1  UNL     1     -41.117  13.385   5.252  1.00 20.00    -0.070 C 
HETATM    2  C2  UNL     1     -42.115  14.205   4.900  1.00 20.00    -0.027 C 
HETATM    3  C4  UNL     1     -40.091  12.847   4.294  1.00 20.00     0.034 C 
HETATM    4  C5  UNL     1     -39.011  12.293   5.214  1.00 20.00     0.005 C 
HETATM    5  C6  UNL     1     -39.776  11.820   6.446  1.00 20.00     0.019 C 
HETATM    6  C7  UNL     1     -40.872  12.863   6.642  1.00 20.00     0.114 C 
HETATM    7  C8  UNL     1     -42.341  14.692   3.508  1.00 20.00     0.036 C 
ENDROOT
BRANCH   6   8
HETATM    8  C3  UNL     1     -40.404  13.991   7.512  1.00 20.00     0.266 C 
HETATM    9  O10 UNL     1     -40.183  15.124   7.106  1.00 20.00    -0.265 OA
BRANCH   8  10
HETATM   10  O11 UNL     1     -40.269  13.550   8.796  1.00 20.00    -0.326 OA
HETATM   11  C9  UNL     1     -40.440  14.546   9.809  1.00 20.00     0.213 C 
ENDBRANCH   8  10
ENDBRANCH   6   8
TORSDOF 2
ENDMDL
