MODEL 1
REMARK VINA RESULT:      -3.8      0.000      0.000
REMARK  0 active torsions:
REMARK  status: ('A' for Active; 'I' for Inactive)
ROOT
HETATM    1  C1  UNL     1     -33.633   7.476   5.172  1.00 20.00     0.134 C 
HETATM    2  C2  UNL     1     -33.466   6.613   6.409  1.00 20.00     0.109 C 
HETATM    3  C3  UNL     1     -33.342   5.588   3.574  1.00 20.00     0.044 C 
HETATM    4  C4  UNL     1     -34.553   5.532   6.493  1.00 20.00     0.280 C 
HETATM    5  C5  UNL     1     -33.910   4.436   4.407  1.00 20.00     0.273 C 
HETATM    6  C6  UNL     1     -35.514   6.122   4.372  1.00 20.00     0.284 C 
HETATM    7  C7  UNL     1     -34.214   6.780   3.952  1.00 20.00     0.085 C 
HETATM    8  N8  UNL     1     -35.026   4.997   5.197  1.00 20.00     0.089 N 
HETATM    9  O9  UNL     1     -33.254   8.645   5.139  1.00 20.00    -0.297 OA
ENDROOT
TORSDOF 0
ENDMDL
MODEL 2
REMARK VINA RESULT:      -3.8      1.846      2.686
REMARK  0 active torsions:
REMARK  status: ('A' for Active; 'I' for Inactive)
ROOT
HETATM    1  C1  UNL     1     -33.328   5.571   3.456  1.00 20.00     0.134 C 
HETATM    2  C2  UNL     1     -32.720   6.898   3.871  1.00 20.00     0.109 C 
HETATM    3  C3  UNL     1     -33.906   4.882   5.778  1.00 20.00     0.044 C 
HETATM    4  C4  UNL     1     -33.754   7.797   4.565  1.00 20.00     0.280 C 
HETATM    5  C5  UNL     1     -34.158   6.252   6.414  1.00 20.00     0.273 C 
HETATM    6  C6  UNL     1     -35.476   6.124   4.500  1.00 20.00     0.284 C 
HETATM    7  C7  UNL     1     -34.431   5.036   4.355  1.00 20.00     0.085 C 
HETATM    8  N8  UNL     1     -34.778   7.094   5.369  1.00 20.00     0.089 N 
HETATM    9  O9  UNL     1     -32.903   4.934   2.493  1.00 20.00    -0.297 OA
ENDROOT
TORSDOF 0
ENDMDL
MODEL 3
REMARK VINA RESULT:      -3.6     16.118     17.150
REMARK  0 active torsions:
REMARK  status: ('A' for Active; 'I' for Inactive)
ROOT
HETATM    1  C1  UNL     1     -22.802  18.712   9.816  1.00 20.00     0.134 C 
HETATM    2  C2  UNL     1     -21.855  18.589  10.995  1.00 20.00     0.109 C 
HETATM    3  C3  UNL     1     -24.095  16.661  10.385  1.00 20.00     0.044 C 
HETATM    4  C4  UNL     1     -22.608  18.659  12.331  1.00 20.00     0.280 C 
HETATM    5  C5  UNL     1     -23.955  16.666  11.911  1.00 20.00     0.273 C 
HETATM    6  C6  UNL     1     -24.767  18.755  11.282  1.00 20.00     0.284 C 
HETATM    7  C7  UNL     1     -24.195  18.138  10.021  1.00 20.00     0.085 C 
HETATM    8  N8  UNL     1     -23.971  18.083  12.331  1.00 20.00     0.089 N 
HETATM    9  O9  UNL     1     -22.442  19.181   8.738  1.00 20.00    -0.297 OA
ENDROOT
TORSDOF 0
ENDMDL
MODEL 4
REMARK VINA RESULT:      -3.5     15.659     16.741
REMARK  0 active torsions:
REMARK  status: ('A' for Active; 'I' for Inactive)
ROOT
HETATM    1  C1  UNL     1     -23.122  17.181   9.928  1.00 20.00     0.134 C 
HETATM    2  C2  UNL     1     -24.053  16.211  10.631  1.00 20.00     0.109 C 
HETATM    3  C3  UNL     1     -24.659  19.128  10.150  1.00 20.00     0.044 C 
HETATM    4  C4  UNL     1     -24.329  16.645  12.077  1.00 20.00     0.280 C 
HETATM    5  C5  UNL     1     -25.368  18.767  11.459  1.00 20.00     0.273 C 
HETATM    6  C6  UNL     1     -23.078  18.683  11.865  1.00 20.00     0.284 C 
HETATM    7  C7  UNL     1     -23.231  18.635  10.358  1.00 20.00     0.085 C 
HETATM    8  N8  UNL     1     -24.361  18.105  12.314  1.00 20.00     0.089 N 
HETATM    9  O9  UNL     1     -22.377  16.823   9.017  1.00 20.00    -0.297 OA
ENDROOT
TORSDOF 0
ENDMDL
MODEL 5
REMARK VINA RESULT:      -3.5      8.923      9.722
REMARK  0 active torsions:
REMARK  status: ('A' for Active; 'I' for Inactive)
ROOT
HETATM    1  C1  UNL     1     -40.989   6.096  -0.185  1.00 20.00     0.134 C 
HETATM    2  C2  UNL     1     -40.875   7.608  -0.131  1.00 20.00     0.109 C 
HETATM    3  C3  UNL     1     -42.604   5.952   1.706  1.00 20.00     0.044 C 
HETATM    4  C4  UNL     1     -42.228   8.285  -0.394  1.00 20.00     0.280 C 
HETATM    5  C5  UNL     1     -43.333   7.290   1.544  1.00 20.00     0.273 C 
HETATM    6  C6  UNL     1     -43.417   6.201  -0.512  1.00 20.00     0.284 C 
HETATM    7  C7  UNL     1     -42.317   5.515   0.274  1.00 20.00     0.085 C 
HETATM    8  N8  UNL     1     -43.417   7.550   0.091  1.00 20.00     0.089 N 
HETATM    9  O9  UNL     1     -40.042   5.384  -0.510  1.00 20.00    -0.297 OA
ENDROOT
TORSDOF 0
ENDMDL
MODEL 6
REMARK VINA RESULT:      -3.4      8.738      9.781
REMARK  0 active torsions:
REMARK  status: ('A' for Active; 'I' for Inactive)
ROOT
HETATM    1  C1  UNL     1     -42.945   5.792   1.702  1.00 20.00     0.134 C 
HETATM    2  C2  UNL     1     -42.566   4.833   0.589  1.00 20.00     0.109 C 
HETATM    3  C3  UNL     1     -41.129   7.418   1.191  1.00 20.00     0.044 C 
HETATM    4  C4  UNL     1     -42.675   5.500  -0.789  1.00 20.00     0.280 C 
HETATM    5  C5  UNL     1     -40.998   7.212  -0.321  1.00 20.00     0.273 C 
HETATM    6  C6  UNL     1     -43.240   7.647   0.127  1.00 20.00     0.284 C 
HETATM    7  C7  UNL     1     -42.622   7.257   1.455  1.00 20.00     0.085 C 
HETATM    8  N8  UNL     1     -42.359   6.945  -0.830  1.00 20.00     0.089 N 
HETATM    9  O9  UNL     1     -43.417   5.398   2.767  1.00 20.00    -0.297 OA
ENDROOT
TORSDOF 0
ENDMDL
MODEL 7
REMARK VINA RESULT:      -3.4      8.589      9.526
REMARK  0 active torsions:
REMARK  status: ('A' for Active; 'I' for Inactive)
ROOT
HETATM    1  C1  UNL     1     -41.207   5.882  -0.286  1.00 20.00     0.134 C 
HETATM    2  C2  UNL     1     -42.448   5.176   0.227  1.00 20.00     0.109 C 
HETATM    3  C3  UNL     1     -42.354   8.062  -0.651  1.00 20.00     0.044 C 
HETATM    4  C4  UNL     1     -42.984   5.838   1.505  1.00 20.00     0.280 C 
HETATM    5  C5  UNL     1     -43.417   7.998   0.450  1.00 20.00     0.273 C 
HETATM    6  C6  UNL     1     -41.355   7.602   1.454  1.00 20.00     0.284 C 
HETATM    7  C7  UNL     1     -41.141   7.379  -0.029  1.00 20.00     0.085 C 
HETATM    8  N8  UNL     1     -42.795   7.303   1.597  1.00 20.00     0.089 N 
HETATM    9  O9  UNL     1     -40.344   5.291  -0.932  1.00 20.00    -0.297 OA
ENDROOT
TORSDOF 0
ENDMDL
MODEL 8
REMARK VINA RESULT:      -3.3      8.784      9.733
REMARK  0 active torsions:
REMARK  status: ('A' for Active; 'I' for Inactive)
ROOT
HETATM    1  C1  UNL     1     -43.046   7.718   0.053  1.00 20.00     0.134 C 
HETATM    2  C2  UNL     1     -43.293   7.350   1.504  1.00 20.00     0.109 C 
HETATM    3  C3  UNL     1     -40.892   6.478  -0.102  1.00 20.00     0.044 C 
HETATM    4  C4  UNL     1     -43.417   5.830   1.685  1.00 20.00     0.280 C 
HETATM    5  C5  UNL     1     -41.157   5.346   0.896  1.00 20.00     0.273 C 
HETATM    6  C6  UNL     1     -42.924   5.363  -0.618  1.00 20.00     0.284 C 
HETATM    7  C7  UNL     1     -42.247   6.712  -0.760  1.00 20.00     0.085 C 
HETATM    8  N8  UNL     1     -42.590   5.006   0.776  1.00 20.00     0.089 N 
HETATM    9  O9  UNL     1     -43.407   8.796  -0.415  1.00 20.00    -0.297 OA
ENDROOT
TORSDOF 0
ENDMDL
MODEL 9
REMARK VINA RESULT:      -3.2      8.579      9.715
REMARK  0 active torsions:
REMARK  status: ('A' for Active; 'I' for Inactive)
ROOT
HETATM    1  C1  UNL     1     -42.761   8.180  -0.360  1.00 20.00     0.134 C 
HETATM    2  C2  UNL     1     -41.243   8.188  -0.364  1.00 20.00     0.109 C 
HETATM    3  C3  UNL     1     -42.947   5.734  -0.791  1.00 20.00     0.044 C 
HETATM    4  C4  UNL     1     -40.673   7.298   0.749  1.00 20.00     0.280 C 
HETATM    5  C5  UNL     1     -41.670   5.239  -0.105  1.00 20.00     0.273 C 
HETATM    6  C6  UNL     1     -42.836   6.523   1.446  1.00 20.00     0.284 C 
HETATM    7  C7  UNL     1     -43.416   6.884   0.093  1.00 20.00     0.085 C 
HETATM    8  N8  UNL     1     -41.470   6.097   1.082  1.00 20.00     0.089 N 
HETATM    9  O9  UNL     1     -43.417   9.136  -0.766  1.00 20.00    -0.297 OA
ENDROOT
TORSDOF 0
ENDMDL
