MODEL 1
REMARK VINA RESULT:      -4.3      0.000      0.000
REMARK  1 active torsions:
REMARK  status: ('A' for Active; 'I' for Inactive)
REMARK    1  A    between atoms: C1_1  and  C4_4 
ROOT
HETATM    1  C2  UNL     1     -35.246   6.371   4.535  1.00 20.00     0.035 C 
HETATM    2  C3  UNL     1     -34.082   6.451   6.328  1.00 20.00     0.035 C 
HETATM    3  C4  UNL     1     -34.166   7.340   5.067  1.00 20.00     0.089 C 
HETATM    4  C5  UNL     1     -34.719   5.301   5.517  1.00 20.00     0.084 C 
HETATM    5 CL8  UNL     1     -33.623   4.031   4.862  1.00 20.00    -0.125 Cl
ENDROOT
BRANCH   3   6
HETATM    6  C1  UNL     1     -32.918   7.411   4.253  1.00 20.00     0.177 C 
HETATM    7  O6  UNL     1     -32.859   6.604   3.284  1.00 20.00    -0.648 OA
HETATM    8  O7  UNL     1     -32.080   8.273   4.642  1.00 20.00    -0.648 OA
ENDBRANCH   3   6
TORSDOF 1
ENDMDL
MODEL 2
REMARK VINA RESULT:      -4.3      1.528      1.806
REMARK  1 active torsions:
REMARK  status: ('A' for Active; 'I' for Inactive)
REMARK    1  A    between atoms: C1_1  and  C4_4 
ROOT
HETATM    1  C2  UNL     1     -35.438   5.827   4.448  1.00 20.00     0.035 C 
HETATM    2  C3  UNL     1     -34.049   4.786   5.697  1.00 20.00     0.035 C 
HETATM    3  C4  UNL     1     -34.707   6.183   5.763  1.00 20.00     0.089 C 
HETATM    4  C5  UNL     1     -34.368   4.745   4.187  1.00 20.00     0.084 C 
HETATM    5 CL8  UNL     1     -33.038   5.142   3.039  1.00 20.00    -0.125 Cl
ENDROOT
BRANCH   3   6
HETATM    6  C1  UNL     1     -33.766   7.335   5.676  1.00 20.00     0.177 C 
HETATM    7  O6  UNL     1     -33.917   8.081   4.669  1.00 20.00    -0.648 OA
HETATM    8  O7  UNL     1     -32.937   7.415   6.626  1.00 20.00    -0.648 OA
ENDBRANCH   3   6
TORSDOF 1
ENDMDL
MODEL 3
REMARK VINA RESULT:      -4.0      2.129      2.950
REMARK  1 active torsions:
REMARK  status: ('A' for Active; 'I' for Inactive)
REMARK    1  A    between atoms: C1_1  and  C4_4 
ROOT
HETATM    1  C2  UNL     1     -33.677   6.794   6.219  1.00 20.00     0.035 C 
HETATM    2  C3  UNL     1     -34.771   7.621   4.576  1.00 20.00     0.035 C 
HETATM    3  C4  UNL     1     -34.643   6.199   5.168  1.00 20.00     0.089 C 
HETATM    4  C5  UNL     1     -33.443   7.993   5.273  1.00 20.00     0.084 C 
HETATM    5 CL8  UNL     1     -31.944   7.990   4.274  1.00 20.00    -0.125 Cl
ENDROOT
BRANCH   3   6
HETATM    6  C1  UNL     1     -34.043   5.182   4.258  1.00 20.00     0.177 C 
HETATM    7  O6  UNL     1     -33.608   5.629   3.160  1.00 20.00    -0.648 OA
HETATM    8  O7  UNL     1     -34.050   4.000   4.705  1.00 20.00    -0.648 OA
ENDBRANCH   3   6
TORSDOF 1
ENDMDL
MODEL 4
REMARK VINA RESULT:      -3.9      2.121      2.907
REMARK  1 active torsions:
REMARK  status: ('A' for Active; 'I' for Inactive)
REMARK    1  A    between atoms: C1_1  and  C4_4 
ROOT
HETATM    1  C2  UNL     1     -33.680   6.840   6.193  1.00 20.00     0.035 C 
HETATM    2  C3  UNL     1     -34.753   7.655   4.532  1.00 20.00     0.035 C 
HETATM    3  C4  UNL     1     -34.641   6.239   5.142  1.00 20.00     0.089 C 
HETATM    4  C5  UNL     1     -33.429   8.026   5.235  1.00 20.00     0.084 C 
HETATM    5 CL8  UNL     1     -31.921   8.000   4.250  1.00 20.00    -0.125 Cl
ENDROOT
BRANCH   3   6
HETATM    6  C1  UNL     1     -34.041   5.207   4.249  1.00 20.00     0.177 C 
HETATM    7  O6  UNL     1     -34.104   4.021   4.678  1.00 20.00    -0.648 OA
HETATM    8  O7  UNL     1     -33.547   5.655   3.177  1.00 20.00    -0.648 OA
ENDBRANCH   3   6
TORSDOF 1
ENDMDL
MODEL 5
REMARK VINA RESULT:      -3.9      1.776      2.484
REMARK  1 active torsions:
REMARK  status: ('A' for Active; 'I' for Inactive)
REMARK    1  A    between atoms: C1_1  and  C4_4 
ROOT
HETATM    1  C2  UNL     1     -34.105   4.615   5.486  1.00 20.00     0.035 C 
HETATM    2  C3  UNL     1     -35.387   6.124   4.675  1.00 20.00     0.035 C 
HETATM    3  C4  UNL     1     -34.400   5.110   4.052  1.00 20.00     0.089 C 
HETATM    4  C5  UNL     1     -34.654   5.955   6.024  1.00 20.00     0.084 C 
HETATM    5 CL8  UNL     1     -33.460   7.220   6.492  1.00 20.00    -0.125 Cl
ENDROOT
BRANCH   3   6
HETATM    6  C1  UNL     1     -33.238   5.711   3.335  1.00 20.00     0.177 C 
HETATM    7  O6  UNL     1     -33.014   6.926   3.594  1.00 20.00    -0.648 OA
HETATM    8  O7  UNL     1     -32.629   4.922   2.560  1.00 20.00    -0.648 OA
ENDBRANCH   3   6
TORSDOF 1
ENDMDL
MODEL 6
REMARK VINA RESULT:      -3.8     16.343     16.671
REMARK  1 active torsions:
REMARK  status: ('A' for Active; 'I' for Inactive)
REMARK    1  A    between atoms: C1_1  and  C4_4 
ROOT
HETATM    1  C2  UNL     1     -23.936  19.140   9.761  1.00 20.00     0.035 C 
HETATM    2  C3  UNL     1     -22.229  18.537  10.902  1.00 20.00     0.035 C 
HETATM    3  C4  UNL     1     -22.433  18.983   9.436  1.00 20.00     0.089 C 
HETATM    4  C5  UNL     1     -23.736  18.203  10.973  1.00 20.00     0.084 C 
HETATM    5 CL8  UNL     1     -24.221  16.478  10.785  1.00 20.00    -0.125 Cl
ENDROOT
BRANCH   3   6
HETATM    6  C1  UNL     1     -22.110  17.954   8.406  1.00 20.00     0.177 C 
HETATM    7  O6  UNL     1     -21.456  16.958   8.824  1.00 20.00    -0.648 OA
HETATM    8  O7  UNL     1     -22.533  18.215   7.245  1.00 20.00    -0.648 OA
ENDBRANCH   3   6
TORSDOF 1
ENDMDL
MODEL 7
REMARK VINA RESULT:      -3.8      8.994      9.897
REMARK  1 active torsions:
REMARK  status: ('A' for Active; 'I' for Inactive)
REMARK    1  A    between atoms: C1_1  and  C4_4 
ROOT
HETATM    1  C2  UNL     1     -43.373   7.505   0.120  1.00 20.00     0.035 C 
HETATM    2  C3  UNL     1     -41.456   7.475   1.069  1.00 20.00     0.035 C 
HETATM    3  C4  UNL     1     -41.936   7.227  -0.379  1.00 20.00     0.089 C 
HETATM    4  C5  UNL     1     -42.895   7.199   1.557  1.00 20.00     0.084 C 
HETATM    5 CL8  UNL     1     -43.254   5.566   2.228  1.00 20.00    -0.125 Cl
ENDROOT
BRANCH   3   6
HETATM    6  C1  UNL     1     -41.700   5.851  -0.902  1.00 20.00     0.177 C 
HETATM    7  O6  UNL     1     -42.718   5.269  -1.370  1.00 20.00    -0.648 OA
HETATM    8  O7  UNL     1     -40.507   5.447  -0.809  1.00 20.00    -0.648 OA
ENDBRANCH   3   6
TORSDOF 1
ENDMDL
MODEL 8
REMARK VINA RESULT:      -3.6      9.174      9.632
REMARK  1 active torsions:
REMARK  status: ('A' for Active; 'I' for Inactive)
REMARK    1  A    between atoms: C1_1  and  C4_4 
ROOT
HETATM    1  C2  UNL     1     -41.580  12.479   6.700  1.00 20.00     0.035 C 
HETATM    2  C3  UNL     1     -40.980  13.471   4.902  1.00 20.00     0.035 C 
HETATM    3  C4  UNL     1     -40.556  12.152   5.589  1.00 20.00     0.089 C 
HETATM    4  C5  UNL     1     -41.535  13.958   6.259  1.00 20.00     0.084 C 
HETATM    5 CL8  UNL     1     -40.516  15.088   7.223  1.00 20.00    -0.125 Cl
ENDROOT
BRANCH   3   6
HETATM    6  C1  UNL     1     -39.134  12.094   6.033  1.00 20.00     0.177 C 
HETATM    7  O6  UNL     1     -38.961  11.958   7.277  1.00 20.00    -0.648 OA
HETATM    8  O7  UNL     1     -38.284  12.188   5.103  1.00 20.00    -0.648 OA
ENDBRANCH   3   6
TORSDOF 1
ENDMDL
MODEL 9
REMARK VINA RESULT:      -3.6      8.932      9.816
REMARK  1 active torsions:
REMARK  status: ('A' for Active; 'I' for Inactive)
REMARK    1  A    between atoms: C1_1  and  C4_4 
ROOT
HETATM    1  C2  UNL     1     -40.967   5.881   0.662  1.00 20.00     0.035 C 
HETATM    2  C3  UNL     1     -42.673   5.675  -0.612  1.00 20.00     0.035 C 
HETATM    3  C4  UNL     1     -41.427   6.590  -0.633  1.00 20.00     0.089 C 
HETATM    4  C5  UNL     1     -42.427   5.432   0.893  1.00 20.00     0.084 C 
HETATM    5 CL8  UNL     1     -43.417   6.374   2.066  1.00 20.00    -0.125 Cl
ENDROOT
BRANCH   3   6
HETATM    6  C1  UNL     1     -41.704   8.048  -0.496  1.00 20.00     0.177 C 
HETATM    7  O6  UNL     1     -40.746   8.741  -0.052  1.00 20.00    -0.648 OA
HETATM    8  O7  UNL     1     -42.867   8.401  -0.842  1.00 20.00    -0.648 OA
ENDBRANCH   3   6
TORSDOF 1
ENDMDL
