MODEL 1
REMARK VINA RESULT:      -4.0      0.000      0.000
REMARK  5 active torsions:
REMARK  status: ('A' for Active; 'I' for Inactive)
REMARK    1  A    between atoms: C2_2  and  C3_3 
REMARK    2  A    between atoms: C2_2  and  C4_4 
REMARK    3  A    between atoms: C3_3  and  C5_5 
REMARK    4  A    between atoms: C4_4  and  C6_6 
REMARK    5  A    between atoms: C5_5  and  S7_7 
ROOT
HETATM    1  C2  UNL     1     -34.493   5.706   6.275  1.00 20.00     0.002 C 
ENDROOT
BRANCH   1   2
HETATM    2  C3  UNL     1     -34.023   7.155   6.439  1.00 20.00     0.010 C 
BRANCH   2   3
HETATM    3  C5  UNL     1     -33.976   7.937   5.127  1.00 20.00     0.073 C 
BRANCH   3   4
HETATM    4  S7  UNL     1     -32.293   8.439   4.660  1.00 20.00    -0.173 SA
HETATM    5  C1  UNL     1     -32.587   8.739   2.903  1.00 20.00     0.089 C 
ENDBRANCH   3   4
ENDBRANCH   2   3
ENDBRANCH   1   2
BRANCH   1   6
HETATM    6  C4  UNL     1     -34.927   5.425   4.833  1.00 20.00     0.015 C 
BRANCH   6   7
HETATM    7  C6  UNL     1     -33.999   4.419   4.167  1.00 20.00     0.114 C 
HETATM    8 CL8  UNL     1     -33.103   5.188   2.836  1.00 20.00    -0.130 Cl
ENDBRANCH   6   7
ENDBRANCH   1   6
TORSDOF 5
ENDMDL
MODEL 2
REMARK VINA RESULT:      -3.8      1.330      1.781
REMARK  5 active torsions:
REMARK  status: ('A' for Active; 'I' for Inactive)
REMARK    1  A    between atoms: C2_2  and  C3_3 
REMARK    2  A    between atoms: C2_2  and  C4_4 
REMARK    3  A    between atoms: C3_3  and  C5_5 
REMARK    4  A    between atoms: C4_4  and  C6_6 
REMARK    5  A    between atoms: C5_5  and  S7_7 
ROOT
HETATM    1  C2  UNL     1     -33.608   7.177   6.274  1.00 20.00     0.002 C 
ENDROOT
BRANCH   1   2
HETATM    2  C3  UNL     1     -33.781   8.004   4.996  1.00 20.00     0.010 C 
BRANCH   2   3
HETATM    3  C5  UNL     1     -32.470   8.280   4.261  1.00 20.00     0.073 C 
BRANCH   3   4
HETATM    4  S7  UNL     1     -32.179   7.138   2.877  1.00 20.00    -0.173 SA
HETATM    5  C1  UNL     1     -32.249   8.339   1.529  1.00 20.00     0.089 C 
ENDBRANCH   3   4
ENDBRANCH   2   3
ENDBRANCH   1   2
BRANCH   1   6
HETATM    6  C4  UNL     1     -34.580   5.995   6.304  1.00 20.00     0.015 C 
BRANCH   6   7
HETATM    7  C6  UNL     1     -35.050   5.636   4.901  1.00 20.00     0.114 C 
HETATM    8 CL8  UNL     1     -34.066   4.312   4.237  1.00 20.00    -0.130 Cl
ENDBRANCH   6   7
ENDBRANCH   1   6
TORSDOF 5
ENDMDL
MODEL 3
REMARK VINA RESULT:      -3.8      2.026      3.402
REMARK  5 active torsions:
REMARK  status: ('A' for Active; 'I' for Inactive)
REMARK    1  A    between atoms: C2_2  and  C3_3 
REMARK    2  A    between atoms: C2_2  and  C4_4 
REMARK    3  A    between atoms: C3_3  and  C5_5 
REMARK    4  A    between atoms: C4_4  and  C6_6 
REMARK    5  A    between atoms: C5_5  and  S7_7 
ROOT
HETATM    1  C2  UNL     1     -33.644   8.147   4.965  1.00 20.00     0.002 C 
ENDROOT
BRANCH   1   2
HETATM    2  C3  UNL     1     -33.491   7.301   6.234  1.00 20.00     0.010 C 
BRANCH   2   3
HETATM    3  C5  UNL     1     -34.515   6.172   6.345  1.00 20.00     0.073 C 
BRANCH   3   4
HETATM    4  S7  UNL     1     -35.191   5.667   4.736  1.00 20.00    -0.173 SA
HETATM    5  C1  UNL     1     -33.971   4.399   4.325  1.00 20.00     0.089 C 
ENDBRANCH   3   4
ENDBRANCH   2   3
ENDBRANCH   1   2
BRANCH   1   6
HETATM    6  C4  UNL     1     -32.303   8.306   4.243  1.00 20.00     0.015 C 
BRANCH   6   7
HETATM    7  C6  UNL     1     -32.185   7.327   3.084  1.00 20.00     0.114 C 
HETATM    8 CL8  UNL     1     -32.155   8.200   1.534  1.00 20.00    -0.130 Cl
ENDBRANCH   6   7
ENDBRANCH   1   6
TORSDOF 5
ENDMDL
MODEL 4
REMARK VINA RESULT:      -3.7      2.245      3.231
REMARK  5 active torsions:
REMARK  status: ('A' for Active; 'I' for Inactive)
REMARK    1  A    between atoms: C2_2  and  C3_3 
REMARK    2  A    between atoms: C2_2  and  C4_4 
REMARK    3  A    between atoms: C3_3  and  C5_5 
REMARK    4  A    between atoms: C4_4  and  C6_6 
REMARK    5  A    between atoms: C5_5  and  S7_7 
ROOT
HETATM    1  C2  UNL     1     -33.938   7.183   6.489  1.00 20.00     0.002 C 
ENDROOT
BRANCH   1   2
HETATM    2  C3  UNL     1     -34.625   5.834   6.250  1.00 20.00     0.010 C 
BRANCH   2   3
HETATM    3  C5  UNL     1     -34.931   5.553   4.779  1.00 20.00     0.073 C 
BRANCH   3   4
HETATM    4  S7  UNL     1     -33.829   4.303   4.052  1.00 20.00    -0.173 SA
HETATM    5  C1  UNL     1     -33.044   5.344   2.801  1.00 20.00     0.089 C 
ENDBRANCH   3   4
ENDBRANCH   2   3
ENDBRANCH   1   2
BRANCH   1   6
HETATM    6  C4  UNL     1     -33.939   8.036   5.218  1.00 20.00     0.015 C 
BRANCH   6   7
HETATM    7  C6  UNL     1     -32.521   8.402   4.802  1.00 20.00     0.114 C 
HETATM    8 CL8  UNL     1     -32.481   8.888   3.092  1.00 20.00    -0.130 Cl
ENDBRANCH   6   7
ENDBRANCH   1   6
TORSDOF 5
ENDMDL
MODEL 5
REMARK VINA RESULT:      -3.7      1.797      3.259
REMARK  5 active torsions:
REMARK  status: ('A' for Active; 'I' for Inactive)
REMARK    1  A    between atoms: C2_2  and  C3_3 
REMARK    2  A    between atoms: C2_2  and  C4_4 
REMARK    3  A    between atoms: C3_3  and  C5_5 
REMARK    4  A    between atoms: C4_4  and  C6_6 
REMARK    5  A    between atoms: C5_5  and  S7_7 
ROOT
HETATM    1  C2  UNL     1     -32.599   8.683   4.609  1.00 20.00     0.002 C 
ENDROOT
BRANCH   1   2
HETATM    2  C3  UNL     1     -33.872   8.007   5.129  1.00 20.00     0.010 C 
BRANCH   2   3
HETATM    3  C5  UNL     1     -33.632   7.083   6.323  1.00 20.00     0.073 C 
BRANCH   3   4
HETATM    4  S7  UNL     1     -34.521   5.503   6.187  1.00 20.00    -0.173 SA
HETATM    5  C1  UNL     1     -35.369   5.815   4.622  1.00 20.00     0.089 C 
ENDBRANCH   3   4
ENDBRANCH   2   3
ENDBRANCH   1   2
BRANCH   1   6
HETATM    6  C4  UNL     1     -31.728   7.694   3.829  1.00 20.00     0.015 C 
BRANCH   6   7
HETATM    7  C6  UNL     1     -32.417   7.249   2.547  1.00 20.00     0.114 C 
HETATM    8 CL8  UNL     1     -32.741   5.501   2.591  1.00 20.00    -0.130 Cl
ENDBRANCH   6   7
ENDBRANCH   1   6
TORSDOF 5
ENDMDL
MODEL 6
REMARK VINA RESULT:      -3.5      1.804      2.637
REMARK  5 active torsions:
REMARK  status: ('A' for Active; 'I' for Inactive)
REMARK    1  A    between atoms: C2_2  and  C3_3 
REMARK    2  A    between atoms: C2_2  and  C4_4 
REMARK    3  A    between atoms: C3_3  and  C5_5 
REMARK    4  A    between atoms: C4_4  and  C6_6 
REMARK    5  A    between atoms: C5_5  and  S7_7 
ROOT
HETATM    1  C2  UNL     1     -33.991   7.944   5.211  1.00 20.00     0.002 C 
ENDROOT
BRANCH   1   2
HETATM    2  C3  UNL     1     -32.663   8.647   4.910  1.00 20.00     0.010 C 
BRANCH   2   3
HETATM    3  C5  UNL     1     -31.734   7.839   4.004  1.00 20.00     0.073 C 
BRANCH   3   4
HETATM    4  S7  UNL     1     -32.497   7.406   2.411  1.00 20.00    -0.173 SA
HETATM    5  C1  UNL     1     -32.721   5.637   2.702  1.00 20.00     0.089 C 
ENDBRANCH   3   4
ENDBRANCH   2   3
ENDBRANCH   1   2
BRANCH   1   6
HETATM    6  C4  UNL     1     -33.844   6.957   6.372  1.00 20.00     0.015 C 
BRANCH   6   7
HETATM    7  C6  UNL     1     -34.530   5.635   6.057  1.00 20.00     0.114 C 
HETATM    8 CL8  UNL     1     -35.543   5.791   4.604  1.00 20.00    -0.130 Cl
ENDBRANCH   6   7
ENDBRANCH   1   6
TORSDOF 5
ENDMDL
MODEL 7
REMARK VINA RESULT:      -3.2      2.094      2.822
REMARK  5 active torsions:
REMARK  status: ('A' for Active; 'I' for Inactive)
REMARK    1  A    between atoms: C2_2  and  C3_3 
REMARK    2  A    between atoms: C2_2  and  C4_4 
REMARK    3  A    between atoms: C3_3  and  C5_5 
REMARK    4  A    between atoms: C4_4  and  C6_6 
REMARK    5  A    between atoms: C5_5  and  S7_7 
ROOT
HETATM    1  C2  UNL     1     -33.750   4.774   3.845  1.00 20.00     0.002 C 
ENDROOT
BRANCH   1   2
HETATM    2  C3  UNL     1     -33.253   5.678   2.712  1.00 20.00     0.010 C 
BRANCH   2   3
HETATM    3  C5  UNL     1     -32.205   6.699   3.156  1.00 20.00     0.073 C 
BRANCH   3   4
HETATM    4  S7  UNL     1     -32.835   8.404   3.164  1.00 20.00    -0.173 SA
HETATM    5  C1  UNL     1     -32.217   8.902   4.787  1.00 20.00     0.089 C 
ENDBRANCH   3   4
ENDBRANCH   2   3
ENDBRANCH   1   2
BRANCH   1   6
HETATM    6  C4  UNL     1     -34.908   5.427   4.605  1.00 20.00     0.015 C 
BRANCH   6   7
HETATM    7  C6  UNL     1     -34.658   5.409   6.107  1.00 20.00     0.114 C 
HETATM    8 CL8  UNL     1     -34.282   7.046   6.692  1.00 20.00    -0.130 Cl
ENDBRANCH   6   7
ENDBRANCH   1   6
TORSDOF 5
ENDMDL
MODEL 8
REMARK VINA RESULT:      -3.1      2.304      3.864
REMARK  5 active torsions:
REMARK  status: ('A' for Active; 'I' for Inactive)
REMARK    1  A    between atoms: C2_2  and  C3_3 
REMARK    2  A    between atoms: C2_2  and  C4_4 
REMARK    3  A    between atoms: C3_3  and  C5_5 
REMARK    4  A    between atoms: C4_4  and  C6_6 
REMARK    5  A    between atoms: C5_5  and  S7_7 
ROOT
HETATM    1  C2  UNL     1     -32.886   6.109   2.584  1.00 20.00     0.002 C 
ENDROOT
BRANCH   1   2
HETATM    2  C3  UNL     1     -33.441   5.108   3.603  1.00 20.00     0.010 C 
BRANCH   2   3
HETATM    3  C5  UNL     1     -34.710   5.589   4.307  1.00 20.00     0.073 C 
BRANCH   3   4
HETATM    4  S7  UNL     1     -34.592   5.503   6.119  1.00 20.00    -0.173 SA
HETATM    5  C1  UNL     1     -33.952   7.166   6.418  1.00 20.00     0.089 C 
ENDBRANCH   3   4
ENDBRANCH   2   3
ENDBRANCH   1   2
BRANCH   1   6
HETATM    6  C4  UNL     1     -32.224   7.300   3.283  1.00 20.00     0.015 C 
BRANCH   6   7
HETATM    7  C6  UNL     1     -32.618   8.613   2.620  1.00 20.00     0.114 C 
HETATM    8 CL8  UNL     1     -32.256   8.561   0.879  1.00 20.00    -0.130 Cl
ENDBRANCH   6   7
ENDBRANCH   1   6
TORSDOF 5
ENDMDL
MODEL 9
REMARK VINA RESULT:      -3.1      2.487      4.271
REMARK  5 active torsions:
REMARK  status: ('A' for Active; 'I' for Inactive)
REMARK    1  A    between atoms: C2_2  and  C3_3 
REMARK    2  A    between atoms: C2_2  and  C4_4 
REMARK    3  A    between atoms: C3_3  and  C5_5 
REMARK    4  A    between atoms: C4_4  and  C6_6 
REMARK    5  A    between atoms: C5_5  and  S7_7 
ROOT
HETATM    1  C2  UNL     1     -32.083   6.749   2.929  1.00 20.00     0.002 C 
ENDROOT
BRANCH   1   2
HETATM    2  C3  UNL     1     -33.197   5.743   2.620  1.00 20.00     0.010 C 
BRANCH   2   3
HETATM    3  C5  UNL     1     -33.632   4.918   3.831  1.00 20.00     0.073 C 
BRANCH   3   4
HETATM    4  S7  UNL     1     -35.082   5.613   4.679  1.00 20.00    -0.173 SA
HETATM    5  C1  UNL     1     -34.529   5.371   6.382  1.00 20.00     0.089 C 
ENDBRANCH   3   4
ENDBRANCH   2   3
ENDBRANCH   1   2
BRANCH   1   6
HETATM    6  C4  UNL     1     -32.657   8.141   3.209  1.00 20.00     0.015 C 
BRANCH   6   7
HETATM    7  C6  UNL     1     -32.263   8.627   4.597  1.00 20.00     0.114 C 
HETATM    8 CL8  UNL     1     -33.688   8.697   5.659  1.00 20.00    -0.130 Cl
ENDBRANCH   6   7
ENDBRANCH   1   6
TORSDOF 5
ENDMDL
