MODEL 1
REMARK VINA RESULT:      -4.5      0.000      0.000
REMARK  2 active torsions:
REMARK  status: ('A' for Active; 'I' for Inactive)
REMARK    1  A    between atoms: C1_1  and  C3_3 
REMARK    2  A    between atoms: C1_1  and  C8_8 
ROOT
HETATM    1  C1  UNL     1     -33.533   7.213   5.376  1.00 20.00     0.134 C 
HETATM    2  O9  UNL     1     -32.896   7.085   6.422  1.00 20.00    -0.297 OA
ENDROOT
BRANCH   1   3
HETATM    3  C3  UNL     1     -34.843   6.494   5.179  1.00 20.00     0.060 A 
HETATM    4  C2  UNL     1     -35.150   5.341   6.069  1.00 20.00     0.017 A 
HETATM    5  C4  UNL     1     -34.849   5.116   4.614  1.00 20.00    -0.007 A 
HETATM    6  C5  UNL     1     -33.614   4.386   4.213  1.00 20.00     0.011 C 
ENDBRANCH   1   3
BRANCH   1   7
HETATM    7  C8  UNL     1     -33.065   8.118   4.240  1.00 20.00     0.048 C 
HETATM    8  C6  UNL     1     -32.217   9.255   4.797  1.00 20.00     0.017 C 
HETATM    9  C7  UNL     1     -32.291   7.325   3.191  1.00 20.00     0.017 C 
ENDBRANCH   1   7
TORSDOF 2
ENDMDL
MODEL 2
REMARK VINA RESULT:      -4.5      1.028      1.802
REMARK  2 active torsions:
REMARK  status: ('A' for Active; 'I' for Inactive)
REMARK    1  A    between atoms: C1_1  and  C3_3 
REMARK    2  A    between atoms: C1_1  and  C8_8 
ROOT
HETATM    1  C1  UNL     1     -33.539   7.369   4.779  1.00 20.00     0.134 C 
HETATM    2  O9  UNL     1     -34.076   7.962   5.714  1.00 20.00    -0.297 OA
ENDROOT
BRANCH   1   3
HETATM    3  C3  UNL     1     -34.138   6.101   4.225  1.00 20.00     0.060 A 
HETATM    4  C2  UNL     1     -35.591   5.861   4.440  1.00 20.00     0.017 A 
HETATM    5  C4  UNL     1     -34.571   5.023   5.157  1.00 20.00    -0.007 A 
HETATM    6  C5  UNL     1     -34.440   5.115   6.638  1.00 20.00     0.011 C 
ENDBRANCH   1   3
BRANCH   1   7
HETATM    7  C8  UNL     1     -32.271   7.884   4.104  1.00 20.00     0.048 C 
HETATM    8  C6  UNL     1     -32.180   7.338   2.684  1.00 20.00     0.017 C 
HETATM    9  C7  UNL     1     -32.233   9.410   4.103  1.00 20.00     0.017 C 
ENDBRANCH   1   7
TORSDOF 2
ENDMDL
MODEL 3
REMARK VINA RESULT:      -4.3      1.580      2.200
REMARK  2 active torsions:
REMARK  status: ('A' for Active; 'I' for Inactive)
REMARK    1  A    between atoms: C1_1  and  C3_3 
REMARK    2  A    between atoms: C1_1  and  C8_8 
ROOT
HETATM    1  C1  UNL     1     -33.343   6.667   3.908  1.00 20.00     0.134 C 
HETATM    2  O9  UNL     1     -33.525   5.567   3.387  1.00 20.00    -0.297 OA
ENDROOT
BRANCH   1   3
HETATM    3  C3  UNL     1     -34.235   7.147   5.025  1.00 20.00     0.060 A 
HETATM    4  C2  UNL     1     -33.675   7.179   6.403  1.00 20.00     0.017 A 
HETATM    5  C4  UNL     1     -34.733   6.177   6.038  1.00 20.00    -0.007 A 
HETATM    6  C5  UNL     1     -34.407   4.723   6.015  1.00 20.00     0.011 C 
ENDBRANCH   1   3
BRANCH   1   7
HETATM    7  C8  UNL     1     -32.203   7.591   3.490  1.00 20.00     0.048 C 
HETATM    8  C6  UNL     1     -32.169   7.721   1.973  1.00 20.00     0.017 C 
HETATM    9  C7  UNL     1     -32.339   8.961   4.150  1.00 20.00     0.017 C 
ENDBRANCH   1   7
TORSDOF 2
ENDMDL
MODEL 4
REMARK VINA RESULT:      -4.0      1.299      3.682
REMARK  2 active torsions:
REMARK  status: ('A' for Active; 'I' for Inactive)
REMARK    1  A    between atoms: C1_1  and  C3_3 
REMARK    2  A    between atoms: C1_1  and  C8_8 
ROOT
HETATM    1  C1  UNL     1     -34.317   7.197   4.792  1.00 20.00     0.134 C 
HETATM    2  O9  UNL     1     -35.082   8.018   4.285  1.00 20.00    -0.297 OA
ENDROOT
BRANCH   1   3
HETATM    3  C3  UNL     1     -32.896   7.574   5.129  1.00 20.00     0.060 A 
HETATM    4  C2  UNL     1     -32.446   8.958   4.816  1.00 20.00     0.017 A 
HETATM    5  C4  UNL     1     -31.912   7.791   4.033  1.00 20.00    -0.007 A 
HETATM    6  C5  UNL     1     -32.245   7.648   2.588  1.00 20.00     0.011 C 
ENDBRANCH   1   3
BRANCH   1   7
HETATM    7  C8  UNL     1     -34.754   5.777   5.139  1.00 20.00     0.048 C 
HETATM    8  C6  UNL     1     -34.118   4.787   4.171  1.00 20.00     0.017 C 
HETATM    9  C7  UNL     1     -34.398   5.432   6.582  1.00 20.00     0.017 C 
ENDBRANCH   1   7
TORSDOF 2
ENDMDL
MODEL 5
REMARK VINA RESULT:      -4.0      1.590      3.680
REMARK  2 active torsions:
REMARK  status: ('A' for Active; 'I' for Inactive)
REMARK    1  A    between atoms: C1_1  and  C3_3 
REMARK    2  A    between atoms: C1_1  and  C8_8 
ROOT
HETATM    1  C1  UNL     1     -33.434   6.172   4.147  1.00 20.00     0.134 C 
HETATM    2  O9  UNL     1     -32.944   5.930   3.043  1.00 20.00    -0.297 OA
ENDROOT
BRANCH   1   3
HETATM    3  C3  UNL     1     -32.901   7.300   4.995  1.00 20.00     0.060 A 
HETATM    4  C2  UNL     1     -33.734   8.526   5.131  1.00 20.00     0.017 A 
HETATM    5  C4  UNL     1     -32.453   8.562   4.345  1.00 20.00    -0.007 A 
HETATM    6  C5  UNL     1     -32.489   8.787   2.872  1.00 20.00     0.011 C 
ENDBRANCH   1   3
BRANCH   1   7
HETATM    7  C8  UNL     1     -34.613   5.384   4.709  1.00 20.00     0.048 C 
HETATM    8  C6  UNL     1     -34.543   5.361   6.231  1.00 20.00     0.017 C 
HETATM    9  C7  UNL     1     -35.940   5.971   4.235  1.00 20.00     0.017 C 
ENDBRANCH   1   7
TORSDOF 2
ENDMDL
MODEL 6
REMARK VINA RESULT:      -3.8      1.394      1.420
REMARK  2 active torsions:
REMARK  status: ('A' for Active; 'I' for Inactive)
REMARK    1  A    between atoms: C1_1  and  C3_3 
REMARK    2  A    between atoms: C1_1  and  C8_8 
ROOT
HETATM    1  C1  UNL     1     -33.431   7.136   4.041  1.00 20.00     0.134 C 
HETATM    2  O9  UNL     1     -32.845   6.259   3.407  1.00 20.00    -0.297 OA
ENDROOT
BRANCH   1   3
HETATM    3  C3  UNL     1     -34.527   6.780   5.014  1.00 20.00     0.060 A 
HETATM    4  C2  UNL     1     -34.136   6.206   6.330  1.00 20.00     0.017 A 
HETATM    5  C4  UNL     1     -34.820   5.349   5.303  1.00 20.00    -0.007 A 
HETATM    6  C5  UNL     1     -34.087   4.216   4.671  1.00 20.00     0.011 C 
ENDBRANCH   1   3
BRANCH   1   7
HETATM    7  C8  UNL     1     -33.074   8.615   3.916  1.00 20.00     0.048 C 
HETATM    8  C6  UNL     1     -32.085   9.004   5.008  1.00 20.00     0.017 C 
HETATM    9  C7  UNL     1     -32.508   8.925   2.533  1.00 20.00     0.017 C 
ENDBRANCH   1   7
TORSDOF 2
ENDMDL
MODEL 7
REMARK VINA RESULT:      -3.8      9.139      9.994
REMARK  2 active torsions:
REMARK  status: ('A' for Active; 'I' for Inactive)
REMARK    1  A    between atoms: C1_1  and  C3_3 
REMARK    2  A    between atoms: C1_1  and  C8_8 
ROOT
HETATM    1  C1  UNL     1     -40.824  12.729   5.292  1.00 20.00     0.134 C 
HETATM    2  O9  UNL     1     -41.057  13.467   4.335  1.00 20.00    -0.297 OA
ENDROOT
BRANCH   1   3
HETATM    3  C3  UNL     1     -41.703  12.755   6.517  1.00 20.00     0.060 A 
HETATM    4  C2  UNL     1     -42.782  13.778   6.583  1.00 20.00     0.017 A 
HETATM    5  C4  UNL     1     -41.585  13.880   7.485  1.00 20.00    -0.007 A 
HETATM    6  C5  UNL     1     -40.624  15.007   7.323  1.00 20.00     0.011 C 
ENDBRANCH   1   3
BRANCH   1   7
HETATM    7  C8  UNL     1     -39.669  11.731   5.294  1.00 20.00     0.048 C 
HETATM    8  C6  UNL     1     -39.009  11.700   3.921  1.00 20.00     0.017 C 
HETATM    9  C7  UNL     1     -38.652  12.072   6.379  1.00 20.00     0.017 C 
ENDBRANCH   1   7
TORSDOF 2
ENDMDL
MODEL 8
REMARK VINA RESULT:      -3.8      0.647      3.795
REMARK  2 active torsions:
REMARK  status: ('A' for Active; 'I' for Inactive)
REMARK    1  A    between atoms: C1_1  and  C3_3 
REMARK    2  A    between atoms: C1_1  and  C8_8 
ROOT
HETATM    1  C1  UNL     1     -33.840   6.940   5.259  1.00 20.00     0.134 C 
HETATM    2  O9  UNL     1     -33.333   7.418   6.274  1.00 20.00    -0.297 OA
ENDROOT
BRANCH   1   3
HETATM    3  C3  UNL     1     -33.581   7.553   3.906  1.00 20.00     0.060 A 
HETATM    4  C2  UNL     1     -32.238   7.361   3.296  1.00 20.00     0.017 A 
HETATM    5  C4  UNL     1     -32.658   8.716   3.789  1.00 20.00    -0.007 A 
HETATM    6  C5  UNL     1     -31.962   9.334   4.953  1.00 20.00     0.011 C 
ENDBRANCH   1   3
BRANCH   1   7
HETATM    7  C8  UNL     1     -34.721   5.694   5.294  1.00 20.00     0.048 C 
HETATM    8  C6  UNL     1     -34.219   4.675   4.279  1.00 20.00     0.017 C 
HETATM    9  C7  UNL     1     -34.762   5.092   6.696  1.00 20.00     0.017 C 
ENDBRANCH   1   7
TORSDOF 2
ENDMDL
MODEL 9
REMARK VINA RESULT:      -3.7      1.883      2.734
REMARK  2 active torsions:
REMARK  status: ('A' for Active; 'I' for Inactive)
REMARK    1  A    between atoms: C1_1  and  C3_3 
REMARK    2  A    between atoms: C1_1  and  C8_8 
ROOT
HETATM    1  C1  UNL     1     -34.481   5.831   4.109  1.00 20.00     0.134 C 
HETATM    2  O9  UNL     1     -35.691   6.019   3.979  1.00 20.00    -0.297 OA
ENDROOT
BRANCH   1   3
HETATM    3  C3  UNL     1     -33.902   5.433   5.442  1.00 20.00     0.060 A 
HETATM    4  C2  UNL     1     -34.792   5.480   6.634  1.00 20.00     0.017 A 
HETATM    5  C4  UNL     1     -33.672   6.471   6.485  1.00 20.00    -0.007 A 
HETATM    6  C5  UNL     1     -33.976   7.916   6.288  1.00 20.00     0.011 C 
ENDBRANCH   1   3
BRANCH   1   7
HETATM    7  C8  UNL     1     -33.505   5.953   2.942  1.00 20.00     0.048 C 
HETATM    8  C6  UNL     1     -32.490   7.053   3.227  1.00 20.00     0.017 C 
HETATM    9  C7  UNL     1     -32.805   4.624   2.672  1.00 20.00     0.017 C 
ENDBRANCH   1   7
TORSDOF 2
ENDMDL
