MODEL 1
REMARK VINA RESULT:      -4.2      0.000      0.000
REMARK  5 active torsions:
REMARK  status: ('A' for Active; 'I' for Inactive)
REMARK    1  A    between atoms: C5_5  and  C6_6 
REMARK    2  A    between atoms: C5_5  and  C7_7 
REMARK    3  A    between atoms: C6_6  and  C8_8 
REMARK    4  A    between atoms: C7_7  and  C9_9 
REMARK    5  A    between atoms: C8_8  and  O10_10 
ROOT
HETATM    1  C5  UNL     1     -33.239  16.604  -3.522  1.00 20.00     0.003 C 
ENDROOT
BRANCH   1   2
HETATM    2  C6  UNL     1     -33.531  15.211  -4.095  1.00 20.00     0.031 C 
BRANCH   2   3
HETATM    3  C8  UNL     1     -34.187  15.281  -5.477  1.00 20.00     0.114 C 
HETATM    4  C1  UNL     1     -35.543  14.588  -5.488  1.00 20.00     0.039 C 
BRANCH   3   5
HETATM    5  O10 UNL     1     -33.350  14.658  -6.449  1.00 20.00    -0.396 OA
HETATM    6  H30 UNL     1     -32.581  15.238  -6.562  1.00 20.00     0.210 HD
ENDBRANCH   3   5
ENDBRANCH   2   3
ENDBRANCH   1   2
BRANCH   1   7
HETATM    7  C7  UNL     1     -33.525  16.650  -2.016  1.00 20.00     0.008 C 
BRANCH   7   8
HETATM    8  C9  UNL     1     -33.686  18.066  -1.402  1.00 20.00    -0.051 C 
HETATM    9  C2  UNL     1     -33.775  18.002   0.132  1.00 20.00     0.014 C 
HETATM   10  C3  UNL     1     -32.447  18.899  -1.786  1.00 20.00     0.014 C 
HETATM   11  C4  UNL     1     -34.937  18.773  -1.953  1.00 20.00     0.014 C 
ENDBRANCH   7   8
ENDBRANCH   1   7
TORSDOF 5
ENDMDL
MODEL 2
REMARK VINA RESULT:      -4.1      0.054      1.389
REMARK  5 active torsions:
REMARK  status: ('A' for Active; 'I' for Inactive)
REMARK    1  A    between atoms: C5_5  and  C6_6 
REMARK    2  A    between atoms: C5_5  and  C7_7 
REMARK    3  A    between atoms: C6_6  and  C8_8 
REMARK    4  A    between atoms: C7_7  and  C9_9 
REMARK    5  A    between atoms: C8_8  and  O10_10 
ROOT
HETATM    1  C5  UNL     1     -33.224  16.606  -3.532  1.00 20.00     0.003 C 
ENDROOT
BRANCH   1   2
HETATM    2  C6  UNL     1     -33.554  15.214  -4.089  1.00 20.00     0.031 C 
BRANCH   2   3
HETATM    3  C8  UNL     1     -34.190  15.286  -5.481  1.00 20.00     0.114 C 
HETATM    4  C1  UNL     1     -35.549  14.600  -5.511  1.00 20.00     0.039 C 
BRANCH   3   5
HETATM    5  O10 UNL     1     -33.341  14.659  -6.441  1.00 20.00    -0.396 OA
HETATM    6  H30 UNL     1     -33.567  15.044  -7.301  1.00 20.00     0.210 HD
ENDBRANCH   3   5
ENDBRANCH   2   3
ENDBRANCH   1   2
BRANCH   1   7
HETATM    7  C7  UNL     1     -33.499  16.674  -2.025  1.00 20.00     0.008 C 
BRANCH   7   8
HETATM    8  C9  UNL     1     -33.658  18.099  -1.432  1.00 20.00    -0.051 C 
HETATM    9  C2  UNL     1     -34.896  18.807  -2.006  1.00 20.00     0.014 C 
HETATM   10  C3  UNL     1     -33.835  17.966   0.094  1.00 20.00     0.014 C 
HETATM   11  C4  UNL     1     -32.412  18.958  -1.705  1.00 20.00     0.014 C 
ENDBRANCH   7   8
ENDBRANCH   1   7
TORSDOF 5
ENDMDL
MODEL 3
REMARK VINA RESULT:      -4.1      1.269      1.401
REMARK  5 active torsions:
REMARK  status: ('A' for Active; 'I' for Inactive)
REMARK    1  A    between atoms: C5_5  and  C6_6 
REMARK    2  A    between atoms: C5_5  and  C7_7 
REMARK    3  A    between atoms: C6_6  and  C8_8 
REMARK    4  A    between atoms: C7_7  and  C9_9 
REMARK    5  A    between atoms: C8_8  and  O10_10 
ROOT
HETATM    1  C5  UNL     1     -33.435  16.674  -3.596  1.00 20.00     0.003 C 
ENDROOT
BRANCH   1   2
HETATM    2  C6  UNL     1     -33.208  15.211  -4.002  1.00 20.00     0.031 C 
BRANCH   2   3
HETATM    3  C8  UNL     1     -34.322  14.686  -4.913  1.00 20.00     0.114 C 
HETATM    4  C1  UNL     1     -35.305  15.788  -5.286  1.00 20.00     0.039 C 
BRANCH   3   5
HETATM    5  O10 UNL     1     -35.037  13.639  -4.259  1.00 20.00    -0.396 OA
HETATM    6  H30 UNL     1     -35.189  13.937  -3.349  1.00 20.00     0.210 HD
ENDBRANCH   3   5
ENDBRANCH   2   3
ENDBRANCH   1   2
BRANCH   1   7
HETATM    7  C7  UNL     1     -33.356  16.840  -2.073  1.00 20.00     0.008 C 
BRANCH   7   8
HETATM    8  C9  UNL     1     -33.070  18.279  -1.565  1.00 20.00    -0.051 C 
HETATM    9  C2  UNL     1     -31.786  18.326  -0.720  1.00 20.00     0.014 C 
HETATM   10  C3  UNL     1     -32.881  19.192  -2.793  1.00 20.00     0.014 C 
HETATM   11  C4  UNL     1     -34.245  18.819  -0.733  1.00 20.00     0.014 C 
ENDBRANCH   7   8
ENDBRANCH   1   7
TORSDOF 5
ENDMDL
MODEL 4
REMARK VINA RESULT:      -3.9     12.307     13.049
REMARK  5 active torsions:
REMARK  status: ('A' for Active; 'I' for Inactive)
REMARK    1  A    between atoms: C5_5  and  C6_6 
REMARK    2  A    between atoms: C5_5  and  C7_7 
REMARK    3  A    between atoms: C6_6  and  C8_8 
REMARK    4  A    between atoms: C7_7  and  C9_9 
REMARK    5  A    between atoms: C8_8  and  O10_10 
ROOT
HETATM    1  C5  UNL     1     -34.329   6.960   6.338  1.00 20.00     0.003 C 
ENDROOT
BRANCH   1   2
HETATM    2  C6  UNL     1     -34.468   5.432   6.392  1.00 20.00     0.031 C 
BRANCH   2   3
HETATM    3  C8  UNL     1     -35.029   4.857   5.088  1.00 20.00     0.114 C 
HETATM    4  C1  UNL     1     -33.915   4.448   4.133  1.00 20.00     0.039 C 
BRANCH   3   5
HETATM    5  O10 UNL     1     -35.852   5.825   4.440  1.00 20.00    -0.396 OA
HETATM    6  H30 UNL     1     -36.099   5.446   3.582  1.00 20.00     0.210 HD
ENDBRANCH   3   5
ENDBRANCH   2   3
ENDBRANCH   1   2
BRANCH   1   7
HETATM    7  C7  UNL     1     -32.923   7.368   5.881  1.00 20.00     0.008 C 
BRANCH   7   8
HETATM    8  C9  UNL     1     -32.857   8.234   4.594  1.00 20.00    -0.051 C 
HETATM    9  C2  UNL     1     -34.255   8.716   4.174  1.00 20.00     0.014 C 
HETATM   10  C3  UNL     1     -31.983   9.469   4.892  1.00 20.00     0.014 C 
HETATM   11  C4  UNL     1     -32.218   7.455   3.431  1.00 20.00     0.014 C 
ENDBRANCH   7   8
ENDBRANCH   1   7
TORSDOF 5
ENDMDL
MODEL 5
REMARK VINA RESULT:      -3.9     12.316     13.088
REMARK  5 active torsions:
REMARK  status: ('A' for Active; 'I' for Inactive)
REMARK    1  A    between atoms: C5_5  and  C6_6 
REMARK    2  A    between atoms: C5_5  and  C7_7 
REMARK    3  A    between atoms: C6_6  and  C8_8 
REMARK    4  A    between atoms: C7_7  and  C9_9 
REMARK    5  A    between atoms: C8_8  and  O10_10 
ROOT
HETATM    1  C5  UNL     1     -34.341   6.948   6.332  1.00 20.00     0.003 C 
ENDROOT
BRANCH   1   2
HETATM    2  C6  UNL     1     -34.461   5.418   6.377  1.00 20.00     0.031 C 
BRANCH   2   3
HETATM    3  C8  UNL     1     -35.024   4.845   5.072  1.00 20.00     0.114 C 
HETATM    4  C1  UNL     1     -33.912   4.438   4.115  1.00 20.00     0.039 C 
BRANCH   3   5
HETATM    5  O10 UNL     1     -35.849   5.814   4.428  1.00 20.00    -0.396 OA
HETATM    6  H30 UNL     1     -36.762   5.610   4.682  1.00 20.00     0.210 HD
ENDBRANCH   3   5
ENDBRANCH   2   3
ENDBRANCH   1   2
BRANCH   1   7
HETATM    7  C7  UNL     1     -32.926   7.375   5.923  1.00 20.00     0.008 C 
BRANCH   7   8
HETATM    8  C9  UNL     1     -32.829   8.247   4.641  1.00 20.00    -0.051 C 
HETATM    9  C2  UNL     1     -32.241   7.447   3.468  1.00 20.00     0.014 C 
HETATM   10  C3  UNL     1     -34.252   8.699   4.261  1.00 20.00     0.014 C 
HETATM   11  C4  UNL     1     -31.968   9.498   4.883  1.00 20.00     0.014 C 
ENDBRANCH   7   8
ENDBRANCH   1   7
TORSDOF 5
ENDMDL
MODEL 6
REMARK VINA RESULT:      -3.9     12.310     13.031
REMARK  5 active torsions:
REMARK  status: ('A' for Active; 'I' for Inactive)
REMARK    1  A    between atoms: C5_5  and  C6_6 
REMARK    2  A    between atoms: C5_5  and  C7_7 
REMARK    3  A    between atoms: C6_6  and  C8_8 
REMARK    4  A    between atoms: C7_7  and  C9_9 
REMARK    5  A    between atoms: C8_8  and  O10_10 
ROOT
HETATM    1  C5  UNL     1     -34.333   6.944   6.336  1.00 20.00     0.003 C 
ENDROOT
BRANCH   1   2
HETATM    2  C6  UNL     1     -34.462   5.415   6.377  1.00 20.00     0.031 C 
BRANCH   2   3
HETATM    3  C8  UNL     1     -35.030   4.849   5.072  1.00 20.00     0.114 C 
HETATM    4  C1  UNL     1     -33.922   4.439   4.112  1.00 20.00     0.039 C 
BRANCH   3   5
HETATM    5  O10 UNL     1     -35.851   5.824   4.431  1.00 20.00    -0.396 OA
HETATM    6  H30 UNL     1     -36.758   5.480   4.458  1.00 20.00     0.210 HD
ENDBRANCH   3   5
ENDBRANCH   2   3
ENDBRANCH   1   2
BRANCH   1   7
HETATM    7  C7  UNL     1     -32.925   7.364   5.896  1.00 20.00     0.008 C 
BRANCH   7   8
HETATM    8  C9  UNL     1     -32.853   8.269   4.636  1.00 20.00    -0.051 C 
HETATM    9  C2  UNL     1     -31.972   9.503   4.886  1.00 20.00     0.014 C 
HETATM   10  C3  UNL     1     -32.230   7.446   3.491  1.00 20.00     0.014 C 
HETATM   11  C4  UNL     1     -34.255   8.727   4.200  1.00 20.00     0.014 C 
ENDBRANCH   7   8
ENDBRANCH   1   7
TORSDOF 5
ENDMDL
MODEL 7
REMARK VINA RESULT:      -3.8     11.910     12.772
REMARK  5 active torsions:
REMARK  status: ('A' for Active; 'I' for Inactive)
REMARK    1  A    between atoms: C5_5  and  C6_6 
REMARK    2  A    between atoms: C5_5  and  C7_7 
REMARK    3  A    between atoms: C6_6  and  C8_8 
REMARK    4  A    between atoms: C7_7  and  C9_9 
REMARK    5  A    between atoms: C8_8  and  O10_10 
ROOT
HETATM    1  C5  UNL     1     -33.599   8.048   4.669  1.00 20.00     0.003 C 
ENDROOT
BRANCH   1   2
HETATM    2  C6  UNL     1     -32.204   8.450   4.170  1.00 20.00     0.031 C 
BRANCH   2   3
HETATM    3  C8  UNL     1     -32.014   8.144   2.681  1.00 20.00     0.114 C 
HETATM    4  C1  UNL     1     -32.807   9.106   1.808  1.00 20.00     0.039 C 
BRANCH   3   5
HETATM    5  O10 UNL     1     -32.439   6.813   2.396  1.00 20.00    -0.396 OA
HETATM    6  H30 UNL     1     -32.025   6.243   3.063  1.00 20.00     0.210 HD
ENDBRANCH   3   5
ENDBRANCH   2   3
ENDBRANCH   1   2
BRANCH   1   7
HETATM    7  C7  UNL     1     -33.521   6.829   5.597  1.00 20.00     0.008 C 
BRANCH   7   8
HETATM    8  C9  UNL     1     -34.493   5.665   5.265  1.00 20.00    -0.051 C 
HETATM    9  C2  UNL     1     -33.766   4.522   4.539  1.00 20.00     0.014 C 
HETATM   10  C3  UNL     1     -35.058   5.120   6.592  1.00 20.00     0.014 C 
HETATM   11  C4  UNL     1     -35.667   6.151   4.399  1.00 20.00     0.014 C 
ENDBRANCH   7   8
ENDBRANCH   1   7
TORSDOF 5
ENDMDL
MODEL 8
REMARK VINA RESULT:      -3.8     11.344     12.200
REMARK  5 active torsions:
REMARK  status: ('A' for Active; 'I' for Inactive)
REMARK    1  A    between atoms: C5_5  and  C6_6 
REMARK    2  A    between atoms: C5_5  and  C7_7 
REMARK    3  A    between atoms: C6_6  and  C8_8 
REMARK    4  A    between atoms: C7_7  and  C9_9 
REMARK    5  A    between atoms: C8_8  and  O10_10 
ROOT
HETATM    1  C5  UNL     1     -32.588   7.777   4.327  1.00 20.00     0.003 C 
ENDROOT
BRANCH   1   2
HETATM    2  C6  UNL     1     -32.776   8.933   3.335  1.00 20.00     0.031 C 
BRANCH   2   3
HETATM    3  C8  UNL     1     -32.118   8.645   1.982  1.00 20.00     0.114 C 
HETATM    4  C1  UNL     1     -32.819   9.385   0.851  1.00 20.00     0.039 C 
BRANCH   3   5
HETATM    5  O10 UNL     1     -32.159   7.246   1.705  1.00 20.00    -0.396 OA
HETATM    6  H30 UNL     1     -32.436   7.156   0.780  1.00 20.00     0.210 HD
ENDBRANCH   3   5
ENDBRANCH   2   3
ENDBRANCH   1   2
BRANCH   1   7
HETATM    7  C7  UNL     1     -33.901   7.458   5.052  1.00 20.00     0.008 C 
BRANCH   7   8
HETATM    8  C9  UNL     1     -34.438   6.012   4.871  1.00 20.00    -0.051 C 
HETATM    9  C2  UNL     1     -34.520   5.275   6.217  1.00 20.00     0.014 C 
HETATM   10  C3  UNL     1     -35.857   6.100   4.274  1.00 20.00     0.014 C 
HETATM   11  C4  UNL     1     -33.553   5.207   3.905  1.00 20.00     0.014 C 
ENDBRANCH   7   8
ENDBRANCH   1   7
TORSDOF 5
ENDMDL
MODEL 9
REMARK VINA RESULT:      -3.7     11.325     12.185
REMARK  5 active torsions:
REMARK  status: ('A' for Active; 'I' for Inactive)
REMARK    1  A    between atoms: C5_5  and  C6_6 
REMARK    2  A    between atoms: C5_5  and  C7_7 
REMARK    3  A    between atoms: C6_6  and  C8_8 
REMARK    4  A    between atoms: C7_7  and  C9_9 
REMARK    5  A    between atoms: C8_8  and  O10_10 
ROOT
HETATM    1  C5  UNL     1     -32.559   7.676   4.223  1.00 20.00     0.003 C 
ENDROOT
BRANCH   1   2
HETATM    2  C6  UNL     1     -32.752   8.891   3.305  1.00 20.00     0.031 C 
BRANCH   2   3
HETATM    3  C8  UNL     1     -32.124   8.677   1.924  1.00 20.00     0.114 C 
HETATM    4  C1  UNL     1     -32.862   9.461   0.848  1.00 20.00     0.039 C 
BRANCH   3   5
HETATM    5  O10 UNL     1     -32.154   7.293   1.582  1.00 20.00    -0.396 OA
HETATM    6  H30 UNL     1     -32.818   7.197   0.882  1.00 20.00     0.210 HD
ENDBRANCH   3   5
ENDBRANCH   2   3
ENDBRANCH   1   2
BRANCH   1   7
HETATM    7  C7  UNL     1     -33.822   7.407   5.050  1.00 20.00     0.008 C 
BRANCH   7   8
HETATM    8  C9  UNL     1     -34.474   6.012   4.852  1.00 20.00    -0.051 C 
HETATM    9  C2  UNL     1     -35.879   6.136   4.240  1.00 20.00     0.014 C 
HETATM   10  C3  UNL     1     -33.589   5.202   3.885  1.00 20.00     0.014 C 
HETATM   11  C4  UNL     1     -34.567   5.247   6.183  1.00 20.00     0.014 C 
ENDBRANCH   7   8
ENDBRANCH   1   7
TORSDOF 5
ENDMDL
