MODEL 1
REMARK VINA RESULT:      -4.9      0.000      0.000
REMARK  1 active torsions:
REMARK  status: ('A' for Active; 'I' for Inactive)
REMARK    1  A    between atoms: C1_1  and  C5_5 
ROOT
HETATM    1  C2  UNL     1     -34.029   6.671   6.331  1.00 20.00     0.042 C 
HETATM    2  C3  UNL     1     -34.678   5.311   6.409  1.00 20.00     0.168 C 
HETATM    3  C4  UNL     1     -34.360   5.704   4.161  1.00 20.00     0.181 C 
HETATM    4  C5  UNL     1     -34.167   7.033   4.870  1.00 20.00     0.098 C 
HETATM    5  O7  UNL     1     -34.370   4.679   5.165  1.00 20.00    -0.390 OA
ENDROOT
BRANCH   4   6
HETATM    6  C1  UNL     1     -32.892   7.696   4.387  1.00 20.00     0.225 C 
HETATM    7  O6  UNL     1     -32.382   8.632   4.995  1.00 20.00    -0.279 OA
HETATM    8 CL8  UNL     1     -32.294   6.975   2.924  1.00 20.00    -0.043 Cl
ENDBRANCH   4   6
TORSDOF 1
ENDMDL
MODEL 2
REMARK VINA RESULT:      -4.6      1.945      3.667
REMARK  1 active torsions:
REMARK  status: ('A' for Active; 'I' for Inactive)
REMARK    1  A    between atoms: C1_1  and  C5_5 
ROOT
HETATM    1  C2  UNL     1     -32.899   6.319   3.233  1.00 20.00     0.042 C 
HETATM    2  C3  UNL     1     -32.168   7.634   3.361  1.00 20.00     0.168 C 
HETATM    3  C4  UNL     1     -33.650   7.588   5.125  1.00 20.00     0.181 C 
HETATM    4  C5  UNL     1     -34.075   6.489   4.168  1.00 20.00     0.098 C 
HETATM    5  O7  UNL     1     -32.344   8.026   4.723  1.00 20.00    -0.390 OA
ENDROOT
BRANCH   4   6
HETATM    6  C1  UNL     1     -34.308   5.200   4.930  1.00 20.00     0.225 C 
HETATM    7  O6  UNL     1     -34.195   4.103   4.393  1.00 20.00    -0.279 OA
HETATM    8 CL8  UNL     1     -34.739   5.491   6.589  1.00 20.00    -0.043 Cl
ENDBRANCH   4   6
TORSDOF 1
ENDMDL
MODEL 3
REMARK VINA RESULT:      -4.6      1.287      1.315
REMARK  1 active torsions:
REMARK  status: ('A' for Active; 'I' for Inactive)
REMARK    1  A    between atoms: C1_1  and  C5_5 
ROOT
HETATM    1  C2  UNL     1     -33.643   7.281   5.701  1.00 20.00     0.042 C 
HETATM    2  C3  UNL     1     -34.462   6.453   6.660  1.00 20.00     0.168 C 
HETATM    3  C4  UNL     1     -34.628   5.373   4.630  1.00 20.00     0.181 C 
HETATM    4  C5  UNL     1     -34.064   6.754   4.347  1.00 20.00     0.098 C 
HETATM    5  O7  UNL     1     -34.562   5.165   6.048  1.00 20.00    -0.390 OA
ENDROOT
BRANCH   4   6
HETATM    6  C1  UNL     1     -32.851   6.643   3.445  1.00 20.00     0.225 C 
HETATM    7  O6  UNL     1     -32.003   7.527   3.393  1.00 20.00    -0.279 OA
HETATM    8 CL8  UNL     1     -32.843   5.158   2.542  1.00 20.00    -0.043 Cl
ENDBRANCH   4   6
TORSDOF 1
ENDMDL
MODEL 4
REMARK VINA RESULT:      -4.4      1.415      2.867
REMARK  1 active torsions:
REMARK  status: ('A' for Active; 'I' for Inactive)
REMARK    1  A    between atoms: C1_1  and  C5_5 
ROOT
HETATM    1  C2  UNL     1     -33.552   7.406   4.361  1.00 20.00     0.042 C 
HETATM    2  C3  UNL     1     -33.622   8.169   5.662  1.00 20.00     0.168 C 
HETATM    3  C4  UNL     1     -34.597   6.126   6.101  1.00 20.00     0.181 C 
HETATM    4  C5  UNL     1     -34.498   6.250   4.590  1.00 20.00     0.098 C 
HETATM    5  O7  UNL     1     -33.793   7.169   6.670  1.00 20.00    -0.390 OA
ENDROOT
BRANCH   4   6
HETATM    6  C1  UNL     1     -33.905   4.983   4.006  1.00 20.00     0.225 C 
HETATM    7  O6  UNL     1     -34.122   3.882   4.502  1.00 20.00    -0.279 OA
HETATM    8 CL8  UNL     1     -32.925   5.305   2.608  1.00 20.00    -0.043 Cl
ENDBRANCH   4   6
TORSDOF 1
ENDMDL
MODEL 5
REMARK VINA RESULT:      -3.8      2.191      3.456
REMARK  1 active torsions:
REMARK  status: ('A' for Active; 'I' for Inactive)
REMARK    1  A    between atoms: C1_1  and  C5_5 
ROOT
HETATM    1  C2  UNL     1     -33.409   8.290   5.248  1.00 20.00     0.042 C 
HETATM    2  C3  UNL     1     -32.516   8.959   4.230  1.00 20.00     0.168 C 
HETATM    3  C4  UNL     1     -32.736   6.781   3.509  1.00 20.00     0.181 C 
HETATM    4  C5  UNL     1     -33.234   6.820   4.943  1.00 20.00     0.098 C 
HETATM    5  O7  UNL     1     -32.603   8.138   3.064  1.00 20.00    -0.390 OA
ENDROOT
BRANCH   4   6
HETATM    6  C1  UNL     1     -34.573   6.117   5.044  1.00 20.00     0.225 C 
HETATM    7  O6  UNL     1     -35.383   6.137   4.122  1.00 20.00    -0.279 OA
HETATM    8 CL8  UNL     1     -34.781   5.323   6.575  1.00 20.00    -0.043 Cl
ENDBRANCH   4   6
TORSDOF 1
ENDMDL
MODEL 6
REMARK VINA RESULT:      -3.6      1.854      2.172
REMARK  1 active torsions:
REMARK  status: ('A' for Active; 'I' for Inactive)
REMARK    1  A    between atoms: C1_1  and  C5_5 
ROOT
HETATM    1  C2  UNL     1     -34.481   5.142   5.034  1.00 20.00     0.042 C 
HETATM    2  C3  UNL     1     -33.998   4.287   3.888  1.00 20.00     0.168 C 
HETATM    3  C4  UNL     1     -33.280   6.422   3.399  1.00 20.00     0.181 C 
HETATM    4  C5  UNL     1     -34.308   6.549   4.508  1.00 20.00     0.098 C 
HETATM    5  O7  UNL     1     -32.936   5.033   3.289  1.00 20.00    -0.390 OA
ENDROOT
BRANCH   4   6
HETATM    6  C1  UNL     1     -33.773   7.442   5.610  1.00 20.00     0.225 C 
HETATM    7  O6  UNL     1     -34.173   7.349   6.766  1.00 20.00    -0.279 OA
HETATM    8 CL8  UNL     1     -32.576   8.557   5.024  1.00 20.00    -0.043 Cl
ENDBRANCH   4   6
TORSDOF 1
ENDMDL
MODEL 7
REMARK VINA RESULT:      -3.6      1.216      1.718
REMARK  1 active torsions:
REMARK  status: ('A' for Active; 'I' for Inactive)
REMARK    1  A    between atoms: C1_1  and  C5_5 
ROOT
HETATM    1  C2  UNL     1     -33.962   5.986   4.111  1.00 20.00     0.042 C 
HETATM    2  C3  UNL     1     -34.711   4.928   4.886  1.00 20.00     0.168 C 
HETATM    3  C4  UNL     1     -34.084   6.500   6.451  1.00 20.00     0.181 C 
HETATM    4  C5  UNL     1     -33.278   6.786   5.196  1.00 20.00     0.098 C 
HETATM    5  O7  UNL     1     -35.119   5.572   6.095  1.00 20.00    -0.390 OA
ENDROOT
BRANCH   4   6
HETATM    6  C1  UNL     1     -33.350   8.263   4.861  1.00 20.00     0.225 C 
HETATM    7  O6  UNL     1     -33.894   9.068   5.610  1.00 20.00    -0.279 OA
HETATM    8 CL8  UNL     1     -32.589   8.626   3.342  1.00 20.00    -0.043 Cl
ENDBRANCH   4   6
TORSDOF 1
ENDMDL
MODEL 8
REMARK VINA RESULT:      -3.6      9.409      9.773
REMARK  1 active torsions:
REMARK  status: ('A' for Active; 'I' for Inactive)
REMARK    1  A    between atoms: C1_1  and  C5_5 
ROOT
HETATM    1  C2  UNL     1     -40.493  14.202   7.149  1.00 20.00     0.042 C 
HETATM    2  C3  UNL     1     -41.797  14.317   7.901  1.00 20.00     0.168 C 
HETATM    3  C4  UNL     1     -41.974  12.378   6.667  1.00 20.00     0.181 C 
HETATM    4  C5  UNL     1     -40.788  13.145   6.109  1.00 20.00     0.098 C 
HETATM    5  O7  UNL     1     -42.337  12.994   7.911  1.00 20.00    -0.390 OA
ENDROOT
BRANCH   4   6
HETATM    6  C1  UNL     1     -39.595  12.221   5.969  1.00 20.00     0.225 C 
HETATM    7  O6  UNL     1     -38.946  11.854   6.943  1.00 20.00    -0.279 OA
HETATM    8 CL8  UNL     1     -39.297  11.784   4.314  1.00 20.00    -0.043 Cl
ENDBRANCH   4   6
TORSDOF 1
ENDMDL
MODEL 9
REMARK VINA RESULT:      -3.5     15.839     16.585
REMARK  1 active torsions:
REMARK  status: ('A' for Active; 'I' for Inactive)
REMARK    1  A    between atoms: C1_1  and  C5_5 
ROOT
HETATM    1  C2  UNL     1     -23.907  17.114  10.492  1.00 20.00     0.042 C 
HETATM    2  C3  UNL     1     -23.516  17.299  11.938  1.00 20.00     0.168 C 
HETATM    3  C4  UNL     1     -21.954  18.487  10.729  1.00 20.00     0.181 C 
HETATM    4  C5  UNL     1     -22.684  17.593   9.742  1.00 20.00     0.098 C 
HETATM    5  O7  UNL     1     -22.699  18.472  11.955  1.00 20.00    -0.390 OA
ENDROOT
BRANCH   4   6
HETATM    6  C1  UNL     1     -23.113  18.400   8.533  1.00 20.00     0.225 C 
HETATM    7  O6  UNL     1     -22.453  18.409   7.498  1.00 20.00    -0.279 OA
HETATM    8 CL8  UNL     1     -24.594  19.263   8.813  1.00 20.00    -0.043 Cl
ENDBRANCH   4   6
TORSDOF 1
ENDMDL
