MODEL 1
REMARK VINA RESULT:      -4.0      0.000      0.000
REMARK  0 active torsions:
REMARK  status: ('A' for Active; 'I' for Inactive)
ROOT
HETATM    1  C1  UNL     1     -33.821   7.098   4.736  1.00 20.00     0.102 C 
HETATM    2  C2  UNL     1     -34.652   5.443   6.366  1.00 20.00     0.068 C 
HETATM    3  C3  UNL     1     -33.982   4.736   4.046  1.00 20.00     0.068 C 
HETATM    4  C4  UNL     1     -34.575   5.848   4.900  1.00 20.00     0.183 C 
HETATM    5  N5  UNL     1     -33.227   8.086   4.606  1.00 20.00    -0.194 NA
HETATM    6  F6  UNL     1     -35.847   6.074   4.464  1.00 20.00    -0.228 F 
ENDROOT
TORSDOF 0
ENDMDL
MODEL 2
REMARK VINA RESULT:      -3.9      1.505      2.070
REMARK  0 active torsions:
REMARK  status: ('A' for Active; 'I' for Inactive)
ROOT
HETATM    1  C1  UNL     1     -33.713   5.539   3.706  1.00 20.00     0.102 C 
HETATM    2  C2  UNL     1     -34.031   7.470   5.208  1.00 20.00     0.068 C 
HETATM    3  C3  UNL     1     -34.492   5.130   6.010  1.00 20.00     0.068 C 
HETATM    4  C4  UNL     1     -34.508   6.077   4.818  1.00 20.00     0.183 C 
HETATM    5  N5  UNL     1     -33.087   5.114   2.826  1.00 20.00    -0.194 NA
HETATM    6  F6  UNL     1     -35.797   6.185   4.389  1.00 20.00    -0.228 F 
ENDROOT
TORSDOF 0
ENDMDL
MODEL 3
REMARK VINA RESULT:      -3.5      1.169      1.720
REMARK  0 active torsions:
REMARK  status: ('A' for Active; 'I' for Inactive)
ROOT
HETATM    1  C1  UNL     1     -33.660   7.190   4.848  1.00 20.00     0.102 C 
HETATM    2  C2  UNL     1     -35.791   6.102   4.247  1.00 20.00     0.068 C 
HETATM    3  C3  UNL     1     -34.501   5.364   6.277  1.00 20.00     0.068 C 
HETATM    4  C4  UNL     1     -34.411   5.927   4.865  1.00 20.00     0.183 C 
HETATM    5  N5  UNL     1     -33.065   8.186   4.832  1.00 20.00    -0.194 NA
HETATM    6  F6  UNL     1     -33.725   5.029   4.102  1.00 20.00    -0.228 F 
ENDROOT
TORSDOF 0
ENDMDL
MODEL 4
REMARK VINA RESULT:      -3.4      2.105      2.857
REMARK  0 active torsions:
REMARK  status: ('A' for Active; 'I' for Inactive)
ROOT
HETATM    1  C1  UNL     1     -33.111   6.588   3.710  1.00 20.00     0.102 C 
HETATM    2  C2  UNL     1     -32.274   8.631   4.812  1.00 20.00     0.068 C 
HETATM    3  C3  UNL     1     -33.748   7.013   6.055  1.00 20.00     0.068 C 
HETATM    4  C4  UNL     1     -33.415   7.628   4.703  1.00 20.00     0.183 C 
HETATM    5  N5  UNL     1     -32.872   5.768   2.926  1.00 20.00    -0.194 NA
HETATM    6  F6  UNL     1     -34.519   8.301   4.268  1.00 20.00    -0.228 F 
ENDROOT
TORSDOF 0
ENDMDL
MODEL 5
REMARK VINA RESULT:      -3.3      2.241      3.123
REMARK  0 active torsions:
REMARK  status: ('A' for Active; 'I' for Inactive)
ROOT
HETATM    1  C1  UNL     1     -33.770   7.037   5.602  1.00 20.00     0.102 C 
HETATM    2  C2  UNL     1     -32.634   6.944   3.414  1.00 20.00     0.068 C 
HETATM    3  C3  UNL     1     -32.249   8.875   4.980  1.00 20.00     0.068 C 
HETATM    4  C4  UNL     1     -33.246   7.836   4.486  1.00 20.00     0.183 C 
HETATM    5  N5  UNL     1     -34.186   6.406   6.482  1.00 20.00    -0.194 NA
HETATM    6  F6  UNL     1     -34.296   8.499   3.925  1.00 20.00    -0.228 F 
ENDROOT
TORSDOF 0
ENDMDL
MODEL 6
REMARK VINA RESULT:      -3.2     12.897     13.421
REMARK  0 active torsions:
REMARK  status: ('A' for Active; 'I' for Inactive)
ROOT
HETATM    1  C1  UNL     1     -32.014  18.370  -0.769  1.00 20.00     0.102 C 
HETATM    2  C2  UNL     1     -33.435  16.854  -2.099  1.00 20.00     0.068 C 
HETATM    3  C3  UNL     1     -34.262  19.136  -1.435  1.00 20.00     0.068 C 
HETATM    4  C4  UNL     1     -33.395  17.948  -1.040  1.00 20.00     0.183 C 
HETATM    5  N5  UNL     1     -30.923  18.702  -0.553  1.00 20.00    -0.194 NA
HETATM    6  F6  UNL     1     -33.901  17.429   0.114  1.00 20.00    -0.228 F 
ENDROOT
TORSDOF 0
ENDMDL
MODEL 7
REMARK VINA RESULT:      -3.1      3.117      3.655
REMARK  0 active torsions:
REMARK  status: ('A' for Active; 'I' for Inactive)
ROOT
HETATM    1  C1  UNL     1     -32.724   6.503   3.155  1.00 20.00     0.102 C 
HETATM    2  C2  UNL     1     -33.481   8.066   4.907  1.00 20.00     0.068 C 
HETATM    3  C3  UNL     1     -32.702   8.921   2.672  1.00 20.00     0.068 C 
HETATM    4  C4  UNL     1     -32.538   7.841   3.733  1.00 20.00     0.183 C 
HETATM    5  N5  UNL     1     -32.868   5.445   2.700  1.00 20.00    -0.194 NA
HETATM    6  F6  UNL     1     -31.261   7.912   4.205  1.00 20.00    -0.228 F 
ENDROOT
TORSDOF 0
ENDMDL
MODEL 8
REMARK VINA RESULT:      -3.1     16.273     17.000
REMARK  0 active torsions:
REMARK  status: ('A' for Active; 'I' for Inactive)
ROOT
HETATM    1  C1  UNL     1     -22.626  17.324   9.539  1.00 20.00     0.102 C 
HETATM    2  C2  UNL     1     -22.531  18.374  11.769  1.00 20.00     0.068 C 
HETATM    3  C3  UNL     1     -24.281  16.646  11.237  1.00 20.00     0.068 C 
HETATM    4  C4  UNL     1     -23.422  17.777  10.688  1.00 20.00     0.183 C 
HETATM    5  N5  UNL     1     -21.999  16.968   8.630  1.00 20.00    -0.194 NA
HETATM    6  F6  UNL     1     -24.258  18.759  10.249  1.00 20.00    -0.228 F 
ENDROOT
TORSDOF 0
ENDMDL
MODEL 9
REMARK VINA RESULT:      -3.1      1.352      1.584
REMARK  0 active torsions:
REMARK  status: ('A' for Active; 'I' for Inactive)
ROOT
HETATM    1  C1  UNL     1     -34.216   6.595   5.686  1.00 20.00     0.102 C 
HETATM    2  C2  UNL     1     -34.140   4.319   4.737  1.00 20.00     0.068 C 
HETATM    3  C3  UNL     1     -33.370   6.299   3.388  1.00 20.00     0.068 C 
HETATM    4  C4  UNL     1     -34.337   5.803   4.455  1.00 20.00     0.183 C 
HETATM    5  N5  UNL     1     -34.122   7.221   6.658  1.00 20.00    -0.194 NA
HETATM    6  F6  UNL     1     -35.604   5.971   3.980  1.00 20.00    -0.228 F 
ENDROOT
TORSDOF 0
ENDMDL
