MODEL 1
REMARK VINA RESULT:      -5.6      0.000      0.000
REMARK  0 active torsions:
REMARK  status: ('A' for Active; 'I' for Inactive)
ROOT
HETATM    1  C1  UNL     1     -33.803   6.366   5.208  1.00 20.00    -0.013 C 
HETATM    2  C2  UNL     1     -33.033   7.275   4.608  1.00 20.00    -0.066 C 
HETATM    3  C3  UNL     1     -33.887   5.262   4.226  1.00 20.00     0.156 C 
HETATM    4  C4  UNL     1     -32.810   8.722   4.890  1.00 20.00     0.036 C 
HETATM    5  C5  UNL     1     -33.239   5.627   2.912  1.00 20.00     0.093 C 
HETATM    6  C6  UNL     1     -32.378   9.262   3.516  1.00 20.00     0.009 C 
HETATM    7  C7  UNL     1     -32.479   6.891   3.273  1.00 20.00     0.026 C 
HETATM    8  C8  UNL     1     -32.764   8.171   2.497  1.00 20.00    -0.010 C 
HETATM    9  C9  UNL     1     -34.570   6.412   6.470  1.00 20.00     0.052 C 
HETATM   10  C10 UNL     1     -31.983   8.267   1.197  1.00 20.00     0.010 C 
HETATM   11  O11 UNL     1     -34.463   4.207   4.446  1.00 20.00    -0.293 OA
ENDROOT
TORSDOF 0
ENDMDL
MODEL 2
REMARK VINA RESULT:      -5.5      1.967      4.349
REMARK  0 active torsions:
REMARK  status: ('A' for Active; 'I' for Inactive)
ROOT
HETATM    1  C1  UNL     1     -32.416   7.689   2.867  1.00 20.00    -0.013 C 
HETATM    2  C2  UNL     1     -32.792   6.556   3.462  1.00 20.00    -0.066 C 
HETATM    3  C3  UNL     1     -32.599   8.722   3.910  1.00 20.00     0.156 C 
HETATM    4  C4  UNL     1     -33.153   5.221   2.907  1.00 20.00     0.036 C 
HETATM    5  C5  UNL     1     -33.266   8.163   5.145  1.00 20.00     0.093 C 
HETATM    6  C6  UNL     1     -34.068   4.646   4.003  1.00 20.00     0.009 C 
HETATM    7  C7  UNL     1     -33.176   6.667   4.904  1.00 20.00     0.026 C 
HETATM    8  C8  UNL     1     -34.458   5.842   4.894  1.00 20.00    -0.010 C 
HETATM    9  C9  UNL     1     -32.046   7.983   1.467  1.00 20.00     0.052 C 
HETATM   10  C10 UNL     1     -34.912   5.428   6.283  1.00 20.00     0.010 C 
HETATM   11  O11 UNL     1     -32.294   9.896   3.759  1.00 20.00    -0.293 OA
ENDROOT
TORSDOF 0
ENDMDL
MODEL 3
REMARK VINA RESULT:      -5.0      1.291      2.600
REMARK  0 active torsions:
REMARK  status: ('A' for Active; 'I' for Inactive)
ROOT
HETATM    1  C1  UNL     1     -34.039   5.328   4.689  1.00 20.00    -0.013 C 
HETATM    2  C2  UNL     1     -33.564   6.398   4.051  1.00 20.00    -0.066 C 
HETATM    3  C3  UNL     1     -34.435   5.847   6.017  1.00 20.00     0.156 C 
HETATM    4  C4  UNL     1     -32.724   6.526   2.826  1.00 20.00     0.036 C 
HETATM    5  C5  UNL     1     -34.023   7.289   6.203  1.00 20.00     0.093 C 
HETATM    6  C6  UNL     1     -32.039   7.887   3.038  1.00 20.00     0.009 C 
HETATM    7  C7  UNL     1     -33.646   7.695   4.791  1.00 20.00     0.026 C 
HETATM    8  C8  UNL     1     -32.245   8.233   4.526  1.00 20.00    -0.010 C 
HETATM    9  C9  UNL     1     -34.061   3.897   4.320  1.00 20.00     0.052 C 
HETATM   10  C10 UNL     1     -32.111   9.718   4.817  1.00 20.00     0.010 C 
HETATM   11  O11 UNL     1     -34.982   5.166   6.872  1.00 20.00    -0.293 OA
ENDROOT
TORSDOF 0
ENDMDL
MODEL 4
REMARK VINA RESULT:      -4.8      1.393      3.598
REMARK  0 active torsions:
REMARK  status: ('A' for Active; 'I' for Inactive)
ROOT
HETATM    1  C1  UNL     1     -32.847   6.771   3.082  1.00 20.00    -0.013 C 
HETATM    2  C2  UNL     1     -33.559   7.021   4.182  1.00 20.00    -0.066 C 
HETATM    3  C3  UNL     1     -33.122   5.346   2.791  1.00 20.00     0.156 C 
HETATM    4  C4  UNL     1     -33.493   8.135   5.170  1.00 20.00     0.036 C 
HETATM    5  C5  UNL     1     -33.935   4.695   3.886  1.00 20.00     0.093 C 
HETATM    6  C6  UNL     1     -34.078   7.486   6.436  1.00 20.00     0.009 C 
HETATM    7  C7  UNL     1     -34.403   5.895   4.689  1.00 20.00     0.026 C 
HETATM    8  C8  UNL     1     -34.066   5.967   6.174  1.00 20.00    -0.010 C 
HETATM    9  C9  UNL     1     -31.863   7.591   2.346  1.00 20.00     0.052 C 
HETATM   10  C10 UNL     1     -35.048   5.203   7.046  1.00 20.00     0.010 C 
HETATM   11  O11 UNL     1     -32.692   4.763   1.807  1.00 20.00    -0.293 OA
ENDROOT
TORSDOF 0
ENDMDL
MODEL 5
REMARK VINA RESULT:      -4.8      1.691      2.763
REMARK  0 active torsions:
REMARK  status: ('A' for Active; 'I' for Inactive)
ROOT
HETATM    1  C1  UNL     1     -34.320   6.051   5.704  1.00 20.00    -0.013 C 
HETATM    2  C2  UNL     1     -34.022   6.008   4.406  1.00 20.00    -0.066 C 
HETATM    3  C3  UNL     1     -34.055   7.455   6.089  1.00 20.00     0.156 C 
HETATM    4  C4  UNL     1     -33.763   4.863   3.488  1.00 20.00     0.036 C 
HETATM    5  C5  UNL     1     -33.422   8.237   4.963  1.00 20.00     0.093 C 
HETATM    6  C6  UNL     1     -32.884   5.505   2.401  1.00 20.00     0.009 C 
HETATM    7  C7  UNL     1     -33.621   7.307   3.780  1.00 20.00     0.026 C 
HETATM    8  C8  UNL     1     -32.402   6.846   2.989  1.00 20.00    -0.010 C 
HETATM    9  C9  UNL     1     -34.678   4.984   6.662  1.00 20.00     0.052 C 
HETATM   10  C10 UNL     1     -31.970   7.842   1.926  1.00 20.00     0.010 C 
HETATM   11  O11 UNL     1     -34.276   7.902   7.205  1.00 20.00    -0.293 OA
ENDROOT
TORSDOF 0
ENDMDL
MODEL 6
REMARK VINA RESULT:      -4.7      2.099      3.368
REMARK  0 active torsions:
REMARK  status: ('A' for Active; 'I' for Inactive)
ROOT
HETATM    1  C1  UNL     1     -33.597   7.657   5.485  1.00 20.00    -0.013 C 
HETATM    2  C2  UNL     1     -33.982   6.611   4.754  1.00 20.00    -0.066 C 
HETATM    3  C3  UNL     1     -32.616   8.356   4.625  1.00 20.00     0.156 C 
HETATM    4  C4  UNL     1     -34.690   5.353   5.125  1.00 20.00     0.036 C 
HETATM    5  C5  UNL     1     -32.310   7.572   3.370  1.00 20.00     0.093 C 
HETATM    6  C6  UNL     1     -34.234   4.381   4.023  1.00 20.00     0.009 C 
HETATM    7  C7  UNL     1     -33.406   6.523   3.376  1.00 20.00     0.026 C 
HETATM    8  C8  UNL     1     -33.017   5.049   3.352  1.00 20.00    -0.010 C 
HETATM    9  C9  UNL     1     -33.888   8.034   6.884  1.00 20.00     0.052 C 
HETATM   10  C10 UNL     1     -32.747   4.526   1.952  1.00 20.00     0.010 C 
HETATM   11  O11 UNL     1     -32.084   9.413   4.930  1.00 20.00    -0.293 OA
ENDROOT
TORSDOF 0
ENDMDL
MODEL 7
REMARK VINA RESULT:      -4.3      0.868      2.787
REMARK  0 active torsions:
REMARK  status: ('A' for Active; 'I' for Inactive)
ROOT
HETATM    1  C1  UNL     1     -33.268   5.487   3.274  1.00 20.00    -0.013 C 
HETATM    2  C2  UNL     1     -33.220   6.802   3.484  1.00 20.00    -0.066 C 
HETATM    3  C3  UNL     1     -34.075   4.971   4.403  1.00 20.00     0.156 C 
HETATM    4  C4  UNL     1     -32.330   7.860   2.926  1.00 20.00     0.036 C 
HETATM    5  C5  UNL     1     -34.389   6.053   5.410  1.00 20.00     0.093 C 
HETATM    6  C6  UNL     1     -32.373   8.939   4.022  1.00 20.00     0.009 C 
HETATM    7  C7  UNL     1     -33.998   7.311   4.656  1.00 20.00     0.026 C 
HETATM    8  C8  UNL     1     -32.963   8.247   5.268  1.00 20.00    -0.010 C 
HETATM    9  C9  UNL     1     -32.585   4.627   2.285  1.00 20.00     0.052 C 
HETATM   10  C10 UNL     1     -33.559   9.224   6.267  1.00 20.00     0.010 C 
HETATM   11  O11 UNL     1     -34.397   3.798   4.522  1.00 20.00    -0.293 OA
ENDROOT
TORSDOF 0
ENDMDL
MODEL 8
REMARK VINA RESULT:      -4.1      1.837      4.017
REMARK  0 active torsions:
REMARK  status: ('A' for Active; 'I' for Inactive)
ROOT
HETATM    1  C1  UNL     1     -32.973   5.799   2.807  1.00 20.00    -0.013 C 
HETATM    2  C2  UNL     1     -33.334   5.686   4.085  1.00 20.00    -0.066 C 
HETATM    3  C3  UNL     1     -32.437   7.174   2.703  1.00 20.00     0.156 C 
HETATM    4  C4  UNL     1     -34.216   4.706   4.781  1.00 20.00     0.036 C 
HETATM    5  C5  UNL     1     -32.641   7.955   3.981  1.00 20.00     0.093 C 
HETATM    6  C6  UNL     1     -34.698   5.507   6.003  1.00 20.00     0.009 C 
HETATM    7  C7  UNL     1     -33.037   6.864   4.959  1.00 20.00     0.026 C 
HETATM    8  C8  UNL     1     -34.366   6.981   5.696  1.00 20.00    -0.010 C 
HETATM    9  C9  UNL     1     -33.164   4.896   1.653  1.00 20.00     0.052 C 
HETATM   10  C10 UNL     1     -34.282   7.845   6.943  1.00 20.00     0.010 C 
HETATM   11  O11 UNL     1     -31.941   7.630   1.684  1.00 20.00    -0.293 OA
ENDROOT
TORSDOF 0
ENDMDL
MODEL 9
REMARK VINA RESULT:      -4.0      1.895      3.719
REMARK  0 active torsions:
REMARK  status: ('A' for Active; 'I' for Inactive)
ROOT
HETATM    1  C1  UNL     1     -32.721   8.302   4.333  1.00 20.00    -0.013 C 
HETATM    2  C2  UNL     1     -33.570   7.451   4.910  1.00 20.00    -0.066 C 
HETATM    3  C3  UNL     1     -32.359   7.643   3.059  1.00 20.00     0.156 C 
HETATM    4  C4  UNL     1     -34.057   7.341   6.315  1.00 20.00     0.036 C 
HETATM    5  C5  UNL     1     -32.930   6.247   2.967  1.00 20.00     0.093 C 
HETATM    6  C6  UNL     1     -34.438   5.853   6.415  1.00 20.00     0.009 C 
HETATM    7  C7  UNL     1     -33.920   6.233   4.117  1.00 20.00     0.026 C 
HETATM    8  C8  UNL     1     -33.779   5.169   5.200  1.00 20.00    -0.010 C 
HETATM    9  C9  UNL     1     -32.097   9.548   4.827  1.00 20.00     0.052 C 
HETATM   10  C10 UNL     1     -34.436   3.850   4.830  1.00 20.00     0.010 C 
HETATM   11  O11 UNL     1     -31.640   8.155   2.214  1.00 20.00    -0.293 OA
ENDROOT
TORSDOF 0
ENDMDL
