MODEL 1
REMARK VINA RESULT:      -3.7      0.000      0.000
REMARK  2 active torsions:
REMARK  status: ('A' for Active; 'I' for Inactive)
REMARK    1  A    between atoms: C2_2  and  O12_12 
REMARK    2  A    between atoms: C7_7  and  O12_12 
ROOT
HETATM    1  C3  UNL     1     -34.829  16.773  -4.393  1.00 20.00     0.036 C 
HETATM    2  C4  UNL     1     -33.411  16.553  -2.315  1.00 20.00     0.013 C 
HETATM    3  C5  UNL     1     -35.060  18.473  -2.522  1.00 20.00     0.041 C 
HETATM    4  C6  UNL     1     -33.466  16.341  -3.836  1.00 20.00    -0.015 C 
HETATM    5  C7  UNL     1     -35.176  18.216  -4.028  1.00 20.00     0.128 C 
HETATM    6  C8  UNL     1     -33.730  18.001  -1.880  1.00 20.00    -0.045 C 
HETATM    7  C9  UNL     1     -33.189  14.877  -4.180  1.00 20.00     0.010 C 
HETATM    8  C10 UNL     1     -33.890  18.035  -0.346  1.00 20.00     0.015 C 
HETATM    9  C11 UNL     1     -32.565  18.943  -2.239  1.00 20.00     0.015 C 
ENDROOT
BRANCH   5  10
HETATM   10  O12 UNL     1     -34.335  19.120  -4.737  1.00 20.00    -0.359 OA
BRANCH  10  11
HETATM   11  C2  UNL     1     -34.546  19.171  -6.045  1.00 20.00     0.125 C 
HETATM   12  C1  UNL     1     -33.589  19.263  -6.970  1.00 20.00     0.037 C 
ENDBRANCH  10  11
ENDBRANCH   5  10
TORSDOF 2
ENDMDL
MODEL 2
REMARK VINA RESULT:      -3.7     12.446     13.980
REMARK  2 active torsions:
REMARK  status: ('A' for Active; 'I' for Inactive)
REMARK    1  A    between atoms: C2_2  and  O12_12 
REMARK    2  A    between atoms: C7_7  and  O12_12 
ROOT
HETATM    1  C3  UNL     1     -39.697  13.280   6.931  1.00 20.00     0.036 C 
HETATM    2  C4  UNL     1     -41.243  13.445   4.941  1.00 20.00     0.013 C 
HETATM    3  C5  UNL     1     -41.419  15.141   6.822  1.00 20.00     0.041 C 
HETATM    4  C6  UNL     1     -40.479  12.491   5.872  1.00 20.00    -0.015 C 
HETATM    5  C7  UNL     1     -40.591  14.227   7.730  1.00 20.00     0.128 C 
HETATM    6  C8  UNL     1     -42.186  14.415   5.689  1.00 20.00    -0.045 C 
HETATM    7  C9  UNL     1     -39.534  11.601   5.064  1.00 20.00     0.010 C 
HETATM    8  C10 UNL     1     -42.701  15.473   4.691  1.00 20.00     0.015 C 
HETATM    9  C11 UNL     1     -43.417  13.662   6.232  1.00 20.00     0.015 C 
ENDROOT
BRANCH   5  10
HETATM   10  O12 UNL     1     -41.456  13.484   8.583  1.00 20.00    -0.359 OA
BRANCH  10  11
HETATM   11  C2  UNL     1     -41.698  14.046   9.760  1.00 20.00     0.125 C 
HETATM   12  C1  UNL     1     -40.762  14.421  10.634  1.00 20.00     0.037 C 
ENDBRANCH  10  11
ENDBRANCH   5  10
TORSDOF 2
ENDMDL
MODEL 3
REMARK VINA RESULT:      -3.6     11.968     14.009
REMARK  2 active torsions:
REMARK  status: ('A' for Active; 'I' for Inactive)
REMARK    1  A    between atoms: C2_2  and  O12_12 
REMARK    2  A    between atoms: C7_7  and  O12_12 
ROOT
HETATM    1  C3  UNL     1     -42.534  12.519   7.430  1.00 20.00     0.036 C 
HETATM    2  C4  UNL     1     -42.686  14.948   8.104  1.00 20.00     0.013 C 
HETATM    3  C5  UNL     1     -41.789  14.327   5.811  1.00 20.00     0.041 C 
HETATM    4  C6  UNL     1     -42.430  13.515   8.594  1.00 20.00    -0.015 C 
HETATM    5  C7  UNL     1     -41.603  12.878   6.272  1.00 20.00     0.128 C 
HETATM    6  C8  UNL     1     -41.758  15.382   6.946  1.00 20.00    -0.045 C 
HETATM    7  C9  UNL     1     -43.417  13.146   9.702  1.00 20.00     0.010 C 
HETATM    8  C10 UNL     1     -42.266  16.724   6.379  1.00 20.00     0.015 C 
HETATM    9  C11 UNL     1     -40.324  15.616   7.461  1.00 20.00     0.015 C 
ENDROOT
BRANCH   5  10
HETATM   10  O12 UNL     1     -40.246  12.661   6.645  1.00 20.00    -0.359 OA
BRANCH  10  11
HETATM   11  C2  UNL     1     -39.633  11.690   5.983  1.00 20.00     0.125 C 
HETATM   12  C1  UNL     1     -39.315  11.730   4.688  1.00 20.00     0.037 C 
ENDBRANCH  10  11
ENDBRANCH   5  10
TORSDOF 2
ENDMDL
MODEL 4
REMARK VINA RESULT:      -3.5      1.404      3.852
REMARK  2 active torsions:
REMARK  status: ('A' for Active; 'I' for Inactive)
REMARK    1  A    between atoms: C2_2  and  O12_12 
REMARK    2  A    between atoms: C7_7  and  O12_12 
ROOT
HETATM    1  C3  UNL     1     -32.968  16.335  -3.041  1.00 20.00     0.036 C 
HETATM    2  C4  UNL     1     -34.416  16.873  -5.039  1.00 20.00     0.013 C 
HETATM    3  C5  UNL     1     -33.494  18.754  -3.604  1.00 20.00     0.041 C 
HETATM    4  C6  UNL     1     -34.153  15.875  -3.901  1.00 20.00    -0.015 C 
HETATM    5  C7  UNL     1     -33.159  17.750  -2.496  1.00 20.00     0.128 C 
HETATM    6  C8  UNL     1     -34.643  18.322  -4.550  1.00 20.00    -0.045 C 
HETATM    7  C9  UNL     1     -33.890  14.478  -4.467  1.00 20.00     0.010 C 
HETATM    8  C10 UNL     1     -34.647  19.263  -5.773  1.00 20.00     0.015 C 
HETATM    9  C11 UNL     1     -36.018  18.454  -3.867  1.00 20.00     0.015 C 
ENDROOT
BRANCH   5  10
HETATM   10  O12 UNL     1     -34.184  17.763  -1.508  1.00 20.00    -0.359 OA
BRANCH  10  11
HETATM   11  C2  UNL     1     -33.779  18.083  -0.286  1.00 20.00     0.125 C 
HETATM   12  C1  UNL     1     -32.546  18.484   0.029  1.00 20.00     0.037 C 
ENDBRANCH  10  11
ENDBRANCH   5  10
TORSDOF 2
ENDMDL
MODEL 5
REMARK VINA RESULT:      -3.3     12.156     13.398
REMARK  2 active torsions:
REMARK  status: ('A' for Active; 'I' for Inactive)
REMARK    1  A    between atoms: C2_2  and  O12_12 
REMARK    2  A    between atoms: C7_7  and  O12_12 
ROOT
HETATM    1  C3  UNL     1     -41.956  12.780   6.467  1.00 20.00     0.036 C 
HETATM    2  C4  UNL     1     -39.958  13.659   7.736  1.00 20.00     0.013 C 
HETATM    3  C5  UNL     1     -42.285  14.506   8.298  1.00 20.00     0.041 C 
HETATM    4  C6  UNL     1     -40.470  13.151   6.379  1.00 20.00    -0.015 C 
HETATM    5  C7  UNL     1     -42.815  13.934   6.980  1.00 20.00     0.128 C 
HETATM    6  C8  UNL     1     -40.772  14.845   8.300  1.00 20.00    -0.045 C 
HETATM    7  C9  UNL     1     -39.646  11.950   5.914  1.00 20.00     0.010 C 
HETATM    8  C10 UNL     1     -40.332  15.102   9.756  1.00 20.00     0.015 C 
HETATM    9  C11 UNL     1     -40.481  16.130   7.501  1.00 20.00     0.015 C 
ENDROOT
BRANCH   5  10
HETATM   10  O12 UNL     1     -42.890  14.966   6.002  1.00 20.00    -0.359 OA
BRANCH  10  11
HETATM   11  C2  UNL     1     -43.327  14.579   4.811  1.00 20.00     0.125 C 
HETATM   12  C1  UNL     1     -42.762  14.905   3.647  1.00 20.00     0.037 C 
ENDBRANCH  10  11
ENDBRANCH   5  10
TORSDOF 2
ENDMDL
MODEL 6
REMARK VINA RESULT:      -3.2     11.960     13.986
REMARK  2 active torsions:
REMARK  status: ('A' for Active; 'I' for Inactive)
REMARK    1  A    between atoms: C2_2  and  O12_12 
REMARK    2  A    between atoms: C7_7  and  O12_12 
ROOT
HETATM    1  C3  UNL     1     -43.417  14.011   5.308  1.00 20.00     0.036 C 
HETATM    2  C4  UNL     1     -41.014  13.484   4.735  1.00 20.00     0.013 C 
HETATM    3  C5  UNL     1     -42.108  12.375   6.739  1.00 20.00     0.041 C 
HETATM    4  C6  UNL     1     -42.104  14.567   4.739  1.00 20.00    -0.015 C 
HETATM    5  C7  UNL     1     -43.238  13.407   6.700  1.00 20.00     0.128 C 
HETATM    6  C8  UNL     1     -40.768  12.849   6.122  1.00 20.00    -0.045 C 
HETATM    7  C9  UNL     1     -42.323  15.109   3.325  1.00 20.00     0.010 C 
HETATM    8  C10 UNL     1     -39.848  11.623   5.950  1.00 20.00     0.015 C 
HETATM    9  C11 UNL     1     -40.039  13.841   7.050  1.00 20.00     0.015 C 
ENDROOT
BRANCH   5  10
HETATM   10  O12 UNL     1     -42.987  14.434   7.654  1.00 20.00    -0.359 OA
BRANCH  10  11
HETATM   11  C2  UNL     1     -43.181  14.084   8.918  1.00 20.00     0.125 C 
HETATM   12  C1  UNL     1     -42.567  14.634   9.966  1.00 20.00     0.037 C 
ENDBRANCH  10  11
ENDBRANCH   5  10
TORSDOF 2
ENDMDL
MODEL 7
REMARK VINA RESULT:      -3.1      1.607      2.876
REMARK  2 active torsions:
REMARK  status: ('A' for Active; 'I' for Inactive)
REMARK    1  A    between atoms: C2_2  and  O12_12 
REMARK    2  A    between atoms: C7_7  and  O12_12 
ROOT
HETATM    1  C3  UNL     1     -35.483  19.210  -4.252  1.00 20.00     0.036 C 
HETATM    2  C4  UNL     1     -34.766  18.766  -1.872  1.00 20.00     0.013 C 
HETATM    3  C5  UNL     1     -33.039  18.765  -3.733  1.00 20.00     0.041 C 
HETATM    4  C6  UNL     1     -35.885  18.585  -2.909  1.00 20.00    -0.015 C 
HETATM    5  C7  UNL     1     -34.157  18.661  -4.775  1.00 20.00     0.128 C 
HETATM    6  C8  UNL     1     -33.400  18.209  -2.332  1.00 20.00    -0.045 C 
HETATM    7  C9  UNL     1     -37.188  19.203  -2.400  1.00 20.00     0.010 C 
HETATM    8  C10 UNL     1     -32.316  18.664  -1.333  1.00 20.00     0.015 C 
HETATM    9  C11 UNL     1     -33.412  16.668  -2.323  1.00 20.00     0.015 C 
ENDROOT
BRANCH   5  10
HETATM   10  O12 UNL     1     -34.310  17.306  -5.184  1.00 20.00    -0.359 OA
BRANCH  10  11
HETATM   11  C2  UNL     1     -34.712  17.142  -6.437  1.00 20.00     0.125 C 
HETATM   12  C1  UNL     1     -34.459  16.067  -7.186  1.00 20.00     0.037 C 
ENDBRANCH  10  11
ENDBRANCH   5  10
TORSDOF 2
ENDMDL
MODEL 8
REMARK VINA RESULT:      -3.1     11.738     13.246
REMARK  2 active torsions:
REMARK  status: ('A' for Active; 'I' for Inactive)
REMARK    1  A    between atoms: C2_2  and  O12_12 
REMARK    2  A    between atoms: C7_7  and  O12_12 
ROOT
HETATM    1  C3  UNL     1     -41.440  13.747   4.387  1.00 20.00     0.036 C 
HETATM    2  C4  UNL     1     -41.391  12.148   6.341  1.00 20.00     0.013 C 
HETATM    3  C5  UNL     1     -43.328  13.770   6.082  1.00 20.00     0.041 C 
HETATM    4  C6  UNL     1     -40.544  13.008   5.390  1.00 20.00    -0.015 C 
HETATM    5  C7  UNL     1     -42.514  14.588   5.075  1.00 20.00     0.128 C 
HETATM    6  C8  UNL     1     -42.484  12.946   7.088  1.00 20.00    -0.045 C 
HETATM    7  C9  UNL     1     -39.522  12.140   4.654  1.00 20.00     0.010 C 
HETATM    8  C10 UNL     1     -43.417  11.952   7.810  1.00 20.00     0.015 C 
HETATM    9  C11 UNL     1     -41.853  13.848   8.167  1.00 20.00     0.015 C 
ENDROOT
BRANCH   5  10
HETATM   10  O12 UNL     1     -41.922  15.706   5.729  1.00 20.00    -0.359 OA
BRANCH  10  11
HETATM   11  C2  UNL     1     -42.729  16.743   5.905  1.00 20.00     0.125 C 
HETATM   12  C1  UNL     1     -43.310  17.434   4.922  1.00 20.00     0.037 C 
ENDBRANCH  10  11
ENDBRANCH   5  10
TORSDOF 2
ENDMDL
MODEL 9
REMARK VINA RESULT:      -3.1     12.971     14.618
REMARK  2 active torsions:
REMARK  status: ('A' for Active; 'I' for Inactive)
REMARK    1  A    between atoms: C2_2  and  O12_12 
REMARK    2  A    between atoms: C7_7  and  O12_12 
ROOT
HETATM    1  C3  UNL     1     -41.173  15.238   6.796  1.00 20.00     0.036 C 
HETATM    2  C4  UNL     1     -42.339  15.969   8.913  1.00 20.00     0.013 C 
HETATM    3  C5  UNL     1     -40.274  14.499   9.052  1.00 20.00     0.041 C 
HETATM    4  C6  UNL     1     -42.525  15.570   7.441  1.00 20.00    -0.015 C 
HETATM    5  C7  UNL     1     -40.411  14.159   7.565  1.00 20.00     0.128 C 
HETATM    6  C8  UNL     1     -41.595  14.906   9.753  1.00 20.00    -0.045 C 
HETATM    7  C9  UNL     1     -43.223  16.691   6.670  1.00 20.00     0.010 C 
HETATM    8  C10 UNL     1     -41.250  15.513  11.129  1.00 20.00     0.015 C 
HETATM    9  C11 UNL     1     -42.500  13.684  10.005  1.00 20.00     0.015 C 
ENDROOT
BRANCH   5  10
HETATM   10  O12 UNL     1     -41.057  12.899   7.416  1.00 20.00    -0.359 OA
BRANCH  10  11
HETATM   11  C2  UNL     1     -40.919  12.337   6.223  1.00 20.00     0.125 C 
HETATM   12  C1  UNL     1     -39.821  11.710   5.796  1.00 20.00     0.037 C 
ENDBRANCH  10  11
ENDBRANCH   5  10
TORSDOF 2
ENDMDL
