MODEL 1
REMARK VINA RESULT:      -3.7      0.000      0.000
REMARK  2 active torsions:
REMARK  status: ('A' for Active; 'I' for Inactive)
REMARK    1  A    between atoms: C1_1  and  C3_3 
REMARK    2  A    between atoms: C5_5  and  O10_10 
ROOT
HETATM    1  C2  UNL     1     -33.231  14.706  -4.518  1.00 20.00     0.074 C 
HETATM    2  C3  UNL     1     -34.458  14.722  -5.411  1.00 20.00     0.080 C 
HETATM    3  C4  UNL     1     -34.563  16.198  -5.768  1.00 20.00     0.131 C 
HETATM    4  C5  UNL     1     -33.277  16.067  -3.829  1.00 20.00     0.260 C 
HETATM    5  C6  UNL     1     -35.930  16.691  -6.203  1.00 20.00     0.040 C 
HETATM    6  O9  UNL     1     -34.121  16.924  -4.612  1.00 20.00    -0.356 OA
ENDROOT
BRANCH   2   7
HETATM    7  C1  UNL     1     -35.643  14.183  -4.666  1.00 20.00     0.238 C 
HETATM    8  O8  UNL     1     -35.758  13.008  -4.336  1.00 20.00    -0.306 OA
ENDBRANCH   2   7
BRANCH   4   9
HETATM    9  O10 UNL     1     -33.751  15.965  -2.492  1.00 20.00    -0.366 OA
HETATM   10  C7  UNL     1     -33.502  17.155  -1.759  1.00 20.00     0.204 C 
ENDBRANCH   4   9
TORSDOF 2
ENDMDL
MODEL 2
REMARK VINA RESULT:      -3.6     11.982     13.006
REMARK  2 active torsions:
REMARK  status: ('A' for Active; 'I' for Inactive)
REMARK    1  A    between atoms: C1_1  and  C3_3 
REMARK    2  A    between atoms: C5_5  and  O10_10 
ROOT
HETATM    1  C2  UNL     1     -34.442   7.575   4.083  1.00 20.00     0.074 C 
HETATM    2  C3  UNL     1     -34.726   6.140   4.486  1.00 20.00     0.080 C 
HETATM    3  C4  UNL     1     -34.611   6.213   6.001  1.00 20.00     0.131 C 
HETATM    4  C5  UNL     1     -33.463   8.054   5.152  1.00 20.00     0.260 C 
HETATM    5  C6  UNL     1     -34.312   4.910   6.719  1.00 20.00     0.040 C 
HETATM    6  O9  UNL     1     -33.585   7.177   6.281  1.00 20.00    -0.356 OA
ENDROOT
BRANCH   2   7
HETATM    7  C1  UNL     1     -33.735   5.218   3.837  1.00 20.00     0.238 C 
HETATM    8  O8  UNL     1     -33.239   5.426   2.735  1.00 20.00    -0.306 OA
ENDBRANCH   2   7
BRANCH   4   9
HETATM    9  O10 UNL     1     -32.126   8.082   4.668  1.00 20.00    -0.366 OA
HETATM   10  C7  UNL     1     -32.066   8.551   3.329  1.00 20.00     0.204 C 
ENDBRANCH   4   9
TORSDOF 2
ENDMDL
MODEL 3
REMARK VINA RESULT:      -3.4     11.807     12.993
REMARK  2 active torsions:
REMARK  status: ('A' for Active; 'I' for Inactive)
REMARK    1  A    between atoms: C1_1  and  C3_3 
REMARK    2  A    between atoms: C5_5  and  O10_10 
ROOT
HETATM    1  C2  UNL     1     -42.117  13.613   7.211  1.00 20.00     0.074 C 
HETATM    2  C3  UNL     1     -41.811  13.049   5.837  1.00 20.00     0.080 C 
HETATM    3  C4  UNL     1     -40.567  12.217   6.111  1.00 20.00     0.131 C 
HETATM    4  C5  UNL     1     -40.738  13.762   7.847  1.00 20.00     0.260 C 
HETATM    5  C6  UNL     1     -39.671  11.929   4.921  1.00 20.00     0.040 C 
HETATM    6  O9  UNL     1     -39.830  12.918   7.124  1.00 20.00    -0.356 OA
ENDROOT
BRANCH   2   7
HETATM    7  C1  UNL     1     -41.601  14.166   4.857  1.00 20.00     0.238 C 
HETATM    8  O8  UNL     1     -42.080  14.176   3.728  1.00 20.00    -0.306 OA
ENDBRANCH   2   7
BRANCH   4   9
HETATM    9  O10 UNL     1     -40.297  15.114   7.837  1.00 20.00    -0.366 OA
HETATM   10  C7  UNL     1     -40.292  15.670   9.144  1.00 20.00     0.204 C 
ENDBRANCH   4   9
TORSDOF 2
ENDMDL
MODEL 4
REMARK VINA RESULT:      -3.3     13.070     14.424
REMARK  2 active torsions:
REMARK  status: ('A' for Active; 'I' for Inactive)
REMARK    1  A    between atoms: C1_1  and  C3_3 
REMARK    2  A    between atoms: C5_5  and  O10_10 
ROOT
HETATM    1  C2  UNL     1     -42.568  14.190   7.187  1.00 20.00     0.074 C 
HETATM    2  C3  UNL     1     -41.119  14.115   6.742  1.00 20.00     0.080 C 
HETATM    3  C4  UNL     1     -41.077  12.763   6.046  1.00 20.00     0.131 C 
HETATM    4  C5  UNL     1     -42.930  12.732   7.458  1.00 20.00     0.260 C 
HETATM    5  C6  UNL     1     -39.715  12.104   5.932  1.00 20.00     0.040 C 
HETATM    6  O9  UNL     1     -41.978  11.910   6.768  1.00 20.00    -0.356 OA
ENDROOT
BRANCH   2   7
HETATM    7  C1  UNL     1     -40.210  14.224   7.931  1.00 20.00     0.238 C 
HETATM    8  O8  UNL     1     -40.179  15.200   8.673  1.00 20.00    -0.306 OA
ENDBRANCH   2   7
BRANCH   4   9
HETATM    9  O10 UNL     1     -42.942  12.442   8.851  1.00 20.00    -0.366 OA
HETATM   10  C7  UNL     1     -43.417  13.545   9.609  1.00 20.00     0.204 C 
ENDBRANCH   4   9
TORSDOF 2
ENDMDL
MODEL 5
REMARK VINA RESULT:      -3.2     12.900     14.245
REMARK  2 active torsions:
REMARK  status: ('A' for Active; 'I' for Inactive)
REMARK    1  A    between atoms: C1_1  and  C3_3 
REMARK    2  A    between atoms: C5_5  and  O10_10 
ROOT
HETATM    1  C2  UNL     1     -41.668  13.804   6.326  1.00 20.00     0.074 C 
HETATM    2  C3  UNL     1     -42.495  13.905   7.593  1.00 20.00     0.080 C 
HETATM    3  C4  UNL     1     -41.463  14.389   8.600  1.00 20.00     0.131 C 
HETATM    4  C5  UNL     1     -40.280  13.429   6.837  1.00 20.00     0.260 C 
HETATM    5  C6  UNL     1     -41.763  14.111  10.062  1.00 20.00     0.040 C 
HETATM    6  O9  UNL     1     -40.219  13.777   8.228  1.00 20.00    -0.356 OA
ENDROOT
BRANCH   2   7
HETATM    7  C1  UNL     1     -43.097  12.569   7.922  1.00 20.00     0.238 C 
HETATM    8  O8  UNL     1     -43.300  11.694   7.087  1.00 20.00    -0.306 OA
ENDBRANCH   2   7
BRANCH   4   9
HETATM    9  O10 UNL     1     -40.003  12.047   6.644  1.00 20.00    -0.366 OA
HETATM   10  C7  UNL     1     -39.713  11.760   5.284  1.00 20.00     0.204 C 
ENDBRANCH   4   9
TORSDOF 2
ENDMDL
MODEL 6
REMARK VINA RESULT:      -3.2      1.662      2.015
REMARK  2 active torsions:
REMARK  status: ('A' for Active; 'I' for Inactive)
REMARK    1  A    between atoms: C1_1  and  C3_3 
REMARK    2  A    between atoms: C5_5  and  O10_10 
ROOT
HETATM    1  C2  UNL     1     -35.189  13.918  -4.590  1.00 20.00     0.074 C 
HETATM    2  C3  UNL     1     -35.706  14.643  -5.818  1.00 20.00     0.080 C 
HETATM    3  C4  UNL     1     -34.411  15.021  -6.524  1.00 20.00     0.131 C 
HETATM    4  C5  UNL     1     -33.868  14.622  -4.294  1.00 20.00     0.260 C 
HETATM    5  C6  UNL     1     -34.486  16.186  -7.492  1.00 20.00     0.040 C 
HETATM    6  O9  UNL     1     -33.456  15.299  -5.490  1.00 20.00    -0.356 OA
ENDROOT
BRANCH   2   7
HETATM    7  C1  UNL     1     -36.548  15.815  -5.408  1.00 20.00     0.238 C 
HETATM    8  O8  UNL     1     -37.749  15.901  -5.640  1.00 20.00    -0.306 OA
ENDBRANCH   2   7
BRANCH   4   9
HETATM    9  O10 UNL     1     -33.987  15.532  -3.207  1.00 20.00    -0.366 OA
HETATM   10  C7  UNL     1     -33.293  16.744  -3.463  1.00 20.00     0.204 C 
ENDBRANCH   4   9
TORSDOF 2
ENDMDL
MODEL 7
REMARK VINA RESULT:      -3.1      1.542      3.636
REMARK  2 active torsions:
REMARK  status: ('A' for Active; 'I' for Inactive)
REMARK    1  A    between atoms: C1_1  and  C3_3 
REMARK    2  A    between atoms: C5_5  and  O10_10 
ROOT
HETATM    1  C2  UNL     1     -34.094  16.477  -5.578  1.00 20.00     0.074 C 
HETATM    2  C3  UNL     1     -34.098  17.435  -4.402  1.00 20.00     0.080 C 
HETATM    3  C4  UNL     1     -33.303  16.657  -3.364  1.00 20.00     0.131 C 
HETATM    4  C5  UNL     1     -34.083  15.102  -4.914  1.00 20.00     0.260 C 
HETATM    5  C6  UNL     1     -33.531  17.040  -1.913  1.00 20.00     0.040 C 
HETATM    6  O9  UNL     1     -33.624  15.273  -3.565  1.00 20.00    -0.356 OA
ENDROOT
BRANCH   2   7
HETATM    7  C1  UNL     1     -35.509  17.742  -3.994  1.00 20.00     0.238 C 
HETATM    8  O8  UNL     1     -36.448  17.783  -4.782  1.00 20.00    -0.306 OA
ENDBRANCH   2   7
BRANCH   4   9
HETATM    9  O10 UNL     1     -35.367  14.492  -4.944  1.00 20.00    -0.366 OA
HETATM   10  C7  UNL     1     -35.962  14.591  -6.229  1.00 20.00     0.204 C 
ENDBRANCH   4   9
TORSDOF 2
ENDMDL
MODEL 8
REMARK VINA RESULT:      -3.1     11.542     13.496
REMARK  2 active torsions:
REMARK  status: ('A' for Active; 'I' for Inactive)
REMARK    1  A    between atoms: C1_1  and  C3_3 
REMARK    2  A    between atoms: C5_5  and  O10_10 
ROOT
HETATM    1  C2  UNL     1     -43.163   7.260  -0.032  1.00 20.00     0.074 C 
HETATM    2  C3  UNL     1     -43.393   5.791  -0.333  1.00 20.00     0.080 C 
HETATM    3  C4  UNL     1     -43.406   5.186   1.063  1.00 20.00     0.131 C 
HETATM    4  C5  UNL     1     -42.305   7.232   1.230  1.00 20.00     0.260 C 
HETATM    5  C6  UNL     1     -43.090   3.705   1.159  1.00 20.00     0.040 C 
HETATM    6  O9  UNL     1     -42.466   5.943   1.839  1.00 20.00    -0.356 OA
ENDROOT
BRANCH   2   7
HETATM    7  C1  UNL     1     -42.299   5.271  -1.220  1.00 20.00     0.238 C 
HETATM    8  O8  UNL     1     -42.496   4.511  -2.162  1.00 20.00    -0.306 OA
ENDBRANCH   2   7
BRANCH   4   9
HETATM    9  O10 UNL     1     -40.937   7.495   0.943  1.00 20.00    -0.366 OA
HETATM   10  C7  UNL     1     -40.797   8.468  -0.081  1.00 20.00     0.204 C 
ENDBRANCH   4   9
TORSDOF 2
ENDMDL
MODEL 9
REMARK VINA RESULT:      -3.1      1.873      3.633
REMARK  2 active torsions:
REMARK  status: ('A' for Active; 'I' for Inactive)
REMARK    1  A    between atoms: C1_1  and  C3_3 
REMARK    2  A    between atoms: C5_5  and  O10_10 
ROOT
HETATM    1  C2  UNL     1     -33.709  18.293  -3.931  1.00 20.00     0.074 C 
HETATM    2  C3  UNL     1     -33.200  16.923  -3.524  1.00 20.00     0.080 C 
HETATM    3  C4  UNL     1     -33.898  16.020  -4.530  1.00 20.00     0.131 C 
HETATM    4  C5  UNL     1     -35.114  18.007  -4.456  1.00 20.00     0.260 C 
HETATM    5  C6  UNL     1     -34.060  14.565  -4.133  1.00 20.00     0.040 C 
HETATM    6  O9  UNL     1     -35.184  16.610  -4.776  1.00 20.00    -0.356 OA
ENDROOT
BRANCH   2   7
HETATM    7  C1  UNL     1     -33.559  16.645  -2.094  1.00 20.00     0.238 C 
HETATM    8  O8  UNL     1     -33.657  17.518  -1.239  1.00 20.00    -0.306 OA
ENDBRANCH   2   7
BRANCH   4   9
HETATM    9  O10 UNL     1     -36.113  18.365  -3.509  1.00 20.00    -0.366 OA
HETATM   10  C7  UNL     1     -37.418  18.213  -4.047  1.00 20.00     0.204 C 
ENDBRANCH   4   9
TORSDOF 2
ENDMDL
