MODEL 1
REMARK VINA RESULT:      -4.7      0.000      0.000
REMARK  5 active torsions:
REMARK  status: ('A' for Active; 'I' for Inactive)
REMARK    1  A    between atoms: C1_1  and  C8_8 
REMARK    2  A    between atoms: C5_5  and  C6_6 
REMARK    3  A    between atoms: C5_5  and  C7_7 
REMARK    4  A    between atoms: C6_6  and  C8_8 
REMARK    5  A    between atoms: C7_7  and  C9_9 
ROOT
HETATM    1  C5  UNL     1     -33.833   8.103   5.180  1.00 20.00     0.001 C 
ENDROOT
BRANCH   1   2
HETATM    2  C6  UNL     1     -33.978   7.013   6.249  1.00 20.00     0.011 C 
BRANCH   2   3
HETATM    3  C8  UNL     1     -34.827   5.827   5.766  1.00 20.00     0.043 C 
HETATM    4  C2  UNL     1     -35.583   6.187   4.489  1.00 20.00     0.017 C 
BRANCH   3   5
HETATM    5  C1  UNL     1     -34.001   4.585   5.480  1.00 20.00     0.235 C 
HETATM    6  O10 UNL     1     -34.033   3.944   4.434  1.00 20.00    -0.306 OA
ENDBRANCH   3   5
ENDBRANCH   2   3
ENDBRANCH   1   2
BRANCH   1   7
HETATM    7  C7  UNL     1     -32.361   8.334   4.824  1.00 20.00     0.004 C 
BRANCH   7   8
HETATM    8  C9  UNL     1     -32.052   8.134   3.328  1.00 20.00    -0.023 C 
HETATM    9  C3  UNL     1     -32.793   9.135   2.440  1.00 20.00     0.009 C 
HETATM   10  C4  UNL     1     -32.414   6.707   2.910  1.00 20.00     0.009 C 
ENDBRANCH   7   8
ENDBRANCH   1   7
TORSDOF 5
ENDMDL
MODEL 2
REMARK VINA RESULT:      -4.5      2.018      4.237
REMARK  5 active torsions:
REMARK  status: ('A' for Active; 'I' for Inactive)
REMARK    1  A    between atoms: C1_1  and  C8_8 
REMARK    2  A    between atoms: C5_5  and  C6_6 
REMARK    3  A    between atoms: C5_5  and  C7_7 
REMARK    4  A    between atoms: C6_6  and  C8_8 
REMARK    5  A    between atoms: C7_7  and  C9_9 
ROOT
HETATM    1  C5  UNL     1     -33.762   8.036   4.787  1.00 20.00     0.001 C 
ENDROOT
BRANCH   1   2
HETATM    2  C6  UNL     1     -32.277   8.139   4.414  1.00 20.00     0.011 C 
BRANCH   2   3
HETATM    3  C8  UNL     1     -31.995   7.645   2.987  1.00 20.00     0.043 C 
HETATM    4  C2  UNL     1     -32.594   6.259   2.765  1.00 20.00     0.017 C 
BRANCH   3   5
HETATM    5  C1  UNL     1     -32.557   8.569   1.919  1.00 20.00     0.235 C 
HETATM    6  O10 UNL     1     -32.230   8.557   0.737  1.00 20.00    -0.306 OA
ENDBRANCH   3   5
ENDBRANCH   2   3
ENDBRANCH   1   2
BRANCH   1   7
HETATM    7  C7  UNL     1     -33.947   7.295   6.115  1.00 20.00     0.004 C 
BRANCH   7   8
HETATM    8  C9  UNL     1     -34.790   6.012   5.990  1.00 20.00    -0.023 C 
HETATM    9  C3  UNL     1     -33.970   4.746   6.246  1.00 20.00     0.009 C 
HETATM   10  C4  UNL     1     -35.426   5.942   4.600  1.00 20.00     0.009 C 
ENDBRANCH   7   8
ENDBRANCH   1   7
TORSDOF 5
ENDMDL
MODEL 3
REMARK VINA RESULT:      -4.1      2.073      4.419
REMARK  5 active torsions:
REMARK  status: ('A' for Active; 'I' for Inactive)
REMARK    1  A    between atoms: C1_1  and  C8_8 
REMARK    2  A    between atoms: C5_5  and  C6_6 
REMARK    3  A    between atoms: C5_5  and  C7_7 
REMARK    4  A    between atoms: C6_6  and  C8_8 
REMARK    5  A    between atoms: C7_7  and  C9_9 
ROOT
HETATM    1  C5  UNL     1     -33.435   5.489   2.956  1.00 20.00     0.001 C 
ENDROOT
BRANCH   1   2
HETATM    2  C6  UNL     1     -32.324   6.536   3.102  1.00 20.00     0.011 C 
BRANCH   2   3
HETATM    3  C8  UNL     1     -32.878   7.947   3.351  1.00 20.00     0.043 C 
HETATM    4  C2  UNL     1     -32.273   8.550   4.617  1.00 20.00     0.017 C 
BRANCH   3   5
HETATM    5  C1  UNL     1     -32.599   8.904   2.205  1.00 20.00     0.235 C 
HETATM    6  O10 UNL     1     -32.276   8.567   1.070  1.00 20.00    -0.306 OA
ENDBRANCH   3   5
ENDBRANCH   2   3
ENDBRANCH   1   2
BRANCH   1   7
HETATM    7  C7  UNL     1     -33.619   4.695   4.253  1.00 20.00     0.004 C 
BRANCH   7   8
HETATM    8  C9  UNL     1     -34.823   5.160   5.093  1.00 20.00    -0.023 C 
HETATM    9  C3  UNL     1     -35.775   6.059   4.302  1.00 20.00     0.009 C 
HETATM   10  C4  UNL     1     -34.331   5.900   6.339  1.00 20.00     0.009 C 
ENDBRANCH   7   8
ENDBRANCH   1   7
TORSDOF 5
ENDMDL
MODEL 4
REMARK VINA RESULT:      -4.1      1.015      3.734
REMARK  5 active torsions:
REMARK  status: ('A' for Active; 'I' for Inactive)
REMARK    1  A    between atoms: C1_1  and  C8_8 
REMARK    2  A    between atoms: C5_5  and  C6_6 
REMARK    3  A    between atoms: C5_5  and  C7_7 
REMARK    4  A    between atoms: C6_6  and  C8_8 
REMARK    5  A    between atoms: C7_7  and  C9_9 
ROOT
HETATM    1  C5  UNL     1     -33.959   7.975   5.618  1.00 20.00     0.001 C 
ENDROOT
BRANCH   1   2
HETATM    2  C6  UNL     1     -32.693   8.208   4.784  1.00 20.00     0.011 C 
BRANCH   2   3
HETATM    3  C8  UNL     1     -32.932   7.997   3.282  1.00 20.00     0.043 C 
HETATM    4  C2  UNL     1     -32.507   9.230   2.488  1.00 20.00     0.017 C 
BRANCH   3   5
HETATM    5  C1  UNL     1     -32.176   6.804   2.723  1.00 20.00     0.235 C 
HETATM    6  O10 UNL     1     -32.658   5.692   2.533  1.00 20.00    -0.306 OA
ENDBRANCH   3   5
ENDBRANCH   2   3
ENDBRANCH   1   2
BRANCH   1   7
HETATM    7  C7  UNL     1     -33.879   6.650   6.384  1.00 20.00     0.004 C 
BRANCH   7   8
HETATM    8  C9  UNL     1     -34.720   5.524   5.753  1.00 20.00    -0.023 C 
HETATM    9  C3  UNL     1     -33.862   4.352   5.276  1.00 20.00     0.009 C 
HETATM   10  C4  UNL     1     -35.533   6.078   4.581  1.00 20.00     0.009 C 
ENDBRANCH   7   8
ENDBRANCH   1   7
TORSDOF 5
ENDMDL
MODEL 5
REMARK VINA RESULT:      -4.0      1.004      1.917
REMARK  5 active torsions:
REMARK  status: ('A' for Active; 'I' for Inactive)
REMARK    1  A    between atoms: C1_1  and  C8_8 
REMARK    2  A    between atoms: C5_5  and  C6_6 
REMARK    3  A    between atoms: C5_5  and  C7_7 
REMARK    4  A    between atoms: C6_6  and  C8_8 
REMARK    5  A    between atoms: C7_7  and  C9_9 
ROOT
HETATM    1  C5  UNL     1     -32.515   8.621   4.822  1.00 20.00     0.001 C 
ENDROOT
BRANCH   1   2
HETATM    2  C6  UNL     1     -33.940   8.055   4.852  1.00 20.00     0.011 C 
BRANCH   2   3
HETATM    3  C8  UNL     1     -34.012   6.679   5.531  1.00 20.00     0.043 C 
HETATM    4  C2  UNL     1     -34.426   6.818   6.994  1.00 20.00     0.017 C 
BRANCH   3   5
HETATM    5  C1  UNL     1     -34.996   5.737   4.859  1.00 20.00     0.235 C 
HETATM    6  O10 UNL     1     -34.841   4.526   4.740  1.00 20.00    -0.306 OA
ENDBRANCH   3   5
ENDBRANCH   2   3
ENDBRANCH   1   2
BRANCH   1   7
HETATM    7  C7  UNL     1     -31.684   7.964   3.715  1.00 20.00     0.004 C 
BRANCH   7   8
HETATM    8  C9  UNL     1     -32.527   7.477   2.521  1.00 20.00    -0.023 C 
HETATM    9  C3  UNL     1     -32.493   5.956   2.364  1.00 20.00     0.009 C 
HETATM   10  C4  UNL     1     -32.034   8.139   1.233  1.00 20.00     0.009 C 
ENDBRANCH   7   8
ENDBRANCH   1   7
TORSDOF 5
ENDMDL
MODEL 6
REMARK VINA RESULT:      -3.9      1.145      3.649
REMARK  5 active torsions:
REMARK  status: ('A' for Active; 'I' for Inactive)
REMARK    1  A    between atoms: C1_1  and  C8_8 
REMARK    2  A    between atoms: C5_5  and  C6_6 
REMARK    3  A    between atoms: C5_5  and  C7_7 
REMARK    4  A    between atoms: C6_6  and  C8_8 
REMARK    5  A    between atoms: C7_7  and  C9_9 
ROOT
HETATM    1  C5  UNL     1     -33.624   8.346   4.897  1.00 20.00     0.001 C 
ENDROOT
BRANCH   1   2
HETATM    2  C6  UNL     1     -32.370   8.136   4.040  1.00 20.00     0.011 C 
BRANCH   2   3
HETATM    3  C8  UNL     1     -32.686   7.480   2.688  1.00 20.00     0.043 C 
HETATM    4  C2  UNL     1     -31.999   8.229   1.548  1.00 20.00     0.017 C 
BRANCH   3   5
HETATM    5  C1  UNL     1     -32.247   6.027   2.617  1.00 20.00     0.235 C 
HETATM    6  O10 UNL     1     -32.998   5.074   2.441  1.00 20.00    -0.306 OA
ENDBRANCH   3   5
ENDBRANCH   2   3
ENDBRANCH   1   2
BRANCH   1   7
HETATM    7  C7  UNL     1     -33.718   7.291   6.004  1.00 20.00     0.004 C 
BRANCH   7   8
HETATM    8  C9  UNL     1     -34.272   5.938   5.518  1.00 20.00    -0.023 C 
HETATM    9  C3  UNL     1     -35.472   6.100   4.583  1.00 20.00     0.009 C 
HETATM   10  C4  UNL     1     -34.668   5.078   6.719  1.00 20.00     0.009 C 
ENDBRANCH   7   8
ENDBRANCH   1   7
TORSDOF 5
ENDMDL
MODEL 7
REMARK VINA RESULT:      -3.8      1.542      2.368
REMARK  5 active torsions:
REMARK  status: ('A' for Active; 'I' for Inactive)
REMARK    1  A    between atoms: C1_1  and  C8_8 
REMARK    2  A    between atoms: C5_5  and  C6_6 
REMARK    3  A    between atoms: C5_5  and  C7_7 
REMARK    4  A    between atoms: C6_6  and  C8_8 
REMARK    5  A    between atoms: C7_7  and  C9_9 
ROOT
HETATM    1  C5  UNL     1     -33.089   5.865   3.094  1.00 20.00     0.001 C 
ENDROOT
BRANCH   1   2
HETATM    2  C6  UNL     1     -34.390   6.202   3.833  1.00 20.00     0.011 C 
BRANCH   2   3
HETATM    3  C8  UNL     1     -34.713   5.192   4.943  1.00 20.00     0.043 C 
HETATM    4  C2  UNL     1     -33.811   3.965   4.838  1.00 20.00     0.017 C 
BRANCH   3   5
HETATM    5  C1  UNL     1     -34.544   5.771   6.338  1.00 20.00     0.235 C 
HETATM    6  O10 UNL     1     -34.352   6.957   6.589  1.00 20.00    -0.306 OA
ENDBRANCH   3   5
ENDBRANCH   2   3
ENDBRANCH   1   2
BRANCH   1   7
HETATM    7  C7  UNL     1     -32.169   7.087   3.012  1.00 20.00     0.004 C 
BRANCH   7   8
HETATM    8  C9  UNL     1     -32.846   8.397   3.459  1.00 20.00    -0.023 C 
HETATM    9  C3  UNL     1     -32.793   9.480   2.381  1.00 20.00     0.009 C 
HETATM   10  C4  UNL     1     -32.186   8.911   4.739  1.00 20.00     0.009 C 
ENDBRANCH   7   8
ENDBRANCH   1   7
TORSDOF 5
ENDMDL
MODEL 8
REMARK VINA RESULT:      -3.8      1.729      4.146
REMARK  5 active torsions:
REMARK  status: ('A' for Active; 'I' for Inactive)
REMARK    1  A    between atoms: C1_1  and  C8_8 
REMARK    2  A    between atoms: C5_5  and  C6_6 
REMARK    3  A    between atoms: C5_5  and  C7_7 
REMARK    4  A    between atoms: C6_6  and  C8_8 
REMARK    5  A    between atoms: C7_7  and  C9_9 
ROOT
HETATM    1  C5  UNL     1     -33.432   5.942   2.897  1.00 20.00     0.001 C 
ENDROOT
BRANCH   1   2
HETATM    2  C6  UNL     1     -32.032   6.569   2.921  1.00 20.00     0.011 C 
BRANCH   2   3
HETATM    3  C8  UNL     1     -32.042   8.009   3.453  1.00 20.00     0.043 C 
HETATM    4  C2  UNL     1     -32.904   8.907   2.569  1.00 20.00     0.017 C 
BRANCH   3   5
HETATM    5  C1  UNL     1     -32.571   8.112   4.873  1.00 20.00     0.235 C 
HETATM    6  O10 UNL     1     -33.632   8.640   5.192  1.00 20.00    -0.306 OA
ENDBRANCH   3   5
ENDBRANCH   2   3
ENDBRANCH   1   2
BRANCH   1   7
HETATM    7  C7  UNL     1     -33.561   4.840   3.953  1.00 20.00     0.004 C 
BRANCH   7   8
HETATM    8  C9  UNL     1     -34.801   4.996   4.854  1.00 20.00    -0.023 C 
HETATM    9  C3  UNL     1     -35.756   6.080   4.352  1.00 20.00     0.009 C 
HETATM   10  C4  UNL     1     -34.364   5.317   6.285  1.00 20.00     0.009 C 
ENDBRANCH   7   8
ENDBRANCH   1   7
TORSDOF 5
ENDMDL
MODEL 9
REMARK VINA RESULT:      -3.8     11.748     12.499
REMARK  5 active torsions:
REMARK  status: ('A' for Active; 'I' for Inactive)
REMARK    1  A    between atoms: C1_1  and  C8_8 
REMARK    2  A    between atoms: C5_5  and  C6_6 
REMARK    3  A    between atoms: C5_5  and  C7_7 
REMARK    4  A    between atoms: C6_6  and  C8_8 
REMARK    5  A    between atoms: C7_7  and  C9_9 
ROOT
HETATM    1  C5  UNL     1     -33.243  16.375  -3.434  1.00 20.00     0.001 C 
ENDROOT
BRANCH   1   2
HETATM    2  C6  UNL     1     -33.708  15.024  -3.991  1.00 20.00     0.011 C 
BRANCH   2   3
HETATM    3  C8  UNL     1     -34.792  15.174  -5.068  1.00 20.00     0.043 C 
HETATM    4  C2  UNL     1     -34.166  15.247  -6.459  1.00 20.00     0.017 C 
BRANCH   3   5
HETATM    5  C1  UNL     1     -35.790  14.028  -5.069  1.00 20.00     0.235 C 
HETATM    6  O10 UNL     1     -35.759  13.069  -4.305  1.00 20.00    -0.306 OA
ENDBRANCH   3   5
ENDBRANCH   2   3
ENDBRANCH   1   2
BRANCH   1   7
HETATM    7  C7  UNL     1     -33.654  16.540  -1.968  1.00 20.00     0.004 C 
BRANCH   7   8
HETATM    8  C9  UNL     1     -33.389  17.951  -1.411  1.00 20.00    -0.023 C 
HETATM    9  C3  UNL     1     -31.898  18.284  -1.347  1.00 20.00     0.009 C 
HETATM   10  C4  UNL     1     -34.006  18.083  -0.017  1.00 20.00     0.009 C 
ENDBRANCH   7   8
ENDBRANCH   1   7
TORSDOF 5
ENDMDL
