MODEL 1
REMARK VINA RESULT:      -4.2      0.000      0.000
REMARK  0 active torsions:
REMARK  status: ('A' for Active; 'I' for Inactive)
ROOT
HETATM    1  C1  UNL     1     -34.016   5.379   4.304  1.00 20.00     0.223 A 
HETATM    2  C2  UNL     1     -34.539   6.608   5.079  1.00 20.00     0.096 A 
HETATM    3  C3  UNL     1     -33.629   7.437   4.117  1.00 20.00     0.093 A 
HETATM    4  C4  UNL     1     -34.258   6.605   6.568  1.00 20.00     0.022 C 
HETATM    5  C5  UNL     1     -32.411   8.162   4.648  1.00 20.00     0.033 C 
HETATM    6  N6  UNL     1     -33.259   6.170   3.497  1.00 20.00    -0.356 N 
HETATM    7  O7  UNL     1     -34.173   4.181   4.352  1.00 20.00    -0.273 OA
HETATM    8  H16 UNL     1     -32.642   5.921   2.736  1.00 20.00     0.162 HD
ENDROOT
TORSDOF 0
ENDMDL
MODEL 2
REMARK VINA RESULT:      -4.1      2.236      3.150
REMARK  0 active torsions:
REMARK  status: ('A' for Active; 'I' for Inactive)
ROOT
HETATM    1  C1  UNL     1     -32.986   7.622   4.809  1.00 20.00     0.223 A 
HETATM    2  C2  UNL     1     -33.961   6.672   4.080  1.00 20.00     0.096 A 
HETATM    3  C3  UNL     1     -34.583   6.439   5.493  1.00 20.00     0.093 A 
HETATM    4  C4  UNL     1     -33.314   5.518   3.340  1.00 20.00     0.022 C 
HETATM    5  C5  UNL     1     -34.460   5.092   6.174  1.00 20.00     0.033 C 
HETATM    6  N6  UNL     1     -33.590   7.378   6.002  1.00 20.00    -0.356 N 
HETATM    7  O7  UNL     1     -32.047   8.320   4.500  1.00 20.00    -0.273 OA
HETATM    8  H16 UNL     1     -33.378   7.737   6.924  1.00 20.00     0.162 HD
ENDROOT
TORSDOF 0
ENDMDL
MODEL 3
REMARK VINA RESULT:      -3.8      1.658      2.166
REMARK  0 active torsions:
REMARK  status: ('A' for Active; 'I' for Inactive)
ROOT
HETATM    1  C1  UNL     1     -34.479   5.512   5.672  1.00 20.00     0.223 A 
HETATM    2  C2  UNL     1     -34.331   6.743   4.752  1.00 20.00     0.096 A 
HETATM    3  C3  UNL     1     -34.160   5.699   3.603  1.00 20.00     0.093 A 
HETATM    4  C4  UNL     1     -33.189   7.679   5.097  1.00 20.00     0.022 C 
HETATM    5  C5  UNL     1     -32.832   5.548   2.893  1.00 20.00     0.033 C 
HETATM    6  N6  UNL     1     -34.336   4.666   4.618  1.00 20.00    -0.356 N 
HETATM    7  O7  UNL     1     -34.649   5.317   6.854  1.00 20.00    -0.273 OA
HETATM    8  H16 UNL     1     -34.338   3.655   4.589  1.00 20.00     0.162 HD
ENDROOT
TORSDOF 0
ENDMDL
MODEL 4
REMARK VINA RESULT:      -3.8     16.245     16.686
REMARK  0 active torsions:
REMARK  status: ('A' for Active; 'I' for Inactive)
ROOT
HETATM    1  C1  UNL     1     -22.135  17.501   8.452  1.00 20.00     0.223 A 
HETATM    2  C2  UNL     1     -22.764  18.854   8.850  1.00 20.00     0.096 A 
HETATM    3  C3  UNL     1     -22.940  18.208  10.261  1.00 20.00     0.093 A 
HETATM    4  C4  UNL     1     -23.985  19.263   8.050  1.00 20.00     0.022 C 
HETATM    5  C5  UNL     1     -24.321  17.899  10.798  1.00 20.00     0.033 C 
HETATM    6  N6  UNL     1     -22.310  17.013   9.709  1.00 20.00    -0.356 N 
HETATM    7  O7  UNL     1     -21.667  17.013   7.449  1.00 20.00    -0.273 OA
HETATM    8  H16 UNL     1     -22.080  16.107  10.094  1.00 20.00     0.162 HD
ENDROOT
TORSDOF 0
ENDMDL
MODEL 5
REMARK VINA RESULT:      -3.5     15.747     16.601
REMARK  0 active torsions:
REMARK  status: ('A' for Active; 'I' for Inactive)
ROOT
HETATM    1  C1  UNL     1     -24.291  16.973  11.592  1.00 20.00     0.223 A 
HETATM    2  C2  UNL     1     -23.746  18.370  11.960  1.00 20.00     0.096 A 
HETATM    3  C3  UNL     1     -24.197  18.779  10.522  1.00 20.00     0.093 A 
HETATM    4  C4  UNL     1     -22.277  18.417  12.332  1.00 20.00     0.022 C 
HETATM    5  C5  UNL     1     -23.171  19.132   9.466  1.00 20.00     0.033 C 
HETATM    6  N6  UNL     1     -24.668  17.408  10.361  1.00 20.00    -0.356 N 
HETATM    7  O7  UNL     1     -24.372  15.894  12.133  1.00 20.00    -0.273 OA
HETATM    8  H16 UNL     1     -25.112  16.909   9.602  1.00 20.00     0.162 HD
ENDROOT
TORSDOF 0
ENDMDL
MODEL 6
REMARK VINA RESULT:      -3.5     12.492     13.169
REMARK  0 active torsions:
REMARK  status: ('A' for Active; 'I' for Inactive)
ROOT
HETATM    1  C1  UNL     1     -35.291  14.466  -5.281  1.00 20.00     0.223 A 
HETATM    2  C2  UNL     1     -34.189  15.460  -5.707  1.00 20.00     0.096 A 
HETATM    3  C3  UNL     1     -33.462  15.010  -4.400  1.00 20.00     0.093 A 
HETATM    4  C4  UNL     1     -34.638  16.899  -5.864  1.00 20.00     0.022 C 
HETATM    5  C5  UNL     1     -33.286  15.976  -3.248  1.00 20.00     0.033 C 
HETATM    6  N6  UNL     1     -34.592  14.116  -4.169  1.00 20.00    -0.356 N 
HETATM    7  O7  UNL     1     -36.362  14.107  -5.714  1.00 20.00    -0.273 OA
HETATM    8  H16 UNL     1     -34.821  13.458  -3.436  1.00 20.00     0.162 HD
ENDROOT
TORSDOF 0
ENDMDL
MODEL 7
REMARK VINA RESULT:      -3.4     16.813     17.152
REMARK  0 active torsions:
REMARK  status: ('A' for Active; 'I' for Inactive)
ROOT
HETATM    1  C1  UNL     1     -22.671  18.243  11.225  1.00 20.00     0.223 A 
HETATM    2  C2  UNL     1     -23.681  17.764  10.160  1.00 20.00     0.096 A 
HETATM    3  C3  UNL     1     -22.419  17.426   9.305  1.00 20.00     0.093 A 
HETATM    4  C4  UNL     1     -24.661  18.814   9.676  1.00 20.00     0.022 C 
HETATM    5  C5  UNL     1     -22.114  18.204   8.043  1.00 20.00     0.033 C 
HETATM    6  N6  UNL     1     -21.622  17.910  10.428  1.00 20.00    -0.356 N 
HETATM    7  O7  UNL     1     -22.729  18.730  12.331  1.00 20.00    -0.273 OA
HETATM    8  H16 UNL     1     -20.628  17.999  10.588  1.00 20.00     0.162 HD
ENDROOT
TORSDOF 0
ENDMDL
MODEL 8
REMARK VINA RESULT:      -3.4      8.963      9.331
REMARK  0 active torsions:
REMARK  status: ('A' for Active; 'I' for Inactive)
ROOT
HETATM    1  C1  UNL     1     -39.987  12.961   7.087  1.00 20.00     0.223 A 
HETATM    2  C2  UNL     1     -40.907  12.483   5.944  1.00 20.00     0.096 A 
HETATM    3  C3  UNL     1     -39.699  11.587   5.523  1.00 20.00     0.093 A 
HETATM    4  C4  UNL     1     -41.403  13.569   5.010  1.00 20.00     0.022 C 
HETATM    5  C5  UNL     1     -38.957  11.856   4.231  1.00 20.00     0.033 C 
HETATM    6  N6  UNL     1     -38.985  12.144   6.667  1.00 20.00    -0.356 N 
HETATM    7  O7  UNL     1     -40.065  13.744   8.006  1.00 20.00    -0.273 OA
HETATM    8  H16 UNL     1     -38.056  12.007   7.041  1.00 20.00     0.162 HD
ENDROOT
TORSDOF 0
ENDMDL
MODEL 9
REMARK VINA RESULT:      -3.4     15.860     16.629
REMARK  0 active torsions:
REMARK  status: ('A' for Active; 'I' for Inactive)
ROOT
HETATM    1  C1  UNL     1     -24.767  18.677  11.405  1.00 20.00     0.223 A 
HETATM    2  C2  UNL     1     -23.809  17.538  11.817  1.00 20.00     0.096 A 
HETATM    3  C3  UNL     1     -22.856  18.126  10.728  1.00 20.00     0.093 A 
HETATM    4  C4  UNL     1     -24.360  16.135  11.660  1.00 20.00     0.022 C 
HETATM    5  C5  UNL     1     -22.553  17.342   9.469  1.00 20.00     0.033 C 
HETATM    6  N6  UNL     1     -23.879  19.137  10.485  1.00 20.00    -0.356 N 
HETATM    7  O7  UNL     1     -25.871  19.052  11.728  1.00 20.00    -0.273 OA
HETATM    8  H16 UNL     1     -23.948  19.919   9.848  1.00 20.00     0.162 HD
ENDROOT
TORSDOF 0
ENDMDL
