MODEL 1
REMARK VINA RESULT:      -4.8      0.000      0.000
REMARK  0 active torsions:
REMARK  status: ('A' for Active; 'I' for Inactive)
ROOT
HETATM    1  C1  UNL     1     -34.319   5.049   6.135  1.00 20.00    -0.030 C 
HETATM    2  C2  UNL     1     -34.888   5.135   4.926  1.00 20.00    -0.023 C 
HETATM    3  C3  UNL     1     -32.867   7.357   3.993  1.00 20.00     0.150 C 
HETATM    4  C4  UNL     1     -33.569   6.168   6.793  1.00 20.00     0.027 C 
HETATM    5  C5  UNL     1     -34.035   7.544   6.327  1.00 20.00     0.016 C 
HETATM    6  C6  UNL     1     -34.768   6.369   4.100  1.00 20.00     0.045 C 
HETATM    7  C7  UNL     1     -34.147   7.616   4.813  1.00 20.00     0.067 C 
HETATM    8  C8  UNL     1     -33.602   6.380   3.049  1.00 20.00     0.160 C 
HETATM    9  O9  UNL     1     -31.728   7.768   4.063  1.00 20.00    -0.296 OA
HETATM   10 CL10 UNL     1     -32.684   4.901   2.658  1.00 20.00    -0.116 Cl
ENDROOT
TORSDOF 0
ENDMDL
MODEL 2
REMARK VINA RESULT:      -4.0     12.744     13.677
REMARK  0 active torsions:
REMARK  status: ('A' for Active; 'I' for Inactive)
ROOT
HETATM    1  C1  UNL     1     -34.073  17.191  -3.898  1.00 20.00    -0.030 C 
HETATM    2  C2  UNL     1     -34.559  17.314  -5.140  1.00 20.00    -0.023 C 
HETATM    3  C3  UNL     1     -35.596  14.345  -5.164  1.00 20.00     0.150 C 
HETATM    4  C4  UNL     1     -33.636  15.893  -3.290  1.00 20.00     0.027 C 
HETATM    5  C5  UNL     1     -33.173  14.880  -4.334  1.00 20.00     0.016 C 
HETATM    6  C6  UNL     1     -34.754  16.124  -6.015  1.00 20.00     0.045 C 
HETATM    7  C7  UNL     1     -34.153  14.778  -5.491  1.00 20.00     0.067 C 
HETATM    8  C8  UNL     1     -36.192  15.494  -6.005  1.00 20.00     0.160 C 
HETATM    9  O9  UNL     1     -36.074  13.445  -4.504  1.00 20.00    -0.296 OA
HETATM   10 CL10 UNL     1     -37.571  16.330  -5.242  1.00 20.00    -0.116 Cl
ENDROOT
TORSDOF 0
ENDMDL
MODEL 3
REMARK VINA RESULT:      -4.0      1.428      2.014
REMARK  0 active torsions:
REMARK  status: ('A' for Active; 'I' for Inactive)
ROOT
HETATM    1  C1  UNL     1     -33.666   6.884   6.658  1.00 20.00    -0.030 C 
HETATM    2  C2  UNL     1     -34.589   5.964   6.350  1.00 20.00    -0.023 C 
HETATM    3  C3  UNL     1     -33.551   5.729   3.390  1.00 20.00     0.150 C 
HETATM    4  C4  UNL     1     -33.035   7.808   5.661  1.00 20.00     0.027 C 
HETATM    5  C5  UNL     1     -33.936   8.086   4.461  1.00 20.00     0.016 C 
HETATM    6  C6  UNL     1     -35.031   5.752   4.943  1.00 20.00     0.045 C 
HETATM    7  C7  UNL     1     -34.531   6.805   3.899  1.00 20.00     0.067 C 
HETATM    8  C8  UNL     1     -34.291   4.611   4.157  1.00 20.00     0.160 C 
HETATM    9  O9  UNL     1     -32.579   5.755   2.665  1.00 20.00    -0.296 OA
HETATM   10 CL10 UNL     1     -33.220   3.451   4.986  1.00 20.00    -0.116 Cl
ENDROOT
TORSDOF 0
ENDMDL
MODEL 4
REMARK VINA RESULT:      -3.6     12.999     14.119
REMARK  0 active torsions:
REMARK  status: ('A' for Active; 'I' for Inactive)
ROOT
HETATM    1  C1  UNL     1     -33.695  16.892  -3.511  1.00 20.00    -0.030 C 
HETATM    2  C2  UNL     1     -34.128  17.643  -4.533  1.00 20.00    -0.023 C 
HETATM    3  C3  UNL     1     -36.009  15.352  -5.584  1.00 20.00     0.150 C 
HETATM    4  C4  UNL     1     -33.665  15.394  -3.523  1.00 20.00     0.027 C 
HETATM    5  C5  UNL     1     -33.533  14.817  -4.929  1.00 20.00     0.016 C 
HETATM    6  C6  UNL     1     -34.676  17.022  -5.771  1.00 20.00     0.045 C 
HETATM    7  C7  UNL     1     -34.505  15.472  -5.898  1.00 20.00     0.067 C 
HETATM    8  C8  UNL     1     -36.237  16.860  -5.824  1.00 20.00     0.160 C 
HETATM    9  O9  UNL     1     -36.731  14.427  -5.274  1.00 20.00    -0.296 OA
HETATM   10 CL10 UNL     1     -37.297  17.647  -4.624  1.00 20.00    -0.116 Cl
ENDROOT
TORSDOF 0
ENDMDL
MODEL 5
REMARK VINA RESULT:      -3.5      2.099      3.203
REMARK  0 active torsions:
REMARK  status: ('A' for Active; 'I' for Inactive)
ROOT
HETATM    1  C1  UNL     1     -32.357   8.392   5.079  1.00 20.00    -0.030 C 
HETATM    2  C2  UNL     1     -33.669   8.249   5.305  1.00 20.00    -0.023 C 
HETATM    3  C3  UNL     1     -33.754   5.480   3.815  1.00 20.00     0.150 C 
HETATM    4  C4  UNL     1     -31.630   7.765   3.928  1.00 20.00     0.027 C 
HETATM    5  C5  UNL     1     -32.532   7.520   2.722  1.00 20.00     0.016 C 
HETATM    6  C6  UNL     1     -34.516   7.388   4.433  1.00 20.00     0.045 C 
HETATM    7  C7  UNL     1     -33.839   6.856   3.126  1.00 20.00     0.067 C 
HETATM    8  C8  UNL     1     -34.734   5.914   4.928  1.00 20.00     0.160 C 
HETATM    9  O9  UNL     1     -33.152   4.455   3.572  1.00 20.00    -0.296 OA
HETATM   10 CL10 UNL     1     -34.259   5.402   6.570  1.00 20.00    -0.116 Cl
ENDROOT
TORSDOF 0
ENDMDL
MODEL 6
REMARK VINA RESULT:      -3.4      1.864      2.728
REMARK  0 active torsions:
REMARK  status: ('A' for Active; 'I' for Inactive)
ROOT
HETATM    1  C1  UNL     1     -33.193   4.916   3.212  1.00 20.00    -0.030 C 
HETATM    2  C2  UNL     1     -33.512   6.162   2.842  1.00 20.00    -0.023 C 
HETATM    3  C3  UNL     1     -33.771   7.118   5.827  1.00 20.00     0.150 C 
HETATM    4  C4  UNL     1     -33.607   4.292   4.510  1.00 20.00     0.027 C 
HETATM    5  C5  UNL     1     -34.900   4.884   5.064  1.00 20.00     0.016 C 
HETATM    6  C6  UNL     1     -34.281   7.065   3.745  1.00 20.00     0.045 C 
HETATM    7  C7  UNL     1     -34.880   6.404   5.030  1.00 20.00     0.067 C 
HETATM    8  C8  UNL     1     -33.425   8.036   4.634  1.00 20.00     0.160 C 
HETATM    9  O9  UNL     1     -33.341   7.003   6.956  1.00 20.00    -0.296 OA
HETATM   10 CL10 UNL     1     -31.677   8.259   4.356  1.00 20.00    -0.116 Cl
ENDROOT
TORSDOF 0
ENDMDL
MODEL 7
REMARK VINA RESULT:      -3.4     10.320     11.136
REMARK  0 active torsions:
REMARK  status: ('A' for Active; 'I' for Inactive)
ROOT
HETATM    1  C1  UNL     1     -40.418  15.387   7.841  1.00 20.00    -0.030 C 
HETATM    2  C2  UNL     1     -40.536  14.065   8.017  1.00 20.00    -0.023 C 
HETATM    3  C3  UNL     1     -41.610  13.644   5.091  1.00 20.00     0.150 C 
HETATM    4  C4  UNL     1     -41.235  16.183   6.869  1.00 20.00     0.027 C 
HETATM    5  C5  UNL     1     -42.596  15.551   6.587  1.00 20.00     0.016 C 
HETATM    6  C6  UNL     1     -41.481  13.257   7.196  1.00 20.00     0.045 C 
HETATM    7  C7  UNL     1     -42.474  14.064   6.296  1.00 20.00     0.067 C 
HETATM    8  C8  UNL     1     -40.871  12.573   5.922  1.00 20.00     0.160 C 
HETATM    9  O9  UNL     1     -41.543  14.013   3.936  1.00 20.00    -0.296 OA
HETATM   10 CL10 UNL     1     -39.109  12.513   5.649  1.00 20.00    -0.116 Cl
ENDROOT
TORSDOF 0
ENDMDL
MODEL 8
REMARK VINA RESULT:      -3.4     11.729     12.823
REMARK  0 active torsions:
REMARK  status: ('A' for Active; 'I' for Inactive)
ROOT
HETATM    1  C1  UNL     1     -27.009  -0.272  11.645  1.00 20.00    -0.030 C 
HETATM    2  C2  UNL     1     -27.698  -0.555  10.532  1.00 20.00    -0.023 C 
HETATM    3  C3  UNL     1     -27.441  -3.653  11.008  1.00 20.00     0.150 C 
HETATM    4  C4  UNL     1     -25.993  -1.186  12.260  1.00 20.00     0.027 C 
HETATM    5  C5  UNL     1     -25.338  -2.112  11.238  1.00 20.00     0.016 C 
HETATM    6  C6  UNL     1     -27.538  -1.861   9.834  1.00 20.00     0.045 C 
HETATM    7  C7  UNL     1     -26.369  -2.771  10.337  1.00 20.00     0.067 C 
HETATM    8  C8  UNL     1     -28.578  -2.974  10.215  1.00 20.00     0.160 C 
HETATM    9  O9  UNL     1     -27.400  -4.539  11.836  1.00 20.00    -0.296 OA
HETATM   10 CL10 UNL     1     -30.032  -2.602  11.180  1.00 20.00    -0.116 Cl
ENDROOT
TORSDOF 0
ENDMDL
MODEL 9
REMARK VINA RESULT:      -3.4     13.284     14.246
REMARK  0 active torsions:
REMARK  status: ('A' for Active; 'I' for Inactive)
ROOT
HETATM    1  C1  UNL     1     -33.458  15.184  -3.940  1.00 20.00    -0.030 C 
HETATM    2  C2  UNL     1     -34.434  14.766  -4.756  1.00 20.00    -0.023 C 
HETATM    3  C3  UNL     1     -34.625  17.569  -6.171  1.00 20.00     0.150 C 
HETATM    4  C4  UNL     1     -33.256  16.612  -3.533  1.00 20.00     0.027 C 
HETATM    5  C5  UNL     1     -34.549  17.422  -3.559  1.00 20.00     0.016 C 
HETATM    6  C6  UNL     1     -35.388  15.728  -5.377  1.00 20.00     0.045 C 
HETATM    7  C7  UNL     1     -35.325  17.199  -4.848  1.00 20.00     0.067 C 
HETATM    8  C8  UNL     1     -35.018  16.224  -6.820  1.00 20.00     0.160 C 
HETATM    9  O9  UNL     1     -34.009  18.543  -6.551  1.00 20.00    -0.296 OA
HETATM   10 CL10 UNL     1     -33.717  15.453  -7.767  1.00 20.00    -0.116 Cl
ENDROOT
TORSDOF 0
ENDMDL
