MODEL 1
REMARK VINA RESULT:      -3.6      0.000      0.000
REMARK  0 active torsions:
REMARK  status: ('A' for Active; 'I' for Inactive)
ROOT
HETATM    1  C1  UNL     1     -33.144   7.567   5.490  1.00 20.00     0.026 C 
HETATM    2  C2  UNL     1     -33.723   5.746   3.801  1.00 20.00     0.026 C 
HETATM    3  C3  UNL     1     -34.216   7.133   6.482  1.00 20.00     0.075 C 
HETATM    4  C4  UNL     1     -34.843   5.164   4.656  1.00 20.00     0.075 C 
HETATM    5  C5  UNL     1     -33.512   7.238   4.046  1.00 20.00     0.059 C 
HETATM    6  S6  UNL     1     -34.499   5.340   6.431  1.00 20.00    -0.169 SA
HETATM    7 BR7  UNL     1     -32.074   7.870   2.871  1.00 20.00    -0.091 Br
ENDROOT
TORSDOF 0
ENDMDL
MODEL 2
REMARK VINA RESULT:      -3.3      1.417      1.716
REMARK  0 active torsions:
REMARK  status: ('A' for Active; 'I' for Inactive)
ROOT
HETATM    1  C1  UNL     1     -33.898   6.997   5.692  1.00 20.00     0.026 C 
HETATM    2  C2  UNL     1     -32.657   6.643   3.492  1.00 20.00     0.026 C 
HETATM    3  C3  UNL     1     -34.848   5.827   5.465  1.00 20.00     0.075 C 
HETATM    4  C4  UNL     1     -33.507   5.443   3.087  1.00 20.00     0.075 C 
HETATM    5  C5  UNL     1     -33.413   7.622   4.387  1.00 20.00     0.059 C 
HETATM    6  S6  UNL     1     -34.058   4.487   4.529  1.00 20.00    -0.169 SA
HETATM    7 BR7  UNL     1     -32.229   9.127   4.811  1.00 20.00    -0.091 Br
ENDROOT
TORSDOF 0
ENDMDL
MODEL 3
REMARK VINA RESULT:      -3.2      0.670      2.103
REMARK  0 active torsions:
REMARK  status: ('A' for Active; 'I' for Inactive)
ROOT
HETATM    1  C1  UNL     1     -33.645   5.819   3.420  1.00 20.00     0.026 C 
HETATM    2  C2  UNL     1     -33.487   7.744   5.086  1.00 20.00     0.026 C 
HETATM    3  C3  UNL     1     -33.993   4.788   4.486  1.00 20.00     0.075 C 
HETATM    4  C4  UNL     1     -33.821   6.867   6.288  1.00 20.00     0.075 C 
HETATM    5  C5  UNL     1     -32.800   6.967   3.966  1.00 20.00     0.059 C 
HETATM    6  S6  UNL     1     -34.951   5.516   5.846  1.00 20.00    -0.169 SA
HETATM    7 BR7  UNL     1     -32.397   8.205   2.499  1.00 20.00    -0.091 Br
ENDROOT
TORSDOF 0
ENDMDL
MODEL 4
REMARK VINA RESULT:      -3.2      2.834      3.721
REMARK  0 active torsions:
REMARK  status: ('A' for Active; 'I' for Inactive)
ROOT
HETATM    1  C1  UNL     1     -33.527   5.450   3.889  1.00 20.00     0.026 C 
HETATM    2  C2  UNL     1     -33.315   7.624   5.205  1.00 20.00     0.026 C 
HETATM    3  C3  UNL     1     -33.096   6.084   2.572  1.00 20.00     0.075 C 
HETATM    4  C4  UNL     1     -32.867   8.435   3.993  1.00 20.00     0.075 C 
HETATM    5  C5  UNL     1     -34.207   6.445   4.825  1.00 20.00     0.059 C 
HETATM    6  S6  UNL     1     -31.904   7.430   2.827  1.00 20.00    -0.169 SA
HETATM    7 BR7  UNL     1     -34.738   5.507   6.463  1.00 20.00    -0.091 Br
ENDROOT
TORSDOF 0
ENDMDL
MODEL 5
REMARK VINA RESULT:      -3.2      2.883      3.238
REMARK  0 active torsions:
REMARK  status: ('A' for Active; 'I' for Inactive)
ROOT
HETATM    1  C1  UNL     1     -33.591   7.923   5.447  1.00 20.00     0.026 C 
HETATM    2  C2  UNL     1     -33.438   6.138   3.631  1.00 20.00     0.026 C 
HETATM    3  C3  UNL     1     -32.499   8.790   4.832  1.00 20.00     0.075 C 
HETATM    4  C4  UNL     1     -32.333   6.861   2.869  1.00 20.00     0.075 C 
HETATM    5  C5  UNL     1     -33.415   6.441   5.127  1.00 20.00     0.059 C 
HETATM    6  S6  UNL     1     -32.476   8.665   3.020  1.00 20.00    -0.169 SA
HETATM    7 BR7  UNL     1     -34.857   5.434   5.995  1.00 20.00    -0.091 Br
ENDROOT
TORSDOF 0
ENDMDL
MODEL 6
REMARK VINA RESULT:      -3.0      1.601      1.879
REMARK  0 active torsions:
REMARK  status: ('A' for Active; 'I' for Inactive)
ROOT
HETATM    1  C1  UNL     1     -32.970   7.039   3.995  1.00 20.00     0.026 C 
HETATM    2  C2  UNL     1     -34.216   4.941   4.736  1.00 20.00     0.026 C 
HETATM    3  C3  UNL     1     -33.630   7.927   5.044  1.00 20.00     0.075 C 
HETATM    4  C4  UNL     1     -34.977   5.659   5.845  1.00 20.00     0.075 C 
HETATM    5  C5  UNL     1     -33.854   5.867   3.578  1.00 20.00     0.059 C 
HETATM    6  S6  UNL     1     -34.004   7.012   6.567  1.00 20.00    -0.169 SA
HETATM    7 BR7  UNL     1     -32.910   4.823   2.212  1.00 20.00    -0.091 Br
ENDROOT
TORSDOF 0
ENDMDL
MODEL 7
REMARK VINA RESULT:      -3.0     15.941     16.873
REMARK  0 active torsions:
REMARK  status: ('A' for Active; 'I' for Inactive)
ROOT
HETATM    1  C1  UNL     1     -23.945  17.843   9.657  1.00 20.00     0.026 C 
HETATM    2  C2  UNL     1     -21.782  18.593  10.782  1.00 20.00     0.026 C 
HETATM    3  C3  UNL     1     -24.628  17.490  10.973  1.00 20.00     0.075 C 
HETATM    4  C4  UNL     1     -22.290  18.300  12.189  1.00 20.00     0.075 C 
HETATM    5  C5  UNL     1     -22.427  17.699   9.726  1.00 20.00     0.059 C 
HETATM    6  S6  UNL     1     -24.081  18.565  12.330  1.00 20.00    -0.169 SA
HETATM    7 BR7  UNL     1     -21.672  18.150   7.974  1.00 20.00    -0.091 Br
ENDROOT
TORSDOF 0
ENDMDL
MODEL 8
REMARK VINA RESULT:      -2.9      2.631      3.441
REMARK  0 active torsions:
REMARK  status: ('A' for Active; 'I' for Inactive)
ROOT
HETATM    1  C1  UNL     1     -32.837   6.599   3.546  1.00 20.00     0.026 C 
HETATM    2  C2  UNL     1     -33.867   7.147   5.814  1.00 20.00     0.026 C 
HETATM    3  C3  UNL     1     -32.504   8.052   3.230  1.00 20.00     0.075 C 
HETATM    4  C4  UNL     1     -33.618   8.646   5.681  1.00 20.00     0.075 C 
HETATM    5  C5  UNL     1     -34.049   6.460   4.463  1.00 20.00     0.059 C 
HETATM    6  S6  UNL     1     -32.112   8.999   4.729  1.00 20.00    -0.169 SA
HETATM    7 BR7  UNL     1     -34.391   4.553   4.769  1.00 20.00    -0.091 Br
ENDROOT
TORSDOF 0
ENDMDL
MODEL 9
REMARK VINA RESULT:      -2.9     16.427     17.213
REMARK  0 active torsions:
REMARK  status: ('A' for Active; 'I' for Inactive)
ROOT
HETATM    1  C1  UNL     1     -24.293  18.469  10.089  1.00 20.00     0.026 C 
HETATM    2  C2  UNL     1     -22.987  17.860  12.194  1.00 20.00     0.026 C 
HETATM    3  C3  UNL     1     -23.112  19.175   9.435  1.00 20.00     0.075 C 
HETATM    4  C4  UNL     1     -21.699  18.518  11.710  1.00 20.00     0.075 C 
HETATM    5  C5  UNL     1     -24.236  18.518  11.613  1.00 20.00     0.059 C 
HETATM    6  S6  UNL     1     -21.528  18.421   9.905  1.00 20.00    -0.169 SA
HETATM    7 BR7  UNL     1     -25.817  17.606  12.332  1.00 20.00    -0.091 Br
ENDROOT
TORSDOF 0
ENDMDL
