MODEL 1
REMARK VINA RESULT:      -4.3      0.000      0.000
REMARK  0 active torsions:
REMARK  status: ('A' for Active; 'I' for Inactive)
ROOT
HETATM    1  C1  UNL     1     -33.545   5.616   3.541  1.00 20.00     0.223 A 
HETATM    2  C2  UNL     1     -34.154   6.803   4.316  1.00 20.00     0.096 A 
HETATM    3  C3  UNL     1     -34.914   5.709   5.132  1.00 20.00     0.093 A 
HETATM    4  C4  UNL     1     -33.154   7.705   5.014  1.00 20.00     0.022 C 
HETATM    5  C5  UNL     1     -34.598   5.484   6.596  1.00 20.00     0.033 C 
HETATM    6  N6  UNL     1     -34.245   4.723   4.290  1.00 20.00    -0.356 N 
HETATM    7  O7  UNL     1     -32.758   5.474   2.633  1.00 20.00    -0.273 OA
HETATM    8  H16 UNL     1     -34.263   3.713   4.252  1.00 20.00     0.162 HD
ENDROOT
TORSDOF 0
ENDMDL
MODEL 2
REMARK VINA RESULT:      -4.2      2.148      3.071
REMARK  0 active torsions:
REMARK  status: ('A' for Active; 'I' for Inactive)
ROOT
HETATM    1  C1  UNL     1     -34.345   6.065   5.900  1.00 20.00     0.223 A 
HETATM    2  C2  UNL     1     -34.365   6.434   4.402  1.00 20.00     0.096 A 
HETATM    3  C3  UNL     1     -33.773   7.802   4.866  1.00 20.00     0.093 A 
HETATM    4  C4  UNL     1     -33.550   5.526   3.500  1.00 20.00     0.022 C 
HETATM    5  C5  UNL     1     -32.358   8.194   4.493  1.00 20.00     0.033 C 
HETATM    6  N6  UNL     1     -33.835   7.282   6.227  1.00 20.00    -0.356 N 
HETATM    7  O7  UNL     1     -34.644   5.103   6.570  1.00 20.00    -0.273 OA
HETATM    8  H16 UNL     1     -33.585   7.663   7.130  1.00 20.00     0.162 HD
ENDROOT
TORSDOF 0
ENDMDL
MODEL 3
REMARK VINA RESULT:      -4.1      1.794      2.073
REMARK  0 active torsions:
REMARK  status: ('A' for Active; 'I' for Inactive)
ROOT
HETATM    1  C1  UNL     1     -32.853   7.398   4.166  1.00 20.00     0.223 A 
HETATM    2  C2  UNL     1     -34.160   7.118   4.937  1.00 20.00     0.096 A 
HETATM    3  C3  UNL     1     -34.277   5.859   4.021  1.00 20.00     0.093 A 
HETATM    4  C4  UNL     1     -34.006   6.949   6.437  1.00 20.00     0.022 C 
HETATM    5  C5  UNL     1     -34.151   4.468   4.606  1.00 20.00     0.033 C 
HETATM    6  N6  UNL     1     -33.027   6.286   3.402  1.00 20.00    -0.356 N 
HETATM    7  O7  UNL     1     -31.985   8.240   4.189  1.00 20.00    -0.273 OA
HETATM    8  H16 UNL     1     -32.451   5.907   2.662  1.00 20.00     0.162 HD
ENDROOT
TORSDOF 0
ENDMDL
MODEL 4
REMARK VINA RESULT:      -3.6     13.212     13.810
REMARK  0 active torsions:
REMARK  status: ('A' for Active; 'I' for Inactive)
ROOT
HETATM    1  C1  UNL     1     -34.073  15.059  -6.433  1.00 20.00     0.223 A 
HETATM    2  C2  UNL     1     -35.116  15.378  -5.342  1.00 20.00     0.096 A 
HETATM    3  C3  UNL     1     -34.007  14.935  -4.337  1.00 20.00     0.093 A 
HETATM    4  C4  UNL     1     -35.622  16.808  -5.326  1.00 20.00     0.022 C 
HETATM    5  C5  UNL     1     -33.369  15.943  -3.402  1.00 20.00     0.033 C 
HETATM    6  N6  UNL     1     -33.160  14.683  -5.498  1.00 20.00    -0.356 N 
HETATM    7  O7  UNL     1     -34.025  15.108  -7.641  1.00 20.00    -0.273 OA
HETATM    8  H16 UNL     1     -32.212  14.352  -5.608  1.00 20.00     0.162 HD
ENDROOT
TORSDOF 0
ENDMDL
MODEL 5
REMARK VINA RESULT:      -3.5     16.457     17.114
REMARK  0 active torsions:
REMARK  status: ('A' for Active; 'I' for Inactive)
ROOT
HETATM    1  C1  UNL     1     -23.929  16.866  11.602  1.00 20.00     0.223 A 
HETATM    2  C2  UNL     1     -24.064  18.382  11.857  1.00 20.00     0.096 A 
HETATM    3  C3  UNL     1     -23.005  18.535  10.720  1.00 20.00     0.093 A 
HETATM    4  C4  UNL     1     -25.459  18.950  11.671  1.00 20.00     0.022 C 
HETATM    5  C5  UNL     1     -23.383  19.170   9.397  1.00 20.00     0.033 C 
HETATM    6  N6  UNL     1     -23.007  17.079  10.625  1.00 20.00    -0.356 N 
HETATM    7  O7  UNL     1     -24.419  15.855  12.050  1.00 20.00    -0.273 OA
HETATM    8  H16 UNL     1     -22.512  16.419  10.041  1.00 20.00     0.162 HD
ENDROOT
TORSDOF 0
ENDMDL
MODEL 6
REMARK VINA RESULT:      -3.4     16.620     17.231
REMARK  0 active torsions:
REMARK  status: ('A' for Active; 'I' for Inactive)
ROOT
HETATM    1  C1  UNL     1     -23.304  17.391  10.030  1.00 20.00     0.223 A 
HETATM    2  C2  UNL     1     -23.138  18.822   9.477  1.00 20.00     0.096 A 
HETATM    3  C3  UNL     1     -21.750  18.322   8.964  1.00 20.00     0.093 A 
HETATM    4  C4  UNL     1     -24.196  19.262   8.483  1.00 20.00     0.022 C 
HETATM    5  C5  UNL     1     -21.482  18.189   7.479  1.00 20.00     0.033 C 
HETATM    6  N6  UNL     1     -22.081  17.031   9.557  1.00 20.00    -0.356 N 
HETATM    7  O7  UNL     1     -24.153  16.780  10.637  1.00 20.00    -0.273 OA
HETATM    8  H16 UNL     1     -21.596  16.145   9.612  1.00 20.00     0.162 HD
ENDROOT
TORSDOF 0
ENDMDL
MODEL 7
REMARK VINA RESULT:      -3.3     16.577     16.974
REMARK  0 active torsions:
REMARK  status: ('A' for Active; 'I' for Inactive)
ROOT
HETATM    1  C1  UNL     1     -22.659  17.915  10.882  1.00 20.00     0.223 A 
HETATM    2  C2  UNL     1     -23.994  17.730  10.132  1.00 20.00     0.096 A 
HETATM    3  C3  UNL     1     -24.353  16.739  11.283  1.00 20.00     0.093 A 
HETATM    4  C4  UNL     1     -24.812  18.993   9.940  1.00 20.00     0.022 C 
HETATM    5  C5  UNL     1     -25.457  17.069  12.266  1.00 20.00     0.033 C 
HETATM    6  N6  UNL     1     -23.040  17.035  11.846  1.00 20.00    -0.356 N 
HETATM    7  O7  UNL     1     -21.650  18.566  10.729  1.00 20.00    -0.273 OA
HETATM    8  H16 UNL     1     -22.550  16.721  12.673  1.00 20.00     0.162 HD
ENDROOT
TORSDOF 0
ENDMDL
MODEL 8
REMARK VINA RESULT:      -3.3     16.191     16.799
REMARK  0 active torsions:
REMARK  status: ('A' for Active; 'I' for Inactive)
ROOT
HETATM    1  C1  UNL     1     -24.082  18.941   8.530  1.00 20.00     0.223 A 
HETATM    2  C2  UNL     1     -22.969  18.612   9.547  1.00 20.00     0.096 A 
HETATM    3  C3  UNL     1     -24.140  18.376  10.553  1.00 20.00     0.093 A 
HETATM    4  C4  UNL     1     -22.059  17.460   9.164  1.00 20.00     0.022 C 
HETATM    5  C5  UNL     1     -24.429  16.987  11.084  1.00 20.00     0.033 C 
HETATM    6  N6  UNL     1     -25.046  18.723   9.464  1.00 20.00    -0.356 N 
HETATM    7  O7  UNL     1     -24.137  19.263   7.365  1.00 20.00    -0.273 OA
HETATM    8  H16 UNL     1     -26.053  18.784   9.388  1.00 20.00     0.162 HD
ENDROOT
TORSDOF 0
ENDMDL
MODEL 9
REMARK VINA RESULT:      -3.3     12.673     13.334
REMARK  0 active torsions:
REMARK  status: ('A' for Active; 'I' for Inactive)
ROOT
HETATM    1  C1  UNL     1     -35.642  14.038  -4.787  1.00 20.00     0.223 A 
HETATM    2  C2  UNL     1     -34.408  14.865  -5.204  1.00 20.00     0.096 A 
HETATM    3  C3  UNL     1     -35.443  15.961  -5.609  1.00 20.00     0.093 A 
HETATM    4  C4  UNL     1     -33.409  15.143  -4.097  1.00 20.00     0.022 C 
HETATM    5  C5  UNL     1     -35.516  17.269  -4.848  1.00 20.00     0.033 C 
HETATM    6  N6  UNL     1     -36.482  15.037  -5.168  1.00 20.00    -0.356 N 
HETATM    7  O7  UNL     1     -35.844  12.945  -4.308  1.00 20.00    -0.273 OA
HETATM    8  H16 UNL     1     -37.492  15.089  -5.134  1.00 20.00     0.162 HD
ENDROOT
TORSDOF 0
ENDMDL
