MODEL 1
REMARK VINA RESULT:      -3.9      0.000      0.000
REMARK  0 active torsions:
REMARK  status: ('A' for Active; 'I' for Inactive)
ROOT
HETATM    1  C1  UNL     1     -33.808   7.219   5.804  1.00 20.00     0.223 A 
HETATM    2  C2  UNL     1     -34.046   6.796   4.339  1.00 20.00     0.096 A 
HETATM    3  C3  UNL     1     -32.676   7.478   4.056  1.00 20.00     0.093 A 
HETATM    4  C4  UNL     1     -34.123   5.302   4.093  1.00 20.00     0.022 C 
HETATM    5  C5  UNL     1     -32.685   8.701   3.163  1.00 20.00     0.033 C 
HETATM    6  N6  UNL     1     -32.649   7.846   5.468  1.00 20.00    -0.356 N 
HETATM    7  O7  UNL     1     -34.381   7.081   6.861  1.00 20.00    -0.273 OA
HETATM    8  H16 UNL     1     -31.980   8.332   6.048  1.00 20.00     0.162 HD
ENDROOT
TORSDOF 0
ENDMDL
MODEL 2
REMARK VINA RESULT:      -3.8      1.970      2.785
REMARK  0 active torsions:
REMARK  status: ('A' for Active; 'I' for Inactive)
ROOT
HETATM    1  C1  UNL     1     -32.964   7.491   4.240  1.00 20.00     0.223 A 
HETATM    2  C2  UNL     1     -33.114   5.966   4.056  1.00 20.00     0.096 A 
HETATM    3  C3  UNL     1     -34.504   6.152   4.733  1.00 20.00     0.093 A 
HETATM    4  C4  UNL     1     -33.119   5.475   2.622  1.00 20.00     0.022 C 
HETATM    5  C5  UNL     1     -34.710   5.491   6.080  1.00 20.00     0.033 C 
HETATM    6  N6  UNL     1     -34.163   7.564   4.876  1.00 20.00    -0.356 N 
HETATM    7  O7  UNL     1     -32.141   8.331   3.956  1.00 20.00    -0.273 OA
HETATM    8  H16 UNL     1     -34.657   8.364   5.246  1.00 20.00     0.162 HD
ENDROOT
TORSDOF 0
ENDMDL
MODEL 3
REMARK VINA RESULT:      -3.7     15.852     16.349
REMARK  0 active torsions:
REMARK  status: ('A' for Active; 'I' for Inactive)
ROOT
HETATM    1  C1  UNL     1     -22.272  17.406   9.269  1.00 20.00     0.223 A 
HETATM    2  C2  UNL     1     -23.534  18.130   9.783  1.00 20.00     0.096 A 
HETATM    3  C3  UNL     1     -22.612  18.651  10.924  1.00 20.00     0.093 A 
HETATM    4  C4  UNL     1     -24.116  19.175   8.852  1.00 20.00     0.022 C 
HETATM    5  C5  UNL     1     -22.929  18.192  12.332  1.00 20.00     0.033 C 
HETATM    6  N6  UNL     1     -21.545  17.852  10.328  1.00 20.00    -0.356 N 
HETATM    7  O7  UNL     1     -21.985  16.712   8.320  1.00 20.00    -0.273 OA
HETATM    8  H16 UNL     1     -20.570  17.715  10.553  1.00 20.00     0.162 HD
ENDROOT
TORSDOF 0
ENDMDL
MODEL 4
REMARK VINA RESULT:      -3.6      2.376      2.602
REMARK  0 active torsions:
REMARK  status: ('A' for Active; 'I' for Inactive)
ROOT
HETATM    1  C1  UNL     1     -32.969   5.963   3.209  1.00 20.00     0.223 A 
HETATM    2  C2  UNL     1     -33.686   6.340   4.522  1.00 20.00     0.096 A 
HETATM    3  C3  UNL     1     -33.350   7.810   4.131  1.00 20.00     0.093 A 
HETATM    4  C4  UNL     1     -35.156   5.978   4.594  1.00 20.00     0.022 C 
HETATM    5  C5  UNL     1     -32.400   8.565   5.037  1.00 20.00     0.033 C 
HETATM    6  N6  UNL     1     -32.660   7.265   2.966  1.00 20.00    -0.356 N 
HETATM    7  O7  UNL     1     -32.741   4.945   2.596  1.00 20.00    -0.273 OA
HETATM    8  H16 UNL     1     -32.176   7.685   2.185  1.00 20.00     0.162 HD
ENDROOT
TORSDOF 0
ENDMDL
MODEL 5
REMARK VINA RESULT:      -3.6      1.854      2.478
REMARK  0 active torsions:
REMARK  status: ('A' for Active; 'I' for Inactive)
ROOT
HETATM    1  C1  UNL     1     -34.453   5.848   5.644  1.00 20.00     0.223 A 
HETATM    2  C2  UNL     1     -33.405   6.753   4.963  1.00 20.00     0.096 A 
HETATM    3  C3  UNL     1     -33.918   6.126   3.633  1.00 20.00     0.093 A 
HETATM    4  C4  UNL     1     -33.616   8.244   5.134  1.00 20.00     0.022 C 
HETATM    5  C5  UNL     1     -32.940   5.277   2.848  1.00 20.00     0.033 C 
HETATM    6  N6  UNL     1     -34.806   5.303   4.449  1.00 20.00    -0.356 N 
HETATM    7  O7  UNL     1     -34.845   5.657   6.772  1.00 20.00    -0.273 OA
HETATM    8  H16 UNL     1     -35.509   4.611   4.230  1.00 20.00     0.162 HD
ENDROOT
TORSDOF 0
ENDMDL
MODEL 6
REMARK VINA RESULT:      -3.6      1.345      1.358
REMARK  0 active torsions:
REMARK  status: ('A' for Active; 'I' for Inactive)
ROOT
HETATM    1  C1  UNL     1     -34.366   6.050   5.919  1.00 20.00     0.223 A 
HETATM    2  C2  UNL     1     -34.125   6.457   4.451  1.00 20.00     0.096 A 
HETATM    3  C3  UNL     1     -33.046   7.418   5.031  1.00 20.00     0.093 A 
HETATM    4  C4  UNL     1     -33.629   5.354   3.537  1.00 20.00     0.022 C 
HETATM    5  C5  UNL     1     -33.284   8.905   4.864  1.00 20.00     0.033 C 
HETATM    6  N6  UNL     1     -33.450   6.956   6.355  1.00 20.00    -0.356 N 
HETATM    7  O7  UNL     1     -35.068   5.258   6.506  1.00 20.00    -0.273 OA
HETATM    8  H16 UNL     1     -33.128   7.160   7.290  1.00 20.00     0.162 HD
ENDROOT
TORSDOF 0
ENDMDL
MODEL 7
REMARK VINA RESULT:      -3.5     12.213     12.857
REMARK  0 active torsions:
REMARK  status: ('A' for Active; 'I' for Inactive)
ROOT
HETATM    1  C1  UNL     1     -35.469  14.520  -5.229  1.00 20.00     0.223 A 
HETATM    2  C2  UNL     1     -34.424  15.546  -5.717  1.00 20.00     0.096 A 
HETATM    3  C3  UNL     1     -33.513  14.953  -4.602  1.00 20.00     0.093 A 
HETATM    4  C4  UNL     1     -33.949  15.370  -7.145  1.00 20.00     0.022 C 
HETATM    5  C5  UNL     1     -33.127  15.874  -3.464  1.00 20.00     0.033 C 
HETATM    6  N6  UNL     1     -34.637  14.096  -4.240  1.00 20.00    -0.356 N 
HETATM    7  O7  UNL     1     -36.585  14.185  -5.552  1.00 20.00    -0.273 OA
HETATM    8  H16 UNL     1     -34.764  13.371  -3.548  1.00 20.00     0.162 HD
ENDROOT
TORSDOF 0
ENDMDL
MODEL 8
REMARK VINA RESULT:      -3.5      2.508      3.402
REMARK  0 active torsions:
REMARK  status: ('A' for Active; 'I' for Inactive)
ROOT
HETATM    1  C1  UNL     1     -32.683   7.153   3.001  1.00 20.00     0.223 A 
HETATM    2  C2  UNL     1     -33.403   7.813   4.196  1.00 20.00     0.096 A 
HETATM    3  C3  UNL     1     -33.708   6.355   4.649  1.00 20.00     0.093 A 
HETATM    4  C4  UNL     1     -32.526   8.639   5.116  1.00 20.00     0.022 C 
HETATM    5  C5  UNL     1     -35.161   5.929   4.671  1.00 20.00     0.033 C 
HETATM    6  N6  UNL     1     -33.039   5.913   3.430  1.00 20.00    -0.356 N 
HETATM    7  O7  UNL     1     -32.046   7.531   2.044  1.00 20.00    -0.273 OA
HETATM    8  H16 UNL     1     -32.827   5.004   3.044  1.00 20.00     0.162 HD
ENDROOT
TORSDOF 0
ENDMDL
MODEL 9
REMARK VINA RESULT:      -3.4      8.930      9.311
REMARK  0 active torsions:
REMARK  status: ('A' for Active; 'I' for Inactive)
ROOT
HETATM    1  C1  UNL     1     -40.314  13.751   6.943  1.00 20.00     0.223 A 
HETATM    2  C2  UNL     1     -41.261  12.884   6.086  1.00 20.00     0.096 A 
HETATM    3  C3  UNL     1     -40.044  11.922   5.950  1.00 20.00     0.093 A 
HETATM    4  C4  UNL     1     -42.480  12.338   6.802  1.00 20.00     0.022 C 
HETATM    5  C5  UNL     1     -39.459  11.740   4.565  1.00 20.00     0.033 C 
HETATM    6  N6  UNL     1     -39.282  12.892   6.729  1.00 20.00    -0.356 N 
HETATM    7  O7  UNL     1     -40.398  14.781   7.572  1.00 20.00    -0.273 OA
HETATM    8  H16 UNL     1     -38.333  12.914   7.076  1.00 20.00     0.162 HD
ENDROOT
TORSDOF 0
ENDMDL
