MODEL 1
REMARK VINA RESULT:      -4.0      0.000      0.000
REMARK  2 active torsions:
REMARK  status: ('A' for Active; 'I' for Inactive)
REMARK    1  A    between atoms: C2_2  and  O12_12 
REMARK    2  A    between atoms: C7_7  and  O12_12 
ROOT
HETATM    1  C3  UNL     1     -33.552  16.415  -2.358  1.00 20.00     0.036 C 
HETATM    2  C4  UNL     1     -34.504  16.896  -4.648  1.00 20.00     0.013 C 
HETATM    3  C5  UNL     1     -34.841  18.562  -2.763  1.00 20.00     0.041 C 
HETATM    4  C6  UNL     1     -33.348  16.249  -3.870  1.00 20.00    -0.015 C 
HETATM    5  C7  UNL     1     -33.739  17.874  -1.951  1.00 20.00     0.128 C 
HETATM    6  C8  UNL     1     -34.727  18.386  -4.297  1.00 20.00    -0.045 C 
HETATM    7  C9  UNL     1     -33.225  14.768  -4.231  1.00 20.00     0.010 C 
HETATM    8  C10 UNL     1     -36.048  18.854  -4.944  1.00 20.00     0.015 C 
HETATM    9  C11 UNL     1     -33.597  19.254  -4.884  1.00 20.00     0.015 C 
ENDROOT
BRANCH   5  10
HETATM   10  O12 UNL     1     -32.500  18.560  -2.093  1.00 20.00    -0.359 OA
BRANCH  10  11
HETATM   11  C2  UNL     1     -32.063  19.160  -0.993  1.00 20.00     0.125 C 
HETATM   12  C1  UNL     1     -31.186  18.636  -0.133  1.00 20.00     0.037 C 
ENDBRANCH  10  11
ENDBRANCH   5  10
TORSDOF 2
ENDMDL
MODEL 2
REMARK VINA RESULT:      -3.6     13.664     14.590
REMARK  2 active torsions:
REMARK  status: ('A' for Active; 'I' for Inactive)
REMARK    1  A    between atoms: C2_2  and  O12_12 
REMARK    2  A    between atoms: C7_7  and  O12_12 
ROOT
HETATM    1  C3  UNL     1     -42.242  12.597   6.668  1.00 20.00     0.036 C 
HETATM    2  C4  UNL     1     -40.321  14.238   6.688  1.00 20.00     0.013 C 
HETATM    3  C5  UNL     1     -42.473  14.795   7.913  1.00 20.00     0.041 C 
HETATM    4  C6  UNL     1     -40.715  12.753   6.671  1.00 20.00    -0.015 C 
HETATM    5  C7  UNL     1     -42.905  13.328   7.833  1.00 20.00     0.128 C 
HETATM    6  C8  UNL     1     -40.943  15.029   7.863  1.00 20.00    -0.045 C 
HETATM    7  C9  UNL     1     -40.106  12.054   5.455  1.00 20.00     0.010 C 
HETATM    8  C10 UNL     1     -40.683  16.533   7.638  1.00 20.00     0.015 C 
HETATM    9  C11 UNL     1     -40.268  14.641   9.193  1.00 20.00     0.015 C 
ENDROOT
BRANCH   5  10
HETATM   10  O12 UNL     1     -42.606  12.643   9.044  1.00 20.00    -0.359 OA
BRANCH  10  11
HETATM   11  C2  UNL     1     -43.377  12.966  10.075  1.00 20.00     0.125 C 
HETATM   12  C1  UNL     1     -42.988  12.958  11.352  1.00 20.00     0.037 C 
ENDBRANCH  10  11
ENDBRANCH   5  10
TORSDOF 2
ENDMDL
MODEL 3
REMARK VINA RESULT:      -3.6     12.356     13.553
REMARK  2 active torsions:
REMARK  status: ('A' for Active; 'I' for Inactive)
REMARK    1  A    between atoms: C2_2  and  O12_12 
REMARK    2  A    between atoms: C7_7  and  O12_12 
ROOT
HETATM    1  C3  UNL     1     -42.025  14.169   4.973  1.00 20.00     0.036 C 
HETATM    2  C4  UNL     1     -42.853  15.082   7.178  1.00 20.00     0.013 C 
HETATM    3  C5  UNL     1     -42.045  12.681   7.027  1.00 20.00     0.041 C 
HETATM    4  C6  UNL     1     -42.119  15.412   5.868  1.00 20.00    -0.015 C 
HETATM    5  C7  UNL     1     -41.375  12.984   5.685  1.00 20.00     0.128 C 
HETATM    6  C8  UNL     1     -42.224  13.905   7.959  1.00 20.00    -0.045 C 
HETATM    7  C9  UNL     1     -42.829  16.547   5.130  1.00 20.00     0.010 C 
HETATM    8  C10 UNL     1     -43.175  13.511   9.109  1.00 20.00     0.015 C 
HETATM    9  C11 UNL     1     -40.887  14.331   8.596  1.00 20.00     0.015 C 
ENDROOT
BRANCH   5  10
HETATM   10  O12 UNL     1     -39.987  13.249   5.858  1.00 20.00    -0.359 OA
BRANCH  10  11
HETATM   11  C2  UNL     1     -39.181  12.245   5.540  1.00 20.00     0.125 C 
HETATM   12  C1  UNL     1     -39.109  11.675   4.334  1.00 20.00     0.037 C 
ENDBRANCH  10  11
ENDBRANCH   5  10
TORSDOF 2
ENDMDL
MODEL 4
REMARK VINA RESULT:      -3.6      1.638      3.971
REMARK  2 active torsions:
REMARK  status: ('A' for Active; 'I' for Inactive)
REMARK    1  A    between atoms: C2_2  and  O12_12 
REMARK    2  A    between atoms: C7_7  and  O12_12 
ROOT
HETATM    1  C3  UNL     1     -34.305  17.565  -4.209  1.00 20.00     0.036 C 
HETATM    2  C4  UNL     1     -32.703  16.871  -2.382  1.00 20.00     0.013 C 
HETATM    3  C5  UNL     1     -33.547  19.263  -2.483  1.00 20.00     0.041 C 
HETATM    4  C6  UNL     1     -33.866  16.423  -3.282  1.00 20.00    -0.015 C 
HETATM    5  C7  UNL     1     -34.663  18.835  -3.440  1.00 20.00     0.128 C 
HETATM    6  C8  UNL     1     -33.015  18.141  -1.557  1.00 20.00    -0.045 C 
HETATM    7  C9  UNL     1     -33.463  15.197  -4.103  1.00 20.00     0.010 C 
HETATM    8  C10 UNL     1     -31.712  18.631  -0.891  1.00 20.00     0.015 C 
HETATM    9  C11 UNL     1     -34.013  17.820  -0.427  1.00 20.00     0.015 C 
ENDROOT
BRANCH   5  10
HETATM   10  O12 UNL     1     -35.883  18.626  -2.736  1.00 20.00    -0.359 OA
BRANCH  10  11
HETATM   11  C2  UNL     1     -36.964  18.549  -3.501  1.00 20.00     0.125 C 
HETATM   12  C1  UNL     1     -38.220  18.511  -3.048  1.00 20.00     0.037 C 
ENDBRANCH  10  11
ENDBRANCH   5  10
TORSDOF 2
ENDMDL
MODEL 5
REMARK VINA RESULT:      -3.4     12.638     13.758
REMARK  2 active torsions:
REMARK  status: ('A' for Active; 'I' for Inactive)
REMARK    1  A    between atoms: C2_2  and  O12_12 
REMARK    2  A    between atoms: C7_7  and  O12_12 
ROOT
HETATM    1  C3  UNL     1     -42.588  13.664   5.893  1.00 20.00     0.036 C 
HETATM    2  C4  UNL     1     -42.441  15.928   7.005  1.00 20.00     0.013 C 
HETATM    3  C5  UNL     1     -42.281  13.818   8.406  1.00 20.00     0.041 C 
HETATM    4  C6  UNL     1     -42.111  15.116   5.743  1.00 20.00    -0.015 C 
HETATM    5  C7  UNL     1     -42.026  12.992   7.143  1.00 20.00     0.128 C 
HETATM    6  C8  UNL     1     -41.875  15.309   8.304  1.00 20.00    -0.045 C 
HETATM    7  C9  UNL     1     -42.747  15.761   4.512  1.00 20.00     0.010 C 
HETATM    8  C10 UNL     1     -42.470  16.064   9.512  1.00 20.00     0.015 C 
HETATM    9  C11 UNL     1     -40.345  15.484   8.364  1.00 20.00     0.015 C 
ENDROOT
BRANCH   5  10
HETATM   10  O12 UNL     1     -40.633  12.759   6.961  1.00 20.00    -0.359 OA
BRANCH  10  11
HETATM   11  C2  UNL     1     -40.323  12.009   5.912  1.00 20.00     0.125 C 
HETATM   12  C1  UNL     1     -39.145  12.023   5.283  1.00 20.00     0.037 C 
ENDBRANCH  10  11
ENDBRANCH   5  10
TORSDOF 2
ENDMDL
MODEL 6
REMARK VINA RESULT:      -3.4     23.894     25.573
REMARK  2 active torsions:
REMARK  status: ('A' for Active; 'I' for Inactive)
REMARK    1  A    between atoms: C2_2  and  O12_12 
REMARK    2  A    between atoms: C7_7  and  O12_12 
ROOT
HETATM    1  C3  UNL     1     -27.142  -4.185  10.825  1.00 20.00     0.036 C 
HETATM    2  C4  UNL     1     -28.830  -2.318  11.052  1.00 20.00     0.013 C 
HETATM    3  C5  UNL     1     -26.437  -1.960  11.818  1.00 20.00     0.041 C 
HETATM    4  C6  UNL     1     -28.380  -3.519  10.206  1.00 20.00    -0.015 C 
HETATM    5  C7  UNL     1     -25.995  -3.200  11.037  1.00 20.00     0.128 C 
HETATM    6  C8  UNL     1     -27.716  -1.271  11.280  1.00 20.00    -0.045 C 
HETATM    7  C9  UNL     1     -29.517  -4.533  10.070  1.00 20.00     0.010 C 
HETATM    8  C10 UNL     1     -28.203  -0.251  12.332  1.00 20.00     0.015 C 
HETATM    9  C11 UNL     1     -27.433  -0.490   9.982  1.00 20.00     0.015 C 
ENDROOT
BRANCH   5  10
HETATM   10  O12 UNL     1     -25.453  -2.837   9.772  1.00 20.00    -0.359 OA
BRANCH  10  11
HETATM   11  C2  UNL     1     -24.193  -3.203   9.577  1.00 20.00     0.125 C 
HETATM   12  C1  UNL     1     -23.544  -3.120   8.413  1.00 20.00     0.037 C 
ENDBRANCH  10  11
ENDBRANCH   5  10
TORSDOF 2
ENDMDL
MODEL 7
REMARK VINA RESULT:      -3.3     11.365     13.126
REMARK  2 active torsions:
REMARK  status: ('A' for Active; 'I' for Inactive)
REMARK    1  A    between atoms: C2_2  and  O12_12 
REMARK    2  A    between atoms: C7_7  and  O12_12 
ROOT
HETATM    1  C3  UNL     1     -32.052   6.604   2.969  1.00 20.00     0.036 C 
HETATM    2  C4  UNL     1     -33.785   5.151   4.095  1.00 20.00     0.013 C 
HETATM    3  C5  UNL     1     -33.136   7.377   5.128  1.00 20.00     0.041 C 
HETATM    4  C6  UNL     1     -33.195   5.602   2.750  1.00 20.00    -0.015 C 
HETATM    5  C7  UNL     1     -32.481   7.803   3.812  1.00 20.00     0.128 C 
HETATM    6  C8  UNL     1     -34.262   6.322   4.985  1.00 20.00    -0.045 C 
HETATM    7  C9  UNL     1     -32.699   4.396   1.952  1.00 20.00     0.010 C 
HETATM    8  C10 UNL     1     -34.600   5.772   6.387  1.00 20.00     0.015 C 
HETATM    9  C11 UNL     1     -35.551   6.945   4.415  1.00 20.00     0.015 C 
ENDROOT
BRANCH   5  10
HETATM   10  O12 UNL     1     -33.360   8.620   3.047  1.00 20.00    -0.359 OA
BRANCH  10  11
HETATM   11  C2  UNL     1     -32.762   9.453   2.206  1.00 20.00     0.125 C 
HETATM   12  C1  UNL     1     -32.830   9.375   0.874  1.00 20.00     0.037 C 
ENDBRANCH  10  11
ENDBRANCH   5  10
TORSDOF 2
ENDMDL
MODEL 8
REMARK VINA RESULT:      -3.3     12.799     13.824
REMARK  2 active torsions:
REMARK  status: ('A' for Active; 'I' for Inactive)
REMARK    1  A    between atoms: C2_2  and  O12_12 
REMARK    2  A    between atoms: C7_7  and  O12_12 
ROOT
HETATM    1  C3  UNL     1     -41.924  16.081   6.345  1.00 20.00     0.036 C 
HETATM    2  C4  UNL     1     -41.739  13.964   4.977  1.00 20.00     0.013 C 
HETATM    3  C5  UNL     1     -40.579  14.120   7.229  1.00 20.00     0.041 C 
HETATM    4  C6  UNL     1     -42.642  15.147   5.360  1.00 20.00    -0.015 C 
HETATM    5  C7  UNL     1     -41.424  15.346   7.587  1.00 20.00     0.128 C 
HETATM    6  C8  UNL     1     -41.221  13.163   6.194  1.00 20.00    -0.045 C 
HETATM    7  C9  UNL     1     -43.069  15.919   4.111  1.00 20.00     0.010 C 
HETATM    8  C10 UNL     1     -40.143  12.170   5.710  1.00 20.00     0.015 C 
HETATM    9  C11 UNL     1     -42.359  12.334   6.820  1.00 20.00     0.015 C 
ENDROOT
BRANCH   5  10
HETATM   10  O12 UNL     1     -42.540  14.976   8.390  1.00 20.00    -0.359 OA
BRANCH  10  11
HETATM   11  C2  UNL     1     -42.257  14.738   9.664  1.00 20.00     0.125 C 
HETATM   12  C1  UNL     1     -42.702  13.691  10.363  1.00 20.00     0.037 C 
ENDBRANCH  10  11
ENDBRANCH   5  10
TORSDOF 2
ENDMDL
MODEL 9
REMARK VINA RESULT:      -3.3      1.389      4.015
REMARK  2 active torsions:
REMARK  status: ('A' for Active; 'I' for Inactive)
REMARK    1  A    between atoms: C2_2  and  O12_12 
REMARK    2  A    between atoms: C7_7  and  O12_12 
ROOT
HETATM    1  C3  UNL     1     -33.887  17.034  -4.971  1.00 20.00     0.036 C 
HETATM    2  C4  UNL     1     -33.063  16.583  -2.625  1.00 20.00     0.013 C 
HETATM    3  C5  UNL     1     -33.169  18.966  -3.492  1.00 20.00     0.041 C 
HETATM    4  C6  UNL     1     -34.029  16.136  -3.733  1.00 20.00    -0.015 C 
HETATM    5  C7  UNL     1     -34.072  18.514  -4.643  1.00 20.00     0.128 C 
HETATM    6  C8  UNL     1     -33.220  18.070  -2.230  1.00 20.00    -0.045 C 
HETATM    7  C9  UNL     1     -33.776  14.675  -4.105  1.00 20.00     0.010 C 
HETATM    8  C10 UNL     1     -32.051  18.462  -1.302  1.00 20.00     0.015 C 
HETATM    9  C11 UNL     1     -34.525  18.283  -1.438  1.00 20.00     0.015 C 
ENDROOT
BRANCH   5  10
HETATM   10  O12 UNL     1     -35.442  18.755  -4.338  1.00 20.00    -0.359 OA
BRANCH  10  11
HETATM   11  C2  UNL     1     -36.257  18.749  -5.385  1.00 20.00     0.125 C 
HETATM   12  C1  UNL     1     -37.395  18.054  -5.464  1.00 20.00     0.037 C 
ENDBRANCH  10  11
ENDBRANCH   5  10
TORSDOF 2
ENDMDL
