MODEL 1
REMARK VINA RESULT:      -6.3      0.000      0.000
REMARK  1 active torsions:
REMARK  status: ('A' for Active; 'I' for Inactive)
REMARK    1  A    between atoms: C7_7  and  C11_11 
ROOT
HETATM    1  C1  UNL     1     -32.525   8.785   0.704  1.00 20.00     0.063 C 
HETATM    2  C11 UNL     1     -31.769   7.776   1.462  1.00 20.00     0.162 C 
HETATM    3  N12 UNL     1     -33.121   9.579   0.103  1.00 20.00    -0.197 NA
ENDROOT
BRANCH   2   4
HETATM    4  C7  UNL     1     -32.421   7.514   2.779  1.00 20.00    -0.045 A 
HETATM    5  C3  UNL     1     -32.413   8.510   3.769  1.00 20.00     0.009 A 
HETATM    6  C2  UNL     1     -33.012   8.285   5.011  1.00 20.00     0.008 A 
HETATM    7  C5  UNL     1     -33.620   7.061   5.233  1.00 20.00    -0.052 A 
HETATM    8  C6  UNL     1     -33.626   6.068   4.246  1.00 20.00    -0.051 A 
HETATM    9  C8  UNL     1     -34.286   6.576   6.482  1.00 20.00     0.039 C 
HETATM   10  C4  UNL     1     -33.026   6.277   3.017  1.00 20.00     0.015 A 
HETATM   11  C9  UNL     1     -34.297   4.826   4.745  1.00 20.00     0.039 C 
HETATM   12  C10 UNL     1     -35.079   5.373   5.948  1.00 20.00     0.009 C 
ENDBRANCH   2   4
TORSDOF 1
ENDMDL
MODEL 2
REMARK VINA RESULT:      -5.3     11.345     12.563
REMARK  1 active torsions:
REMARK  status: ('A' for Active; 'I' for Inactive)
REMARK    1  A    between atoms: C7_7  and  C11_11 
ROOT
HETATM    1  C1  UNL     1     -31.958  18.414  -0.574  1.00 20.00     0.063 C 
HETATM    2  C11 UNL     1     -33.408  18.170  -0.592  1.00 20.00     0.162 C 
HETATM    3  N12 UNL     1     -30.814  18.605  -0.557  1.00 20.00    -0.197 NA
ENDROOT
BRANCH   2   4
HETATM    4  C7  UNL     1     -33.841  17.687  -1.936  1.00 20.00    -0.045 A 
HETATM    5  C3  UNL     1     -34.724  18.463  -2.703  1.00 20.00     0.009 A 
HETATM    6  C2  UNL     1     -35.147  18.027  -3.962  1.00 20.00     0.008 A 
HETATM    7  C5  UNL     1     -34.664  16.819  -4.434  1.00 20.00    -0.052 A 
HETATM    8  C6  UNL     1     -33.784  16.044  -3.668  1.00 20.00    -0.051 A 
HETATM    9  C8  UNL     1     -34.999  16.131  -5.719  1.00 20.00     0.039 C 
HETATM   10  C4  UNL     1     -33.369  16.462  -2.415  1.00 20.00     0.015 A 
HETATM   11  C9  UNL     1     -33.449  14.766  -4.372  1.00 20.00     0.039 C 
HETATM   12  C10 UNL     1     -33.860  15.104  -5.812  1.00 20.00     0.009 C 
ENDBRANCH   2   4
TORSDOF 1
ENDMDL
MODEL 3
REMARK VINA RESULT:      -4.6     11.461     13.219
REMARK  1 active torsions:
REMARK  status: ('A' for Active; 'I' for Inactive)
REMARK    1  A    between atoms: C7_7  and  C11_11 
ROOT
HETATM    1  C1  UNL     1     -31.813  18.738  -0.814  1.00 20.00     0.063 C 
HETATM    2  C11 UNL     1     -33.175  18.975  -1.315  1.00 20.00     0.162 C 
HETATM    3  N12 UNL     1     -30.739  18.552  -0.415  1.00 20.00    -0.197 NA
ENDROOT
BRANCH   2   4
HETATM    4  C7  UNL     1     -33.480  18.058  -2.453  1.00 20.00    -0.045 A 
HETATM    5  C3  UNL     1     -33.303  16.674  -2.297  1.00 20.00     0.009 A 
HETATM    6  C2  UNL     1     -33.576  15.797  -3.350  1.00 20.00     0.008 A 
HETATM    7  C5  UNL     1     -34.036  16.328  -4.543  1.00 20.00    -0.052 A 
HETATM    8  C6  UNL     1     -34.212  17.708  -4.699  1.00 20.00    -0.051 A 
HETATM    9  C8  UNL     1     -34.356  15.603  -5.811  1.00 20.00     0.039 C 
HETATM   10  C4  UNL     1     -33.933  18.586  -3.665  1.00 20.00     0.015 A 
HETATM   11  C9  UNL     1     -34.666  18.034  -6.087  1.00 20.00     0.039 C 
HETATM   12  C10 UNL     1     -35.175  16.665  -6.562  1.00 20.00     0.009 C 
ENDBRANCH   2   4
TORSDOF 1
ENDMDL
MODEL 4
REMARK VINA RESULT:      -4.6     11.669     12.530
REMARK  1 active torsions:
REMARK  status: ('A' for Active; 'I' for Inactive)
REMARK    1  A    between atoms: C7_7  and  C11_11 
ROOT
HETATM    1  C1  UNL     1     -34.988  14.760  -6.238  1.00 20.00     0.063 C 
HETATM    2  C11 UNL     1     -33.808  15.073  -5.418  1.00 20.00     0.162 C 
HETATM    3  N12 UNL     1     -35.917  14.509  -6.886  1.00 20.00    -0.197 NA
ENDROOT
BRANCH   2   4
HETATM    4  C7  UNL     1     -34.117  16.172  -4.457  1.00 20.00    -0.045 A 
HETATM    5  C3  UNL     1     -35.135  17.091  -4.755  1.00 20.00     0.009 A 
HETATM    6  C2  UNL     1     -35.438  18.132  -3.874  1.00 20.00     0.008 A 
HETATM    7  C5  UNL     1     -34.715  18.225  -2.696  1.00 20.00    -0.052 A 
HETATM    8  C6  UNL     1     -33.698  17.309  -2.399  1.00 20.00    -0.051 A 
HETATM    9  C8  UNL     1     -34.827  19.262  -1.625  1.00 20.00     0.039 C 
HETATM   10  C4  UNL     1     -33.384  16.281  -3.272  1.00 20.00     0.015 A 
HETATM   11  C9  UNL     1     -33.037  17.650  -1.101  1.00 20.00     0.039 C 
HETATM   12  C10 UNL     1     -34.085  18.577  -0.468  1.00 20.00     0.009 C 
ENDBRANCH   2   4
TORSDOF 1
ENDMDL
MODEL 5
REMARK VINA RESULT:      -4.5     11.483     12.655
REMARK  1 active torsions:
REMARK  status: ('A' for Active; 'I' for Inactive)
REMARK    1  A    between atoms: C7_7  and  C11_11 
ROOT
HETATM    1  C1  UNL     1     -34.068  18.666  -0.015  1.00 20.00     0.063 C 
HETATM    2  C11 UNL     1     -33.048  17.981  -0.824  1.00 20.00     0.162 C 
HETATM    3  N12 UNL     1     -34.870  19.208   0.625  1.00 20.00    -0.197 NA
ENDROOT
BRANCH   2   4
HETATM    4  C7  UNL     1     -33.619  17.559  -2.137  1.00 20.00    -0.045 A 
HETATM    5  C3  UNL     1     -34.522  18.401  -2.805  1.00 20.00     0.009 A 
HETATM    6  C2  UNL     1     -35.074  18.025  -4.032  1.00 20.00     0.008 A 
HETATM    7  C5  UNL     1     -34.697  16.807  -4.574  1.00 20.00    -0.052 A 
HETATM    8  C6  UNL     1     -33.797  15.967  -3.907  1.00 20.00    -0.051 A 
HETATM    9  C8  UNL     1     -35.176  16.175  -5.842  1.00 20.00     0.039 C 
HETATM   10  C4  UNL     1     -33.255  16.326  -2.685  1.00 20.00     0.015 A 
HETATM   11  C9  UNL     1     -33.592  14.695  -4.668  1.00 20.00     0.039 C 
HETATM   12  C10 UNL     1     -34.106  15.095  -6.059  1.00 20.00     0.009 C 
ENDBRANCH   2   4
TORSDOF 1
ENDMDL
MODEL 6
REMARK VINA RESULT:      -4.4     13.467     14.411
REMARK  1 active torsions:
REMARK  status: ('A' for Active; 'I' for Inactive)
REMARK    1  A    between atoms: C7_7  and  C11_11 
ROOT
HETATM    1  C1  UNL     1     -22.677  -3.467   8.651  1.00 20.00     0.063 C 
HETATM    2  C11 UNL     1     -22.849  -3.609  10.104  1.00 20.00     0.162 C 
HETATM    3  N12 UNL     1     -22.540  -3.359   7.504  1.00 20.00    -0.197 NA
ENDROOT
BRANCH   2   4
HETATM    4  C7  UNL     1     -24.049  -2.851  10.565  1.00 20.00    -0.045 A 
HETATM    5  C3  UNL     1     -23.923  -1.918  11.607  1.00 20.00     0.009 A 
HETATM    6  C2  UNL     1     -25.034  -1.201  12.060  1.00 20.00     0.008 A 
HETATM    7  C5  UNL     1     -26.255  -1.427  11.446  1.00 20.00    -0.052 A 
HETATM    8  C6  UNL     1     -26.380  -2.358  10.408  1.00 20.00    -0.051 A 
HETATM    9  C8  UNL     1     -27.579  -0.816  11.777  1.00 20.00     0.039 C 
HETATM   10  C4  UNL     1     -25.287  -3.081   9.961  1.00 20.00     0.015 A 
HETATM   11  C9  UNL     1     -27.801  -2.455   9.948  1.00 20.00     0.039 C 
HETATM   12  C10 UNL     1     -28.386  -1.153  10.513  1.00 20.00     0.009 C 
ENDBRANCH   2   4
TORSDOF 1
ENDMDL
MODEL 7
REMARK VINA RESULT:      -4.4     11.499     13.068
REMARK  1 active torsions:
REMARK  status: ('A' for Active; 'I' for Inactive)
REMARK    1  A    between atoms: C7_7  and  C11_11 
ROOT
HETATM    1  C1  UNL     1     -35.596  15.322  -7.459  1.00 20.00     0.063 C 
HETATM    2  C11 UNL     1     -34.799  16.537  -7.235  1.00 20.00     0.162 C 
HETATM    3  N12 UNL     1     -36.224  14.363  -7.640  1.00 20.00    -0.197 NA
ENDROOT
BRANCH   2   4
HETATM    4  C7  UNL     1     -34.380  16.631  -5.805  1.00 20.00    -0.045 A 
HETATM    5  C3  UNL     1     -34.007  15.468  -5.113  1.00 20.00     0.009 A 
HETATM    6  C2  UNL     1     -33.617  15.531  -3.772  1.00 20.00     0.008 A 
HETATM    7  C5  UNL     1     -33.599  16.769  -3.152  1.00 20.00    -0.052 A 
HETATM    8  C6  UNL     1     -33.973  17.928  -3.843  1.00 20.00    -0.051 A 
HETATM    9  C8  UNL     1     -33.260  17.082  -1.729  1.00 20.00     0.039 C 
HETATM   10  C4  UNL     1     -34.371  17.874  -5.167  1.00 20.00     0.015 A 
HETATM   11  C9  UNL     1     -33.918  19.124  -2.944  1.00 20.00     0.039 C 
HETATM   12  C10 UNL     1     -33.032  18.599  -1.805  1.00 20.00     0.009 C 
ENDBRANCH   2   4
TORSDOF 1
ENDMDL
MODEL 8
REMARK VINA RESULT:      -4.3      2.505      5.104
REMARK  1 active torsions:
REMARK  status: ('A' for Active; 'I' for Inactive)
REMARK    1  A    between atoms: C7_7  and  C11_11 
ROOT
HETATM    1  C1  UNL     1     -34.309   6.075   6.292  1.00 20.00     0.063 C 
HETATM    2  C11 UNL     1     -33.712   7.397   6.056  1.00 20.00     0.162 C 
HETATM    3  N12 UNL     1     -34.783   5.032   6.481  1.00 20.00    -0.197 NA
ENDROOT
BRANCH   2   4
HETATM    4  C7  UNL     1     -33.274   7.527   4.635  1.00 20.00    -0.045 A 
HETATM    5  C3  UNL     1     -32.838   6.391   3.935  1.00 20.00     0.009 A 
HETATM    6  C2  UNL     1     -32.418   6.490   2.606  1.00 20.00     0.008 A 
HETATM    7  C5  UNL     1     -32.454   7.733   1.998  1.00 20.00    -0.052 A 
HETATM    8  C6  UNL     1     -32.888   8.867   2.697  1.00 20.00    -0.051 A 
HETATM    9  C8  UNL     1     -32.023   8.094   0.612  1.00 20.00     0.039 C 
HETATM   10  C4  UNL     1     -33.295   8.781   4.017  1.00 20.00     0.015 A 
HETATM   11  C9  UNL     1     -32.787  10.091   1.841  1.00 20.00     0.039 C 
HETATM   12  C10 UNL     1     -32.691   9.467   0.441  1.00 20.00     0.009 C 
ENDBRANCH   2   4
TORSDOF 1
ENDMDL
MODEL 9
REMARK VINA RESULT:      -4.2     10.160     11.128
REMARK  1 active torsions:
REMARK  status: ('A' for Active; 'I' for Inactive)
REMARK    1  A    between atoms: C7_7  and  C11_11 
ROOT
HETATM    1  C1  UNL     1     -39.391  11.749   4.448  1.00 20.00     0.063 C 
HETATM    2  C11 UNL     1     -39.818  11.735   5.856  1.00 20.00     0.162 C 
HETATM    3  N12 UNL     1     -39.055  11.757   3.338  1.00 20.00    -0.197 NA
ENDROOT
BRANCH   2   4
HETATM    4  C7  UNL     1     -40.474  13.027   6.216  1.00 20.00    -0.045 A 
HETATM    5  C3  UNL     1     -41.478  13.551   5.387  1.00 20.00     0.009 A 
HETATM    6  C2  UNL     1     -42.102  14.762   5.701  1.00 20.00     0.008 A 
HETATM    7  C5  UNL     1     -41.711  15.421   6.854  1.00 20.00    -0.052 A 
HETATM    8  C6  UNL     1     -40.708  14.898   7.680  1.00 20.00    -0.051 A 
HETATM    9  C8  UNL     1     -42.198  16.735   7.375  1.00 20.00     0.039 C 
HETATM   10  C4  UNL     1     -40.077  13.706   7.371  1.00 20.00     0.015 A 
HETATM   11  C9  UNL     1     -40.433  15.816   8.830  1.00 20.00     0.039 C 
HETATM   12  C10 UNL     1     -41.700  16.684   8.827  1.00 20.00     0.009 C 
ENDBRANCH   2   4
TORSDOF 1
ENDMDL
