MODEL 1
REMARK VINA RESULT:      -4.5      0.000      0.000
REMARK  1 active torsions:
REMARK  status: ('A' for Active; 'I' for Inactive)
REMARK    1  A    between atoms: C1_1  and  C3_3 
ROOT
HETATM    1  C2  UNL     1     -35.310   5.899   4.518  1.00 20.00     0.084 A 
HETATM    2  C3  UNL     1     -33.902   6.459   4.573  1.00 20.00     0.087 A 
HETATM    3  C4  UNL     1     -34.215   5.079   5.135  1.00 20.00     0.195 A 
HETATM    4  C5  UNL     1     -33.165   6.589   3.263  1.00 20.00     0.029 C 
HETATM    5  F7  UNL     1     -34.258   4.978   6.524  1.00 20.00    -0.224 F 
HETATM    6 CL9  UNL     1     -33.691   3.623   4.309  1.00 20.00    -0.081 Cl
ENDROOT
BRANCH   2   7
HETATM    7  C1  UNL     1     -33.643   7.524   5.571  1.00 20.00     0.231 C 
HETATM    8  O6  UNL     1     -34.249   7.570   6.637  1.00 20.00    -0.279 OA
HETATM    9 CL8  UNL     1     -32.421   8.638   5.036  1.00 20.00    -0.043 Cl
ENDBRANCH   2   7
TORSDOF 1
ENDMDL
MODEL 2
REMARK VINA RESULT:      -4.4      2.027      2.066
REMARK  1 active torsions:
REMARK  status: ('A' for Active; 'I' for Inactive)
REMARK    1  A    between atoms: C1_1  and  C3_3 
ROOT
HETATM    1  C2  UNL     1     -35.176   6.062   4.014  1.00 20.00     0.084 A 
HETATM    2  C3  UNL     1     -33.954   6.625   4.714  1.00 20.00     0.087 A 
HETATM    3  C4  UNL     1     -33.881   5.304   3.958  1.00 20.00     0.195 A 
HETATM    4  C5  UNL     1     -33.337   7.867   4.121  1.00 20.00     0.029 C 
HETATM    5  F7  UNL     1     -33.831   4.152   4.741  1.00 20.00    -0.224 F 
HETATM    6 CL9  UNL     1     -33.046   5.185   2.420  1.00 20.00    -0.081 Cl
ENDROOT
BRANCH   2   7
HETATM    7  C1  UNL     1     -33.925   6.530   6.193  1.00 20.00     0.231 C 
HETATM    8  O6  UNL     1     -33.087   7.128   6.861  1.00 20.00    -0.279 OA
HETATM    9 CL8  UNL     1     -35.183   5.501   6.808  1.00 20.00    -0.043 Cl
ENDBRANCH   2   7
TORSDOF 1
ENDMDL
MODEL 3
REMARK VINA RESULT:      -4.4     16.273     17.105
REMARK  1 active torsions:
REMARK  status: ('A' for Active; 'I' for Inactive)
REMARK    1  A    between atoms: C1_1  and  C3_3 
ROOT
HETATM    1  C2  UNL     1     -24.133  17.027  10.803  1.00 20.00     0.084 A 
HETATM    2  C3  UNL     1     -23.120  18.146  10.943  1.00 20.00     0.087 A 
HETATM    3  C4  UNL     1     -24.570  18.446  10.586  1.00 20.00     0.195 A 
HETATM    4  C5  UNL     1     -22.610  18.439  12.332  1.00 20.00     0.029 C 
HETATM    5  F7  UNL     1     -24.815  18.798   9.260  1.00 20.00    -0.224 F 
HETATM    6 CL9  UNL     1     -25.658  19.175  11.753  1.00 20.00    -0.081 Cl
ENDROOT
BRANCH   2   7
HETATM    7  C1  UNL     1     -22.136  18.301   9.845  1.00 20.00     0.231 C 
HETATM    8  O6  UNL     1     -21.374  19.263   9.793  1.00 20.00    -0.279 OA
HETATM    9 CL8  UNL     1     -22.215  16.993   8.705  1.00 20.00    -0.043 Cl
ENDBRANCH   2   7
TORSDOF 1
ENDMDL
MODEL 4
REMARK VINA RESULT:      -4.3      2.581      3.448
REMARK  1 active torsions:
REMARK  status: ('A' for Active; 'I' for Inactive)
REMARK    1  A    between atoms: C1_1  and  C3_3 
ROOT
HETATM    1  C2  UNL     1     -32.160   7.853   4.514  1.00 20.00     0.084 A 
HETATM    2  C3  UNL     1     -33.177   6.911   3.902  1.00 20.00     0.087 A 
HETATM    3  C4  UNL     1     -33.235   8.407   3.625  1.00 20.00     0.195 A 
HETATM    4  C5  UNL     1     -32.681   5.966   2.836  1.00 20.00     0.029 C 
HETATM    5  F7  UNL     1     -34.243   9.114   4.277  1.00 20.00    -0.224 F 
HETATM    6 CL9  UNL     1     -32.776   9.057   2.061  1.00 20.00    -0.081 Cl
ENDROOT
BRANCH   2   7
HETATM    7  C1  UNL     1     -34.225   6.377   4.804  1.00 20.00     0.231 C 
HETATM    8  O6  UNL     1     -35.193   5.757   4.373  1.00 20.00    -0.279 OA
HETATM    9 CL8  UNL     1     -33.900   6.740   6.472  1.00 20.00    -0.043 Cl
ENDBRANCH   2   7
TORSDOF 1
ENDMDL
MODEL 5
REMARK VINA RESULT:      -4.3      2.074      3.474
REMARK  1 active torsions:
REMARK  status: ('A' for Active; 'I' for Inactive)
REMARK    1  A    between atoms: C1_1  and  C3_3 
ROOT
HETATM    1  C2  UNL     1     -34.219   8.189   4.172  1.00 20.00     0.084 A 
HETATM    2  C3  UNL     1     -33.967   6.909   4.942  1.00 20.00     0.087 A 
HETATM    3  C4  UNL     1     -32.978   7.393   3.890  1.00 20.00     0.195 A 
HETATM    4  C5  UNL     1     -33.635   7.045   6.408  1.00 20.00     0.029 C 
HETATM    5  F7  UNL     1     -32.978   6.698   2.683  1.00 20.00    -0.224 F 
HETATM    6 CL9  UNL     1     -31.426   8.070   4.349  1.00 20.00    -0.081 Cl
ENDROOT
BRANCH   2   7
HETATM    7  C1  UNL     1     -34.786   5.730   4.571  1.00 20.00     0.231 C 
HETATM    8  O6  UNL     1     -35.965   5.840   4.251  1.00 20.00    -0.279 OA
HETATM    9 CL8  UNL     1     -33.878   4.250   4.652  1.00 20.00    -0.043 Cl
ENDBRANCH   2   7
TORSDOF 1
ENDMDL
MODEL 6
REMARK VINA RESULT:      -4.3      9.433      9.819
REMARK  1 active torsions:
REMARK  status: ('A' for Active; 'I' for Inactive)
REMARK    1  A    between atoms: C1_1  and  C3_3 
ROOT
HETATM    1  C2  UNL     1     -43.415   5.764  -0.338  1.00 20.00     0.084 A 
HETATM    2  C3  UNL     1     -42.082   6.473  -0.210  1.00 20.00     0.087 A 
HETATM    3  C4  UNL     1     -42.802   5.938   1.021  1.00 20.00     0.195 A 
HETATM    4  C5  UNL     1     -40.868   5.754  -0.745  1.00 20.00     0.029 C 
HETATM    5  F7  UNL     1     -43.415   6.889   1.834  1.00 20.00    -0.224 F 
HETATM    6 CL9  UNL     1     -42.217   4.516   1.865  1.00 20.00    -0.081 Cl
ENDROOT
BRANCH   2   7
HETATM    7  C1  UNL     1     -42.087   7.947  -0.377  1.00 20.00     0.231 C 
HETATM    8  O6  UNL     1     -43.048   8.537  -0.861  1.00 20.00    -0.279 OA
HETATM    9 CL8  UNL     1     -40.612   8.674   0.184  1.00 20.00    -0.043 Cl
ENDBRANCH   2   7
TORSDOF 1
ENDMDL
MODEL 7
REMARK VINA RESULT:      -4.2      1.869      1.910
REMARK  1 active torsions:
REMARK  status: ('A' for Active; 'I' for Inactive)
REMARK    1  A    between atoms: C1_1  and  C3_3 
ROOT
HETATM    1  C2  UNL     1     -35.196   6.768   4.558  1.00 20.00     0.084 A 
HETATM    2  C3  UNL     1     -33.725   6.537   4.276  1.00 20.00     0.087 A 
HETATM    3  C4  UNL     1     -34.288   6.357   5.680  1.00 20.00     0.195 A 
HETATM    4  C5  UNL     1     -33.367   5.329   3.447  1.00 20.00     0.029 C 
HETATM    5  F7  UNL     1     -33.982   7.360   6.597  1.00 20.00    -0.224 F 
HETATM    6 CL9  UNL     1     -34.488   4.759   6.377  1.00 20.00    -0.081 Cl
ENDROOT
BRANCH   2   7
HETATM    7  C1  UNL     1     -32.886   7.741   4.063  1.00 20.00     0.231 C 
HETATM    8  O6  UNL     1     -32.798   8.624   4.911  1.00 20.00    -0.279 OA
HETATM    9 CL8  UNL     1     -32.091   7.719   2.517  1.00 20.00    -0.043 Cl
ENDBRANCH   2   7
TORSDOF 1
ENDMDL
MODEL 8
REMARK VINA RESULT:      -4.2      9.301     10.298
REMARK  1 active torsions:
REMARK  status: ('A' for Active; 'I' for Inactive)
REMARK    1  A    between atoms: C1_1  and  C3_3 
ROOT
HETATM    1  C2  UNL     1     -42.439   7.590  -0.550  1.00 20.00     0.084 A 
HETATM    2  C3  UNL     1     -42.727   6.488   0.451  1.00 20.00     0.087 A 
HETATM    3  C4  UNL     1     -41.299   6.944   0.182  1.00 20.00     0.195 A 
HETATM    4  C5  UNL     1     -43.417   6.889   1.732  1.00 20.00     0.029 C 
HETATM    5  F7  UNL     1     -40.514   6.082  -0.581  1.00 20.00    -0.224 F 
HETATM    6 CL9  UNL     1     -40.414   7.894   1.361  1.00 20.00    -0.081 Cl
ENDROOT
BRANCH   2   7
HETATM    7  C1  UNL     1     -43.101   5.163  -0.099  1.00 20.00     0.231 C 
HETATM    8  O6  UNL     1     -43.357   5.008  -1.289  1.00 20.00    -0.279 OA
HETATM    9 CL8  UNL     1     -43.124   3.929   1.125  1.00 20.00    -0.043 Cl
ENDBRANCH   2   7
TORSDOF 1
ENDMDL
MODEL 9
REMARK VINA RESULT:      -4.2     13.164     14.117
REMARK  1 active torsions:
REMARK  status: ('A' for Active; 'I' for Inactive)
REMARK    1  A    between atoms: C1_1  and  C3_3 
ROOT
HETATM    1  C2  UNL     1     -33.565  14.997  -5.830  1.00 20.00     0.084 A 
HETATM    2  C3  UNL     1     -34.844  15.781  -5.615  1.00 20.00     0.087 A 
HETATM    3  C4  UNL     1     -34.161  15.069  -4.455  1.00 20.00     0.195 A 
HETATM    4  C5  UNL     1     -34.755  17.283  -5.734  1.00 20.00     0.029 C 
HETATM    5  F7  UNL     1     -34.773  13.900  -4.008  1.00 20.00    -0.224 F 
HETATM    6 CL9  UNL     1     -33.305  15.970  -3.216  1.00 20.00    -0.081 Cl
ENDROOT
BRANCH   2   7
HETATM    7  C1  UNL     1     -36.100  15.166  -6.107  1.00 20.00     0.231 C 
HETATM    8  O6  UNL     1     -36.094  14.284  -6.961  1.00 20.00    -0.279 OA
HETATM    9 CL8  UNL     1     -37.505  15.841  -5.339  1.00 20.00    -0.043 Cl
ENDBRANCH   2   7
TORSDOF 1
ENDMDL
