MODEL 1
REMARK VINA RESULT:      -3.9      0.000      0.000
REMARK  1 active torsions:
REMARK  status: ('A' for Active; 'I' for Inactive)
REMARK    1  A    between atoms: C8_8  and  C11_11 
ROOT
HETATM    1  C1  UNL     1     -35.499  14.128  -4.603  1.00 20.00     0.136 C 
HETATM    2  C2  UNL     1     -34.488  15.131  -6.593  1.00 20.00     0.017 C 
HETATM    3  C3  UNL     1     -32.878  14.372  -4.652  1.00 20.00     0.018 C 
HETATM    4  C4  UNL     1     -35.478  16.465  -4.893  1.00 20.00     0.023 C 
HETATM    5  C5  UNL     1     -35.732  15.176  -5.686  1.00 20.00     0.057 C 
HETATM    6  C6  UNL     1     -34.187  14.655  -3.866  1.00 20.00     0.065 C 
HETATM    7  C7  UNL     1     -33.332  15.504  -5.625  1.00 20.00    -0.003 C 
HETATM    8  C8  UNL     1     -34.059  16.143  -4.392  1.00 20.00    -0.023 C 
HETATM    9  O12 UNL     1     -36.186  13.137  -4.423  1.00 20.00    -0.297 OA
ENDROOT
BRANCH   8  10
HETATM   10  C11 UNL     1     -33.393  17.204  -3.559  1.00 20.00    -0.013 C 
HETATM   11  C9  UNL     1     -33.919  18.603  -3.910  1.00 20.00     0.010 C 
HETATM   12  C10 UNL     1     -33.582  16.940  -2.059  1.00 20.00     0.010 C 
ENDBRANCH   8  10
TORSDOF 1
ENDMDL
MODEL 2
REMARK VINA RESULT:      -3.8     23.460     24.783
REMARK  1 active torsions:
REMARK  status: ('A' for Active; 'I' for Inactive)
REMARK    1  A    between atoms: C8_8  and  C11_11 
ROOT
HETATM    1  C1  UNL     1     -29.164  -2.239  10.916  1.00 20.00     0.136 C 
HETATM    2  C2  UNL     1     -28.144  -0.524  12.332  1.00 20.00     0.017 C 
HETATM    3  C3  UNL     1     -27.476  -0.565   9.786  1.00 20.00     0.018 C 
HETATM    4  C4  UNL     1     -27.337  -2.760  12.308  1.00 20.00     0.023 C 
HETATM    5  C5  UNL     1     -28.656  -1.976  12.330  1.00 20.00     0.057 C 
HETATM    6  C6  UNL     1     -27.858  -2.052  10.022  1.00 20.00     0.065 C 
HETATM    7  C7  UNL     1     -27.008  -0.549  11.273  1.00 20.00    -0.003 C 
HETATM    8  C8  UNL     1     -26.690  -2.073  11.091  1.00 20.00    -0.023 C 
HETATM    9  O12 UNL     1     -30.318  -2.501  10.620  1.00 20.00    -0.297 OA
ENDROOT
BRANCH   8  10
HETATM   10  C11 UNL     1     -25.310  -2.542  10.722  1.00 20.00    -0.013 C 
HETATM   11  C9  UNL     1     -24.238  -1.866  11.589  1.00 20.00     0.010 C 
HETATM   12  C10 UNL     1     -25.186  -4.068  10.841  1.00 20.00     0.010 C 
ENDBRANCH   8  10
TORSDOF 1
ENDMDL
MODEL 3
REMARK VINA RESULT:      -3.7     12.277     13.667
REMARK  1 active torsions:
REMARK  status: ('A' for Active; 'I' for Inactive)
REMARK    1  A    between atoms: C8_8  and  C11_11 
ROOT
HETATM    1  C1  UNL     1     -41.556  14.032   4.968  1.00 20.00     0.136 C 
HETATM    2  C2  UNL     1     -42.297  12.476   6.705  1.00 20.00     0.017 C 
HETATM    3  C3  UNL     1     -43.417  14.857   6.637  1.00 20.00     0.018 C 
HETATM    4  C4  UNL     1     -40.283  13.719   6.924  1.00 20.00     0.023 C 
HETATM    5  C5  UNL     1     -41.070  12.913   5.883  1.00 20.00     0.057 C 
HETATM    6  C6  UNL     1     -42.036  15.155   5.992  1.00 20.00     0.065 C 
HETATM    7  C7  UNL     1     -42.683  13.767   7.476  1.00 20.00    -0.003 C 
HETATM    8  C8  UNL     1     -41.409  14.673   7.364  1.00 20.00    -0.023 C 
HETATM    9  O12 UNL     1     -41.565  13.991   3.749  1.00 20.00    -0.297 OA
ENDROOT
BRANCH   8  10
HETATM   10  C11 UNL     1     -41.058  15.659   8.445  1.00 20.00    -0.013 C 
HETATM   11  C9  UNL     1     -40.057  15.062   9.444  1.00 20.00     0.010 C 
HETATM   12  C10 UNL     1     -40.489  16.957   7.855  1.00 20.00     0.010 C 
ENDBRANCH   8  10
TORSDOF 1
ENDMDL
MODEL 4
REMARK VINA RESULT:      -3.6      1.647      2.790
REMARK  1 active torsions:
REMARK  status: ('A' for Active; 'I' for Inactive)
REMARK    1  A    between atoms: C8_8  and  C11_11 
ROOT
HETATM    1  C1  UNL     1     -34.065  15.482  -6.749  1.00 20.00     0.136 C 
HETATM    2  C2  UNL     1     -35.880  14.707  -5.304  1.00 20.00     0.017 C 
HETATM    3  C3  UNL     1     -35.942  17.213  -6.107  1.00 20.00     0.018 C 
HETATM    4  C4  UNL     1     -33.760  15.318  -4.420  1.00 20.00     0.023 C 
HETATM    5  C5  UNL     1     -34.376  14.541  -5.591  1.00 20.00     0.057 C 
HETATM    6  C6  UNL     1     -34.417  16.918  -6.154  1.00 20.00     0.065 C 
HETATM    7  C7  UNL     1     -36.002  16.206  -4.918  1.00 20.00    -0.003 C 
HETATM    8  C8  UNL     1     -34.530  16.639  -4.599  1.00 20.00    -0.023 C 
HETATM    9  O12 UNL     1     -33.666  15.138  -7.849  1.00 20.00    -0.297 OA
ENDROOT
BRANCH   8  10
HETATM   10  C11 UNL     1     -34.236  17.719  -3.594  1.00 20.00    -0.013 C 
HETATM   11  C9  UNL     1     -33.665  17.134  -2.295  1.00 20.00     0.010 C 
HETATM   12  C10 UNL     1     -33.266  18.764  -4.162  1.00 20.00     0.010 C 
ENDBRANCH   8  10
TORSDOF 1
ENDMDL
MODEL 5
REMARK VINA RESULT:      -3.6      1.957      2.848
REMARK  1 active torsions:
REMARK  status: ('A' for Active; 'I' for Inactive)
REMARK    1  A    between atoms: C8_8  and  C11_11 
ROOT
HETATM    1  C1  UNL     1     -36.398  17.300  -6.156  1.00 20.00     0.136 C 
HETATM    2  C2  UNL     1     -34.418  16.739  -7.480  1.00 20.00     0.017 C 
HETATM    3  C3  UNL     1     -35.681  14.770  -6.273  1.00 20.00     0.018 C 
HETATM    4  C4  UNL     1     -34.236  17.621  -5.280  1.00 20.00     0.023 C 
HETATM    5  C5  UNL     1     -35.030  17.827  -6.577  1.00 20.00     0.057 C 
HETATM    6  C6  UNL     1     -36.043  15.969  -5.354  1.00 20.00     0.065 C 
HETATM    7  C7  UNL     1     -34.332  15.506  -6.540  1.00 20.00    -0.003 C 
HETATM    8  C8  UNL     1     -34.486  16.112  -5.102  1.00 20.00    -0.023 C 
HETATM    9  O12 UNL     1     -37.467  17.820  -6.429  1.00 20.00    -0.297 OA
ENDROOT
BRANCH   8  10
HETATM   10  C11 UNL     1     -33.832  15.467  -3.912  1.00 20.00    -0.013 C 
HETATM   11  C9  UNL     1     -32.545  14.730  -4.311  1.00 20.00     0.010 C 
HETATM   12  C10 UNL     1     -33.520  16.497  -2.817  1.00 20.00     0.010 C 
ENDBRANCH   8  10
TORSDOF 1
ENDMDL
MODEL 6
REMARK VINA RESULT:      -3.6     12.012     13.293
REMARK  1 active torsions:
REMARK  status: ('A' for Active; 'I' for Inactive)
REMARK    1  A    between atoms: C8_8  and  C11_11 
ROOT
HETATM    1  C1  UNL     1     -41.674  15.335   6.417  1.00 20.00     0.136 C 
HETATM    2  C2  UNL     1     -43.397  13.651   5.990  1.00 20.00     0.017 C 
HETATM    3  C3  UNL     1     -41.761  13.243   8.013  1.00 20.00     0.018 C 
HETATM    4  C4  UNL     1     -41.388  13.725   4.722  1.00 20.00     0.023 C 
HETATM    5  C5  UNL     1     -42.461  14.659   5.299  1.00 20.00     0.057 C 
HETATM    6  C6  UNL     1     -40.881  14.125   7.085  1.00 20.00     0.065 C 
HETATM    7  C7  UNL     1     -42.411  12.689   6.708  1.00 20.00    -0.003 C 
HETATM    8  C8  UNL     1     -41.034  12.968   6.014  1.00 20.00    -0.023 C 
HETATM    9  O12 UNL     1     -41.715  16.524   6.687  1.00 20.00    -0.297 OA
ENDROOT
BRANCH   8  10
HETATM   10  C11 UNL     1     -39.994  11.888   5.887  1.00 20.00    -0.013 C 
HETATM   11  C9  UNL     1     -39.491  11.763   4.441  1.00 20.00     0.010 C 
HETATM   12  C10 UNL     1     -38.807  12.139   6.828  1.00 20.00     0.010 C 
ENDBRANCH   8  10
TORSDOF 1
ENDMDL
MODEL 7
REMARK VINA RESULT:      -3.6      1.382      1.782
REMARK  1 active torsions:
REMARK  status: ('A' for Active; 'I' for Inactive)
REMARK    1  A    between atoms: C8_8  and  C11_11 
ROOT
HETATM    1  C1  UNL     1     -36.630  15.655  -5.278  1.00 20.00     0.136 C 
HETATM    2  C2  UNL     1     -35.885  17.383  -6.842  1.00 20.00     0.017 C 
HETATM    3  C3  UNL     1     -34.213  15.424  -6.297  1.00 20.00     0.018 C 
HETATM    4  C4  UNL     1     -35.835  17.727  -4.490  1.00 20.00     0.023 C 
HETATM    5  C5  UNL     1     -36.741  17.145  -5.584  1.00 20.00     0.057 C 
HETATM    6  C6  UNL     1     -35.072  15.457  -5.003  1.00 20.00     0.065 C 
HETATM    7  C7  UNL     1     -34.462  16.961  -6.386  1.00 20.00    -0.003 C 
HETATM    8  C8  UNL     1     -34.553  16.942  -4.821  1.00 20.00    -0.023 C 
HETATM    9  O12 UNL     1     -37.557  14.863  -5.286  1.00 20.00    -0.297 OA
ENDROOT
BRANCH   8  10
HETATM   10  C11 UNL     1     -33.352  17.244  -3.968  1.00 20.00    -0.013 C 
HETATM   11  C9  UNL     1     -33.129  18.757  -3.830  1.00 20.00     0.010 C 
HETATM   12  C10 UNL     1     -33.481  16.611  -2.575  1.00 20.00     0.010 C 
ENDBRANCH   8  10
TORSDOF 1
ENDMDL
MODEL 8
REMARK VINA RESULT:      -3.5     12.560     13.901
REMARK  1 active torsions:
REMARK  status: ('A' for Active; 'I' for Inactive)
REMARK    1  A    between atoms: C8_8  and  C11_11 
ROOT
HETATM    1  C1  UNL     1     -42.401  14.403   8.388  1.00 20.00     0.136 C 
HETATM    2  C2  UNL     1     -42.340  15.516   6.210  1.00 20.00     0.017 C 
HETATM    3  C3  UNL     1     -43.300  13.066   6.307  1.00 20.00     0.018 C 
HETATM    4  C4  UNL     1     -40.401  14.511   7.149  1.00 20.00     0.023 C 
HETATM    5  C5  UNL     1     -41.593  15.389   7.551  1.00 20.00     0.057 C 
HETATM    6  C6  UNL     1     -42.340  13.063   7.528  1.00 20.00     0.065 C 
HETATM    7  C7  UNL     1     -42.303  14.068   5.648  1.00 20.00    -0.003 C 
HETATM    8  C8  UNL     1     -41.184  13.362   6.488  1.00 20.00    -0.023 C 
HETATM    9  O12 UNL     1     -42.951  14.663   9.445  1.00 20.00    -0.297 OA
ENDROOT
BRANCH   8  10
HETATM   10  C11 UNL     1     -40.360  12.247   5.904  1.00 20.00    -0.013 C 
HETATM   11  C9  UNL     1     -39.993  12.529   4.440  1.00 20.00     0.010 C 
HETATM   12  C10 UNL     1     -39.082  12.008   6.721  1.00 20.00     0.010 C 
ENDBRANCH   8  10
TORSDOF 1
ENDMDL
MODEL 9
REMARK VINA RESULT:      -3.4     12.473     13.840
REMARK  1 active torsions:
REMARK  status: ('A' for Active; 'I' for Inactive)
REMARK    1  A    between atoms: C8_8  and  C11_11 
ROOT
HETATM    1  C1  UNL     1     -40.259  12.997   7.058  1.00 20.00     0.136 C 
HETATM    2  C2  UNL     1     -41.725  14.036   8.719  1.00 20.00     0.017 C 
HETATM    3  C3  UNL     1     -42.817  12.380   6.988  1.00 20.00     0.018 C 
HETATM    4  C4  UNL     1     -41.033  15.203   6.767  1.00 20.00     0.023 C 
HETATM    5  C5  UNL     1     -40.472  14.279   7.857  1.00 20.00     0.057 C 
HETATM    6  C6  UNL     1     -41.589  12.889   6.185  1.00 20.00     0.065 C 
HETATM    7  C7  UNL     1     -42.837  13.785   7.664  1.00 20.00    -0.003 C 
HETATM    8  C8  UNL     1     -42.224  14.332   6.329  1.00 20.00    -0.023 C 
HETATM    9  O12 UNL     1     -39.284  12.270   7.141  1.00 20.00    -0.297 OA
ENDROOT
BRANCH   8  10
HETATM   10  C11 UNL     1     -43.100  14.904   5.247  1.00 20.00    -0.013 C 
HETATM   11  C9  UNL     1     -43.414  16.385   5.505  1.00 20.00     0.010 C 
HETATM   12  C10 UNL     1     -42.457  14.745   3.863  1.00 20.00     0.010 C 
ENDBRANCH   8  10
TORSDOF 1
ENDMDL
