MODEL 1
REMARK VINA RESULT:      -4.8      0.000      0.000
REMARK  2 active torsions:
REMARK  status: ('A' for Active; 'I' for Inactive)
REMARK    1  A    between atoms: C2_2  and  C5_5 
REMARK    2  A    between atoms: C2_2  and  O9_9 
ROOT
HETATM    1  C1  UNL     1     -34.372   5.202   5.031  1.00 20.00     0.140 C 
HETATM    2  C3  UNL     1     -34.624   5.461   6.525  1.00 20.00     0.080 C 
HETATM    3  C4  UNL     1     -34.156   6.913   6.280  1.00 20.00     0.030 C 
HETATM    4  C5  UNL     1     -34.190   6.707   4.742  1.00 20.00     0.155 C 
HETATM    5  O7  UNL     1     -34.331   4.198   4.351  1.00 20.00    -0.297 OA
ENDROOT
BRANCH   4   6
HETATM    6  C2  UNL     1     -32.915   6.947   3.933  1.00 20.00     0.269 C 
HETATM    7  O8  UNL     1     -32.619   6.326   2.921  1.00 20.00    -0.264 OA
BRANCH   6   8
HETATM    8  O9  UNL     1     -32.185   7.940   4.516  1.00 20.00    -0.326 OA
HETATM    9  C6  UNL     1     -32.473   9.263   4.058  1.00 20.00     0.213 C 
ENDBRANCH   6   8
ENDBRANCH   4   6
TORSDOF 2
ENDMDL
MODEL 2
REMARK VINA RESULT:      -4.5      0.919      1.470
REMARK  2 active torsions:
REMARK  status: ('A' for Active; 'I' for Inactive)
REMARK    1  A    between atoms: C2_2  and  C5_5 
REMARK    2  A    between atoms: C2_2  and  O9_9 
ROOT
HETATM    1  C1  UNL     1     -34.193   5.591   4.807  1.00 20.00     0.140 C 
HETATM    2  C3  UNL     1     -34.604   5.531   6.287  1.00 20.00     0.080 C 
HETATM    3  C4  UNL     1     -34.220   7.024   6.381  1.00 20.00     0.030 C 
HETATM    4  C5  UNL     1     -34.093   7.131   4.838  1.00 20.00     0.155 C 
HETATM    5  O7  UNL     1     -34.015   4.748   3.952  1.00 20.00    -0.297 OA
ENDROOT
BRANCH   4   6
HETATM    6  C2  UNL     1     -32.768   7.595   4.233  1.00 20.00     0.269 C 
HETATM    7  O8  UNL     1     -32.012   8.392   4.770  1.00 20.00    -0.264 OA
BRANCH   6   8
HETATM    8  O9  UNL     1     -32.580   6.986   3.028  1.00 20.00    -0.326 OA
HETATM    9  C6  UNL     1     -32.231   7.856   1.948  1.00 20.00     0.213 C 
ENDBRANCH   6   8
ENDBRANCH   4   6
TORSDOF 2
ENDMDL
MODEL 3
REMARK VINA RESULT:      -4.5      1.365      2.257
REMARK  2 active torsions:
REMARK  status: ('A' for Active; 'I' for Inactive)
REMARK    1  A    between atoms: C2_2  and  C5_5 
REMARK    2  A    between atoms: C2_2  and  O9_9 
ROOT
HETATM    1  C1  UNL     1     -33.518   5.677   3.675  1.00 20.00     0.140 C 
HETATM    2  C3  UNL     1     -34.031   4.279   4.056  1.00 20.00     0.080 C 
HETATM    3  C4  UNL     1     -34.745   4.945   5.254  1.00 20.00     0.030 C 
HETATM    4  C5  UNL     1     -34.460   6.362   4.688  1.00 20.00     0.155 C 
HETATM    5  O7  UNL     1     -32.689   6.078   2.884  1.00 20.00    -0.297 OA
ENDROOT
BRANCH   4   6
HETATM    6  C2  UNL     1     -33.687   7.362   5.547  1.00 20.00     0.269 C 
HETATM    7  O8  UNL     1     -33.246   7.112   6.660  1.00 20.00    -0.264 OA
BRANCH   6   8
HETATM    8  O9  UNL     1     -33.578   8.546   4.880  1.00 20.00    -0.326 OA
HETATM    9  C6  UNL     1     -32.246   9.042   4.723  1.00 20.00     0.213 C 
ENDBRANCH   6   8
ENDBRANCH   4   6
TORSDOF 2
ENDMDL
MODEL 4
REMARK VINA RESULT:      -4.1      1.427      3.139
REMARK  2 active torsions:
REMARK  status: ('A' for Active; 'I' for Inactive)
REMARK    1  A    between atoms: C2_2  and  C5_5 
REMARK    2  A    between atoms: C2_2  and  O9_9 
ROOT
HETATM    1  C1  UNL     1     -33.324   7.836   4.702  1.00 20.00     0.140 C 
HETATM    2  C3  UNL     1     -33.659   8.537   6.029  1.00 20.00     0.080 C 
HETATM    3  C4  UNL     1     -34.195   7.178   6.531  1.00 20.00     0.030 C 
HETATM    4  C5  UNL     1     -33.587   6.441   5.308  1.00 20.00     0.155 C 
HETATM    5  O7  UNL     1     -32.987   8.234   3.607  1.00 20.00    -0.297 OA
ENDROOT
BRANCH   4   6
HETATM    6  C2  UNL     1     -34.508   5.627   4.399  1.00 20.00     0.269 C 
HETATM    7  O8  UNL     1     -35.699   5.860   4.246  1.00 20.00    -0.264 OA
BRANCH   6   8
HETATM    8  O9  UNL     1     -33.796   4.628   3.805  1.00 20.00    -0.326 OA
HETATM    9  C6  UNL     1     -33.033   5.014   2.659  1.00 20.00     0.213 C 
ENDBRANCH   6   8
ENDBRANCH   4   6
TORSDOF 2
ENDMDL
MODEL 5
REMARK VINA RESULT:      -4.1     12.454     13.877
REMARK  2 active torsions:
REMARK  status: ('A' for Active; 'I' for Inactive)
REMARK    1  A    between atoms: C2_2  and  C5_5 
REMARK    2  A    between atoms: C2_2  and  O9_9 
ROOT
HETATM    1  C1  UNL     1     -34.533  16.366  -4.691  1.00 20.00     0.140 C 
HETATM    2  C3  UNL     1     -33.562  15.826  -3.628  1.00 20.00     0.080 C 
HETATM    3  C4  UNL     1     -33.717  14.440  -4.293  1.00 20.00     0.030 C 
HETATM    4  C5  UNL     1     -34.451  15.061  -5.511  1.00 20.00     0.155 C 
HETATM    5  O7  UNL     1     -35.130  17.414  -4.824  1.00 20.00    -0.297 OA
ENDROOT
BRANCH   4   6
HETATM    6  C2  UNL     1     -35.851  14.562  -5.867  1.00 20.00     0.269 C 
HETATM    7  O8  UNL     1     -36.714  14.297  -5.042  1.00 20.00    -0.264 OA
BRANCH   6   8
HETATM    8  O9  UNL     1     -35.970  14.466  -7.222  1.00 20.00    -0.326 OA
HETATM    9  C6  UNL     1     -36.107  15.708  -7.917  1.00 20.00     0.213 C 
ENDBRANCH   6   8
ENDBRANCH   4   6
TORSDOF 2
ENDMDL
MODEL 6
REMARK VINA RESULT:      -4.1      1.278      3.405
REMARK  2 active torsions:
REMARK  status: ('A' for Active; 'I' for Inactive)
REMARK    1  A    between atoms: C2_2  and  C5_5 
REMARK    2  A    between atoms: C2_2  and  O9_9 
ROOT
HETATM    1  C1  UNL     1     -32.874   6.871   3.540  1.00 20.00     0.140 C 
HETATM    2  C3  UNL     1     -32.674   8.382   3.745  1.00 20.00     0.080 C 
HETATM    3  C4  UNL     1     -33.671   8.282   4.921  1.00 20.00     0.030 C 
HETATM    4  C5  UNL     1     -33.628   6.731   4.879  1.00 20.00     0.155 C 
HETATM    5  O7  UNL     1     -32.558   6.098   2.660  1.00 20.00    -0.297 OA
ENDROOT
BRANCH   4   6
HETATM    6  C2  UNL     1     -34.932   5.958   4.680  1.00 20.00     0.269 C 
HETATM    7  O8  UNL     1     -35.823   6.302   3.916  1.00 20.00    -0.264 OA
BRANCH   6   8
HETATM    8  O9  UNL     1     -34.932   4.852   5.478  1.00 20.00    -0.326 OA
HETATM    9  C6  UNL     1     -34.180   4.968   6.689  1.00 20.00     0.213 C 
ENDBRANCH   6   8
ENDBRANCH   4   6
TORSDOF 2
ENDMDL
MODEL 7
REMARK VINA RESULT:      -4.1      9.585     10.355
REMARK  2 active torsions:
REMARK  status: ('A' for Active; 'I' for Inactive)
REMARK    1  A    between atoms: C2_2  and  C5_5 
REMARK    2  A    between atoms: C2_2  and  O9_9 
ROOT
HETATM    1  C1  UNL     1     -40.570  12.874   4.783  1.00 20.00     0.140 C 
HETATM    2  C3  UNL     1     -39.280  12.062   4.581  1.00 20.00     0.080 C 
HETATM    3  C4  UNL     1     -39.297  11.790   6.101  1.00 20.00     0.030 C 
HETATM    4  C5  UNL     1     -40.736  12.359   6.228  1.00 20.00     0.155 C 
HETATM    5  O7  UNL     1     -41.204  13.628   4.074  1.00 20.00    -0.297 OA
ENDROOT
BRANCH   4   6
HETATM    6  C2  UNL     1     -40.992  13.523   7.186  1.00 20.00     0.269 C 
HETATM    7  O8  UNL     1     -40.363  14.571   7.172  1.00 20.00    -0.264 OA
BRANCH   6   8
HETATM    8  O9  UNL     1     -42.010  13.200   8.033  1.00 20.00    -0.326 OA
HETATM    9  C6  UNL     1     -43.057  12.410   7.462  1.00 20.00     0.213 C 
ENDBRANCH   6   8
ENDBRANCH   4   6
TORSDOF 2
ENDMDL
MODEL 8
REMARK VINA RESULT:      -4.0     12.167     13.547
REMARK  2 active torsions:
REMARK  status: ('A' for Active; 'I' for Inactive)
REMARK    1  A    between atoms: C2_2  and  C5_5 
REMARK    2  A    between atoms: C2_2  and  O9_9 
ROOT
HETATM    1  C1  UNL     1     -34.460  15.335  -6.710  1.00 20.00     0.140 C 
HETATM    2  C3  UNL     1     -35.968  15.388  -7.007  1.00 20.00     0.080 C 
HETATM    3  C4  UNL     1     -36.183  15.647  -5.499  1.00 20.00     0.030 C 
HETATM    4  C5  UNL     1     -34.664  15.878  -5.280  1.00 20.00     0.155 C 
HETATM    5  O7  UNL     1     -33.491  14.994  -7.356  1.00 20.00    -0.297 OA
ENDROOT
BRANCH   4   6
HETATM    6  C2  UNL     1     -33.920  15.009  -4.265  1.00 20.00     0.269 C 
HETATM    7  O8  UNL     1     -34.197  13.842  -4.030  1.00 20.00    -0.264 OA
BRANCH   6   8
HETATM    8  O9  UNL     1     -32.924  15.738  -3.686  1.00 20.00    -0.326 OA
HETATM    9  C6  UNL     1     -33.342  16.643  -2.660  1.00 20.00     0.213 C 
ENDBRANCH   6   8
ENDBRANCH   4   6
TORSDOF 2
ENDMDL
MODEL 9
REMARK VINA RESULT:      -3.8      1.469      3.211
REMARK  2 active torsions:
REMARK  status: ('A' for Active; 'I' for Inactive)
REMARK    1  A    between atoms: C2_2  and  C5_5 
REMARK    2  A    between atoms: C2_2  and  O9_9 
ROOT
HETATM    1  C1  UNL     1     -33.084   7.592   5.399  1.00 20.00     0.140 C 
HETATM    2  C3  UNL     1     -32.314   8.827   4.901  1.00 20.00     0.080 C 
HETATM    3  C4  UNL     1     -32.654   8.372   3.464  1.00 20.00     0.030 C 
HETATM    4  C5  UNL     1     -33.658   7.313   3.993  1.00 20.00     0.155 C 
HETATM    5  O7  UNL     1     -33.191   7.053   6.480  1.00 20.00    -0.297 OA
ENDROOT
BRANCH   4   6
HETATM    6  C2  UNL     1     -33.457   5.846   3.615  1.00 20.00     0.269 C 
HETATM    7  O8  UNL     1     -32.628   5.455   2.805  1.00 20.00    -0.264 OA
BRANCH   6   8
HETATM    8  O9  UNL     1     -34.334   5.071   4.313  1.00 20.00    -0.326 OA
HETATM    9  C6  UNL     1     -35.623   5.649   4.534  1.00 20.00     0.213 C 
ENDBRANCH   6   8
ENDBRANCH   4   6
TORSDOF 2
ENDMDL
