MODEL 1
REMARK VINA RESULT:      -3.9      0.000      0.000
REMARK  2 active torsions:
REMARK  status: ('A' for Active; 'I' for Inactive)
REMARK    1  A    between atoms: C1_1  and  C3_3 
REMARK    2  A    between atoms: C2_2  and  C6_6 
ROOT
HETATM    1  C1  UNL     1     -32.993  17.767  -2.480  1.00 20.00     0.046 C 
HETATM    2  C2  UNL     1     -33.304  16.476  -2.649  1.00 20.00    -0.014 C 
ENDROOT
BRANCH   2   3
HETATM    3  C6  UNL     1     -33.752  15.903  -3.953  1.00 20.00    -0.026 A 
HETATM    4  C4  UNL     1     -34.259  14.488  -3.916  1.00 20.00     0.014 A 
HETATM    5  C5  UNL     1     -32.915  14.785  -4.510  1.00 20.00     0.014 A 
HETATM    6  C8  UNL     1     -34.384  16.877  -4.895  1.00 20.00     0.019 C 
ENDBRANCH   2   3
BRANCH   1   7
HETATM    7  C3  UNL     1     -32.552  18.276  -1.152  1.00 20.00     0.145 C 
HETATM    8  C7  UNL     1     -33.522  18.123  -0.009  1.00 20.00     0.096 C 
HETATM    9  O9  UNL     1     -31.457  18.808  -0.986  1.00 20.00    -0.294 OA
ENDBRANCH   1   7
TORSDOF 2
ENDMDL
MODEL 2
REMARK VINA RESULT:      -3.9     11.555     12.479
REMARK  2 active torsions:
REMARK  status: ('A' for Active; 'I' for Inactive)
REMARK    1  A    between atoms: C1_1  and  C3_3 
REMARK    2  A    between atoms: C2_2  and  C6_6 
ROOT
HETATM    1  C1  UNL     1     -32.969   7.436   4.103  1.00 20.00     0.046 C 
HETATM    2  C2  UNL     1     -33.947   7.236   4.995  1.00 20.00    -0.014 C 
ENDROOT
BRANCH   2   3
HETATM    3  C6  UNL     1     -34.491   5.885   5.327  1.00 20.00    -0.026 A 
HETATM    4  C4  UNL     1     -34.283   4.815   4.291  1.00 20.00     0.014 A 
HETATM    5  C5  UNL     1     -35.645   5.410   4.486  1.00 20.00     0.014 A 
HETATM    6  C8  UNL     1     -34.445   5.515   6.774  1.00 20.00     0.019 C 
ENDBRANCH   2   3
BRANCH   1   7
HETATM    7  C3  UNL     1     -32.470   8.810   3.818  1.00 20.00     0.145 C 
HETATM    8  C7  UNL     1     -32.592   9.296   2.397  1.00 20.00     0.096 C 
HETATM    9  O9  UNL     1     -31.969   9.518   4.689  1.00 20.00    -0.294 OA
ENDBRANCH   1   7
TORSDOF 2
ENDMDL
MODEL 3
REMARK VINA RESULT:      -3.9      2.298      4.490
REMARK  2 active torsions:
REMARK  status: ('A' for Active; 'I' for Inactive)
REMARK    1  A    between atoms: C1_1  and  C3_3 
REMARK    2  A    between atoms: C2_2  and  C6_6 
ROOT
HETATM    1  C1  UNL     1     -33.886  16.342  -4.125  1.00 20.00     0.046 C 
HETATM    2  C2  UNL     1     -33.396  16.492  -2.888  1.00 20.00    -0.014 C 
ENDROOT
BRANCH   2   3
HETATM    3  C6  UNL     1     -33.503  17.764  -2.112  1.00 20.00    -0.026 A 
HETATM    4  C4  UNL     1     -32.361  18.071  -1.183  1.00 20.00     0.014 A 
HETATM    5  C5  UNL     1     -33.678  17.622  -0.625  1.00 20.00     0.014 A 
HETATM    6  C8  UNL     1     -34.186  18.889  -2.821  1.00 20.00     0.019 C 
ENDBRANCH   2   3
BRANCH   1   7
HETATM    7  C3  UNL     1     -33.747  15.046  -4.845  1.00 20.00     0.145 C 
HETATM    8  C7  UNL     1     -33.990  15.065  -6.332  1.00 20.00     0.096 C 
HETATM    9  O9  UNL     1     -33.461  14.002  -4.264  1.00 20.00    -0.294 OA
ENDBRANCH   1   7
TORSDOF 2
ENDMDL
MODEL 4
REMARK VINA RESULT:      -3.8      1.796      4.574
REMARK  2 active torsions:
REMARK  status: ('A' for Active; 'I' for Inactive)
REMARK    1  A    between atoms: C1_1  and  C3_3 
REMARK    2  A    between atoms: C2_2  and  C6_6 
ROOT
HETATM    1  C1  UNL     1     -33.436  16.611  -2.445  1.00 20.00     0.046 C 
HETATM    2  C2  UNL     1     -32.968  17.827  -2.138  1.00 20.00    -0.014 C 
ENDROOT
BRANCH   2   3
HETATM    3  C6  UNL     1     -32.746  18.291  -0.735  1.00 20.00    -0.026 A 
HETATM    4  C4  UNL     1     -33.757  17.835   0.280  1.00 20.00     0.014 A 
HETATM    5  C5  UNL     1     -33.759  19.259  -0.189  1.00 20.00     0.014 A 
HETATM    6  C8  UNL     1     -31.315  18.427  -0.326  1.00 20.00     0.019 C 
ENDBRANCH   2   3
BRANCH   1   7
HETATM    7  C3  UNL     1     -33.635  16.210  -3.865  1.00 20.00     0.145 C 
HETATM    8  C7  UNL     1     -33.120  14.852  -4.266  1.00 20.00     0.096 C 
HETATM    9  O9  UNL     1     -34.179  16.947  -4.684  1.00 20.00    -0.294 OA
ENDBRANCH   1   7
TORSDOF 2
ENDMDL
MODEL 5
REMARK VINA RESULT:      -3.8     11.666     12.508
REMARK  2 active torsions:
REMARK  status: ('A' for Active; 'I' for Inactive)
REMARK    1  A    between atoms: C1_1  and  C3_3 
REMARK    2  A    between atoms: C2_2  and  C6_6 
ROOT
HETATM    1  C1  UNL     1     -33.512   8.012   4.953  1.00 20.00     0.046 C 
HETATM    2  C2  UNL     1     -33.720   6.806   4.408  1.00 20.00    -0.014 C 
ENDROOT
BRANCH   2   3
HETATM    3  C6  UNL     1     -34.727   5.834   4.929  1.00 20.00    -0.026 A 
HETATM    4  C4  UNL     1     -34.678   5.558   6.407  1.00 20.00     0.014 A 
HETATM    5  C5  UNL     1     -34.184   4.527   5.438  1.00 20.00     0.014 A 
HETATM    6  C8  UNL     1     -36.051   5.852   4.236  1.00 20.00     0.019 C 
ENDBRANCH   2   3
BRANCH   1   7
HETATM    7  C3  UNL     1     -32.492   8.936   4.384  1.00 20.00     0.145 C 
HETATM    8  C7  UNL     1     -32.358   8.962   2.884  1.00 20.00     0.096 C 
HETATM    9  O9  UNL     1     -31.778   9.640   5.095  1.00 20.00    -0.294 OA
ENDBRANCH   1   7
TORSDOF 2
ENDMDL
MODEL 6
REMARK VINA RESULT:      -3.7      1.388      2.411
REMARK  2 active torsions:
REMARK  status: ('A' for Active; 'I' for Inactive)
REMARK    1  A    between atoms: C1_1  and  C3_3 
REMARK    2  A    between atoms: C2_2  and  C6_6 
ROOT
HETATM    1  C1  UNL     1     -32.024  18.373  -1.293  1.00 20.00     0.046 C 
HETATM    2  C2  UNL     1     -33.122  17.651  -1.551  1.00 20.00    -0.014 C 
ENDROOT
BRANCH   2   3
HETATM    3  C6  UNL     1     -33.584  17.327  -2.934  1.00 20.00    -0.026 A 
HETATM    4  C4  UNL     1     -33.452  18.426  -3.951  1.00 20.00     0.014 A 
HETATM    5  C5  UNL     1     -34.804  18.063  -3.415  1.00 20.00     0.014 A 
HETATM    6  C8  UNL     1     -33.373  15.910  -3.362  1.00 20.00     0.019 C 
ENDBRANCH   2   3
BRANCH   1   7
HETATM    7  C3  UNL     1     -31.616  18.661   0.110  1.00 20.00     0.145 C 
HETATM    8  C7  UNL     1     -32.709  18.666   1.147  1.00 20.00     0.096 C 
HETATM    9  O9  UNL     1     -30.450  18.898   0.417  1.00 20.00    -0.294 OA
ENDBRANCH   1   7
TORSDOF 2
ENDMDL
MODEL 7
REMARK VINA RESULT:      -3.6     11.228     12.679
REMARK  2 active torsions:
REMARK  status: ('A' for Active; 'I' for Inactive)
REMARK    1  A    between atoms: C1_1  and  C3_3 
REMARK    2  A    between atoms: C2_2  and  C6_6 
ROOT
HETATM    1  C1  UNL     1     -40.232  12.156   5.927  1.00 20.00     0.046 C 
HETATM    2  C2  UNL     1     -41.048  13.166   5.601  1.00 20.00    -0.014 C 
ENDROOT
BRANCH   2   3
HETATM    3  C6  UNL     1     -42.364  13.405   6.265  1.00 20.00    -0.026 A 
HETATM    4  C4  UNL     1     -43.338  14.269   5.512  1.00 20.00     0.014 A 
HETATM    5  C5  UNL     1     -42.633  14.813   6.718  1.00 20.00     0.014 A 
HETATM    6  C8  UNL     1     -42.883  12.266   7.082  1.00 20.00     0.019 C 
ENDBRANCH   2   3
BRANCH   1   7
HETATM    7  C3  UNL     1     -38.931  11.973   5.227  1.00 20.00     0.145 C 
HETATM    8  C7  UNL     1     -38.990  11.654   3.755  1.00 20.00     0.096 C 
HETATM    9  O9  UNL     1     -37.854  12.062   5.812  1.00 20.00    -0.294 OA
ENDBRANCH   1   7
TORSDOF 2
ENDMDL
MODEL 8
REMARK VINA RESULT:      -3.6      4.055      5.409
REMARK  2 active torsions:
REMARK  status: ('A' for Active; 'I' for Inactive)
REMARK    1  A    between atoms: C1_1  and  C3_3 
REMARK    2  A    between atoms: C2_2  and  C6_6 
ROOT
HETATM    1  C1  UNL     1     -30.728  18.790   1.899  1.00 20.00     0.046 C 
HETATM    2  C2  UNL     1     -32.040  18.675   1.659  1.00 20.00    -0.014 C 
ENDROOT
BRANCH   2   3
HETATM    3  C6  UNL     1     -32.618  18.581   0.285  1.00 20.00    -0.026 A 
HETATM    4  C4  UNL     1     -33.941  19.263   0.074  1.00 20.00     0.014 A 
HETATM    5  C5  UNL     1     -33.875  17.767   0.148  1.00 20.00     0.014 A 
HETATM    6  C8  UNL     1     -31.620  18.571  -0.828  1.00 20.00     0.019 C 
ENDBRANCH   2   3
BRANCH   1   7
HETATM    7  C3  UNL     1     -30.216  18.880   3.294  1.00 20.00     0.145 C 
HETATM    8  C7  UNL     1     -28.720  18.900   3.469  1.00 20.00     0.096 C 
HETATM    9  O9  UNL     1     -30.967  18.922   4.266  1.00 20.00    -0.294 OA
ENDBRANCH   1   7
TORSDOF 2
ENDMDL
MODEL 9
REMARK VINA RESULT:      -3.6     11.598     12.544
REMARK  2 active torsions:
REMARK  status: ('A' for Active; 'I' for Inactive)
REMARK    1  A    between atoms: C1_1  and  C3_3 
REMARK    2  A    between atoms: C2_2  and  C6_6 
ROOT
HETATM    1  C1  UNL     1     -32.938   7.353   3.757  1.00 20.00     0.046 C 
HETATM    2  C2  UNL     1     -33.713   7.104   4.820  1.00 20.00    -0.014 C 
ENDROOT
BRANCH   2   3
HETATM    3  C6  UNL     1     -34.144   5.731   5.217  1.00 20.00    -0.026 A 
HETATM    4  C4  UNL     1     -35.197   5.651   6.288  1.00 20.00     0.014 A 
HETATM    5  C5  UNL     1     -33.776   5.297   6.609  1.00 20.00     0.014 A 
HETATM    6  C8  UNL     1     -34.148   4.719   4.117  1.00 20.00     0.019 C 
ENDBRANCH   2   3
BRANCH   1   7
HETATM    7  C3  UNL     1     -32.543   8.748   3.414  1.00 20.00     0.145 C 
HETATM    8  C7  UNL     1     -32.677   9.157   1.971  1.00 20.00     0.096 C 
HETATM    9  O9  UNL     1     -32.114   9.532   4.258  1.00 20.00    -0.294 OA
ENDBRANCH   1   7
TORSDOF 2
ENDMDL
