MODEL 1
REMARK VINA RESULT:      -4.4      0.000      0.000
REMARK  2 active torsions:
REMARK  status: ('A' for Active; 'I' for Inactive)
REMARK    1  A    between atoms: C7_7  and  C9_9 
REMARK    2  A    between atoms: C9_9  and  C10_10 
ROOT
HETATM    1  C1  UNL     1     -34.175  15.098  -6.686  1.00 20.00     0.064 C 
HETATM    2  C2  UNL     1     -34.094  14.571  -4.263  1.00 20.00     0.019 C 
HETATM    3  C3  UNL     1     -35.715  16.298  -5.156  1.00 20.00     0.019 C 
HETATM    4  C4  UNL     1     -33.173  15.690  -3.775  1.00 20.00     0.006 C 
HETATM    5  C5  UNL     1     -34.790  17.415  -4.667  1.00 20.00     0.006 C 
HETATM    6  C6  UNL     1     -34.972  14.988  -5.449  1.00 20.00     0.093 C 
HETATM    7  C7  UNL     1     -33.955  16.971  -3.459  1.00 20.00    -0.014 C 
HETATM    8  N11 UNL     1     -33.547  15.184  -7.658  1.00 20.00    -0.197 NA
ENDROOT
BRANCH   7   9
HETATM    9  C9  UNL     1     -33.008  18.087  -3.020  1.00 20.00     0.004 C 
BRANCH   9  10
HETATM   10  C10 UNL     1     -32.595  17.918  -1.563  1.00 20.00    -0.004 C 
HETATM   11  C8  UNL     1     -33.809  17.780  -0.658  1.00 20.00     0.005 C 
ENDBRANCH   9  10
ENDBRANCH   7   9
TORSDOF 2
ENDMDL
MODEL 2
REMARK VINA RESULT:      -4.4      1.632      2.346
REMARK  2 active torsions:
REMARK  status: ('A' for Active; 'I' for Inactive)
REMARK    1  A    between atoms: C7_7  and  C9_9 
REMARK    2  A    between atoms: C9_9  and  C10_10 
ROOT
HETATM    1  C1  UNL     1     -36.186  15.392  -5.655  1.00 20.00     0.064 C 
HETATM    2  C2  UNL     1     -34.577  17.278  -5.708  1.00 20.00     0.019 C 
HETATM    3  C3  UNL     1     -33.778  14.909  -5.315  1.00 20.00     0.019 C 
HETATM    4  C4  UNL     1     -34.452  17.566  -4.211  1.00 20.00     0.006 C 
HETATM    5  C5  UNL     1     -33.654  15.201  -3.818  1.00 20.00     0.006 C 
HETATM    6  C6  UNL     1     -34.814  15.795  -6.017  1.00 20.00     0.093 C 
HETATM    7  C7  UNL     1     -33.383  16.687  -3.551  1.00 20.00    -0.014 C 
HETATM    8  N11 UNL     1     -37.265  15.075  -5.370  1.00 20.00    -0.197 NA
ENDROOT
BRANCH   7   9
HETATM    9  C9  UNL     1     -33.310  16.960  -2.050  1.00 20.00     0.004 C 
BRANCH   9  10
HETATM   10  C10 UNL     1     -32.811  18.373  -1.770  1.00 20.00    -0.004 C 
HETATM   11  C8  UNL     1     -31.741  18.375  -0.691  1.00 20.00     0.005 C 
ENDBRANCH   9  10
ENDBRANCH   7   9
TORSDOF 2
ENDMDL
MODEL 3
REMARK VINA RESULT:      -4.0     11.446     12.653
REMARK  2 active torsions:
REMARK  status: ('A' for Active; 'I' for Inactive)
REMARK    1  A    between atoms: C7_7  and  C9_9 
REMARK    2  A    between atoms: C9_9  and  C10_10 
ROOT
HETATM    1  C1  UNL     1     -32.565   9.113   1.978  1.00 20.00     0.064 C 
HETATM    2  C2  UNL     1     -32.364   8.657   4.408  1.00 20.00     0.019 C 
HETATM    3  C3  UNL     1     -31.910   6.836   2.710  1.00 20.00     0.019 C 
HETATM    4  C4  UNL     1     -33.743   8.054   4.683  1.00 20.00     0.006 C 
HETATM    5  C5  UNL     1     -33.290   6.236   2.988  1.00 20.00     0.006 C 
HETATM    6  C6  UNL     1     -31.838   8.339   3.004  1.00 20.00     0.093 C 
HETATM    7  C7  UNL     1     -33.766   6.545   4.413  1.00 20.00    -0.014 C 
HETATM    8  N11 UNL     1     -33.137   9.721   1.173  1.00 20.00    -0.197 NA
ENDROOT
BRANCH   7   9
HETATM    9  C9  UNL     1     -35.165   5.977   4.649  1.00 20.00     0.004 C 
BRANCH   9  10
HETATM   10  C10 UNL     1     -35.194   5.076   5.879  1.00 20.00    -0.004 C 
HETATM   11  C8  UNL     1     -33.944   5.257   6.724  1.00 20.00     0.005 C 
ENDBRANCH   9  10
ENDBRANCH   7   9
TORSDOF 2
ENDMDL
MODEL 4
REMARK VINA RESULT:      -4.0     12.846     14.678
REMARK  2 active torsions:
REMARK  status: ('A' for Active; 'I' for Inactive)
REMARK    1  A    between atoms: C7_7  and  C9_9 
REMARK    2  A    between atoms: C9_9  and  C10_10 
ROOT
HETATM    1  C1  UNL     1     -43.024  13.224   9.419  1.00 20.00     0.064 C 
HETATM    2  C2  UNL     1     -41.748  14.950   8.175  1.00 20.00     0.019 C 
HETATM    3  C3  UNL     1     -43.155  13.245   6.942  1.00 20.00     0.019 C 
HETATM    4  C4  UNL     1     -40.487  14.155   7.831  1.00 20.00     0.006 C 
HETATM    5  C5  UNL     1     -41.892  12.453   6.600  1.00 20.00     0.006 C 
HETATM    6  C6  UNL     1     -43.012  14.083   8.219  1.00 20.00     0.093 C 
HETATM    7  C7  UNL     1     -40.656  13.359   6.531  1.00 20.00    -0.014 C 
HETATM    8  N11 UNL     1     -43.033  12.548  10.362  1.00 20.00    -0.197 NA
ENDROOT
BRANCH   7   9
HETATM    9  C9  UNL     1     -39.402  12.538   6.234  1.00 20.00     0.004 C 
BRANCH   9  10
HETATM   10  C10 UNL     1     -39.690  11.438   5.218  1.00 20.00    -0.004 C 
HETATM   11  C8  UNL     1     -38.952  11.687   3.913  1.00 20.00     0.005 C 
ENDBRANCH   9  10
ENDBRANCH   7   9
TORSDOF 2
ENDMDL
MODEL 5
REMARK VINA RESULT:      -3.8      2.557      4.599
REMARK  2 active torsions:
REMARK  status: ('A' for Active; 'I' for Inactive)
REMARK    1  A    between atoms: C7_7  and  C9_9 
REMARK    2  A    between atoms: C9_9  and  C10_10 
ROOT
HETATM    1  C1  UNL     1     -35.216  19.142  -2.208  1.00 20.00     0.064 C 
HETATM    2  C2  UNL     1     -33.122  17.903  -1.727  1.00 20.00     0.019 C 
HETATM    3  C3  UNL     1     -33.598  18.781  -4.052  1.00 20.00     0.019 C 
HETATM    4  C4  UNL     1     -33.532  16.499  -2.175  1.00 20.00     0.006 C 
HETATM    5  C5  UNL     1     -34.007  17.375  -4.497  1.00 20.00     0.006 C 
HETATM    6  C6  UNL     1     -33.786  19.014  -2.548  1.00 20.00     0.093 C 
HETATM    7  C7  UNL     1     -33.296  16.292  -3.676  1.00 20.00    -0.014 C 
HETATM    8  N11 UNL     1     -36.341  19.242  -1.941  1.00 20.00    -0.197 NA
ENDROOT
BRANCH   7   9
HETATM    9  C9  UNL     1     -33.757  14.900  -4.107  1.00 20.00     0.004 C 
BRANCH   9  10
HETATM   10  C10 UNL     1     -34.514  14.955  -5.429  1.00 20.00    -0.004 C 
HETATM   11  C8  UNL     1     -35.905  14.358  -5.293  1.00 20.00     0.005 C 
ENDBRANCH   9  10
ENDBRANCH   7   9
TORSDOF 2
ENDMDL
MODEL 6
REMARK VINA RESULT:      -3.7     11.377     12.580
REMARK  2 active torsions:
REMARK  status: ('A' for Active; 'I' for Inactive)
REMARK    1  A    between atoms: C7_7  and  C9_9 
REMARK    2  A    between atoms: C9_9  and  C10_10 
ROOT
HETATM    1  C1  UNL     1     -35.722   5.944   4.375  1.00 20.00     0.064 C 
HETATM    2  C2  UNL     1     -33.416   5.224   3.812  1.00 20.00     0.019 C 
HETATM    3  C3  UNL     1     -33.831   6.894   5.667  1.00 20.00     0.019 C 
HETATM    4  C4  UNL     1     -32.999   6.365   2.881  1.00 20.00     0.006 C 
HETATM    5  C5  UNL     1     -33.413   8.032   4.733  1.00 20.00     0.006 C 
HETATM    6  C6  UNL     1     -34.377   5.672   4.919  1.00 20.00     0.093 C 
HETATM    7  C7  UNL     1     -32.425   7.553   3.662  1.00 20.00    -0.014 C 
HETATM    8  N11 UNL     1     -36.779   6.157   3.947  1.00 20.00    -0.197 NA
ENDROOT
BRANCH   7   9
HETATM    9  C9  UNL     1     -32.061   8.695   2.715  1.00 20.00     0.004 C 
BRANCH   9  10
HETATM   10  C10 UNL     1     -32.116   8.245   1.260  1.00 20.00    -0.004 C 
HETATM   11  C8  UNL     1     -32.690   9.333   0.367  1.00 20.00     0.005 C 
ENDBRANCH   9  10
ENDBRANCH   7   9
TORSDOF 2
ENDMDL
MODEL 7
REMARK VINA RESULT:      -3.6     11.788     13.920
REMARK  2 active torsions:
REMARK  status: ('A' for Active; 'I' for Inactive)
REMARK    1  A    between atoms: C7_7  and  C9_9 
REMARK    2  A    between atoms: C9_9  and  C10_10 
ROOT
HETATM    1  C1  UNL     1     -40.970  16.972   7.881  1.00 20.00     0.064 C 
HETATM    2  C2  UNL     1     -42.764  15.282   7.606  1.00 20.00     0.019 C 
HETATM    3  C3  UNL     1     -40.555  14.658   8.671  1.00 20.00     0.019 C 
HETATM    4  C4  UNL     1     -42.317  14.625   6.298  1.00 20.00     0.006 C 
HETATM    5  C5  UNL     1     -40.111  14.003   7.361  1.00 20.00     0.006 C 
HETATM    6  C6  UNL     1     -41.592  15.768   8.466  1.00 20.00     0.093 C 
HETATM    7  C7  UNL     1     -41.308  13.498   6.546  1.00 20.00    -0.014 C 
HETATM    8  N11 UNL     1     -40.481  17.918   7.420  1.00 20.00    -0.197 NA
ENDROOT
BRANCH   7   9
HETATM    9  C9  UNL     1     -40.841  12.892   5.224  1.00 20.00     0.004 C 
BRANCH   9  10
HETATM   10  C10 UNL     1     -39.676  11.932   5.437  1.00 20.00    -0.004 C 
HETATM   11  C8  UNL     1     -38.928  11.675   4.139  1.00 20.00     0.005 C 
ENDBRANCH   9  10
ENDBRANCH   7   9
TORSDOF 2
ENDMDL
MODEL 8
REMARK VINA RESULT:      -3.6     12.510     13.533
REMARK  2 active torsions:
REMARK  status: ('A' for Active; 'I' for Inactive)
REMARK    1  A    between atoms: C7_7  and  C9_9 
REMARK    2  A    between atoms: C9_9  and  C10_10 
ROOT
HETATM    1  C1  UNL     1     -34.250   4.301   4.696  1.00 20.00     0.064 C 
HETATM    2  C2  UNL     1     -34.433   5.837   6.635  1.00 20.00     0.019 C 
HETATM    3  C3  UNL     1     -35.565   6.389   4.440  1.00 20.00     0.019 C 
HETATM    4  C4  UNL     1     -33.311   6.823   6.303  1.00 20.00     0.006 C 
HETATM    5  C5  UNL     1     -34.441   7.374   4.111  1.00 20.00     0.006 C 
HETATM    6  C6  UNL     1     -35.123   5.269   5.390  1.00 20.00     0.093 C 
HETATM    7  C7  UNL     1     -33.800   7.947   5.381  1.00 20.00    -0.014 C 
HETATM    8  N11 UNL     1     -33.564   3.541   4.151  1.00 20.00    -0.197 NA
ENDROOT
BRANCH   7   9
HETATM    9  C9  UNL     1     -32.652   8.891   5.027  1.00 20.00     0.004 C 
BRANCH   9  10
HETATM   10  C10 UNL     1     -32.393   8.905   3.524  1.00 20.00    -0.004 C 
HETATM   11  C8  UNL     1     -31.727   7.617   3.068  1.00 20.00     0.005 C 
ENDBRANCH   9  10
ENDBRANCH   7   9
TORSDOF 2
ENDMDL
MODEL 9
REMARK VINA RESULT:      -3.6      2.030      2.700
REMARK  2 active torsions:
REMARK  status: ('A' for Active; 'I' for Inactive)
REMARK    1  A    between atoms: C7_7  and  C9_9 
REMARK    2  A    between atoms: C9_9  and  C10_10 
ROOT
HETATM    1  C1  UNL     1     -35.314  14.156  -4.930  1.00 20.00     0.064 C 
HETATM    2  C2  UNL     1     -34.519  16.280  -5.935  1.00 20.00     0.019 C 
HETATM    3  C3  UNL     1     -33.094  15.034  -4.255  1.00 20.00     0.019 C 
HETATM    4  C4  UNL     1     -34.938  17.267  -4.844  1.00 20.00     0.006 C 
HETATM    5  C5  UNL     1     -33.517  16.023  -3.167  1.00 20.00     0.006 C 
HETATM    6  C6  UNL     1     -34.125  14.905  -5.383  1.00 20.00     0.093 C 
HETATM    7  C7  UNL     1     -33.868  17.396  -3.754  1.00 20.00    -0.014 C 
HETATM    8  N11 UNL     1     -36.248  13.568  -4.574  1.00 20.00    -0.197 NA
ENDROOT
BRANCH   7   9
HETATM    9  C9  UNL     1     -34.331  18.349  -2.654  1.00 20.00     0.004 C 
BRANCH   9  10
HETATM   10  C10 UNL     1     -35.462  19.247  -3.142  1.00 20.00    -0.004 C 
HETATM   11  C8  UNL     1     -36.620  19.261  -2.157  1.00 20.00     0.005 C 
ENDBRANCH   9  10
ENDBRANCH   7   9
TORSDOF 2
ENDMDL
