MODEL 1
REMARK VINA RESULT:      -3.8      0.000      0.000
REMARK  0 active torsions:
REMARK  status: ('A' for Active; 'I' for Inactive)
ROOT
HETATM    1  C1  UNL     1     -33.615  17.206  -1.420  1.00 20.00     0.015 C 
HETATM    2  C2  UNL     1     -33.553  16.886  -2.576  1.00 20.00    -0.083 C 
HETATM    3  C3  UNL     1     -33.198  15.023  -4.166  1.00 20.00     0.216 C 
HETATM    4  C4  UNL     1     -33.478  16.496  -3.981  1.00 20.00     0.226 C 
HETATM    5  C5  UNL     1     -34.793  15.665  -5.644  1.00 20.00     0.158 C 
HETATM    6  C6  UNL     1     -36.113  14.912  -5.527  1.00 20.00     0.078 C 
HETATM    7  C7  UNL     1     -34.655  16.330  -7.007  1.00 20.00     0.078 C 
HETATM    8  O8  UNL     1     -33.705  14.746  -5.471  1.00 20.00    -0.352 OA
HETATM    9  O9  UNL     1     -34.747  16.670  -4.621  1.00 20.00    -0.336 OA
ENDROOT
TORSDOF 0
ENDMDL
MODEL 2
REMARK VINA RESULT:      -3.8     12.247     13.671
REMARK  0 active torsions:
REMARK  status: ('A' for Active; 'I' for Inactive)
ROOT
HETATM    1  C1  UNL     1     -38.979  11.592   4.272  1.00 20.00     0.015 C 
HETATM    2  C2  UNL     1     -39.645  12.301   4.976  1.00 20.00    -0.083 C 
HETATM    3  C3  UNL     1     -41.643  13.755   5.111  1.00 20.00     0.216 C 
HETATM    4  C4  UNL     1     -40.455  13.164   5.832  1.00 20.00     0.226 C 
HETATM    5  C5  UNL     1     -42.292  13.078   7.175  1.00 20.00     0.158 C 
HETATM    6  C6  UNL     1     -43.415  12.047   7.186  1.00 20.00     0.078 C 
HETATM    7  C7  UNL     1     -42.177  13.785   8.519  1.00 20.00     0.078 C 
HETATM    8  O8  UNL     1     -42.558  14.059   6.163  1.00 20.00    -0.352 OA
HETATM    9  O9  UNL     1     -41.056  12.406   6.887  1.00 20.00    -0.336 OA
ENDROOT
TORSDOF 0
ENDMDL
MODEL 3
REMARK VINA RESULT:      -3.7     18.146     19.186
REMARK  0 active torsions:
REMARK  status: ('A' for Active; 'I' for Inactive)
ROOT
HETATM    1  C1  UNL     1     -27.684  19.260  11.664  1.00 20.00     0.015 C 
HETATM    2  C2  UNL     1     -26.595  18.854  11.965  1.00 20.00    -0.083 C 
HETATM    3  C3  UNL     1     -25.099  16.885  12.055  1.00 20.00     0.216 C 
HETATM    4  C4  UNL     1     -25.270  18.360  12.330  1.00 20.00     0.226 C 
HETATM    5  C5  UNL     1     -23.223  17.981  11.407  1.00 20.00     0.158 C 
HETATM    6  C6  UNL     1     -22.858  17.811   9.937  1.00 20.00     0.078 C 
HETATM    7  C7  UNL     1     -22.021  18.434  12.226  1.00 20.00     0.078 C 
HETATM    8  O8  UNL     1     -23.686  16.727  11.929  1.00 20.00    -0.352 OA
HETATM    9  O9  UNL     1     -24.263  18.964  11.511  1.00 20.00    -0.336 OA
ENDROOT
TORSDOF 0
ENDMDL
MODEL 4
REMARK VINA RESULT:      -3.7      2.352      4.386
REMARK  0 active torsions:
REMARK  status: ('A' for Active; 'I' for Inactive)
ROOT
HETATM    1  C1  UNL     1     -34.311  14.427  -4.254  1.00 20.00     0.015 C 
HETATM    2  C2  UNL     1     -33.716  15.371  -3.810  1.00 20.00    -0.083 C 
HETATM    3  C3  UNL     1     -33.408  17.824  -3.904  1.00 20.00     0.216 C 
HETATM    4  C4  UNL     1     -32.991  16.518  -3.270  1.00 20.00     0.226 C 
HETATM    5  C5  UNL     1     -33.190  18.122  -1.666  1.00 20.00     0.158 C 
HETATM    6  C6  UNL     1     -34.450  18.612  -0.961  1.00 20.00     0.078 C 
HETATM    7  C7  UNL     1     -31.947  18.397  -0.831  1.00 20.00     0.078 C 
HETATM    8  O8  UNL     1     -33.057  18.801  -2.924  1.00 20.00    -0.352 OA
HETATM    9  O9  UNL     1     -33.309  16.709  -1.887  1.00 20.00    -0.336 OA
ENDROOT
TORSDOF 0
ENDMDL
MODEL 5
REMARK VINA RESULT:      -3.7     12.017     13.026
REMARK  0 active torsions:
REMARK  status: ('A' for Active; 'I' for Inactive)
ROOT
HETATM    1  C1  UNL     1     -31.966   8.048   1.473  1.00 20.00     0.015 C 
HETATM    2  C2  UNL     1     -32.284   7.627   2.552  1.00 20.00    -0.083 C 
HETATM    3  C3  UNL     1     -33.489   8.107   4.659  1.00 20.00     0.216 C 
HETATM    4  C4  UNL     1     -32.672   7.117   3.864  1.00 20.00     0.226 C 
HETATM    5  C5  UNL     1     -34.398   6.041   4.889  1.00 20.00     0.158 C 
HETATM    6  C6  UNL     1     -35.850   5.928   4.439  1.00 20.00     0.078 C 
HETATM    7  C7  UNL     1     -34.019   4.904   5.828  1.00 20.00     0.078 C 
HETATM    8  O8  UNL     1     -34.210   7.286   5.578  1.00 20.00    -0.352 OA
HETATM    9  O9  UNL     1     -33.554   5.997   3.728  1.00 20.00    -0.336 OA
ENDROOT
TORSDOF 0
ENDMDL
MODEL 6
REMARK VINA RESULT:      -3.6     11.996     13.631
REMARK  0 active torsions:
REMARK  status: ('A' for Active; 'I' for Inactive)
ROOT
HETATM    1  C1  UNL     1     -39.212  11.611   4.448  1.00 20.00     0.015 C 
HETATM    2  C2  UNL     1     -39.983  12.350   4.997  1.00 20.00    -0.083 C 
HETATM    3  C3  UNL     1     -41.805  12.538   6.662  1.00 20.00     0.216 C 
HETATM    4  C4  UNL     1     -40.922  13.249   5.664  1.00 20.00     0.226 C 
HETATM    5  C5  UNL     1     -41.107  14.501   7.557  1.00 20.00     0.158 C 
HETATM    6  C6  UNL     1     -40.335  14.369   8.865  1.00 20.00     0.078 C 
HETATM    7  C7  UNL     1     -41.661  15.909   7.381  1.00 20.00     0.078 C 
HETATM    8  O8  UNL     1     -42.204  13.575   7.557  1.00 20.00    -0.352 OA
HETATM    9  O9  UNL     1     -40.220  14.202   6.469  1.00 20.00    -0.336 OA
ENDROOT
TORSDOF 0
ENDMDL
MODEL 7
REMARK VINA RESULT:      -3.3     12.280     13.599
REMARK  0 active torsions:
REMARK  status: ('A' for Active; 'I' for Inactive)
ROOT
HETATM    1  C1  UNL     1     -40.892  16.983   8.643  1.00 20.00     0.015 C 
HETATM    2  C2  UNL     1     -40.742  15.825   8.365  1.00 20.00    -0.083 C 
HETATM    3  C3  UNL     1     -41.866  13.665   7.924  1.00 20.00     0.216 C 
HETATM    4  C4  UNL     1     -40.560  14.415   8.028  1.00 20.00     0.226 C 
HETATM    5  C5  UNL     1     -40.513  13.037   6.216  1.00 20.00     0.158 C 
HETATM    6  C6  UNL     1     -41.088  13.275   4.824  1.00 20.00     0.078 C 
HETATM    7  C7  UNL     1     -39.392  12.007   6.183  1.00 20.00     0.078 C 
HETATM    8  O8  UNL     1     -41.551  12.556   7.082  1.00 20.00    -0.352 OA
HETATM    9  O9  UNL     1     -39.999  14.280   6.718  1.00 20.00    -0.336 OA
ENDROOT
TORSDOF 0
ENDMDL
MODEL 8
REMARK VINA RESULT:      -3.2     12.650     13.818
REMARK  0 active torsions:
REMARK  status: ('A' for Active; 'I' for Inactive)
ROOT
HETATM    1  C1  UNL     1     -41.332  17.914   8.193  1.00 20.00     0.015 C 
HETATM    2  C2  UNL     1     -40.877  16.841   7.902  1.00 20.00    -0.083 C 
HETATM    3  C3  UNL     1     -40.285  14.581   8.715  1.00 20.00     0.216 C 
HETATM    4  C4  UNL     1     -40.323  15.537   7.548  1.00 20.00     0.226 C 
HETATM    5  C5  UNL     1     -40.997  13.470   6.871  1.00 20.00     0.158 C 
HETATM    6  C6  UNL     1     -42.373  12.827   7.003  1.00 20.00     0.078 C 
HETATM    7  C7  UNL     1     -40.198  12.839   5.738  1.00 20.00     0.078 C 
HETATM    8  O8  UNL     1     -40.271  13.295   8.096  1.00 20.00    -0.352 OA
HETATM    9  O9  UNL     1     -41.169  14.870   6.605  1.00 20.00    -0.336 OA
ENDROOT
TORSDOF 0
ENDMDL
MODEL 9
REMARK VINA RESULT:      -3.2      2.046      3.268
REMARK  0 active torsions:
REMARK  status: ('A' for Active; 'I' for Inactive)
ROOT
HETATM    1  C1  UNL     1     -31.418  18.563  -0.376  1.00 20.00     0.015 C 
HETATM    2  C2  UNL     1     -32.295  18.130  -1.073  1.00 20.00    -0.083 C 
HETATM    3  C3  UNL     1     -34.590  18.482  -1.928  1.00 20.00     0.216 C 
HETATM    4  C4  UNL     1     -33.362  17.604  -1.920  1.00 20.00     0.226 C 
HETATM    5  C5  UNL     1     -34.166  17.783  -4.043  1.00 20.00     0.158 C 
HETATM    6  C6  UNL     1     -33.942  18.902  -5.054  1.00 20.00     0.078 C 
HETATM    7  C7  UNL     1     -34.534  16.478  -4.736  1.00 20.00     0.078 C 
HETATM    8  O8  UNL     1     -35.234  18.149  -3.158  1.00 20.00    -0.352 OA
HETATM    9  O9  UNL     1     -32.956  17.595  -3.293  1.00 20.00    -0.336 OA
ENDROOT
TORSDOF 0
ENDMDL
