MODEL 1
REMARK VINA RESULT:      -5.2      0.000      0.000
REMARK  2 active torsions:
REMARK  status: ('A' for Active; 'I' for Inactive)
REMARK    1  A    between atoms: C2_2  and  C5_5 
REMARK    2  A    between atoms: C5_5  and  O6_6 
ROOT
HETATM    1  C1  UNL     1     -35.470   5.979   4.317  1.00 20.00     0.097 A 
HETATM    2  C2  UNL     1     -34.252   6.493   5.068  1.00 20.00     0.049 A 
HETATM    3  C3  UNL     1     -34.158   5.292   4.184  1.00 20.00     0.254 A 
HETATM    4  C4  UNL     1     -34.201   6.280   6.556  1.00 20.00     0.024 C 
HETATM    5  F7  UNL     1     -33.979   4.032   4.710  1.00 20.00    -0.205 F 
HETATM    6  F8  UNL     1     -33.471   5.337   2.992  1.00 20.00    -0.205 F 
ENDROOT
BRANCH   2   7
HETATM    7  C5  UNL     1     -33.619   7.771   4.595  1.00 20.00     0.179 C 
BRANCH   7   8
HETATM    8  O6  UNL     1     -32.453   8.036   5.367  1.00 20.00    -0.400 OA
HETATM    9  H16 UNL     1     -32.402   8.999   5.472  1.00 20.00     0.209 HD
ENDBRANCH   7   8
ENDBRANCH   2   7
TORSDOF 2
ENDMDL
MODEL 2
REMARK VINA RESULT:      -4.8      1.273      1.520
REMARK  2 active torsions:
REMARK  status: ('A' for Active; 'I' for Inactive)
REMARK    1  A    between atoms: C2_2  and  C5_5 
REMARK    2  A    between atoms: C5_5  and  O6_6 
ROOT
HETATM    1  C1  UNL     1     -35.405   5.998   4.465  1.00 20.00     0.097 A 
HETATM    2  C2  UNL     1     -33.980   6.473   4.698  1.00 20.00     0.049 A 
HETATM    3  C3  UNL     1     -34.423   5.122   5.156  1.00 20.00     0.254 A 
HETATM    4  C4  UNL     1     -33.753   7.533   5.740  1.00 20.00     0.024 C 
HETATM    5  F7  UNL     1     -34.571   4.836   6.495  1.00 20.00    -0.205 F 
HETATM    6  F8  UNL     1     -33.965   3.977   4.543  1.00 20.00    -0.205 F 
ENDROOT
BRANCH   2   7
HETATM    7  C5  UNL     1     -33.060   6.552   3.512  1.00 20.00     0.179 C 
BRANCH   7   8
HETATM    8  O6  UNL     1     -32.195   7.673   3.659  1.00 20.00    -0.400 OA
HETATM    9  H16 UNL     1     -31.504   7.411   4.288  1.00 20.00     0.209 HD
ENDBRANCH   7   8
ENDBRANCH   2   7
TORSDOF 2
ENDMDL
MODEL 3
REMARK VINA RESULT:      -4.1      2.235      3.023
REMARK  2 active torsions:
REMARK  status: ('A' for Active; 'I' for Inactive)
REMARK    1  A    between atoms: C2_2  and  C5_5 
REMARK    2  A    between atoms: C5_5  and  O6_6 
ROOT
HETATM    1  C1  UNL     1     -34.079   8.253   4.154  1.00 20.00     0.097 A 
HETATM    2  C2  UNL     1     -33.779   6.924   4.830  1.00 20.00     0.049 A 
HETATM    3  C3  UNL     1     -32.677   7.780   4.297  1.00 20.00     0.254 A 
HETATM    4  C4  UNL     1     -34.118   5.663   4.085  1.00 20.00     0.024 C 
HETATM    5  F7  UNL     1     -31.956   7.403   3.186  1.00 20.00    -0.205 F 
HETATM    6  F8  UNL     1     -31.808   8.432   5.144  1.00 20.00    -0.205 F 
ENDROOT
BRANCH   2   7
HETATM    7  C5  UNL     1     -33.950   6.837   6.321  1.00 20.00     0.179 C 
BRANCH   7   8
HETATM    8  O6  UNL     1     -34.480   5.561   6.662  1.00 20.00    -0.400 OA
HETATM    9  H16 UNL     1     -33.801   5.109   7.189  1.00 20.00     0.209 HD
ENDBRANCH   7   8
ENDBRANCH   2   7
TORSDOF 2
ENDMDL
MODEL 4
REMARK VINA RESULT:      -4.0      2.618      3.319
REMARK  2 active torsions:
REMARK  status: ('A' for Active; 'I' for Inactive)
REMARK    1  A    between atoms: C2_2  and  C5_5 
REMARK    2  A    between atoms: C5_5  and  O6_6 
ROOT
HETATM    1  C1  UNL     1     -34.529   7.861   4.510  1.00 20.00     0.097 A 
HETATM    2  C2  UNL     1     -33.926   6.468   4.419  1.00 20.00     0.049 A 
HETATM    3  C3  UNL     1     -33.504   7.419   5.491  1.00 20.00     0.254 A 
HETATM    4  C4  UNL     1     -32.960   6.191   3.301  1.00 20.00     0.024 C 
HETATM    5  F7  UNL     1     -32.250   7.988   5.487  1.00 20.00    -0.205 F 
HETATM    6  F8  UNL     1     -33.851   7.208   6.807  1.00 20.00    -0.205 F 
ENDROOT
BRANCH   2   7
HETATM    7  C5  UNL     1     -34.787   5.299   4.809  1.00 20.00     0.179 C 
BRANCH   7   8
HETATM    8  O6  UNL     1     -34.149   4.090   4.414  1.00 20.00    -0.400 OA
HETATM    9  H16 UNL     1     -33.246   4.326   4.148  1.00 20.00     0.209 HD
ENDBRANCH   7   8
ENDBRANCH   2   7
TORSDOF 2
ENDMDL
MODEL 5
REMARK VINA RESULT:      -3.9      2.231      2.981
REMARK  2 active torsions:
REMARK  status: ('A' for Active; 'I' for Inactive)
REMARK    1  A    between atoms: C2_2  and  C5_5 
REMARK    2  A    between atoms: C5_5  and  O6_6 
ROOT
HETATM    1  C1  UNL     1     -34.078   6.410   6.174  1.00 20.00     0.097 A 
HETATM    2  C2  UNL     1     -34.379   6.035   4.731  1.00 20.00     0.049 A 
HETATM    3  C3  UNL     1     -33.685   7.315   5.063  1.00 20.00     0.254 A 
HETATM    4  C4  UNL     1     -35.809   6.105   4.270  1.00 20.00     0.024 C 
HETATM    5  F7  UNL     1     -34.315   8.530   4.903  1.00 20.00    -0.205 F 
HETATM    6  F8  UNL     1     -32.355   7.504   4.760  1.00 20.00    -0.205 F 
ENDROOT
BRANCH   2   7
HETATM    7  C5  UNL     1     -33.571   4.933   4.105  1.00 20.00     0.179 C 
BRANCH   7   8
HETATM    8  O6  UNL     1     -33.174   5.324   2.795  1.00 20.00    -0.400 OA
HETATM    9  H16 UNL     1     -33.962   5.696   2.366  1.00 20.00     0.209 HD
ENDBRANCH   7   8
ENDBRANCH   2   7
TORSDOF 2
ENDMDL
MODEL 6
REMARK VINA RESULT:      -3.8      2.699      3.181
REMARK  2 active torsions:
REMARK  status: ('A' for Active; 'I' for Inactive)
REMARK    1  A    between atoms: C2_2  and  C5_5 
REMARK    2  A    between atoms: C5_5  and  O6_6 
ROOT
HETATM    1  C1  UNL     1     -32.833   6.952   4.179  1.00 20.00     0.097 A 
HETATM    2  C2  UNL     1     -34.021   6.709   5.096  1.00 20.00     0.049 A 
HETATM    3  C3  UNL     1     -33.691   8.084   4.616  1.00 20.00     0.254 A 
HETATM    4  C4  UNL     1     -33.742   6.377   6.536  1.00 20.00     0.024 C 
HETATM    5  F7  UNL     1     -33.194   9.039   5.475  1.00 20.00    -0.205 F 
HETATM    6  F8  UNL     1     -34.497   8.734   3.708  1.00 20.00    -0.205 F 
ENDROOT
BRANCH   2   7
HETATM    7  C5  UNL     1     -35.231   6.029   4.519  1.00 20.00     0.179 C 
BRANCH   7   8
HETATM    8  O6  UNL     1     -35.401   4.760   5.141  1.00 20.00    -0.400 OA
HETATM    9  H16 UNL     1     -35.837   4.923   5.992  1.00 20.00     0.209 HD
ENDBRANCH   7   8
ENDBRANCH   2   7
TORSDOF 2
ENDMDL
MODEL 7
REMARK VINA RESULT:      -3.7      8.541      9.375
REMARK  2 active torsions:
REMARK  status: ('A' for Active; 'I' for Inactive)
REMARK    1  A    between atoms: C2_2  and  C5_5 
REMARK    2  A    between atoms: C5_5  and  O6_6 
ROOT
HETATM    1  C1  UNL     1     -41.824   7.810  -0.500  1.00 20.00     0.097 A 
HETATM    2  C2  UNL     1     -42.473   6.649   0.236  1.00 20.00     0.049 A 
HETATM    3  C3  UNL     1     -40.989   6.727   0.082  1.00 20.00     0.254 A 
HETATM    4  C4  UNL     1     -43.215   5.626  -0.579  1.00 20.00     0.024 C 
HETATM    5  F7  UNL     1     -40.311   5.856  -0.742  1.00 20.00    -0.205 F 
HETATM    6  F8  UNL     1     -40.174   6.985   1.161  1.00 20.00    -0.205 F 
ENDROOT
BRANCH   2   7
HETATM    7  C5  UNL     1     -43.058   6.914   1.595  1.00 20.00     0.179 C 
BRANCH   7   8
HETATM    8  O6  UNL     1     -42.943   5.742   2.395  1.00 20.00    -0.400 OA
HETATM    9  H16 UNL     1     -43.820   5.325   2.405  1.00 20.00     0.209 HD
ENDBRANCH   7   8
ENDBRANCH   2   7
TORSDOF 2
ENDMDL
MODEL 8
REMARK VINA RESULT:      -3.7      2.113      2.586
REMARK  2 active torsions:
REMARK  status: ('A' for Active; 'I' for Inactive)
REMARK    1  A    between atoms: C2_2  and  C5_5 
REMARK    2  A    between atoms: C5_5  and  O6_6 
ROOT
HETATM    1  C1  UNL     1     -34.088   4.829   5.721  1.00 20.00     0.097 A 
HETATM    2  C2  UNL     1     -34.363   6.004   4.795  1.00 20.00     0.049 A 
HETATM    3  C3  UNL     1     -34.169   6.211   6.262  1.00 20.00     0.254 A 
HETATM    4  C4  UNL     1     -35.752   6.151   4.239  1.00 20.00     0.024 C 
HETATM    5  F7  UNL     1     -35.219   6.577   7.075  1.00 20.00    -0.205 F 
HETATM    6  F8  UNL     1     -33.041   6.831   6.751  1.00 20.00    -0.205 F 
ENDROOT
BRANCH   2   7
HETATM    7  C5  UNL     1     -33.265   6.443   3.867  1.00 20.00     0.179 C 
BRANCH   7   8
HETATM    8  O6  UNL     1     -33.102   7.853   3.962  1.00 20.00    -0.400 OA
HETATM    9  H16 UNL     1     -32.161   8.035   3.808  1.00 20.00     0.209 HD
ENDBRANCH   7   8
ENDBRANCH   2   7
TORSDOF 2
ENDMDL
MODEL 9
REMARK VINA RESULT:      -3.6      8.872      9.644
REMARK  2 active torsions:
REMARK  status: ('A' for Active; 'I' for Inactive)
REMARK    1  A    between atoms: C2_2  and  C5_5 
REMARK    2  A    between atoms: C5_5  and  O6_6 
ROOT
HETATM    1  C1  UNL     1     -42.466   7.545  -0.406  1.00 20.00     0.097 A 
HETATM    2  C2  UNL     1     -41.979   6.162  -0.005  1.00 20.00     0.049 A 
HETATM    3  C3  UNL     1     -42.011   7.282   0.984  1.00 20.00     0.254 A 
HETATM    4  C4  UNL     1     -40.639   5.712  -0.518  1.00 20.00     0.024 C 
HETATM    5  F7  UNL     1     -40.849   7.852   1.453  1.00 20.00    -0.205 F 
HETATM    6  F8  UNL     1     -42.916   7.289   2.022  1.00 20.00    -0.205 F 
ENDROOT
BRANCH   2   7
HETATM    7  C5  UNL     1     -42.999   5.067   0.132  1.00 20.00     0.179 C 
BRANCH   7   8
HETATM    8  O6  UNL     1     -42.536   4.105   1.074  1.00 20.00    -0.400 OA
HETATM    9  H16 UNL     1     -41.779   4.506   1.532  1.00 20.00     0.209 HD
ENDBRANCH   7   8
ENDBRANCH   2   7
TORSDOF 2
ENDMDL
