MODEL 1
REMARK VINA RESULT:      -4.0      0.000      0.000
REMARK  1 active torsions:
REMARK  status: ('A' for Active; 'I' for Inactive)
REMARK    1  A    between atoms: C1_1  and  C7_7 
ROOT
HETATM    1  C2  UNL     1     -43.075  13.550   6.458  1.00 20.00     0.006 C 
HETATM    2  C3  UNL     1     -42.263  14.808   6.782  1.00 20.00     0.017 C 
HETATM    3  C4  UNL     1     -42.131  12.377   6.684  1.00 20.00     0.069 C 
HETATM    4  C5  UNL     1     -38.766  12.035   5.806  1.00 20.00     0.197 C 
HETATM    5  C6  UNL     1     -39.629  12.067   4.576  1.00 20.00     0.197 C 
HETATM    6  C7  UNL     1     -40.799  14.366   6.911  1.00 20.00     0.109 C 
HETATM    7  C8  UNL     1     -40.764  12.949   6.331  1.00 20.00     0.173 C 
HETATM    8  O10 UNL     1     -39.711  12.146   6.868  1.00 20.00    -0.352 OA
HETATM    9  O11 UNL     1     -40.624  13.037   4.901  1.00 20.00    -0.352 OA
ENDROOT
BRANCH   6  10
HETATM   10  C1  UNL     1     -40.375  14.413   8.350  1.00 20.00     0.241 C 
HETATM   11  O9  UNL     1     -40.020  15.442   8.917  1.00 20.00    -0.306 OA
ENDBRANCH   6  10
TORSDOF 1
ENDMDL
MODEL 2
REMARK VINA RESULT:      -3.7     11.420     12.426
REMARK  1 active torsions:
REMARK  status: ('A' for Active; 'I' for Inactive)
REMARK    1  A    between atoms: C1_1  and  C7_7 
ROOT
HETATM    1  C2  UNL     1     -33.340  17.166  -3.574  1.00 20.00     0.006 C 
HETATM    2  C3  UNL     1     -33.950  18.567  -3.694  1.00 20.00     0.017 C 
HETATM    3  C4  UNL     1     -33.340  16.839  -2.087  1.00 20.00     0.069 C 
HETATM    4  C5  UNL     1     -32.513  18.871   0.633  1.00 20.00     0.197 C 
HETATM    5  C6  UNL     1     -31.292  18.576  -0.193  1.00 20.00     0.197 C 
HETATM    6  C7  UNL     1     -34.027  19.136  -2.270  1.00 20.00     0.109 C 
HETATM    7  C8  UNL     1     -33.159  18.199  -1.425  1.00 20.00     0.173 C 
HETATM    8  O10 UNL     1     -33.544  18.162  -0.050  1.00 20.00    -0.352 OA
HETATM    9  O11 UNL     1     -31.786  18.617  -1.531  1.00 20.00    -0.352 OA
ENDROOT
BRANCH   6  10
HETATM   10  C1  UNL     1     -35.455  19.174  -1.811  1.00 20.00     0.241 C 
HETATM   11  O9  UNL     1     -36.394  18.769  -2.488  1.00 20.00    -0.306 OA
ENDBRANCH   6  10
TORSDOF 1
ENDMDL
MODEL 3
REMARK VINA RESULT:      -3.7     12.465     14.002
REMARK  1 active torsions:
REMARK  status: ('A' for Active; 'I' for Inactive)
REMARK    1  A    between atoms: C1_1  and  C7_7 
ROOT
HETATM    1  C2  UNL     1     -33.569  16.304  -3.870  1.00 20.00     0.006 C 
HETATM    2  C3  UNL     1     -33.619  14.861  -4.383  1.00 20.00     0.017 C 
HETATM    3  C4  UNL     1     -34.847  16.966  -4.368  1.00 20.00     0.069 C 
HETATM    4  C5  UNL     1     -36.398  16.731  -7.491  1.00 20.00     0.197 C 
HETATM    5  C6  UNL     1     -35.089  17.461  -7.608  1.00 20.00     0.197 C 
HETATM    6  C7  UNL     1     -34.771  14.794  -5.395  1.00 20.00     0.109 C 
HETATM    7  C8  UNL     1     -35.124  16.255  -5.687  1.00 20.00     0.173 C 
HETATM    8  O10 UNL     1     -36.480  16.436  -6.098  1.00 20.00    -0.352 OA
HETATM    9  O11 UNL     1     -34.239  16.752  -6.707  1.00 20.00    -0.352 OA
ENDROOT
BRANCH   6  10
HETATM   10  C1  UNL     1     -35.921  14.025  -4.813  1.00 20.00     0.241 C 
HETATM   11  O9  UNL     1     -35.803  12.914  -4.306  1.00 20.00    -0.306 OA
ENDBRANCH   6  10
TORSDOF 1
ENDMDL
MODEL 4
REMARK VINA RESULT:      -3.5      8.234     10.151
REMARK  1 active torsions:
REMARK  status: ('A' for Active; 'I' for Inactive)
REMARK    1  A    between atoms: C1_1  and  C7_7 
ROOT
HETATM    1  C2  UNL     1     -43.149   5.544   2.476  1.00 20.00     0.006 C 
HETATM    2  C3  UNL     1     -42.614   4.532   1.457  1.00 20.00     0.017 C 
HETATM    3  C4  UNL     1     -43.417   6.821   1.692  1.00 20.00     0.069 C 
HETATM    4  C5  UNL     1     -41.491   8.347  -0.793  1.00 20.00     0.197 C 
HETATM    5  C6  UNL     1     -40.792   8.424   0.535  1.00 20.00     0.197 C 
HETATM    6  C7  UNL     1     -42.317   5.318   0.172  1.00 20.00     0.109 C 
HETATM    7  C8  UNL     1     -42.363   6.789   0.592  1.00 20.00     0.173 C 
HETATM    8  O10 UNL     1     -42.706   7.670  -0.480  1.00 20.00    -0.352 OA
HETATM    9  O11 UNL     1     -41.081   7.160   1.130  1.00 20.00    -0.352 OA
ENDROOT
BRANCH   6  10
HETATM   10  C1  UNL     1     -43.332   4.982  -0.880  1.00 20.00     0.241 C 
HETATM   11  O9  UNL     1     -43.055   4.409  -1.929  1.00 20.00    -0.306 OA
ENDBRANCH   6  10
TORSDOF 1
ENDMDL
MODEL 5
REMARK VINA RESULT:      -3.5     12.276     13.711
REMARK  1 active torsions:
REMARK  status: ('A' for Active; 'I' for Inactive)
REMARK    1  A    between atoms: C1_1  and  C7_7 
ROOT
HETATM    1  C2  UNL     1     -34.044  17.776  -1.974  1.00 20.00     0.006 C 
HETATM    2  C3  UNL     1     -33.127  16.636  -2.430  1.00 20.00     0.017 C 
HETATM    3  C4  UNL     1     -35.024  18.003  -3.116  1.00 20.00     0.069 C 
HETATM    4  C5  UNL     1     -34.441  18.083  -6.561  1.00 20.00     0.197 C 
HETATM    5  C6  UNL     1     -33.795  19.263  -5.891  1.00 20.00     0.197 C 
HETATM    6  C7  UNL     1     -33.407  16.419  -3.924  1.00 20.00     0.109 C 
HETATM    7  C8  UNL     1     -34.214  17.647  -4.356  1.00 20.00     0.173 C 
HETATM    8  O10 UNL     1     -35.063  17.396  -5.477  1.00 20.00    -0.352 OA
HETATM    9  O11 UNL     1     -33.302  18.714  -4.669  1.00 20.00    -0.352 OA
ENDROOT
BRANCH   6  10
HETATM   10  C1  UNL     1     -34.156  15.134  -4.123  1.00 20.00     0.241 C 
HETATM   11  O9  UNL     1     -33.610  14.036  -4.187  1.00 20.00    -0.306 OA
ENDBRANCH   6  10
TORSDOF 1
ENDMDL
MODEL 6
REMARK VINA RESULT:      -3.4     12.852     13.953
REMARK  1 active torsions:
REMARK  status: ('A' for Active; 'I' for Inactive)
REMARK    1  A    between atoms: C1_1  and  C7_7 
ROOT
HETATM    1  C2  UNL     1     -35.968  17.805  -6.874  1.00 20.00     0.006 C 
HETATM    2  C3  UNL     1     -36.913  16.719  -6.351  1.00 20.00     0.017 C 
HETATM    3  C4  UNL     1     -34.567  17.368  -6.465  1.00 20.00     0.069 C 
HETATM    4  C5  UNL     1     -33.461  16.001  -3.445  1.00 20.00     0.197 C 
HETATM    5  C6  UNL     1     -33.879  17.432  -3.252  1.00 20.00     0.197 C 
HETATM    6  C7  UNL     1     -36.086  15.829  -5.413  1.00 20.00     0.109 C 
HETATM    7  C8  UNL     1     -34.797  16.617  -5.159  1.00 20.00     0.173 C 
HETATM    8  O10 UNL     1     -33.682  15.784  -4.837  1.00 20.00    -0.352 OA
HETATM    9  O11 UNL     1     -35.028  17.552  -4.090  1.00 20.00    -0.352 OA
ENDROOT
BRANCH   6  10
HETATM   10  C1  UNL     1     -35.834  14.498  -6.059  1.00 20.00     0.241 C 
HETATM   11  O9  UNL     1     -36.063  14.267  -7.242  1.00 20.00    -0.306 OA
ENDBRANCH   6  10
TORSDOF 1
ENDMDL
MODEL 7
REMARK VINA RESULT:      -3.4     19.736     21.621
REMARK  1 active torsions:
REMARK  status: ('A' for Active; 'I' for Inactive)
REMARK    1  A    between atoms: C1_1  and  C7_7 
ROOT
HETATM    1  C2  UNL     1     -28.171  -3.638  10.424  1.00 20.00     0.006 C 
HETATM    2  C3  UNL     1     -28.325  -2.175   9.994  1.00 20.00     0.017 C 
HETATM    3  C4  UNL     1     -27.070  -3.647  11.476  1.00 20.00     0.069 C 
HETATM    4  C5  UNL     1     -24.024  -1.933  11.516  1.00 20.00     0.197 C 
HETATM    5  C6  UNL     1     -24.026  -2.976  10.434  1.00 20.00     0.197 C 
HETATM    6  C7  UNL     1     -27.131  -1.414  10.586  1.00 20.00     0.109 C 
HETATM    7  C8  UNL     1     -26.158  -2.504  11.045  1.00 20.00     0.173 C 
HETATM    8  O10 UNL     1     -25.309  -2.087  12.115  1.00 20.00    -0.352 OA
HETATM    9  O11 UNL     1     -25.356  -2.912   9.922  1.00 20.00    -0.352 OA
ENDROOT
BRANCH   6  10
HETATM   10  C1  UNL     1     -27.592  -0.536  11.713  1.00 20.00     0.241 C 
HETATM   11  O9  UNL     1     -28.767  -0.425  12.047  1.00 20.00    -0.306 OA
ENDBRANCH   6  10
TORSDOF 1
ENDMDL
MODEL 8
REMARK VINA RESULT:      -3.3     11.261     12.353
REMARK  1 active torsions:
REMARK  status: ('A' for Active; 'I' for Inactive)
REMARK    1  A    between atoms: C1_1  and  C7_7 
ROOT
HETATM    1  C2  UNL     1     -31.987  18.456  -0.671  1.00 20.00     0.006 C 
HETATM    2  C3  UNL     1     -33.372  18.271  -0.044  1.00 20.00     0.017 C 
HETATM    3  C4  UNL     1     -32.227  18.624  -2.165  1.00 20.00     0.069 C 
HETATM    4  C5  UNL     1     -34.406  16.885  -4.273  1.00 20.00     0.197 C 
HETATM    5  C6  UNL     1     -33.304  15.981  -3.795  1.00 20.00     0.197 C 
HETATM    6  C7  UNL     1     -34.354  18.051  -1.203  1.00 20.00     0.109 C 
HETATM    7  C8  UNL     1     -33.469  17.779  -2.422  1.00 20.00     0.173 C 
HETATM    8  O10 UNL     1     -34.090  18.132  -3.659  1.00 20.00    -0.352 OA
HETATM    9  O11 UNL     1     -33.118  16.384  -2.439  1.00 20.00    -0.352 OA
ENDROOT
BRANCH   6  10
HETATM   10  C1  UNL     1     -35.223  19.263  -1.376  1.00 20.00     0.241 C 
HETATM   11  O9  UNL     1     -36.408  19.207  -1.690  1.00 20.00    -0.306 OA
ENDBRANCH   6  10
TORSDOF 1
ENDMDL
MODEL 9
REMARK VINA RESULT:      -3.3     11.678     13.254
REMARK  1 active torsions:
REMARK  status: ('A' for Active; 'I' for Inactive)
REMARK    1  A    between atoms: C1_1  and  C7_7 
ROOT
HETATM    1  C2  UNL     1     -34.395  18.165  -5.656  1.00 20.00     0.006 C 
HETATM    2  C3  UNL     1     -34.863  16.718  -5.472  1.00 20.00     0.017 C 
HETATM    3  C4  UNL     1     -33.411  18.431  -4.525  1.00 20.00     0.069 C 
HETATM    4  C5  UNL     1     -33.608  17.531  -1.154  1.00 20.00     0.197 C 
HETATM    5  C6  UNL     1     -34.654  18.558  -1.485  1.00 20.00     0.197 C 
HETATM    6  C7  UNL     1     -34.368  16.269  -4.090  1.00 20.00     0.109 C 
HETATM    7  C8  UNL     1     -33.932  17.559  -3.390  1.00 20.00     0.173 C 
HETATM    8  O10 UNL     1     -32.929  17.348  -2.395  1.00 20.00    -0.352 OA
HETATM    9  O11 UNL     1     -35.087  18.173  -2.790  1.00 20.00    -0.352 OA
ENDROOT
BRANCH   6  10
HETATM   10  C1  UNL     1     -33.245  15.285  -4.243  1.00 20.00     0.241 C 
HETATM   11  O9  UNL     1     -33.409  14.069  -4.264  1.00 20.00    -0.306 OA
ENDBRANCH   6  10
TORSDOF 1
ENDMDL
