MODEL 1
REMARK VINA RESULT:      -3.8      0.000      0.000
REMARK  0 active torsions:
REMARK  status: ('A' for Active; 'I' for Inactive)
ROOT
HETATM    1  C1  UNL     1     -32.067   8.337   1.351  1.00 20.00     0.015 C 
HETATM    2  C2  UNL     1     -32.300   7.589   2.261  1.00 20.00    -0.083 C 
HETATM    3  C3  UNL     1     -33.029   5.314   2.902  1.00 20.00     0.216 C 
HETATM    4  C4  UNL     1     -32.584   6.679   3.367  1.00 20.00     0.226 C 
HETATM    5  C5  UNL     1     -34.330   5.962   4.643  1.00 20.00     0.158 C 
HETATM    6  C6  UNL     1     -35.820   6.028   4.331  1.00 20.00     0.078 C 
HETATM    7  C7  UNL     1     -34.080   5.872   6.142  1.00 20.00     0.078 C 
HETATM    8  O8  UNL     1     -33.764   4.803   4.014  1.00 20.00    -0.352 OA
HETATM    9  O9  UNL     1     -33.702   7.148   4.129  1.00 20.00    -0.336 OA
ENDROOT
TORSDOF 0
ENDMDL
MODEL 2
REMARK VINA RESULT:      -3.8      9.700     10.941
REMARK  0 active torsions:
REMARK  status: ('A' for Active; 'I' for Inactive)
ROOT
HETATM    1  C1  UNL     1     -39.122  11.600   4.521  1.00 20.00     0.015 C 
HETATM    2  C2  UNL     1     -39.969  12.075   5.228  1.00 20.00    -0.083 C 
HETATM    3  C3  UNL     1     -41.691  13.835   5.457  1.00 20.00     0.216 C 
HETATM    4  C4  UNL     1     -40.997  12.653   6.089  1.00 20.00     0.226 C 
HETATM    5  C5  UNL     1     -41.265  14.304   7.634  1.00 20.00     0.158 C 
HETATM    6  C6  UNL     1     -40.401  15.539   7.861  1.00 20.00     0.078 C 
HETATM    7  C7  UNL     1     -42.045  13.936   8.889  1.00 20.00     0.078 C 
HETATM    8  O8  UNL     1     -42.197  14.564   6.575  1.00 20.00    -0.352 OA
HETATM    9  O9  UNL     1     -40.410  13.208   7.270  1.00 20.00    -0.336 OA
ENDROOT
TORSDOF 0
ENDMDL
MODEL 3
REMARK VINA RESULT:      -3.7     11.872     12.965
REMARK  0 active torsions:
REMARK  status: ('A' for Active; 'I' for Inactive)
ROOT
HETATM    1  C1  UNL     1     -33.090  14.959  -4.245  1.00 20.00     0.015 C 
HETATM    2  C2  UNL     1     -33.382  15.941  -3.619  1.00 20.00    -0.083 C 
HETATM    3  C3  UNL     1     -33.070  18.383  -3.382  1.00 20.00     0.216 C 
HETATM    4  C4  UNL     1     -33.737  17.135  -2.856  1.00 20.00     0.226 C 
HETATM    5  C5  UNL     1     -32.978  18.394  -1.116  1.00 20.00     0.158 C 
HETATM    6  C6  UNL     1     -31.570  18.459  -0.538  1.00 20.00     0.078 C 
HETATM    7  C7  UNL     1     -34.018  18.830  -0.093  1.00 20.00     0.078 C 
HETATM    8  O8  UNL     1     -33.065  19.261  -2.256  1.00 20.00    -0.352 OA
HETATM    9  O9  UNL     1     -33.246  17.039  -1.515  1.00 20.00    -0.336 OA
ENDROOT
TORSDOF 0
ENDMDL
MODEL 4
REMARK VINA RESULT:      -3.7     12.257     13.116
REMARK  0 active torsions:
REMARK  status: ('A' for Active; 'I' for Inactive)
ROOT
HETATM    1  C1  UNL     1     -30.665  18.189   2.039  1.00 20.00     0.015 C 
HETATM    2  C2  UNL     1     -31.389  18.526   1.143  1.00 20.00    -0.083 C 
HETATM    3  C3  UNL     1     -33.706  18.532   0.277  1.00 20.00     0.216 C 
HETATM    4  C4  UNL     1     -32.269  18.936   0.052  1.00 20.00     0.226 C 
HETATM    5  C5  UNL     1     -33.154  18.126  -1.885  1.00 20.00     0.158 C 
HETATM    6  C6  UNL     1     -33.313  16.674  -2.319  1.00 20.00     0.078 C 
HETATM    7  C7  UNL     1     -33.128  19.064  -3.084  1.00 20.00     0.078 C 
HETATM    8  O8  UNL     1     -34.255  18.493  -1.040  1.00 20.00    -0.352 OA
HETATM    9  O9  UNL     1     -31.921  18.254  -1.158  1.00 20.00    -0.336 OA
ENDROOT
TORSDOF 0
ENDMDL
MODEL 5
REMARK VINA RESULT:      -3.6     15.551     16.512
REMARK  0 active torsions:
REMARK  status: ('A' for Active; 'I' for Inactive)
ROOT
HETATM    1  C1  UNL     1     -26.140  19.263   7.117  1.00 20.00     0.015 C 
HETATM    2  C2  UNL     1     -25.363  19.261   8.032  1.00 20.00    -0.083 C 
HETATM    3  C3  UNL     1     -23.181  18.441   8.861  1.00 20.00     0.216 C 
HETATM    4  C4  UNL     1     -24.418  19.258   9.146  1.00 20.00     0.226 C 
HETATM    5  C5  UNL     1     -23.873  18.021  10.979  1.00 20.00     0.158 C 
HETATM    6  C6  UNL     1     -24.193  16.559  11.265  1.00 20.00     0.078 C 
HETATM    7  C7  UNL     1     -23.620  18.795  12.266  1.00 20.00     0.078 C 
HETATM    8  O8  UNL     1     -22.697  18.098  10.159  1.00 20.00    -0.352 OA
HETATM    9  O9  UNL     1     -24.987  18.607  10.286  1.00 20.00    -0.336 OA
ENDROOT
TORSDOF 0
ENDMDL
MODEL 6
REMARK VINA RESULT:      -3.5     12.246     13.290
REMARK  0 active torsions:
REMARK  status: ('A' for Active; 'I' for Inactive)
ROOT
HETATM    1  C1  UNL     1     -33.470  17.252  -1.515  1.00 20.00     0.015 C 
HETATM    2  C2  UNL     1     -33.659  17.134  -2.695  1.00 20.00    -0.083 C 
HETATM    3  C3  UNL     1     -35.236  17.511  -4.563  1.00 20.00     0.216 C 
HETATM    4  C4  UNL     1     -33.887  16.989  -4.130  1.00 20.00     0.226 C 
HETATM    5  C5  UNL     1     -34.831  15.545  -5.618  1.00 20.00     0.158 C 
HETATM    6  C6  UNL     1     -35.867  14.459  -5.357  1.00 20.00     0.078 C 
HETATM    7  C7  UNL     1     -34.029  15.255  -6.880  1.00 20.00     0.078 C 
HETATM    8  O8  UNL     1     -35.495  16.807  -5.777  1.00 20.00    -0.352 OA
HETATM    9  O9  UNL     1     -33.937  15.606  -4.494  1.00 20.00    -0.336 OA
ENDROOT
TORSDOF 0
ENDMDL
MODEL 7
REMARK VINA RESULT:      -3.5     12.031     12.865
REMARK  0 active torsions:
REMARK  status: ('A' for Active; 'I' for Inactive)
ROOT
HETATM    1  C1  UNL     1     -32.906  17.490  -1.785  1.00 20.00     0.015 C 
HETATM    2  C2  UNL     1     -33.375  16.695  -2.551  1.00 20.00    -0.083 C 
HETATM    3  C3  UNL     1     -32.905  15.068  -4.354  1.00 20.00     0.216 C 
HETATM    4  C4  UNL     1     -33.947  15.728  -3.484  1.00 20.00     0.226 C 
HETATM    5  C5  UNL     1     -34.704  15.597  -5.629  1.00 20.00     0.158 C 
HETATM    6  C6  UNL     1     -34.403  16.527  -6.798  1.00 20.00     0.078 C 
HETATM    7  C7  UNL     1     -36.013  14.847  -5.839  1.00 20.00     0.078 C 
HETATM    8  O8  UNL     1     -33.643  14.639  -5.498  1.00 20.00    -0.352 OA
HETATM    9  O9  UNL     1     -34.798  16.384  -4.430  1.00 20.00    -0.336 OA
ENDROOT
TORSDOF 0
ENDMDL
MODEL 8
REMARK VINA RESULT:      -3.3      9.382     10.624
REMARK  0 active torsions:
REMARK  status: ('A' for Active; 'I' for Inactive)
ROOT
HETATM    1  C1  UNL     1     -39.059  11.575   4.103  1.00 20.00     0.015 C 
HETATM    2  C2  UNL     1     -39.678  12.305   4.827  1.00 20.00    -0.083 C 
HETATM    3  C3  UNL     1     -40.125  12.967   7.168  1.00 20.00     0.216 C 
HETATM    4  C4  UNL     1     -40.432  13.193   5.707  1.00 20.00     0.226 C 
HETATM    5  C5  UNL     1     -42.362  13.239   6.916  1.00 20.00     0.158 C 
HETATM    6  C6  UNL     1     -43.204  12.065   7.401  1.00 20.00     0.078 C 
HETATM    7  C7  UNL     1     -43.191  14.513   6.818  1.00 20.00     0.078 C 
HETATM    8  O8  UNL     1     -41.285  13.464   7.836  1.00 20.00    -0.352 OA
HETATM    9  O9  UNL     1     -41.834  12.918   5.619  1.00 20.00    -0.336 OA
ENDROOT
TORSDOF 0
ENDMDL
MODEL 9
REMARK VINA RESULT:      -3.3     10.384     11.769
REMARK  0 active torsions:
REMARK  status: ('A' for Active; 'I' for Inactive)
ROOT
HETATM    1  C1  UNL     1     -40.300  15.393  10.630  1.00 20.00     0.015 C 
HETATM    2  C2  UNL     1     -40.299  15.050   9.480  1.00 20.00    -0.083 C 
HETATM    3  C3  UNL     1     -41.370  15.314   7.266  1.00 20.00     0.216 C 
HETATM    4  C4  UNL     1     -40.298  14.632   8.081  1.00 20.00     0.226 C 
HETATM    5  C5  UNL     1     -41.298  13.119   6.702  1.00 20.00     0.158 C 
HETATM    6  C6  UNL     1     -42.606  12.366   6.912  1.00 20.00     0.078 C 
HETATM    7  C7  UNL     1     -40.386  12.385   5.729  1.00 20.00     0.078 C 
HETATM    8  O8  UNL     1     -41.580  14.422   6.172  1.00 20.00    -0.352 OA
HETATM    9  O9  UNL     1     -40.633  13.245   7.970  1.00 20.00    -0.336 OA
ENDROOT
TORSDOF 0
ENDMDL
