MODEL 1
REMARK VINA RESULT:      -3.6      0.000      0.000
REMARK  0 active torsions:
REMARK  status: ('A' for Active; 'I' for Inactive)
ROOT
HETATM    1  C1  UNL     1     -34.072   4.842   4.492  1.00 20.00     0.282 C 
HETATM    2  C2  UNL     1     -32.766   6.767   3.769  1.00 20.00     0.286 C 
HETATM    3  C3  UNL     1     -34.925   5.609   5.496  1.00 20.00     0.104 C 
HETATM    4  C4  UNL     1     -33.458   7.781   4.691  1.00 20.00     0.071 C 
HETATM    5  C5  UNL     1     -32.519   8.933   5.039  1.00 20.00     0.023 C 
HETATM    6  C6  UNL     1     -32.995   4.843   2.341  1.00 20.00     0.310 C 
HETATM    7  N7  UNL     1     -33.657   5.673   3.351  1.00 20.00     0.086 N 
HETATM    8  S8  UNL     1     -34.005   6.984   6.238  1.00 20.00    -0.161 SA
ENDROOT
TORSDOF 0
ENDMDL
MODEL 2
REMARK VINA RESULT:      -3.4      1.708      3.400
REMARK  0 active torsions:
REMARK  status: ('A' for Active; 'I' for Inactive)
ROOT
HETATM    1  C1  UNL     1     -32.179   7.288   3.318  1.00 20.00     0.282 C 
HETATM    2  C2  UNL     1     -33.446   7.269   5.399  1.00 20.00     0.286 C 
HETATM    3  C3  UNL     1     -32.986   6.184   2.642  1.00 20.00     0.104 C 
HETATM    4  C4  UNL     1     -34.415   6.153   4.981  1.00 20.00     0.071 C 
HETATM    5  C5  UNL     1     -34.923   5.387   6.199  1.00 20.00     0.023 C 
HETATM    6  C6  UNL     1     -32.208   9.226   4.742  1.00 20.00     0.310 C 
HETATM    7  N7  UNL     1     -32.984   8.079   4.260  1.00 20.00     0.086 N 
HETATM    8  S8  UNL     1     -33.604   4.978   3.846  1.00 20.00    -0.161 SA
ENDROOT
TORSDOF 0
ENDMDL
MODEL 3
REMARK VINA RESULT:      -3.3      1.540      3.148
REMARK  0 active torsions:
REMARK  status: ('A' for Active; 'I' for Inactive)
ROOT
HETATM    1  C1  UNL     1     -33.944   7.753   5.759  1.00 20.00     0.282 C 
HETATM    2  C2  UNL     1     -32.826   7.153   3.680  1.00 20.00     0.286 C 
HETATM    3  C3  UNL     1     -34.362   6.331   6.120  1.00 20.00     0.104 C 
HETATM    4  C4  UNL     1     -33.109   5.647   3.780  1.00 20.00     0.071 C 
HETATM    5  C5  UNL     1     -33.172   5.010   2.395  1.00 20.00     0.023 C 
HETATM    6  C6  UNL     1     -32.249   9.185   4.832  1.00 20.00     0.310 C 
HETATM    7  N7  UNL     1     -32.688   7.797   4.996  1.00 20.00     0.086 N 
HETATM    8  S8  UNL     1     -34.687   5.338   4.640  1.00 20.00    -0.161 SA
ENDROOT
TORSDOF 0
ENDMDL
MODEL 4
REMARK VINA RESULT:      -3.3     16.375     17.099
REMARK  0 active torsions:
REMARK  status: ('A' for Active; 'I' for Inactive)
ROOT
HETATM    1  C1  UNL     1     -23.368  17.796  12.252  1.00 20.00     0.282 C 
HETATM    2  C2  UNL     1     -24.557  18.398  10.213  1.00 20.00     0.286 C 
HETATM    3  C3  UNL     1     -22.060  18.481  11.869  1.00 20.00     0.104 C 
HETATM    4  C4  UNL     1     -23.389  19.160   9.570  1.00 20.00     0.071 C 
HETATM    5  C5  UNL     1     -23.484  19.120   8.048  1.00 20.00     0.023 C 
HETATM    6  C6  UNL     1     -25.771  17.875  12.224  1.00 20.00     0.310 C 
HETATM    7  N7  UNL     1     -24.545  18.468  11.683  1.00 20.00     0.086 N 
HETATM    8  S8  UNL     1     -21.790  18.446  10.078  1.00 20.00    -0.161 SA
ENDROOT
TORSDOF 0
ENDMDL
MODEL 5
REMARK VINA RESULT:      -3.1     16.328     16.884
REMARK  0 active torsions:
REMARK  status: ('A' for Active; 'I' for Inactive)
ROOT
HETATM    1  C1  UNL     1     -22.464  19.229   9.254  1.00 20.00     0.282 C 
HETATM    2  C2  UNL     1     -24.668  18.549  10.039  1.00 20.00     0.286 C 
HETATM    3  C3  UNL     1     -21.684  18.459  10.315  1.00 20.00     0.104 C 
HETATM    4  C4  UNL     1     -24.159  17.691  11.207  1.00 20.00     0.071 C 
HETATM    5  C5  UNL     1     -25.190  17.634  12.331  1.00 20.00     0.023 C 
HETATM    6  C6  UNL     1     -24.350  19.261   7.762  1.00 20.00     0.310 C 
HETATM    7  N7  UNL     1     -23.733  18.576   8.902  1.00 20.00     0.086 N 
HETATM    8  S8  UNL     1     -22.600  18.362  11.875  1.00 20.00    -0.161 SA
ENDROOT
TORSDOF 0
ENDMDL
MODEL 6
REMARK VINA RESULT:      -3.0     16.468     17.227
REMARK  0 active torsions:
REMARK  status: ('A' for Active; 'I' for Inactive)
ROOT
HETATM    1  C1  UNL     1     -25.099  19.218   9.912  1.00 20.00     0.282 C 
HETATM    2  C2  UNL     1     -23.968  18.847  12.038  1.00 20.00     0.286 C 
HETATM    3  C3  UNL     1     -23.993  18.620   9.049  1.00 20.00     0.104 C 
HETATM    4  C4  UNL     1     -22.712  18.202  11.436  1.00 20.00     0.071 C 
HETATM    5  C5  UNL     1     -21.498  18.431  12.332  1.00 20.00     0.023 C 
HETATM    6  C6  UNL     1     -26.362  19.082  11.955  1.00 20.00     0.310 C 
HETATM    7  N7  UNL     1     -25.179  18.593  11.241  1.00 20.00     0.086 N 
HETATM    8  S8  UNL     1     -22.358  18.887   9.783  1.00 20.00    -0.161 SA
ENDROOT
TORSDOF 0
ENDMDL
MODEL 7
REMARK VINA RESULT:      -3.0      1.687      2.562
REMARK  0 active torsions:
REMARK  status: ('A' for Active; 'I' for Inactive)
ROOT
HETATM    1  C1  UNL     1     -34.093   5.393   3.857  1.00 20.00     0.282 C 
HETATM    2  C2  UNL     1     -33.686   7.314   5.299  1.00 20.00     0.286 C 
HETATM    3  C3  UNL     1     -32.886   5.627   2.953  1.00 20.00     0.104 C 
HETATM    4  C4  UNL     1     -32.423   7.793   4.568  1.00 20.00     0.071 C 
HETATM    5  C5  UNL     1     -32.241   9.300   4.723  1.00 20.00     0.023 C 
HETATM    6  C6  UNL     1     -34.981   5.447   6.091  1.00 20.00     0.310 C 
HETATM    7  N7  UNL     1     -33.864   5.855   5.235  1.00 20.00     0.086 N 
HETATM    8  S8  UNL     1     -32.509   7.392   2.791  1.00 20.00    -0.161 SA
ENDROOT
TORSDOF 0
ENDMDL
MODEL 8
REMARK VINA RESULT:      -2.9      1.130      2.526
REMARK  0 active torsions:
REMARK  status: ('A' for Active; 'I' for Inactive)
ROOT
HETATM    1  C1  UNL     1     -32.533   7.243   2.905  1.00 20.00     0.282 C 
HETATM    2  C2  UNL     1     -33.923   5.681   4.155  1.00 20.00     0.286 C 
HETATM    3  C3  UNL     1     -32.155   8.102   4.107  1.00 20.00     0.104 C 
HETATM    4  C4  UNL     1     -33.720   6.351   5.522  1.00 20.00     0.071 C 
HETATM    5  C5  UNL     1     -34.918   6.104   6.434  1.00 20.00     0.023 C 
HETATM    6  C6  UNL     1     -32.947   5.031   2.054  1.00 20.00     0.310 C 
HETATM    7  N7  UNL     1     -32.762   5.835   3.265  1.00 20.00     0.086 N 
HETATM    8  S8  UNL     1     -33.487   8.151   5.335  1.00 20.00    -0.161 SA
ENDROOT
TORSDOF 0
ENDMDL
MODEL 9
REMARK VINA RESULT:      -2.9      1.656      3.409
REMARK  0 active torsions:
REMARK  status: ('A' for Active; 'I' for Inactive)
ROOT
HETATM    1  C1  UNL     1     -33.508   7.441   5.724  1.00 20.00     0.282 C 
HETATM    2  C2  UNL     1     -33.790   5.381   4.454  1.00 20.00     0.286 C 
HETATM    3  C3  UNL     1     -33.143   8.307   4.523  1.00 20.00     0.104 C 
HETATM    4  C4  UNL     1     -33.455   5.994   3.086  1.00 20.00     0.071 C 
HETATM    5  C5  UNL     1     -32.870   4.943   2.146  1.00 20.00     0.023 C 
HETATM    6  C6  UNL     1     -34.873   5.657   6.586  1.00 20.00     0.310 C 
HETATM    7  N7  UNL     1     -34.421   6.343   5.372  1.00 20.00     0.086 N 
HETATM    8  S8  UNL     1     -32.256   7.356   3.261  1.00 20.00    -0.161 SA
ENDROOT
TORSDOF 0
ENDMDL
