MODEL 1
REMARK VINA RESULT:      -3.5      0.000      0.000
REMARK  1 active torsions:
REMARK  status: ('A' for Active; 'I' for Inactive)
REMARK    1  A    between atoms: C2_2  and  C5_5 
ROOT
HETATM    1  C1  UNL     1     -33.195   7.614   4.105  1.00 20.00     0.153 A 
HETATM    2  C2  UNL     1     -34.104   6.838   5.040  1.00 20.00     0.096 A 
HETATM    3  C3  UNL     1     -32.022   8.402   4.569  1.00 20.00     0.042 C 
HETATM    4  C4  UNL     1     -33.868   6.818   6.517  1.00 20.00     0.050 C 
HETATM    5  O6  UNL     1     -34.467   8.128   4.522  1.00 20.00    -0.369 OA
ENDROOT
BRANCH   2   6
HETATM    6  C5  UNL     1     -34.916   5.713   4.479  1.00 20.00     0.154 C 
HETATM    7 CL7  UNL     1     -33.973   4.201   4.438  1.00 20.00    -0.127 Cl
ENDBRANCH   2   6
TORSDOF 1
ENDMDL
MODEL 2
REMARK VINA RESULT:      -3.5      2.034      3.062
REMARK  1 active torsions:
REMARK  status: ('A' for Active; 'I' for Inactive)
REMARK    1  A    between atoms: C2_2  and  C5_5 
ROOT
HETATM    1  C1  UNL     1     -33.762   6.998   5.715  1.00 20.00     0.153 A 
HETATM    2  C2  UNL     1     -33.309   6.889   4.270  1.00 20.00     0.096 A 
HETATM    3  C3  UNL     1     -34.434   5.893   6.448  1.00 20.00     0.042 C 
HETATM    4  C4  UNL     1     -33.513   5.635   3.482  1.00 20.00     0.050 C 
HETATM    5  O6  UNL     1     -34.527   7.556   4.638  1.00 20.00    -0.369 OA
ENDROOT
BRANCH   2   6
HETATM    6  C5  UNL     1     -32.238   7.815   3.784  1.00 20.00     0.154 C 
HETATM    7 CL7  UNL     1     -32.146   7.809   2.004  1.00 20.00    -0.127 Cl
ENDBRANCH   2   6
TORSDOF 1
ENDMDL
MODEL 3
REMARK VINA RESULT:      -3.5      1.601      1.907
REMARK  1 active torsions:
REMARK  status: ('A' for Active; 'I' for Inactive)
REMARK    1  A    between atoms: C2_2  and  C5_5 
ROOT
HETATM    1  C1  UNL     1     -33.550   8.051   4.452  1.00 20.00     0.153 A 
HETATM    2  C2  UNL     1     -33.763   6.557   4.286  1.00 20.00     0.096 A 
HETATM    3  C3  UNL     1     -32.618   8.844   3.607  1.00 20.00     0.042 C 
HETATM    4  C4  UNL     1     -33.034   5.778   3.237  1.00 20.00     0.050 C 
HETATM    5  O6  UNL     1     -32.914   7.096   5.312  1.00 20.00    -0.369 OA
ENDROOT
BRANCH   2   6
HETATM    6  C5  UNL     1     -35.029   5.952   4.807  1.00 20.00     0.154 C 
HETATM    7 CL7  UNL     1     -34.800   5.305   6.452  1.00 20.00    -0.127 Cl
ENDBRANCH   2   6
TORSDOF 1
ENDMDL
MODEL 4
REMARK VINA RESULT:      -3.4      2.823      3.132
REMARK  1 active torsions:
REMARK  status: ('A' for Active; 'I' for Inactive)
REMARK    1  A    between atoms: C2_2  and  C5_5 
ROOT
HETATM    1  C1  UNL     1     -33.278   5.047   4.043  1.00 20.00     0.153 A 
HETATM    2  C2  UNL     1     -34.543   5.382   4.812  1.00 20.00     0.096 A 
HETATM    3  C3  UNL     1     -33.121   5.282   2.582  1.00 20.00     0.042 C 
HETATM    4  C4  UNL     1     -35.732   5.983   4.133  1.00 20.00     0.050 C 
HETATM    5  O6  UNL     1     -34.241   4.042   4.388  1.00 20.00    -0.369 OA
ENDROOT
BRANCH   2   6
HETATM    6  C5  UNL     1     -34.449   5.581   6.292  1.00 20.00     0.154 C 
HETATM    7 CL7  UNL     1     -34.140   7.291   6.690  1.00 20.00    -0.127 Cl
ENDBRANCH   2   6
TORSDOF 1
ENDMDL
MODEL 5
REMARK VINA RESULT:      -3.1      9.471     10.365
REMARK  1 active torsions:
REMARK  status: ('A' for Active; 'I' for Inactive)
REMARK    1  A    between atoms: C2_2  and  C5_5 
ROOT
HETATM    1  C1  UNL     1     -43.355   5.657   0.395  1.00 20.00     0.153 A 
HETATM    2  C2  UNL     1     -42.218   6.344  -0.339  1.00 20.00     0.096 A 
HETATM    3  C3  UNL     1     -43.219   4.335   1.063  1.00 20.00     0.042 C 
HETATM    4  C4  UNL     1     -40.862   5.719  -0.435  1.00 20.00     0.050 C 
HETATM    5  O6  UNL     1     -43.247   5.622  -1.034  1.00 20.00    -0.369 OA
ENDROOT
BRANCH   2   6
HETATM    6  C5  UNL     1     -42.284   7.826  -0.535  1.00 20.00     0.154 C 
HETATM    7 CL7  UNL     1     -40.774   8.610  -0.003  1.00 20.00    -0.127 Cl
ENDBRANCH   2   6
TORSDOF 1
ENDMDL
MODEL 6
REMARK VINA RESULT:      -3.1      2.353      3.339
REMARK  1 active torsions:
REMARK  status: ('A' for Active; 'I' for Inactive)
REMARK    1  A    between atoms: C2_2  and  C5_5 
ROOT
HETATM    1  C1  UNL     1     -34.343   5.599   5.190  1.00 20.00     0.153 A 
HETATM    2  C2  UNL     1     -33.738   6.853   4.584  1.00 20.00     0.096 A 
HETATM    3  C3  UNL     1     -34.116   4.234   4.644  1.00 20.00     0.042 C 
HETATM    4  C4  UNL     1     -32.858   6.788   3.377  1.00 20.00     0.050 C 
HETATM    5  O6  UNL     1     -35.101   6.468   4.338  1.00 20.00    -0.369 OA
ENDROOT
BRANCH   2   6
HETATM    6  C5  UNL     1     -33.602   8.069   5.445  1.00 20.00     0.154 C 
HETATM    7 CL7  UNL     1     -32.246   9.091   4.899  1.00 20.00    -0.127 Cl
ENDBRANCH   2   6
TORSDOF 1
ENDMDL
MODEL 7
REMARK VINA RESULT:      -3.0      9.504      9.761
REMARK  1 active torsions:
REMARK  status: ('A' for Active; 'I' for Inactive)
REMARK    1  A    between atoms: C2_2  and  C5_5 
ROOT
HETATM    1  C1  UNL     1     -39.383  12.281   5.749  1.00 20.00     0.153 A 
HETATM    2  C2  UNL     1     -40.513  13.226   6.117  1.00 20.00     0.096 A 
HETATM    3  C3  UNL     1     -39.134  11.802   4.363  1.00 20.00     0.042 C 
HETATM    4  C4  UNL     1     -41.463  13.744   5.085  1.00 20.00     0.050 C 
HETATM    5  O6  UNL     1     -40.602  11.808   6.338  1.00 20.00    -0.369 OA
ENDROOT
BRANCH   2   6
HETATM    6  C5  UNL     1     -40.395  14.025   7.377  1.00 20.00     0.154 C 
HETATM    7 CL7  UNL     1     -41.090  15.653   7.169  1.00 20.00    -0.127 Cl
ENDBRANCH   2   6
TORSDOF 1
ENDMDL
MODEL 8
REMARK VINA RESULT:      -3.0     15.930     16.677
REMARK  1 active torsions:
REMARK  status: ('A' for Active; 'I' for Inactive)
REMARK    1  A    between atoms: C2_2  and  C5_5 
ROOT
HETATM    1  C1  UNL     1     -24.635  18.076  11.015  1.00 20.00     0.153 A 
HETATM    2  C2  UNL     1     -23.137  18.319  11.043  1.00 20.00     0.096 A 
HETATM    3  C3  UNL     1     -25.477  18.005  12.240  1.00 20.00     0.042 C 
HETATM    4  C4  UNL     1     -22.402  18.509  12.332  1.00 20.00     0.050 C 
HETATM    5  O6  UNL     1     -23.692  17.005  10.872  1.00 20.00    -0.369 OA
ENDROOT
BRANCH   2   6
HETATM    6  C5  UNL     1     -22.477  18.859   9.813  1.00 20.00     0.154 C 
HETATM    7 CL7  UNL     1     -21.938  17.539   8.744  1.00 20.00    -0.127 Cl
ENDBRANCH   2   6
TORSDOF 1
ENDMDL
MODEL 9
REMARK VINA RESULT:      -3.0     15.488     16.093
REMARK  1 active torsions:
REMARK  status: ('A' for Active; 'I' for Inactive)
REMARK    1  A    between atoms: C2_2  and  C5_5 
ROOT
HETATM    1  C1  UNL     1     -23.761  17.125  10.795  1.00 20.00     0.153 A 
HETATM    2  C2  UNL     1     -24.292  18.505  10.452  1.00 20.00     0.096 A 
HETATM    3  C3  UNL     1     -24.418  16.213  11.769  1.00 20.00     0.042 C 
HETATM    4  C4  UNL     1     -25.537  19.040  11.086  1.00 20.00     0.050 C 
HETATM    5  O6  UNL     1     -23.203  18.315  11.369  1.00 20.00    -0.369 OA
ENDROOT
BRANCH   2   6
HETATM    6  C5  UNL     1     -23.885  19.127   9.153  1.00 20.00     0.154 C 
HETATM    7 CL7  UNL     1     -25.275  19.263   8.044  1.00 20.00    -0.127 Cl
ENDBRANCH   2   6
TORSDOF 1
ENDMDL
