MODEL 1
REMARK VINA RESULT:      -4.2      0.000      0.000
REMARK  3 active torsions:
REMARK  status: ('A' for Active; 'I' for Inactive)
REMARK    1  A    between atoms: C1_1  and  C4_4 
REMARK    2  A    between atoms: C2_2  and  C5_5 
REMARK    3  A    between atoms: C2_2  and  O9_9 
ROOT
HETATM    1  C3  UNL     1     -32.355   8.956   4.930  1.00 20.00     0.028 A 
HETATM    2  C4  UNL     1     -32.785   8.305   3.644  1.00 20.00     0.061 A 
HETATM    3  C5  UNL     1     -33.695   8.280   4.849  1.00 20.00     0.097 A 
ENDROOT
BRANCH   3   4
HETATM    4  C2  UNL     1     -33.918   7.035   5.595  1.00 20.00     0.263 C 
HETATM    5  O8  UNL     1     -33.305   6.723   6.606  1.00 20.00    -0.265 OA
BRANCH   4   6
HETATM    6  O9  UNL     1     -34.896   6.307   4.985  1.00 20.00    -0.326 OA
HETATM    7  C6  UNL     1     -34.657   4.898   4.908  1.00 20.00     0.213 C 
ENDBRANCH   4   6
ENDBRANCH   3   4
BRANCH   2   8
HETATM    8  C1  UNL     1     -32.102   7.087   3.193  1.00 20.00     0.236 C 
HETATM    9  O7  UNL     1     -32.611   6.268   2.436  1.00 20.00    -0.306 OA
ENDBRANCH   2   8
TORSDOF 3
ENDMDL
MODEL 2
REMARK VINA RESULT:      -4.1      1.780      2.890
REMARK  3 active torsions:
REMARK  status: ('A' for Active; 'I' for Inactive)
REMARK    1  A    between atoms: C1_1  and  C4_4 
REMARK    2  A    between atoms: C2_2  and  C5_5 
REMARK    3  A    between atoms: C2_2  and  O9_9 
ROOT
HETATM    1  C3  UNL     1     -33.384   5.940   6.585  1.00 20.00     0.028 A 
HETATM    2  C4  UNL     1     -34.028   7.277   6.340  1.00 20.00     0.061 A 
HETATM    3  C5  UNL     1     -34.792   6.005   6.061  1.00 20.00     0.097 A 
ENDROOT
BRANCH   3   4
HETATM    4  C2  UNL     1     -35.066   5.580   4.682  1.00 20.00     0.263 C 
HETATM    5  O8  UNL     1     -36.031   5.951   4.030  1.00 20.00    -0.265 OA
BRANCH   4   6
HETATM    6  O9  UNL     1     -34.088   4.726   4.267  1.00 20.00    -0.326 OA
HETATM    7  C6  UNL     1     -33.387   5.122   3.083  1.00 20.00     0.213 C 
ENDBRANCH   4   6
ENDBRANCH   3   4
BRANCH   2   8
HETATM    8  C1  UNL     1     -33.540   8.116   5.239  1.00 20.00     0.236 C 
HETATM    9  O7  UNL     1     -32.366   8.157   4.888  1.00 20.00    -0.306 OA
ENDBRANCH   2   8
TORSDOF 3
ENDMDL
MODEL 3
REMARK VINA RESULT:      -4.0      1.624      3.188
REMARK  3 active torsions:
REMARK  status: ('A' for Active; 'I' for Inactive)
REMARK    1  A    between atoms: C1_1  and  C4_4 
REMARK    2  A    between atoms: C2_2  and  C5_5 
REMARK    3  A    between atoms: C2_2  and  O9_9 
ROOT
HETATM    1  C3  UNL     1     -34.756   6.607   6.801  1.00 20.00     0.028 A 
HETATM    2  C4  UNL     1     -34.010   5.532   6.060  1.00 20.00     0.061 A 
HETATM    3  C5  UNL     1     -33.432   6.923   6.163  1.00 20.00     0.097 A 
ENDROOT
BRANCH   3   4
HETATM    4  C2  UNL     1     -33.392   7.808   4.991  1.00 20.00     0.263 C 
HETATM    5  O8  UNL     1     -34.330   8.503   4.626  1.00 20.00    -0.265 OA
BRANCH   4   6
HETATM    6  O9  UNL     1     -32.168   7.723   4.398  1.00 20.00    -0.326 OA
HETATM    7  C6  UNL     1     -32.179   7.354   3.015  1.00 20.00     0.213 C 
ENDBRANCH   4   6
ENDBRANCH   3   4
BRANCH   2   8
HETATM    8  C1  UNL     1     -34.546   5.033   4.788  1.00 20.00     0.236 C 
HETATM    9  O7  UNL     1     -34.111   4.040   4.214  1.00 20.00    -0.306 OA
ENDBRANCH   2   8
TORSDOF 3
ENDMDL
MODEL 4
REMARK VINA RESULT:      -3.9      1.220      2.833
REMARK  3 active torsions:
REMARK  status: ('A' for Active; 'I' for Inactive)
REMARK    1  A    between atoms: C1_1  and  C4_4 
REMARK    2  A    between atoms: C2_2  and  C5_5 
REMARK    3  A    between atoms: C2_2  and  O9_9 
ROOT
HETATM    1  C3  UNL     1     -35.589   6.028   4.268  1.00 20.00     0.028 A 
HETATM    2  C4  UNL     1     -34.642   4.907   4.594  1.00 20.00     0.061 A 
HETATM    3  C5  UNL     1     -34.873   6.017   5.590  1.00 20.00     0.097 A 
ENDROOT
BRANCH   3   4
HETATM    4  C2  UNL     1     -33.833   7.020   5.852  1.00 20.00     0.263 C 
HETATM    5  O8  UNL     1     -33.053   6.969   6.793  1.00 20.00    -0.265 OA
BRANCH   4   6
HETATM    6  O9  UNL     1     -33.885   7.990   4.895  1.00 20.00    -0.326 OA
HETATM    7  C6  UNL     1     -32.617   8.431   4.398  1.00 20.00     0.213 C 
ENDBRANCH   4   6
ENDBRANCH   3   4
BRANCH   2   8
HETATM    8  C1  UNL     1     -33.373   4.805   3.864  1.00 20.00     0.236 C 
HETATM    9  O7  UNL     1     -33.212   5.232   2.725  1.00 20.00    -0.306 OA
ENDBRANCH   2   8
TORSDOF 3
ENDMDL
MODEL 5
REMARK VINA RESULT:      -3.8      1.412      3.383
REMARK  3 active torsions:
REMARK  status: ('A' for Active; 'I' for Inactive)
REMARK    1  A    between atoms: C1_1  and  C4_4 
REMARK    2  A    between atoms: C2_2  and  C5_5 
REMARK    3  A    between atoms: C2_2  and  O9_9 
ROOT
HETATM    1  C3  UNL     1     -34.080   8.298   5.551  1.00 20.00     0.028 A 
HETATM    2  C4  UNL     1     -33.988   6.800   5.637  1.00 20.00     0.061 A 
HETATM    3  C5  UNL     1     -32.855   7.596   5.034  1.00 20.00     0.097 A 
ENDROOT
BRANCH   3   4
HETATM    4  C2  UNL     1     -32.602   7.565   3.588  1.00 20.00     0.263 C 
HETATM    5  O8  UNL     1     -32.340   6.549   2.960  1.00 20.00    -0.265 OA
BRANCH   4   6
HETATM    6  O9  UNL     1     -32.704   8.826   3.081  1.00 20.00    -0.326 OA
HETATM    7  C6  UNL     1     -32.618   8.925   1.656  1.00 20.00     0.213 C 
ENDBRANCH   4   6
ENDBRANCH   3   4
BRANCH   2   8
HETATM    8  C1  UNL     1     -34.861   5.978   4.791  1.00 20.00     0.236 C 
HETATM    9  O7  UNL     1     -34.851   4.752   4.798  1.00 20.00    -0.306 OA
ENDBRANCH   2   8
TORSDOF 3
ENDMDL
MODEL 6
REMARK VINA RESULT:      -3.6      0.876      1.382
REMARK  3 active torsions:
REMARK  status: ('A' for Active; 'I' for Inactive)
REMARK    1  A    between atoms: C1_1  and  C4_4 
REMARK    2  A    between atoms: C2_2  and  C5_5 
REMARK    3  A    between atoms: C2_2  and  O9_9 
ROOT
HETATM    1  C3  UNL     1     -32.483   8.659   5.272  1.00 20.00     0.028 A 
HETATM    2  C4  UNL     1     -32.737   8.521   3.797  1.00 20.00     0.061 A 
HETATM    3  C5  UNL     1     -33.849   8.261   4.785  1.00 20.00     0.097 A 
ENDROOT
BRANCH   3   4
HETATM    4  C2  UNL     1     -34.330   6.896   5.031  1.00 20.00     0.263 C 
HETATM    5  O8  UNL     1     -35.031   6.266   4.252  1.00 20.00    -0.265 OA
BRANCH   4   6
HETATM    6  O9  UNL     1     -33.876   6.465   6.242  1.00 20.00    -0.326 OA
HETATM    7  C6  UNL     1     -34.264   5.136   6.606  1.00 20.00     0.213 C 
ENDBRANCH   4   6
ENDBRANCH   3   4
BRANCH   2   8
HETATM    8  C1  UNL     1     -32.112   7.415   3.061  1.00 20.00     0.236 C 
HETATM    9  O7  UNL     1     -32.098   7.340   1.837  1.00 20.00    -0.306 OA
ENDBRANCH   2   8
TORSDOF 3
ENDMDL
MODEL 7
REMARK VINA RESULT:      -3.5      1.296      3.780
REMARK  3 active torsions:
REMARK  status: ('A' for Active; 'I' for Inactive)
REMARK    1  A    between atoms: C1_1  and  C4_4 
REMARK    2  A    between atoms: C2_2  and  C5_5 
REMARK    3  A    between atoms: C2_2  and  O9_9 
ROOT
HETATM    1  C3  UNL     1     -34.178   4.579   4.343  1.00 20.00     0.028 A 
HETATM    2  C4  UNL     1     -34.864   5.571   5.242  1.00 20.00     0.061 A 
HETATM    3  C5  UNL     1     -34.401   5.988   3.866  1.00 20.00     0.097 A 
ENDROOT
BRANCH   3   4
HETATM    4  C2  UNL     1     -33.248   6.881   3.701  1.00 20.00     0.263 C 
HETATM    5  O8  UNL     1     -32.206   6.560   3.146  1.00 20.00    -0.265 OA
BRANCH   4   6
HETATM    6  O9  UNL     1     -33.529   8.095   4.256  1.00 20.00    -0.326 OA
HETATM    7  C6  UNL     1     -32.399   8.818   4.756  1.00 20.00     0.213 C 
ENDBRANCH   4   6
ENDBRANCH   3   4
BRANCH   2   8
HETATM    8  C1  UNL     1     -34.170   6.049   6.444  1.00 20.00     0.236 C 
HETATM    9  O7  UNL     1     -34.488   7.068   7.048  1.00 20.00    -0.306 OA
ENDBRANCH   2   8
TORSDOF 3
ENDMDL
MODEL 8
REMARK VINA RESULT:      -3.5      9.071     10.019
REMARK  3 active torsions:
REMARK  status: ('A' for Active; 'I' for Inactive)
REMARK    1  A    between atoms: C1_1  and  C4_4 
REMARK    2  A    between atoms: C2_2  and  C5_5 
REMARK    3  A    between atoms: C2_2  and  O9_9 
ROOT
HETATM    1  C3  UNL     1     -41.037  13.402   5.301  1.00 20.00     0.028 A 
HETATM    2  C4  UNL     1     -40.455  12.169   5.937  1.00 20.00     0.061 A 
HETATM    3  C5  UNL     1     -41.248  13.149   6.768  1.00 20.00     0.097 A 
ENDROOT
BRANCH   3   4
HETATM    4  C2  UNL     1     -40.579  14.013   7.749  1.00 20.00     0.263 C 
HETATM    5  O8  UNL     1     -40.287  13.664   8.884  1.00 20.00    -0.265 OA
BRANCH   4   6
HETATM    6  O9  UNL     1     -40.348  15.237   7.195  1.00 20.00    -0.326 OA
HETATM    7  C6  UNL     1     -40.618  16.358   8.044  1.00 20.00     0.213 C 
ENDBRANCH   4   6
ENDBRANCH   3   4
BRANCH   2   8
HETATM    8  C1  UNL     1     -39.000  12.059   6.089  1.00 20.00     0.236 C 
HETATM    9  O7  UNL     1     -38.214  12.131   5.150  1.00 20.00    -0.306 OA
ENDBRANCH   2   8
TORSDOF 3
ENDMDL
MODEL 9
REMARK VINA RESULT:      -3.5      8.792      9.963
REMARK  3 active torsions:
REMARK  status: ('A' for Active; 'I' for Inactive)
REMARK    1  A    between atoms: C1_1  and  C4_4 
REMARK    2  A    between atoms: C2_2  and  C5_5 
REMARK    3  A    between atoms: C2_2  and  O9_9 
ROOT
HETATM    1  C3  UNL     1     -41.808  13.881   5.274  1.00 20.00     0.028 A 
HETATM    2  C4  UNL     1     -42.091  13.545   6.712  1.00 20.00     0.061 A 
HETATM    3  C5  UNL     1     -40.667  13.620   6.218  1.00 20.00     0.097 A 
ENDROOT
BRANCH   3   4
HETATM    4  C2  UNL     1     -39.864  12.401   6.055  1.00 20.00     0.263 C 
HETATM    5  O8  UNL     1     -39.158  11.923   6.932  1.00 20.00    -0.265 OA
BRANCH   4   6
HETATM    6  O9  UNL     1     -40.035  11.909   4.795  1.00 20.00    -0.326 OA
HETATM    7  C6  UNL     1     -38.831  11.692   4.051  1.00 20.00     0.213 C 
ENDBRANCH   4   6
ENDBRANCH   3   4
BRANCH   2   8
HETATM    8  C1  UNL     1     -42.706  12.254   7.039  1.00 20.00     0.236 C 
HETATM    9  O7  UNL     1     -43.106  11.960   8.161  1.00 20.00    -0.306 OA
ENDBRANCH   2   8
TORSDOF 3
ENDMDL
