MODEL 1
REMARK VINA RESULT:      -3.7      0.000      0.000
REMARK  2 active torsions:
REMARK  status: ('A' for Active; 'I' for Inactive)
REMARK       I    between atoms: C1_1  and  N6_6 
REMARK    1  A    between atoms: C4_4  and  C5_5 
REMARK    2  A    between atoms: C5_5  and  N6_6 
ROOT
HETATM    1  C1  UNL     1     -34.230   5.392   4.969  1.00 20.00     0.316 C 
HETATM    2  C3  UNL     1     -33.526   7.818   5.085  1.00 20.00     0.154 C 
HETATM    3  N6  UNL     1     -33.581   6.521   4.398  1.00 20.00    -0.343 N 
HETATM    4  O7  UNL     1     -34.282   4.299   4.402  1.00 20.00    -0.254 OA
HETATM    5 CL8  UNL     1     -34.959   5.626   6.549  1.00 20.00    -0.020 Cl
ENDROOT
BRANCH   3   6
HETATM    6  C5  UNL     1     -32.938   6.460   3.115  1.00 20.00     0.126 C 
BRANCH   6   7
HETATM    7  C4  UNL     1     -32.096   7.697   2.826  1.00 20.00     0.015 C 
HETATM    8  C2  UNL     1     -32.167   8.130   1.369  1.00 20.00     0.006 C 
ENDBRANCH   6   7
ENDBRANCH   3   6
TORSDOF 2
ENDMDL
MODEL 2
REMARK VINA RESULT:      -3.6     12.486     12.760
REMARK  2 active torsions:
REMARK  status: ('A' for Active; 'I' for Inactive)
REMARK       I    between atoms: C1_1  and  N6_6 
REMARK    1  A    between atoms: C4_4  and  C5_5 
REMARK    2  A    between atoms: C5_5  and  N6_6 
ROOT
HETATM    1  C1  UNL     1     -31.492  18.539   0.286  1.00 20.00     0.316 C 
HETATM    2  C3  UNL     1     -33.985  18.272   0.622  1.00 20.00     0.154 C 
HETATM    3  N6  UNL     1     -32.798  18.339  -0.242  1.00 20.00    -0.343 N 
HETATM    4  O7  UNL     1     -30.490  18.598  -0.428  1.00 20.00    -0.254 OA
HETATM    5 CL8  UNL     1     -31.372  18.710   2.029  1.00 20.00    -0.020 Cl
ENDROOT
BRANCH   3   6
HETATM    6  C5  UNL     1     -33.034  18.193  -1.651  1.00 20.00     0.126 C 
BRANCH   6   7
HETATM    7  C4  UNL     1     -33.511  16.794  -2.020  1.00 20.00     0.015 C 
HETATM    8  C2  UNL     1     -33.248  16.447  -3.477  1.00 20.00     0.006 C 
ENDBRANCH   6   7
ENDBRANCH   3   6
TORSDOF 2
ENDMDL
MODEL 3
REMARK VINA RESULT:      -3.6      2.722      4.024
REMARK  2 active torsions:
REMARK  status: ('A' for Active; 'I' for Inactive)
REMARK       I    between atoms: C1_1  and  N6_6 
REMARK    1  A    between atoms: C4_4  and  C5_5 
REMARK    2  A    between atoms: C5_5  and  N6_6 
ROOT
HETATM    1  C1  UNL     1     -33.077   7.641   4.270  1.00 20.00     0.316 C 
HETATM    2  C3  UNL     1     -32.946   5.557   2.843  1.00 20.00     0.154 C 
HETATM    3  N6  UNL     1     -33.638   6.416   3.813  1.00 20.00    -0.343 N 
HETATM    4  O7  UNL     1     -33.648   8.370   5.083  1.00 20.00    -0.254 OA
HETATM    5 CL8  UNL     1     -31.504   8.071   3.619  1.00 20.00    -0.020 Cl
ENDROOT
BRANCH   3   6
HETATM    6  C5  UNL     1     -34.915   5.946   4.275  1.00 20.00     0.126 C 
BRANCH   6   7
HETATM    7  C4  UNL     1     -34.785   4.854   5.331  1.00 20.00     0.015 C 
HETATM    8  C2  UNL     1     -34.396   5.400   6.696  1.00 20.00     0.006 C 
ENDBRANCH   6   7
ENDBRANCH   3   6
TORSDOF 2
ENDMDL
MODEL 4
REMARK VINA RESULT:      -3.5      2.592      3.800
REMARK  2 active torsions:
REMARK  status: ('A' for Active; 'I' for Inactive)
REMARK       I    between atoms: C1_1  and  N6_6 
REMARK    1  A    between atoms: C4_4  and  C5_5 
REMARK    2  A    between atoms: C5_5  and  N6_6 
ROOT
HETATM    1  C1  UNL     1     -32.581   6.989   3.091  1.00 20.00     0.316 C 
HETATM    2  C3  UNL     1     -32.434   9.167   4.368  1.00 20.00     0.154 C 
HETATM    3  N6  UNL     1     -32.719   7.728   4.299  1.00 20.00    -0.343 N 
HETATM    4  O7  UNL     1     -32.818   5.782   3.021  1.00 20.00    -0.254 OA
HETATM    5 CL8  UNL     1     -32.058   7.891   1.679  1.00 20.00    -0.020 Cl
ENDROOT
BRANCH   3   6
HETATM    6  C5  UNL     1     -33.149   7.110   5.523  1.00 20.00     0.126 C 
BRANCH   6   7
HETATM    7  C4  UNL     1     -34.585   6.605   5.448  1.00 20.00     0.015 C 
HETATM    8  C2  UNL     1     -34.751   5.212   6.036  1.00 20.00     0.006 C 
ENDBRANCH   6   7
ENDBRANCH   3   6
TORSDOF 2
ENDMDL
MODEL 5
REMARK VINA RESULT:      -3.4      1.642      1.949
REMARK  2 active torsions:
REMARK  status: ('A' for Active; 'I' for Inactive)
REMARK       I    between atoms: C1_1  and  N6_6 
REMARK    1  A    between atoms: C4_4  and  C5_5 
REMARK    2  A    between atoms: C5_5  and  N6_6 
ROOT
HETATM    1  C1  UNL     1     -33.956   6.790   5.328  1.00 20.00     0.316 C 
HETATM    2  C3  UNL     1     -33.298   5.559   3.219  1.00 20.00     0.154 C 
HETATM    3  N6  UNL     1     -33.291   6.756   4.071  1.00 20.00    -0.343 N 
HETATM    4  O7  UNL     1     -33.958   7.788   6.051  1.00 20.00    -0.254 OA
HETATM    5 CL8  UNL     1     -34.797   5.326   5.807  1.00 20.00    -0.020 Cl
ENDROOT
BRANCH   3   6
HETATM    6  C5  UNL     1     -32.574   7.891   3.559  1.00 20.00     0.126 C 
BRANCH   6   7
HETATM    7  C4  UNL     1     -32.166   7.712   2.101  1.00 20.00     0.015 C 
HETATM    8  C2  UNL     1     -32.537   8.907   1.236  1.00 20.00     0.006 C 
ENDBRANCH   6   7
ENDBRANCH   3   6
TORSDOF 2
ENDMDL
MODEL 6
REMARK VINA RESULT:      -3.4      9.666     10.304
REMARK  2 active torsions:
REMARK  status: ('A' for Active; 'I' for Inactive)
REMARK       I    between atoms: C1_1  and  N6_6 
REMARK    1  A    between atoms: C4_4  and  C5_5 
REMARK    2  A    between atoms: C5_5  and  N6_6 
ROOT
HETATM    1  C1  UNL     1     -40.712  14.114   7.421  1.00 20.00     0.316 C 
HETATM    2  C3  UNL     1     -41.687  13.994   5.091  1.00 20.00     0.154 C 
HETATM    3  N6  UNL     1     -40.931  13.409   6.206  1.00 20.00    -0.343 N 
HETATM    4  O7  UNL     1     -40.078  13.634   8.363  1.00 20.00    -0.254 OA
HETATM    5 CL8  UNL     1     -41.387  15.732   7.518  1.00 20.00    -0.020 Cl
ENDROOT
BRANCH   3   6
HETATM    6  C5  UNL     1     -40.424  12.081   5.996  1.00 20.00     0.126 C 
BRANCH   6   7
HETATM    7  C4  UNL     1     -39.010  12.081   5.427  1.00 20.00     0.015 C 
HETATM    8  C2  UNL     1     -38.962  11.653   3.968  1.00 20.00     0.006 C 
ENDBRANCH   6   7
ENDBRANCH   3   6
TORSDOF 2
ENDMDL
MODEL 7
REMARK VINA RESULT:      -3.3     12.298     12.720
REMARK  2 active torsions:
REMARK  status: ('A' for Active; 'I' for Inactive)
REMARK       I    between atoms: C1_1  and  N6_6 
REMARK    1  A    between atoms: C4_4  and  C5_5 
REMARK    2  A    between atoms: C5_5  and  N6_6 
ROOT
HETATM    1  C1  UNL     1     -34.359  14.825  -4.666  1.00 20.00     0.316 C 
HETATM    2  C3  UNL     1     -34.967  17.279  -4.718  1.00 20.00     0.154 C 
HETATM    3  N6  UNL     1     -34.126  16.166  -4.256  1.00 20.00    -0.343 N 
HETATM    4  O7  UNL     1     -33.660  13.883  -4.285  1.00 20.00    -0.254 OA
HETATM    5 CL8  UNL     1     -35.715  14.563  -5.750  1.00 20.00    -0.020 Cl
ENDROOT
BRANCH   3   6
HETATM    6  C5  UNL     1     -33.054  16.514  -3.365  1.00 20.00     0.126 C 
BRANCH   6   7
HETATM    7  C4  UNL     1     -33.554  16.904  -1.979  1.00 20.00     0.015 C 
HETATM    8  C2  UNL     1     -32.686  17.964  -1.317  1.00 20.00     0.006 C 
ENDBRANCH   6   7
ENDBRANCH   3   6
TORSDOF 2
ENDMDL
MODEL 8
REMARK VINA RESULT:      -3.3      9.517     10.513
REMARK  2 active torsions:
REMARK  status: ('A' for Active; 'I' for Inactive)
REMARK       I    between atoms: C1_1  and  N6_6 
REMARK    1  A    between atoms: C4_4  and  C5_5 
REMARK    2  A    between atoms: C5_5  and  N6_6 
ROOT
HETATM    1  C1  UNL     1     -39.637  12.305   5.967  1.00 20.00     0.316 C 
HETATM    2  C3  UNL     1     -41.431  13.734   4.903  1.00 20.00     0.154 C 
HETATM    3  N6  UNL     1     -40.697  13.246   6.078  1.00 20.00    -0.343 N 
HETATM    4  O7  UNL     1     -39.014  11.888   6.946  1.00 20.00    -0.254 OA
HETATM    5 CL8  UNL     1     -39.255  11.745   4.347  1.00 20.00    -0.020 Cl
ENDROOT
BRANCH   3   6
HETATM    6  C5  UNL     1     -41.114  13.776   7.347  1.00 20.00     0.126 C 
BRANCH   6   7
HETATM    7  C4  UNL     1     -40.462  15.117   7.661  1.00 20.00     0.015 C 
HETATM    8  C2  UNL     1     -40.180  15.302   9.144  1.00 20.00     0.006 C 
ENDBRANCH   6   7
ENDBRANCH   3   6
TORSDOF 2
ENDMDL
MODEL 9
REMARK VINA RESULT:      -3.3      2.703      3.185
REMARK  2 active torsions:
REMARK  status: ('A' for Active; 'I' for Inactive)
REMARK       I    between atoms: C1_1  and  N6_6 
REMARK    1  A    between atoms: C4_4  and  C5_5 
REMARK    2  A    between atoms: C5_5  and  N6_6 
ROOT
HETATM    1  C1  UNL     1     -33.000   8.069   4.318  1.00 20.00     0.316 C 
HETATM    2  C3  UNL     1     -33.992   6.993   6.381  1.00 20.00     0.154 C 
HETATM    3  N6  UNL     1     -33.823   7.079   4.924  1.00 20.00    -0.343 N 
HETATM    4  O7  UNL     1     -32.851   8.151   3.098  1.00 20.00    -0.254 OA
HETATM    5 CL8  UNL     1     -32.200   9.192   5.405  1.00 20.00    -0.020 Cl
ENDROOT
BRANCH   3   6
HETATM    6  C5  UNL     1     -34.540   6.107   4.147  1.00 20.00     0.126 C 
BRANCH   6   7
HETATM    7  C4  UNL     1     -33.730   4.837   3.914  1.00 20.00     0.015 C 
HETATM    8  C2  UNL     1     -32.955   4.865   2.605  1.00 20.00     0.006 C 
ENDBRANCH   6   7
ENDBRANCH   3   6
TORSDOF 2
ENDMDL
