MODEL 1
REMARK VINA RESULT:      -4.6      0.000      0.000
REMARK  2 active torsions:
REMARK  status: ('A' for Active; 'I' for Inactive)
REMARK    1  A    between atoms: C2_2  and  C4_4 
REMARK    2  A    between atoms: C3_3  and  C5_5 
ROOT
HETATM    1  C1  UNL     1     -32.460   8.647   4.111  1.00 20.00     0.133 A 
HETATM    2  C2  UNL     1     -32.514   7.761   3.056  1.00 20.00     0.016 A 
HETATM    3  C3  UNL     1     -33.590   7.040   5.088  1.00 20.00     0.181 A 
HETATM    4  N6  UNL     1     -33.076   8.235   5.277  1.00 20.00    -0.248 NA
HETATM    5  S10 UNL     1     -33.368   6.351   3.532  1.00 20.00    -0.068 SA
ENDROOT
BRANCH   3   6
HETATM    6  C5  UNL     1     -34.328   6.273   6.115  1.00 20.00     0.441 C 
HETATM    7  F7  UNL     1     -35.452   5.645   5.643  1.00 20.00    -0.164 F 
HETATM    8  F8  UNL     1     -33.595   5.273   6.699  1.00 20.00    -0.164 F 
HETATM    9  F9  UNL     1     -34.764   7.049   7.155  1.00 20.00    -0.164 F 
ENDBRANCH   3   6
BRANCH   2  10
HETATM   10  C4  UNL     1     -31.969   7.882   1.690  1.00 20.00     0.162 C 
HETATM   11 CL11 UNL     1     -32.663   9.289   0.842  1.00 20.00    -0.125 Cl
ENDBRANCH   2  10
TORSDOF 2
ENDMDL
MODEL 2
REMARK VINA RESULT:      -4.4      1.324      1.880
REMARK  2 active torsions:
REMARK  status: ('A' for Active; 'I' for Inactive)
REMARK    1  A    between atoms: C2_2  and  C4_4 
REMARK    2  A    between atoms: C3_3  and  C5_5 
ROOT
HETATM    1  C1  UNL     1     -33.009   5.920   2.745  1.00 20.00     0.133 A 
HETATM    2  C2  UNL     1     -32.599   7.233   2.847  1.00 20.00     0.016 A 
HETATM    3  C3  UNL     1     -33.699   6.324   4.788  1.00 20.00     0.181 A 
HETATM    4  N6  UNL     1     -33.639   5.397   3.857  1.00 20.00    -0.248 NA
HETATM    5  S10 UNL     1     -33.017   7.848   4.392  1.00 20.00    -0.068 SA
ENDROOT
BRANCH   3   6
HETATM    6  C5  UNL     1     -34.307   6.133   6.123  1.00 20.00     0.441 C 
HETATM    7  F7  UNL     1     -33.578   5.326   6.959  1.00 20.00    -0.164 F 
HETATM    8  F8  UNL     1     -34.478   7.294   6.830  1.00 20.00    -0.164 F 
HETATM    9  F9  UNL     1     -35.550   5.561   6.070  1.00 20.00    -0.164 F 
ENDBRANCH   3   6
BRANCH   2  10
HETATM   10  C4  UNL     1     -31.907   8.087   1.862  1.00 20.00     0.162 C 
HETATM   11 CL11 UNL     1     -32.877   9.529   1.465  1.00 20.00    -0.125 Cl
ENDBRANCH   2  10
TORSDOF 2
ENDMDL
MODEL 3
REMARK VINA RESULT:      -4.0     12.380     12.864
REMARK  2 active torsions:
REMARK  status: ('A' for Active; 'I' for Inactive)
REMARK    1  A    between atoms: C2_2  and  C4_4 
REMARK    2  A    between atoms: C3_3  and  C5_5 
ROOT
HETATM    1  C1  UNL     1     -30.725  18.896   0.621  1.00 20.00     0.133 A 
HETATM    2  C2  UNL     1     -31.779  18.932   1.509  1.00 20.00     0.016 A 
HETATM    3  C3  UNL     1     -32.334  18.318  -0.754  1.00 20.00     0.181 A 
HETATM    4  N6  UNL     1     -31.041  18.544  -0.677  1.00 20.00    -0.248 NA
HETATM    5  S10 UNL     1     -33.230  18.512   0.697  1.00 20.00    -0.068 SA
ENDROOT
BRANCH   3   6
HETATM    6  C5  UNL     1     -33.043  17.919  -1.989  1.00 20.00     0.441 C 
HETATM    7  F7  UNL     1     -32.602  18.558  -3.119  1.00 20.00    -0.164 F 
HETATM    8  F8  UNL     1     -32.940  16.585  -2.285  1.00 20.00    -0.164 F 
HETATM    9  F9  UNL     1     -34.388  18.170  -1.941  1.00 20.00    -0.164 F 
ENDBRANCH   3   6
BRANCH   2  10
HETATM   10  C4  UNL     1     -31.793  19.263   2.947  1.00 20.00     0.162 C 
HETATM   11 CL11 UNL     1     -30.225  18.888   3.709  1.00 20.00    -0.125 Cl
ENDBRANCH   2  10
TORSDOF 2
ENDMDL
MODEL 4
REMARK VINA RESULT:      -3.9      9.864     10.295
REMARK  2 active torsions:
REMARK  status: ('A' for Active; 'I' for Inactive)
REMARK    1  A    between atoms: C2_2  and  C4_4 
REMARK    2  A    between atoms: C3_3  and  C5_5 
ROOT
HETATM    1  C1  UNL     1     -42.026  14.459   5.056  1.00 20.00     0.133 A 
HETATM    2  C2  UNL     1     -41.721  14.711   6.377  1.00 20.00     0.016 A 
HETATM    3  C3  UNL     1     -40.399  13.008   5.301  1.00 20.00     0.181 A 
HETATM    4  N6  UNL     1     -41.269  13.483   4.438  1.00 20.00    -0.248 NA
HETATM    5  S10 UNL     1     -40.436  13.690   6.875  1.00 20.00    -0.068 SA
ENDROOT
BRANCH   3   6
HETATM    6  C5  UNL     1     -39.415  11.946   5.001  1.00 20.00     0.441 C 
HETATM    7  F7  UNL     1     -39.287  11.663   3.665  1.00 20.00    -0.164 F 
HETATM    8  F8  UNL     1     -38.140  12.232   5.415  1.00 20.00    -0.164 F 
HETATM    9  F9  UNL     1     -39.720  10.748   5.590  1.00 20.00    -0.164 F 
ENDBRANCH   3   6
BRANCH   2  10
HETATM   10  C4  UNL     1     -42.323  15.673   7.320  1.00 20.00     0.162 C 
HETATM   11 CL11 UNL     1     -41.075  16.693   8.084  1.00 20.00    -0.125 Cl
ENDBRANCH   2  10
TORSDOF 2
ENDMDL
MODEL 5
REMARK VINA RESULT:      -3.8      9.895     10.392
REMARK  2 active torsions:
REMARK  status: ('A' for Active; 'I' for Inactive)
REMARK    1  A    between atoms: C2_2  and  C4_4 
REMARK    2  A    between atoms: C3_3  and  C5_5 
ROOT
HETATM    1  C1  UNL     1     -41.001  14.120   7.864  1.00 20.00     0.133 A 
HETATM    2  C2  UNL     1     -41.892  14.596   6.924  1.00 20.00     0.016 A 
HETATM    3  C3  UNL     1     -40.284  12.987   6.128  1.00 20.00     0.181 A 
HETATM    4  N6  UNL     1     -40.078  13.198   7.409  1.00 20.00    -0.248 NA
HETATM    5  S10 UNL     1     -41.569  13.866   5.406  1.00 20.00    -0.068 SA
ENDROOT
BRANCH   3   6
HETATM    6  C5  UNL     1     -39.489  12.061   5.293  1.00 20.00     0.441 C 
HETATM    7  F7  UNL     1     -39.695  12.205   3.946  1.00 20.00    -0.164 F 
HETATM    8  F8  UNL     1     -38.133  12.191   5.450  1.00 20.00    -0.164 F 
HETATM    9  F9  UNL     1     -39.752  10.743   5.554  1.00 20.00    -0.164 F 
ENDBRANCH   3   6
BRANCH   2  10
HETATM   10  C4  UNL     1     -42.988  15.572   7.070  1.00 20.00     0.162 C 
HETATM   11 CL11 UNL     1     -42.588  17.113   6.267  1.00 20.00    -0.125 Cl
ENDBRANCH   2  10
TORSDOF 2
ENDMDL
MODEL 6
REMARK VINA RESULT:      -3.8     12.059     12.849
REMARK  2 active torsions:
REMARK  status: ('A' for Active; 'I' for Inactive)
REMARK    1  A    between atoms: C2_2  and  C4_4 
REMARK    2  A    between atoms: C3_3  and  C5_5 
ROOT
HETATM    1  C1  UNL     1     -35.014  18.298  -3.507  1.00 20.00     0.133 A 
HETATM    2  C2  UNL     1     -34.340  18.269  -2.304  1.00 20.00     0.016 A 
HETATM    3  C3  UNL     1     -33.939  16.405  -3.777  1.00 20.00     0.181 A 
HETATM    4  N6  UNL     1     -34.785  17.231  -4.353  1.00 20.00    -0.248 NA
HETATM    5  S10 UNL     1     -33.379  16.851  -2.217  1.00 20.00    -0.068 SA
ENDROOT
BRANCH   3   6
HETATM    6  C5  UNL     1     -33.455  15.145  -4.382  1.00 20.00     0.441 C 
HETATM    7  F7  UNL     1     -34.090  14.022  -3.917  1.00 20.00    -0.164 F 
HETATM    8  F8  UNL     1     -33.604  15.085  -5.743  1.00 20.00    -0.164 F 
HETATM    9  F9  UNL     1     -32.123  14.919  -4.159  1.00 20.00    -0.164 F 
ENDBRANCH   3   6
BRANCH   2  10
HETATM   10  C4  UNL     1     -34.355  19.234  -1.188  1.00 20.00     0.162 C 
HETATM   11 CL11 UNL     1     -34.068  18.419   0.372  1.00 20.00    -0.125 Cl
ENDBRANCH   2  10
TORSDOF 2
ENDMDL
MODEL 7
REMARK VINA RESULT:      -3.7      9.956     10.443
REMARK  2 active torsions:
REMARK  status: ('A' for Active; 'I' for Inactive)
REMARK    1  A    between atoms: C2_2  and  C4_4 
REMARK    2  A    between atoms: C3_3  and  C5_5 
ROOT
HETATM    1  C1  UNL     1     -41.947  14.492   5.518  1.00 20.00     0.133 A 
HETATM    2  C2  UNL     1     -41.704  14.975   6.787  1.00 20.00     0.016 A 
HETATM    3  C3  UNL     1     -40.309  13.142   6.077  1.00 20.00     0.181 A 
HETATM    4  N6  UNL     1     -41.148  13.441   5.110  1.00 20.00    -0.248 NA
HETATM    5  S10 UNL     1     -40.427  14.084   7.507  1.00 20.00    -0.068 SA
ENDROOT
BRANCH   3   6
HETATM    6  C5  UNL     1     -39.297  12.067   6.006  1.00 20.00     0.441 C 
HETATM    7  F7  UNL     1     -38.597  11.880   7.170  1.00 20.00    -0.164 F 
HETATM    8  F8  UNL     1     -39.815  10.831   5.714  1.00 20.00    -0.164 F 
HETATM    9  F9  UNL     1     -38.344  12.289   5.048  1.00 20.00    -0.164 F 
ENDBRANCH   3   6
BRANCH   2  10
HETATM   10  C4  UNL     1     -42.361  16.071   7.524  1.00 20.00     0.162 C 
HETATM   11 CL11 UNL     1     -41.221  17.403   7.849  1.00 20.00    -0.125 Cl
ENDBRANCH   2  10
TORSDOF 2
ENDMDL
MODEL 8
REMARK VINA RESULT:      -3.6     12.193     12.829
REMARK  2 active torsions:
REMARK  status: ('A' for Active; 'I' for Inactive)
REMARK    1  A    between atoms: C2_2  and  C4_4 
REMARK    2  A    between atoms: C3_3  and  C5_5 
ROOT
HETATM    1  C1  UNL     1     -35.007  17.429  -4.741  1.00 20.00     0.133 A 
HETATM    2  C2  UNL     1     -34.280  16.270  -4.919  1.00 20.00     0.016 A 
HETATM    3  C3  UNL     1     -33.918  17.427  -2.837  1.00 20.00     0.181 A 
HETATM    4  N6  UNL     1     -34.801  18.093  -3.548  1.00 20.00    -0.248 NA
HETATM    5  S10 UNL     1     -33.294  15.993  -3.543  1.00 20.00    -0.068 SA
ENDROOT
BRANCH   3   6
HETATM    6  C5  UNL     1     -33.443  17.834  -1.497  1.00 20.00     0.441 C 
HETATM    7  F7  UNL     1     -33.713  19.141  -1.181  1.00 20.00    -0.164 F 
HETATM    8  F8  UNL     1     -33.989  17.112  -0.467  1.00 20.00    -0.164 F 
HETATM    9  F9  UNL     1     -32.089  17.703  -1.344  1.00 20.00    -0.164 F 
ENDBRANCH   3   6
BRANCH   2  10
HETATM   10  C4  UNL     1     -34.260  15.332  -6.058  1.00 20.00     0.162 C 
HETATM   11 CL11 UNL     1     -35.841  14.534  -6.263  1.00 20.00    -0.125 Cl
ENDBRANCH   2  10
TORSDOF 2
ENDMDL
MODEL 9
REMARK VINA RESULT:      -3.6     12.232     12.928
REMARK  2 active torsions:
REMARK  status: ('A' for Active; 'I' for Inactive)
REMARK    1  A    between atoms: C2_2  and  C4_4 
REMARK    2  A    between atoms: C3_3  and  C5_5 
ROOT
HETATM    1  C1  UNL     1     -33.699  15.247  -4.675  1.00 20.00     0.133 A 
HETATM    2  C2  UNL     1     -34.403  16.212  -5.365  1.00 20.00     0.016 A 
HETATM    3  C3  UNL     1     -33.672  16.827  -3.153  1.00 20.00     0.181 A 
HETATM    4  N6  UNL     1     -33.279  15.598  -3.407  1.00 20.00    -0.248 NA
HETATM    5  S10 UNL     1     -34.552  17.619  -4.396  1.00 20.00    -0.068 SA
ENDROOT
BRANCH   3   6
HETATM    6  C5  UNL     1     -33.407  17.548  -1.889  1.00 20.00     0.441 C 
HETATM    7  F7  UNL     1     -32.075  17.684  -1.592  1.00 20.00    -0.164 F 
HETATM    8  F8  UNL     1     -33.898  18.827  -1.862  1.00 20.00    -0.164 F 
HETATM    9  F9  UNL     1     -33.954  16.933  -0.795  1.00 20.00    -0.164 F 
ENDBRANCH   3   6
BRANCH   2  10
HETATM   10  C4  UNL     1     -34.987  16.169  -6.719  1.00 20.00     0.162 C 
HETATM   11 CL11 UNL     1     -33.793  15.604  -7.918  1.00 20.00    -0.125 Cl
ENDBRANCH   2  10
TORSDOF 2
ENDMDL
