MODEL 1
REMARK VINA RESULT:      -4.9      0.000      0.000
REMARK  3 active torsions:
REMARK  status: ('A' for Active; 'I' for Inactive)
REMARK    1  A    between atoms: C4_4  and  C10_10 
REMARK    2  A    between atoms: C8_8  and  C10_10 
REMARK    3  A    between atoms: C8_8  and  O11_11 
ROOT
HETATM    1  C1  UNL     1     -34.943   5.233   5.972  1.00 20.00    -0.030 C 
HETATM    2  C2  UNL     1     -34.576   4.901   4.728  1.00 20.00    -0.028 C 
HETATM    3  C5  UNL     1     -34.460   6.468   6.669  1.00 20.00     0.030 C 
HETATM    4  C6  UNL     1     -33.665   5.744   3.882  1.00 20.00     0.065 C 
HETATM    5  C7  UNL     1     -33.273   7.135   5.962  1.00 20.00     0.042 C 
HETATM    6  C8  UNL     1     -33.452   7.167   4.438  1.00 20.00     0.068 C 
ENDROOT
BRANCH   6   7
HETATM    7  C10 UNL     1     -32.252   7.836   3.765  1.00 20.00     0.038 C 
HETATM    8  C9  UNL     1     -32.339   9.355   3.903  1.00 20.00     0.017 C 
BRANCH   7   9
HETATM    9  C4  UNL     1     -32.185   7.446   2.312  1.00 20.00    -0.030 C 
HETATM   10  C3  UNL     1     -32.179   8.325   1.303  1.00 20.00     0.007 C 
ENDBRANCH   7   9
ENDBRANCH   6   7
BRANCH   6  11
HETATM   11  O11 UNL     1     -34.608   7.959   4.144  1.00 20.00    -0.389 OA
HETATM   12  H27 UNL     1     -34.615   8.677   4.795  1.00 20.00     0.210 HD
ENDBRANCH   6  11
TORSDOF 3
ENDMDL
MODEL 2
REMARK VINA RESULT:      -4.1      9.484     10.247
REMARK  3 active torsions:
REMARK  status: ('A' for Active; 'I' for Inactive)
REMARK    1  A    between atoms: C4_4  and  C10_10 
REMARK    2  A    between atoms: C8_8  and  C10_10 
REMARK    3  A    between atoms: C8_8  and  O11_11 
ROOT
HETATM    1  C1  UNL     1     -42.444  15.360   7.008  1.00 20.00    -0.030 C 
HETATM    2  C2  UNL     1     -41.376  15.036   7.748  1.00 20.00    -0.028 C 
HETATM    3  C5  UNL     1     -42.854  14.604   5.782  1.00 20.00     0.030 C 
HETATM    4  C6  UNL     1     -40.489  13.862   7.449  1.00 20.00     0.065 C 
HETATM    5  C7  UNL     1     -41.772  13.642   5.276  1.00 20.00     0.042 C 
HETATM    6  C8  UNL     1     -41.092  12.881   6.423  1.00 20.00     0.068 C 
ENDROOT
BRANCH   6   7
HETATM    7  C10 UNL     1     -40.018  11.934   5.885  1.00 20.00     0.038 C 
HETATM    8  C9  UNL     1     -38.737  12.054   6.709  1.00 20.00     0.017 C 
BRANCH   7   9
HETATM    9  C4  UNL     1     -39.737  12.235   4.436  1.00 20.00    -0.030 C 
HETATM   10  C3  UNL     1     -38.849  11.564   3.693  1.00 20.00     0.007 C 
ENDBRANCH   7   9
ENDBRANCH   6   7
BRANCH   6  11
HETATM   11  O11 UNL     1     -42.086  12.081   7.073  1.00 20.00    -0.389 OA
HETATM   12  H27 UNL     1     -42.555  12.673   7.679  1.00 20.00     0.210 HD
ENDBRANCH   6  11
TORSDOF 3
ENDMDL
MODEL 3
REMARK VINA RESULT:      -4.0      1.151      1.983
REMARK  3 active torsions:
REMARK  status: ('A' for Active; 'I' for Inactive)
REMARK    1  A    between atoms: C4_4  and  C10_10 
REMARK    2  A    between atoms: C8_8  and  C10_10 
REMARK    3  A    between atoms: C8_8  and  O11_11 
ROOT
HETATM    1  C1  UNL     1     -34.578   6.013   6.901  1.00 20.00    -0.030 C 
HETATM    2  C2  UNL     1     -34.512   4.855   6.233  1.00 20.00    -0.028 C 
HETATM    3  C5  UNL     1     -34.229   7.335   6.290  1.00 20.00     0.030 C 
HETATM    4  C6  UNL     1     -34.108   4.755   4.790  1.00 20.00     0.065 C 
HETATM    5  C7  UNL     1     -33.488   7.206   4.954  1.00 20.00     0.042 C 
HETATM    6  C8  UNL     1     -34.094   6.114   4.060  1.00 20.00     0.068 C 
ENDROOT
BRANCH   6   7
HETATM    7  C10 UNL     1     -33.332   6.010   2.738  1.00 20.00     0.038 C 
HETATM    8  C9  UNL     1     -32.751   4.607   2.564  1.00 20.00     0.017 C 
BRANCH   7   9
HETATM    9  C4  UNL     1     -32.233   7.039   2.688  1.00 20.00    -0.030 C 
HETATM   10  C3  UNL     1     -32.141   7.987   1.748  1.00 20.00     0.007 C 
ENDBRANCH   7   9
ENDBRANCH   6   7
BRANCH   6  11
HETATM   11  O11 UNL     1     -35.441   6.491   3.752  1.00 20.00    -0.389 OA
HETATM   12  H27 UNL     1     -35.920   6.492   4.594  1.00 20.00     0.210 HD
ENDBRANCH   6  11
TORSDOF 3
ENDMDL
MODEL 4
REMARK VINA RESULT:      -4.0     10.093     10.965
REMARK  3 active torsions:
REMARK  status: ('A' for Active; 'I' for Inactive)
REMARK    1  A    between atoms: C4_4  and  C10_10 
REMARK    2  A    between atoms: C8_8  and  C10_10 
REMARK    3  A    between atoms: C8_8  and  O11_11 
ROOT
HETATM    1  C1  UNL     1     -41.500  15.385   9.810  1.00 20.00    -0.030 C 
HETATM    2  C2  UNL     1     -40.707  16.040   8.954  1.00 20.00    -0.028 C 
HETATM    3  C5  UNL     1     -42.133  14.064   9.497  1.00 20.00     0.030 C 
HETATM    4  C6  UNL     1     -40.340  15.512   7.597  1.00 20.00     0.065 C 
HETATM    5  C7  UNL     1     -42.056  13.695   8.010  1.00 20.00     0.042 C 
HETATM    6  C8  UNL     1     -40.683  14.021   7.404  1.00 20.00     0.068 C 
ENDROOT
BRANCH   6   7
HETATM    7  C10 UNL     1     -40.641  13.643   5.923  1.00 20.00     0.038 C 
HETATM    8  C9  UNL     1     -41.973  13.968   5.249  1.00 20.00     0.017 C 
BRANCH   7   9
HETATM    9  C4  UNL     1     -40.320  12.179   5.767  1.00 20.00    -0.030 C 
HETATM   10  C3  UNL     1     -39.455  11.696   4.869  1.00 20.00     0.007 C 
ENDBRANCH   7   9
ENDBRANCH   6   7
BRANCH   6  11
HETATM   11  O11 UNL     1     -39.702  13.226   8.080  1.00 20.00    -0.389 OA
HETATM   12  H27 UNL     1     -39.567  12.440   7.531  1.00 20.00     0.210 HD
ENDBRANCH   6  11
TORSDOF 3
ENDMDL
MODEL 5
REMARK VINA RESULT:      -3.8     12.089     13.211
REMARK  3 active torsions:
REMARK  status: ('A' for Active; 'I' for Inactive)
REMARK    1  A    between atoms: C4_4  and  C10_10 
REMARK    2  A    between atoms: C8_8  and  C10_10 
REMARK    3  A    between atoms: C8_8  and  O11_11 
ROOT
HETATM    1  C1  UNL     1     -34.405  15.471  -5.649  1.00 20.00    -0.030 C 
HETATM    2  C2  UNL     1     -33.612  15.041  -4.659  1.00 20.00    -0.028 C 
HETATM    3  C5  UNL     1     -35.142  16.773  -5.603  1.00 20.00     0.030 C 
HETATM    4  C6  UNL     1     -33.352  15.829  -3.407  1.00 20.00     0.065 C 
HETATM    5  C7  UNL     1     -35.166  17.405  -4.206  1.00 20.00     0.042 C 
HETATM    6  C8  UNL     1     -33.806  17.299  -3.501  1.00 20.00     0.068 C 
ENDROOT
BRANCH   6   7
HETATM    7  C10 UNL     1     -33.864  17.936  -2.111  1.00 20.00     0.038 C 
HETATM    8  C9  UNL     1     -35.052  18.894  -2.010  1.00 20.00     0.017 C 
BRANCH   7   9
HETATM    9  C4  UNL     1     -32.579  18.665  -1.818  1.00 20.00    -0.030 C 
HETATM   10  C3  UNL     1     -31.816  18.430  -0.744  1.00 20.00     0.007 C 
ENDBRANCH   7   9
ENDBRANCH   6   7
BRANCH   6  11
HETATM   11  O11 UNL     1     -32.849  18.034  -4.272  1.00 20.00    -0.389 OA
HETATM   12  H27 UNL     1     -33.111  17.929  -5.198  1.00 20.00     0.210 HD
ENDBRANCH   6  11
TORSDOF 3
ENDMDL
MODEL 6
REMARK VINA RESULT:      -3.8     11.839     13.068
REMARK  3 active torsions:
REMARK  status: ('A' for Active; 'I' for Inactive)
REMARK    1  A    between atoms: C4_4  and  C10_10 
REMARK    2  A    between atoms: C8_8  and  C10_10 
REMARK    3  A    between atoms: C8_8  and  O11_11 
ROOT
HETATM    1  C1  UNL     1     -34.082  18.603  -1.300  1.00 20.00    -0.030 C 
HETATM    2  C2  UNL     1     -35.077  18.849  -2.162  1.00 20.00    -0.028 C 
HETATM    3  C5  UNL     1     -33.039  17.553  -1.528  1.00 20.00     0.030 C 
HETATM    4  C6  UNL     1     -35.240  18.121  -3.466  1.00 20.00     0.065 C 
HETATM    5  C7  UNL     1     -33.396  16.583  -2.661  1.00 20.00     0.042 C 
HETATM    6  C8  UNL     1     -33.996  17.306  -3.874  1.00 20.00     0.068 C 
ENDROOT
BRANCH   6   7
HETATM    7  C10 UNL     1     -34.342  16.311  -4.983  1.00 20.00     0.038 C 
HETATM    8  C9  UNL     1     -35.758  16.560  -5.503  1.00 20.00     0.017 C 
BRANCH   7   9
HETATM    9  C4  UNL     1     -34.215  14.899  -4.474  1.00 20.00    -0.030 C 
HETATM   10  C3  UNL     1     -35.179  13.977  -4.580  1.00 20.00     0.007 C 
ENDBRANCH   7   9
ENDBRANCH   6   7
BRANCH   6  11
HETATM   11  O11 UNL     1     -33.003  18.199  -4.392  1.00 20.00    -0.389 OA
HETATM   12  H27 UNL     1     -32.769  18.794  -3.664  1.00 20.00     0.210 HD
ENDBRANCH   6  11
TORSDOF 3
ENDMDL
MODEL 7
REMARK VINA RESULT:      -3.8     11.818     13.285
REMARK  3 active torsions:
REMARK  status: ('A' for Active; 'I' for Inactive)
REMARK    1  A    between atoms: C4_4  and  C10_10 
REMARK    2  A    between atoms: C8_8  and  C10_10 
REMARK    3  A    between atoms: C8_8  and  O11_11 
ROOT
HETATM    1  C1  UNL     1     -32.626  18.983  -2.173  1.00 20.00    -0.030 C 
HETATM    2  C2  UNL     1     -32.847  17.799  -1.587  1.00 20.00    -0.028 C 
HETATM    3  C5  UNL     1     -32.953  19.263  -3.607  1.00 20.00     0.030 C 
HETATM    4  C6  UNL     1     -33.475  16.631  -2.294  1.00 20.00     0.065 C 
HETATM    5  C7  UNL     1     -33.255  17.996  -4.417  1.00 20.00     0.042 C 
HETATM    6  C8  UNL     1     -34.133  17.007  -3.637  1.00 20.00     0.068 C 
ENDROOT
BRANCH   6   7
HETATM    7  C10 UNL     1     -34.414  15.756  -4.470  1.00 20.00     0.038 C 
HETATM    8  C9  UNL     1     -33.273  14.749  -4.324  1.00 20.00     0.017 C 
BRANCH   7   9
HETATM    9  C4  UNL     1     -34.601  16.126  -5.918  1.00 20.00    -0.030 C 
HETATM   10  C3  UNL     1     -34.086  15.431  -6.939  1.00 20.00     0.007 C 
ENDBRANCH   7   9
ENDBRANCH   6   7
BRANCH   6  11
HETATM   11  O11 UNL     1     -35.390  17.643  -3.377  1.00 20.00    -0.389 OA
HETATM   12  H27 UNL     1     -35.448  18.388  -3.992  1.00 20.00     0.210 HD
ENDBRANCH   6  11
TORSDOF 3
ENDMDL
MODEL 8
REMARK VINA RESULT:      -3.6     12.041     13.714
REMARK  3 active torsions:
REMARK  status: ('A' for Active; 'I' for Inactive)
REMARK    1  A    between atoms: C4_4  and  C10_10 
REMARK    2  A    between atoms: C8_8  and  C10_10 
REMARK    3  A    between atoms: C8_8  and  O11_11 
ROOT
HETATM    1  C1  UNL     1     -34.459  15.587  -7.030  1.00 20.00    -0.030 C 
HETATM    2  C2  UNL     1     -34.541  16.921  -7.111  1.00 20.00    -0.028 C 
HETATM    3  C5  UNL     1     -34.259  14.854  -5.740  1.00 20.00     0.030 C 
HETATM    4  C6  UNL     1     -34.473  17.828  -5.916  1.00 20.00     0.065 C 
HETATM    5  C7  UNL     1     -33.837  15.769  -4.584  1.00 20.00     0.042 C 
HETATM    6  C8  UNL     1     -34.626  17.087  -4.573  1.00 20.00     0.068 C 
ENDROOT
BRANCH   6   7
HETATM    7  C10 UNL     1     -34.180  17.976  -3.411  1.00 20.00     0.038 C 
HETATM    8  C9  UNL     1     -33.179  19.026  -3.894  1.00 20.00     0.017 C 
BRANCH   7   9
HETATM    9  C4  UNL     1     -33.571  17.138  -2.317  1.00 20.00    -0.030 C 
HETATM   10  C3  UNL     1     -33.578  17.480  -1.023  1.00 20.00     0.007 C 
ENDBRANCH   7   9
ENDBRANCH   6   7
BRANCH   6  11
HETATM   11  O11 UNL     1     -36.008  16.773  -4.369  1.00 20.00    -0.389 OA
HETATM   12  H27 UNL     1     -36.502  17.579  -4.581  1.00 20.00     0.210 HD
ENDBRANCH   6  11
TORSDOF 3
ENDMDL
MODEL 9
REMARK VINA RESULT:      -3.6     12.068     13.372
REMARK  3 active torsions:
REMARK  status: ('A' for Active; 'I' for Inactive)
REMARK    1  A    between atoms: C4_4  and  C10_10 
REMARK    2  A    between atoms: C8_8  and  C10_10 
REMARK    3  A    between atoms: C8_8  and  O11_11 
ROOT
HETATM    1  C1  UNL     1     -33.067  18.378  -1.873  1.00 20.00    -0.030 C 
HETATM    2  C2  UNL     1     -33.118  17.042  -1.928  1.00 20.00    -0.028 C 
HETATM    3  C5  UNL     1     -33.465  19.263  -3.014  1.00 20.00     0.030 C 
HETATM    4  C6  UNL     1     -33.606  16.281  -3.128  1.00 20.00     0.065 C 
HETATM    5  C7  UNL     1     -33.621  18.506  -4.339  1.00 20.00     0.042 C 
HETATM    6  C8  UNL     1     -34.343  17.164  -4.156  1.00 20.00     0.068 C 
ENDROOT
BRANCH   6   7
HETATM    7  C10 UNL     1     -34.480  16.435  -5.494  1.00 20.00     0.038 C 
HETATM    8  C9  UNL     1     -35.621  17.033  -6.315  1.00 20.00     0.017 C 
BRANCH   7   9
HETATM    9  C4  UNL     1     -34.716  14.965  -5.265  1.00 20.00    -0.030 C 
HETATM   10  C3  UNL     1     -35.907  14.370  -5.401  1.00 20.00     0.007 C 
ENDBRANCH   7   9
ENDBRANCH   6   7
BRANCH   6  11
HETATM   11  O11 UNL     1     -35.664  17.434  -3.676  1.00 20.00    -0.389 OA
HETATM   12  H27 UNL     1     -35.733  16.998  -2.814  1.00 20.00     0.210 HD
ENDBRANCH   6  11
TORSDOF 3
ENDMDL
