MODEL 1
REMARK VINA RESULT:      -3.8      0.000      0.000
REMARK  0 active torsions:
REMARK  status: ('A' for Active; 'I' for Inactive)
ROOT
HETATM    1  C1  UNL     1     -22.258  18.386  12.124  1.00 20.00     0.280 C 
HETATM    2  C2  UNL     1     -21.769  18.495  10.686  1.00 20.00     0.104 C 
HETATM    3  C3  UNL     1     -24.417  18.345  10.051  1.00 20.00     0.114 C 
HETATM    4  C4  UNL     1     -24.675  18.304  11.573  1.00 20.00     0.159 C 
HETATM    5  C5  UNL     1     -24.934  16.868  12.072  1.00 20.00     0.049 C 
HETATM    6  C6  UNL     1     -25.946  19.132  11.856  1.00 20.00     0.049 C 
HETATM    7  N7  UNL     1     -23.590  18.954  12.330  1.00 20.00     0.093 N 
HETATM    8  S8  UNL     1     -22.845  17.583   9.551  1.00 20.00    -0.165 SA
HETATM    9  H21 UNL     1     -23.809  18.927  13.327  1.00 20.00     0.316 HD
ENDROOT
TORSDOF 0
ENDMDL
MODEL 2
REMARK VINA RESULT:      -3.6      1.949      3.261
REMARK  0 active torsions:
REMARK  status: ('A' for Active; 'I' for Inactive)
ROOT
HETATM    1  C1  UNL     1     -24.194  16.348  12.020  1.00 20.00     0.280 C 
HETATM    2  C2  UNL     1     -25.553  17.032  12.085  1.00 20.00     0.104 C 
HETATM    3  C3  UNL     1     -24.478  18.757  10.266  1.00 20.00     0.114 C 
HETATM    4  C4  UNL     1     -23.215  17.871  10.326  1.00 20.00     0.159 C 
HETATM    5  C5  UNL     1     -22.127  18.485  11.230  1.00 20.00     0.049 C 
HETATM    6  C6  UNL     1     -22.637  17.782   8.897  1.00 20.00     0.049 C 
HETATM    7  N7  UNL     1     -23.533  16.488  10.723  1.00 20.00     0.093 N 
HETATM    8  S8  UNL     1     -25.407  18.818  11.827  1.00 20.00    -0.165 SA
HETATM    9  H21 UNL     1     -22.677  15.931  10.727  1.00 20.00     0.316 HD
ENDROOT
TORSDOF 0
ENDMDL
MODEL 3
REMARK VINA RESULT:      -3.6      1.731      2.646
REMARK  0 active torsions:
REMARK  status: ('A' for Active; 'I' for Inactive)
ROOT
HETATM    1  C1  UNL     1     -24.859  19.262   9.416  1.00 20.00     0.280 C 
HETATM    2  C2  UNL     1     -23.740  19.187   8.384  1.00 20.00     0.104 C 
HETATM    3  C3  UNL     1     -22.628  17.390  10.109  1.00 20.00     0.114 C 
HETATM    4  C4  UNL     1     -23.893  17.590  10.971  1.00 20.00     0.159 C 
HETATM    5  C5  UNL     1     -23.638  18.553  12.149  1.00 20.00     0.049 C 
HETATM    6  C6  UNL     1     -24.277  16.219  11.567  1.00 20.00     0.049 C 
HETATM    7  N7  UNL     1     -25.047  18.019  10.162  1.00 20.00     0.093 N 
HETATM    8  S8  UNL     1     -22.140  18.866   9.168  1.00 20.00    -0.165 SA
HETATM    9  H21 UNL     1     -25.866  18.116  10.763  1.00 20.00     0.316 HD
ENDROOT
TORSDOF 0
ENDMDL
MODEL 4
REMARK VINA RESULT:      -3.4     16.188     17.090
REMARK  0 active torsions:
REMARK  status: ('A' for Active; 'I' for Inactive)
ROOT
HETATM    1  C1  UNL     1     -32.991   5.989   2.788  1.00 20.00     0.280 C 
HETATM    2  C2  UNL     1     -32.143   7.202   3.147  1.00 20.00     0.104 C 
HETATM    3  C3  UNL     1     -33.601   7.211   5.451  1.00 20.00     0.114 C 
HETATM    4  C4  UNL     1     -34.291   5.944   4.899  1.00 20.00     0.159 C 
HETATM    5  C5  UNL     1     -35.666   6.264   4.281  1.00 20.00     0.049 C 
HETATM    6  C6  UNL     1     -34.525   4.983   6.084  1.00 20.00     0.049 C 
HETATM    7  N7  UNL     1     -33.426   5.218   3.952  1.00 20.00     0.093 N 
HETATM    8  S8  UNL     1     -33.069   8.378   4.164  1.00 20.00    -0.165 SA
HETATM    9  H21 UNL     1     -33.908   4.378   3.629  1.00 20.00     0.316 HD
ENDROOT
TORSDOF 0
ENDMDL
MODEL 5
REMARK VINA RESULT:      -3.3     23.951     24.782
REMARK  0 active torsions:
REMARK  status: ('A' for Active; 'I' for Inactive)
ROOT
HETATM    1  C1  UNL     1     -43.413   5.973   2.046  1.00 20.00     0.280 C 
HETATM    2  C2  UNL     1     -43.360   4.640   1.312  1.00 20.00     0.104 C 
HETATM    3  C3  UNL     1     -42.043   6.052  -0.614  1.00 20.00     0.114 C 
HETATM    4  C4  UNL     1     -42.169   7.265   0.333  1.00 20.00     0.159 C 
HETATM    5  C5  UNL     1     -43.327   8.196  -0.079  1.00 20.00     0.049 C 
HETATM    6  C6  UNL     1     -40.860   8.077   0.233  1.00 20.00     0.049 C 
HETATM    7  N7  UNL     1     -42.282   6.850   1.743  1.00 20.00     0.093 N 
HETATM    8  S8  UNL     1     -43.417   4.871  -0.483  1.00 20.00    -0.165 SA
HETATM    9  H21 UNL     1     -42.340   7.678   2.336  1.00 20.00     0.316 HD
ENDROOT
TORSDOF 0
ENDMDL
MODEL 6
REMARK VINA RESULT:      -3.3     19.700     20.733
REMARK  0 active torsions:
REMARK  status: ('A' for Active; 'I' for Inactive)
ROOT
HETATM    1  C1  UNL     1     -34.005  15.707  -7.915  1.00 20.00     0.280 C 
HETATM    2  C2  UNL     1     -34.145  17.222  -7.837  1.00 20.00     0.104 C 
HETATM    3  C3  UNL     1     -34.583  16.783  -5.182  1.00 20.00     0.114 C 
HETATM    4  C4  UNL     1     -34.345  15.290  -5.494  1.00 20.00     0.159 C 
HETATM    5  C5  UNL     1     -35.671  14.512  -5.621  1.00 20.00     0.049 C 
HETATM    6  C6  UNL     1     -33.561  14.682  -4.312  1.00 20.00     0.049 C 
HETATM    7  N7  UNL     1     -33.494  15.106  -6.683  1.00 20.00     0.093 N 
HETATM    8  S8  UNL     1     -35.326  17.712  -6.555  1.00 20.00    -0.165 SA
HETATM    9  H21 UNL     1     -33.342  14.110  -6.841  1.00 20.00     0.316 HD
ENDROOT
TORSDOF 0
ENDMDL
MODEL 7
REMARK VINA RESULT:      -3.2      1.736      3.309
REMARK  0 active torsions:
REMARK  status: ('A' for Active; 'I' for Inactive)
ROOT
HETATM    1  C1  UNL     1     -25.019  19.021  10.272  1.00 20.00     0.280 C 
HETATM    2  C2  UNL     1     -25.581  18.515  11.595  1.00 20.00     0.104 C 
HETATM    3  C3  UNL     1     -23.108  17.413  11.923  1.00 20.00     0.114 C 
HETATM    4  C4  UNL     1     -22.747  18.074  10.576  1.00 20.00     0.159 C 
HETATM    5  C5  UNL     1     -22.804  17.067   9.409  1.00 20.00     0.049 C 
HETATM    6  C6  UNL     1     -21.294  18.585  10.678  1.00 20.00     0.049 C 
HETATM    7  N7  UNL     1     -23.577  19.262  10.307  1.00 20.00     0.093 N 
HETATM    8  S8  UNL     1     -24.853  16.924  12.057  1.00 20.00    -0.165 SA
HETATM    9  H21 UNL     1     -23.292  19.683   9.422  1.00 20.00     0.316 HD
ENDROOT
TORSDOF 0
ENDMDL
MODEL 8
REMARK VINA RESULT:      -3.2     18.485     19.492
REMARK  0 active torsions:
REMARK  status: ('A' for Active; 'I' for Inactive)
ROOT
HETATM    1  C1  UNL     1     -33.206  15.986  -3.503  1.00 20.00     0.280 C 
HETATM    2  C2  UNL     1     -33.696  17.417  -3.321  1.00 20.00     0.104 C 
HETATM    3  C3  UNL     1     -35.559  16.738  -5.193  1.00 20.00     0.114 C 
HETATM    4  C4  UNL     1     -34.925  15.331  -5.166  1.00 20.00     0.159 C 
HETATM    5  C5  UNL     1     -33.966  15.111  -6.353  1.00 20.00     0.049 C 
HETATM    6  C6  UNL     1     -36.066  14.299  -5.292  1.00 20.00     0.049 C 
HETATM    7  N7  UNL     1     -34.266  15.051  -3.878  1.00 20.00     0.093 N 
HETATM    8  S8  UNL     1     -34.382  18.081  -4.859  1.00 20.00    -0.165 SA
HETATM    9  H21 UNL     1     -33.882  14.105  -3.891  1.00 20.00     0.316 HD
ENDROOT
TORSDOF 0
ENDMDL
MODEL 9
REMARK VINA RESULT:      -3.1     23.659     24.425
REMARK  0 active torsions:
REMARK  status: ('A' for Active; 'I' for Inactive)
ROOT
HETATM    1  C1  UNL     1     -40.676   6.525   0.060  1.00 20.00     0.280 C 
HETATM    2  C2  UNL     1     -40.919   8.026  -0.031  1.00 20.00     0.104 C 
HETATM    3  C3  UNL     1     -43.366   7.428   1.014  1.00 20.00     0.114 C 
HETATM    4  C4  UNL     1     -42.875   5.965   1.062  1.00 20.00     0.159 C 
HETATM    5  C5  UNL     1     -43.417   5.140  -0.122  1.00 20.00     0.049 C 
HETATM    6  C6  UNL     1     -43.417   5.330   2.360  1.00 20.00     0.049 C 
HETATM    7  N7  UNL     1     -41.406   5.882   1.152  1.00 20.00     0.093 N 
HETATM    8  S8  UNL     1     -42.661   8.396  -0.353  1.00 20.00    -0.165 SA
HETATM    9  H21 UNL     1     -41.124   4.903   1.205  1.00 20.00     0.316 HD
ENDROOT
TORSDOF 0
ENDMDL
