MODEL 1
REMARK VINA RESULT:      -3.4      0.000      0.000
REMARK  3 active torsions:
REMARK  status: ('A' for Active; 'I' for Inactive)
REMARK    1  A    between atoms: C2_2  and  C3_3 
REMARK    2  A    between atoms: C3_3  and  N8_8 
REMARK    3  A    between atoms: C7_7  and  N8_8 
ROOT
HETATM    1  C3  UNL     1     -32.931   7.666   3.980  1.00 20.00     0.102 C 
HETATM    2  S9  UNL     1     -32.127   8.959   4.698  1.00 20.00    -0.060 SA
ENDROOT
BRANCH   1   3
HETATM    3  C2  UNL     1     -32.517   7.064   2.681  1.00 20.00    -0.034 C 
HETATM    4  C1  UNL     1     -32.034   7.891   1.743  1.00 20.00     0.021 C 
HETATM    5  C4  UNL     1     -32.681   5.589   2.503  1.00 20.00     0.050 C 
ENDBRANCH   1   3
BRANCH   1   6
HETATM    6  N8  UNL     1     -34.035   7.121   4.597  1.00 20.00    -0.377 N 
HETATM    7  H22 UNL     1     -34.942   7.418   4.247  1.00 20.00     0.160 HD
BRANCH   6   8
HETATM    8  C7  UNL     1     -34.045   6.152   5.677  1.00 20.00     0.074 C 
HETATM    9  C5  UNL     1     -34.993   5.016   5.319  1.00 20.00     0.031 C 
HETATM   10  C6  UNL     1     -34.461   6.850   6.963  1.00 20.00     0.031 C 
ENDBRANCH   6   8
ENDBRANCH   1   6
TORSDOF 3
ENDMDL
MODEL 2
REMARK VINA RESULT:      -3.3      0.106      1.186
REMARK  3 active torsions:
REMARK  status: ('A' for Active; 'I' for Inactive)
REMARK    1  A    between atoms: C2_2  and  C3_3 
REMARK    2  A    between atoms: C3_3  and  N8_8 
REMARK    3  A    between atoms: C7_7  and  N8_8 
ROOT
HETATM    1  C3  UNL     1     -32.930   7.687   3.965  1.00 20.00     0.102 C 
HETATM    2  S9  UNL     1     -32.125   8.965   4.707  1.00 20.00    -0.060 SA
ENDROOT
BRANCH   1   3
HETATM    3  C2  UNL     1     -32.516   7.107   2.656  1.00 20.00    -0.034 C 
HETATM    4  C1  UNL     1     -32.595   5.776   2.518  1.00 20.00     0.021 C 
HETATM    5  C4  UNL     1     -32.029   8.039   1.594  1.00 20.00     0.050 C 
ENDBRANCH   1   3
BRANCH   1   6
HETATM    6  N8  UNL     1     -34.036   7.133   4.571  1.00 20.00    -0.377 N 
HETATM    7  H22 UNL     1     -34.941   7.440   4.228  1.00 20.00     0.160 HD
BRANCH   6   8
HETATM    8  C7  UNL     1     -34.049   6.142   5.631  1.00 20.00     0.074 C 
HETATM    9  C5  UNL     1     -35.000   5.016   5.249  1.00 20.00     0.031 C 
HETATM   10  C6  UNL     1     -34.464   6.814   6.931  1.00 20.00     0.031 C 
ENDBRANCH   6   8
ENDBRANCH   1   6
TORSDOF 3
ENDMDL
MODEL 3
REMARK VINA RESULT:      -3.3      1.661      2.021
REMARK  3 active torsions:
REMARK  status: ('A' for Active; 'I' for Inactive)
REMARK    1  A    between atoms: C2_2  and  C3_3 
REMARK    2  A    between atoms: C3_3  and  N8_8 
REMARK    3  A    between atoms: C7_7  and  N8_8 
ROOT
HETATM    1  C3  UNL     1     -33.159   6.577   3.476  1.00 20.00     0.102 C 
HETATM    2  S9  UNL     1     -32.907   5.115   2.682  1.00 20.00    -0.060 SA
ENDROOT
BRANCH   1   3
HETATM    3  C2  UNL     1     -32.420   7.828   3.144  1.00 20.00    -0.034 C 
HETATM    4  C1  UNL     1     -32.132   8.661   4.154  1.00 20.00     0.021 C 
HETATM    5  C4  UNL     1     -32.064   8.079   1.714  1.00 20.00     0.050 C 
ENDBRANCH   1   3
BRANCH   1   6
HETATM    6  N8  UNL     1     -34.084   6.650   4.495  1.00 20.00    -0.377 N 
HETATM    7  H22 UNL     1     -34.992   7.036   4.255  1.00 20.00     0.160 HD
BRANCH   6   8
HETATM    8  C7  UNL     1     -33.909   6.214   5.868  1.00 20.00     0.074 C 
HETATM    9  C5  UNL     1     -34.843   5.045   6.142  1.00 20.00     0.031 C 
HETATM   10  C6  UNL     1     -34.185   7.387   6.797  1.00 20.00     0.031 C 
ENDBRANCH   6   8
ENDBRANCH   1   6
TORSDOF 3
ENDMDL
MODEL 4
REMARK VINA RESULT:      -3.3     12.388     13.724
REMARK  3 active torsions:
REMARK  status: ('A' for Active; 'I' for Inactive)
REMARK    1  A    between atoms: C2_2  and  C3_3 
REMARK    2  A    between atoms: C3_3  and  N8_8 
REMARK    3  A    between atoms: C7_7  and  N8_8 
ROOT
HETATM    1  C3  UNL     1     -34.335  17.149  -4.442  1.00 20.00     0.102 C 
HETATM    2  S9  UNL     1     -35.486  18.295  -3.998  1.00 20.00    -0.060 SA
ENDROOT
BRANCH   1   3
HETATM    3  C2  UNL     1     -33.529  16.374  -3.457  1.00 20.00    -0.034 C 
HETATM    4  C1  UNL     1     -32.914  15.267  -3.897  1.00 20.00     0.021 C 
HETATM    5  C4  UNL     1     -33.469  16.869  -2.048  1.00 20.00     0.050 C 
ENDBRANCH   1   3
BRANCH   1   6
HETATM    6  N8  UNL     1     -34.098  16.900  -5.776  1.00 20.00    -0.377 N 
HETATM    7  H22 UNL     1     -33.171  17.129  -6.122  1.00 20.00     0.160 HD
BRANCH   6   8
HETATM    8  C7  UNL     1     -35.022  16.324  -6.735  1.00 20.00     0.074 C 
HETATM    9  C5  UNL     1     -35.838  15.236  -6.051  1.00 20.00     0.031 C 
HETATM   10  C6  UNL     1     -34.232  15.777  -7.915  1.00 20.00     0.031 C 
ENDBRANCH   6   8
ENDBRANCH   1   6
TORSDOF 3
ENDMDL
MODEL 5
REMARK VINA RESULT:      -3.3     11.934     12.968
REMARK  3 active torsions:
REMARK  status: ('A' for Active; 'I' for Inactive)
REMARK    1  A    between atoms: C2_2  and  C3_3 
REMARK    2  A    between atoms: C3_3  and  N8_8 
REMARK    3  A    between atoms: C7_7  and  N8_8 
ROOT
HETATM    1  C3  UNL     1     -33.280  18.023  -2.404  1.00 20.00     0.102 C 
HETATM    2  S9  UNL     1     -32.946  19.260  -3.495  1.00 20.00    -0.060 SA
ENDROOT
BRANCH   1   3
HETATM    3  C2  UNL     1     -32.910  18.082  -0.961  1.00 20.00    -0.034 C 
HETATM    4  C1  UNL     1     -33.879  17.842  -0.066  1.00 20.00     0.021 C 
HETATM    5  C4  UNL     1     -31.497  18.416  -0.608  1.00 20.00     0.050 C 
ENDBRANCH   1   3
BRANCH   1   6
HETATM    6  N8  UNL     1     -33.919  16.882  -2.838  1.00 20.00    -0.377 N 
HETATM    7  H22 UNL     1     -34.513  16.411  -2.163  1.00 20.00     0.160 HD
BRANCH   6   8
HETATM    8  C7  UNL     1     -33.854  16.294  -4.163  1.00 20.00     0.074 C 
HETATM    9  C5  UNL     1     -35.116  16.658  -4.933  1.00 20.00     0.031 C 
HETATM   10  C6  UNL     1     -33.691  14.788  -4.027  1.00 20.00     0.031 C 
ENDBRANCH   6   8
ENDBRANCH   1   6
TORSDOF 3
ENDMDL
MODEL 6
REMARK VINA RESULT:      -3.3      1.876      4.243
REMARK  3 active torsions:
REMARK  status: ('A' for Active; 'I' for Inactive)
REMARK    1  A    between atoms: C2_2  and  C3_3 
REMARK    2  A    between atoms: C3_3  and  N8_8 
REMARK    3  A    between atoms: C7_7  and  N8_8 
ROOT
HETATM    1  C3  UNL     1     -33.825   6.316   4.391  1.00 20.00     0.102 C 
HETATM    2  S9  UNL     1     -33.517   5.080   3.290  1.00 20.00    -0.060 SA
ENDROOT
BRANCH   1   3
HETATM    3  C2  UNL     1     -34.262   6.072   5.795  1.00 20.00    -0.034 C 
HETATM    4  C1  UNL     1     -34.648   4.829   6.114  1.00 20.00     0.021 C 
HETATM    5  C4  UNL     1     -34.256   7.225   6.746  1.00 20.00     0.050 C 
ENDBRANCH   1   3
BRANCH   1   6
HETATM    6  N8  UNL     1     -33.683   7.629   4.000  1.00 20.00    -0.377 N 
HETATM    7  H22 UNL     1     -34.531   8.187   3.970  1.00 20.00     0.160 HD
BRANCH   6   8
HETATM    8  C7  UNL     1     -32.450   8.309   3.650  1.00 20.00     0.074 C 
HETATM    9  C5  UNL     1     -32.033   9.211   4.803  1.00 20.00     0.031 C 
HETATM   10  C6  UNL     1     -32.668   9.099   2.368  1.00 20.00     0.031 C 
ENDBRANCH   6   8
ENDBRANCH   1   6
TORSDOF 3
ENDMDL
MODEL 7
REMARK VINA RESULT:      -3.3     12.401     13.538
REMARK  3 active torsions:
REMARK  status: ('A' for Active; 'I' for Inactive)
REMARK    1  A    between atoms: C2_2  and  C3_3 
REMARK    2  A    between atoms: C3_3  and  N8_8 
REMARK    3  A    between atoms: C7_7  and  N8_8 
ROOT
HETATM    1  C3  UNL     1     -34.473  17.217  -4.311  1.00 20.00     0.102 C 
HETATM    2  S9  UNL     1     -34.096  18.748  -4.899  1.00 20.00    -0.060 SA
ENDROOT
BRANCH   1   3
HETATM    3  C2  UNL     1     -33.574  16.441  -3.411  1.00 20.00    -0.034 C 
HETATM    4  C1  UNL     1     -32.979  15.353  -3.921  1.00 20.00     0.021 C 
HETATM    5  C4  UNL     1     -33.406  16.913  -2.003  1.00 20.00     0.050 C 
ENDBRANCH   1   3
BRANCH   1   6
HETATM    6  N8  UNL     1     -35.663  16.621  -4.669  1.00 20.00    -0.377 N 
HETATM    7  H22 UNL     1     -36.323  16.443  -3.918  1.00 20.00     0.160 HD
BRANCH   6   8
HETATM    8  C7  UNL     1     -36.085  16.243  -6.004  1.00 20.00     0.074 C 
HETATM    9  C5  UNL     1     -37.556  16.589  -6.180  1.00 20.00     0.031 C 
HETATM   10  C6  UNL     1     -35.828  14.756  -6.200  1.00 20.00     0.031 C 
ENDBRANCH   6   8
ENDBRANCH   1   6
TORSDOF 3
ENDMDL
MODEL 8
REMARK VINA RESULT:      -3.3     12.255     13.290
REMARK  3 active torsions:
REMARK  status: ('A' for Active; 'I' for Inactive)
REMARK    1  A    between atoms: C2_2  and  C3_3 
REMARK    2  A    between atoms: C3_3  and  N8_8 
REMARK    3  A    between atoms: C7_7  and  N8_8 
ROOT
HETATM    1  C3  UNL     1     -34.367  16.642  -5.093  1.00 20.00     0.102 C 
HETATM    2  S9  UNL     1     -35.206  17.615  -6.180  1.00 20.00    -0.060 SA
ENDROOT
BRANCH   1   3
HETATM    3  C2  UNL     1     -34.575  15.170  -4.982  1.00 20.00    -0.034 C 
HETATM    4  C1  UNL     1     -33.625  14.457  -4.361  1.00 20.00     0.021 C 
HETATM    5  C4  UNL     1     -35.815  14.586  -5.578  1.00 20.00     0.050 C 
ENDBRANCH   1   3
BRANCH   1   6
HETATM    6  N8  UNL     1     -33.440  17.206  -4.244  1.00 20.00    -0.377 N 
HETATM    7  H22 UNL     1     -32.464  17.087  -4.496  1.00 20.00     0.160 HD
BRANCH   6   8
HETATM    8  C7  UNL     1     -33.708  17.973  -3.042  1.00 20.00     0.074 C 
HETATM    9  C5  UNL     1     -32.798  19.193  -3.015  1.00 20.00     0.031 C 
HETATM   10  C6  UNL     1     -33.491  17.081  -1.829  1.00 20.00     0.031 C 
ENDBRANCH   6   8
ENDBRANCH   1   6
TORSDOF 3
ENDMDL
MODEL 9
REMARK VINA RESULT:      -3.2     10.013     11.187
REMARK  3 active torsions:
REMARK  status: ('A' for Active; 'I' for Inactive)
REMARK    1  A    between atoms: C2_2  and  C3_3 
REMARK    2  A    between atoms: C3_3  and  N8_8 
REMARK    3  A    between atoms: C7_7  and  N8_8 
ROOT
HETATM    1  C3  UNL     1     -40.418  13.312   6.466  1.00 20.00     0.102 C 
HETATM    2  S9  UNL     1     -39.362  12.091   5.989  1.00 20.00    -0.060 SA
ENDROOT
BRANCH   1   3
HETATM    3  C2  UNL     1     -41.872  13.310   6.140  1.00 20.00    -0.034 C 
HETATM    4  C1  UNL     1     -42.280  14.093   5.131  1.00 20.00     0.021 C 
HETATM    5  C4  UNL     1     -42.779  12.454   6.963  1.00 20.00     0.050 C 
ENDBRANCH   1   3
BRANCH   1   6
HETATM    6  N8  UNL     1     -39.941  14.383   7.189  1.00 20.00    -0.377 N 
HETATM    7  H22 UNL     1     -38.960  14.613   7.064  1.00 20.00     0.160 HD
BRANCH   6   8
HETATM    8  C7  UNL     1     -40.695  15.234   8.091  1.00 20.00     0.074 C 
HETATM    9  C5  UNL     1     -40.629  16.671   7.593  1.00 20.00     0.031 C 
HETATM   10  C6  UNL     1     -40.121  15.096   9.493  1.00 20.00     0.031 C 
ENDBRANCH   6   8
ENDBRANCH   1   6
TORSDOF 3
ENDMDL
