MODEL 1
REMARK VINA RESULT:      -3.6      0.000      0.000
REMARK  2 active torsions:
REMARK  status: ('A' for Active; 'I' for Inactive)
REMARK    1  A    between atoms: C1_1  and  C3_3 
REMARK    2  A    between atoms: C2_2  and  N9_9 
ROOT
HETATM    1  C1  UNL     1     -33.741  18.042  -0.060  1.00 20.00     0.050 C 
HETATM    2  C2  UNL     1     -32.619  18.425   0.574  1.00 20.00     0.002 C 
HETATM    3  C4  UNL     1     -31.354  18.623  -0.220  1.00 20.00     0.068 C 
ENDROOT
BRANCH   1   4
HETATM    4  C3  UNL     1     -33.797  17.799  -1.533  1.00 20.00     0.026 C 
HETATM    5  C5  UNL     1     -34.228  18.981  -2.373  1.00 20.00     0.070 C 
HETATM    6  N8  UNL     1     -33.460  16.651  -2.021  1.00 20.00    -0.299 NA
HETATM    7  C6  UNL     1     -33.515  16.463  -3.463  1.00 20.00     0.177 C 
ENDBRANCH   1   4
BRANCH   2   8
HETATM    8  N9  UNL     1     -32.502  18.675   1.915  1.00 20.00    -0.398 N 
HETATM    9  C7  UNL     1     -31.208  18.745   2.534  1.00 20.00     0.146 C 
HETATM   10  H23 UNL     1     -33.344  18.800   2.419  1.00 20.00     0.158 HD
ENDBRANCH   2   8
TORSDOF 2
ENDMDL
MODEL 2
REMARK VINA RESULT:      -3.5      1.802      4.649
REMARK  2 active torsions:
REMARK  status: ('A' for Active; 'I' for Inactive)
REMARK    1  A    between atoms: C1_1  and  C3_3 
REMARK    2  A    between atoms: C2_2  and  N9_9 
ROOT
HETATM    1  C1  UNL     1     -32.542  18.983  -2.280  1.00 20.00     0.050 C 
HETATM    2  C2  UNL     1     -33.033  17.953  -2.993  1.00 20.00     0.002 C 
HETATM    3  C4  UNL     1     -33.292  16.638  -2.305  1.00 20.00     0.068 C 
ENDROOT
BRANCH   1   4
HETATM    4  C3  UNL     1     -32.238  18.888  -0.822  1.00 20.00     0.026 C 
HETATM    5  C5  UNL     1     -33.415  19.095   0.105  1.00 20.00     0.070 C 
HETATM    6  N8  UNL     1     -31.042  18.612  -0.418  1.00 20.00    -0.299 NA
HETATM    7  C6  UNL     1     -30.794  18.513   1.012  1.00 20.00     0.177 C 
ENDBRANCH   1   4
BRANCH   2   8
HETATM    8  N9  UNL     1     -33.343  17.976  -4.326  1.00 20.00    -0.398 N 
HETATM    9  C7  UNL     1     -34.457  17.223  -4.829  1.00 20.00     0.146 C 
HETATM   10  H23 UNL     1     -32.765  18.530  -4.908  1.00 20.00     0.158 HD
ENDBRANCH   2   8
TORSDOF 2
ENDMDL
MODEL 3
REMARK VINA RESULT:      -3.5      1.864      4.679
REMARK  2 active torsions:
REMARK  status: ('A' for Active; 'I' for Inactive)
REMARK    1  A    between atoms: C1_1  and  C3_3 
REMARK    2  A    between atoms: C2_2  and  N9_9 
ROOT
HETATM    1  C1  UNL     1     -33.186  16.897  -2.259  1.00 20.00     0.050 C 
HETATM    2  C2  UNL     1     -33.390  17.259  -3.539  1.00 20.00     0.002 C 
HETATM    3  C4  UNL     1     -33.275  18.711  -3.921  1.00 20.00     0.068 C 
ENDROOT
BRANCH   1   4
HETATM    4  C3  UNL     1     -32.846  17.877  -1.184  1.00 20.00     0.026 C 
HETATM    5  C5  UNL     1     -33.985  18.259  -0.266  1.00 20.00     0.070 C 
HETATM    6  N8  UNL     1     -31.639  18.321  -1.060  1.00 20.00    -0.299 NA
HETATM    7  C6  UNL     1     -31.349  19.262   0.011  1.00 20.00     0.177 C 
ENDBRANCH   1   4
BRANCH   2   8
HETATM    8  N9  UNL     1     -33.692  16.413  -4.572  1.00 20.00    -0.398 N 
HETATM    9  C7  UNL     1     -33.694  14.991  -4.374  1.00 20.00     0.146 C 
HETATM   10  H23 UNL     1     -33.904  16.833  -5.443  1.00 20.00     0.158 HD
ENDBRANCH   2   8
TORSDOF 2
ENDMDL
MODEL 4
REMARK VINA RESULT:      -3.5      1.163      1.482
REMARK  2 active torsions:
REMARK  status: ('A' for Active; 'I' for Inactive)
REMARK    1  A    between atoms: C1_1  and  C3_3 
REMARK    2  A    between atoms: C2_2  and  N9_9 
ROOT
HETATM    1  C1  UNL     1     -33.562  18.192  -0.389  1.00 20.00     0.050 C 
HETATM    2  C2  UNL     1     -32.526  18.424   0.438  1.00 20.00     0.002 C 
HETATM    3  C4  UNL     1     -31.139  18.550  -0.136  1.00 20.00     0.068 C 
ENDROOT
BRANCH   1   4
HETATM    4  C3  UNL     1     -33.403  18.052  -1.867  1.00 20.00     0.026 C 
HETATM    5  C5  UNL     1     -33.378  16.633  -2.389  1.00 20.00     0.070 C 
HETATM    6  N8  UNL     1     -33.329  19.099  -2.621  1.00 20.00    -0.299 NA
HETATM    7  C6  UNL     1     -33.190  18.917  -4.057  1.00 20.00     0.177 C 
ENDBRANCH   1   4
BRANCH   2   8
HETATM    8  N9  UNL     1     -32.603  18.573   1.796  1.00 20.00    -0.398 N 
HETATM    9  C7  UNL     1     -31.425  18.852   2.568  1.00 20.00     0.146 C 
HETATM   10  H23 UNL     1     -33.500  18.479   2.204  1.00 20.00     0.158 HD
ENDBRANCH   2   8
TORSDOF 2
ENDMDL
MODEL 5
REMARK VINA RESULT:      -3.5      1.975      4.670
REMARK  2 active torsions:
REMARK  status: ('A' for Active; 'I' for Inactive)
REMARK    1  A    between atoms: C1_1  and  C3_3 
REMARK    2  A    between atoms: C2_2  and  N9_9 
ROOT
HETATM    1  C1  UNL     1     -33.292  16.813  -2.184  1.00 20.00     0.050 C 
HETATM    2  C2  UNL     1     -33.348  17.141  -3.488  1.00 20.00     0.002 C 
HETATM    3  C4  UNL     1     -33.304  18.594  -3.884  1.00 20.00     0.068 C 
ENDROOT
BRANCH   1   4
HETATM    4  C3  UNL     1     -33.188  17.830  -1.096  1.00 20.00     0.026 C 
HETATM    5  C5  UNL     1     -31.790  18.322  -0.794  1.00 20.00     0.070 C 
HETATM    6  N8  UNL     1     -34.249  18.260  -0.497  1.00 20.00    -0.299 NA
HETATM    7  C6  UNL     1     -34.104  19.263   0.547  1.00 20.00     0.177 C 
ENDBRANCH   1   4
BRANCH   2   8
HETATM    8  N9  UNL     1     -33.432  16.262  -4.533  1.00 20.00    -0.398 N 
HETATM    9  C7  UNL     1     -33.389  14.845  -4.300  1.00 20.00     0.146 C 
HETATM   10  H23 UNL     1     -33.522  16.653  -5.438  1.00 20.00     0.158 HD
ENDBRANCH   2   8
TORSDOF 2
ENDMDL
MODEL 6
REMARK VINA RESULT:      -3.2      2.264      5.559
REMARK  2 active torsions:
REMARK  status: ('A' for Active; 'I' for Inactive)
REMARK    1  A    between atoms: C1_1  and  C3_3 
REMARK    2  A    between atoms: C2_2  and  N9_9 
ROOT
HETATM    1  C1  UNL     1     -32.958  16.210  -3.441  1.00 20.00     0.050 C 
HETATM    2  C2  UNL     1     -33.746  15.986  -4.509  1.00 20.00     0.002 C 
HETATM    3  C4  UNL     1     -34.941  16.873  -4.741  1.00 20.00     0.068 C 
ENDROOT
BRANCH   1   4
HETATM    4  C3  UNL     1     -33.212  17.309  -2.463  1.00 20.00     0.026 C 
HETATM    5  C5  UNL     1     -32.857  18.700  -2.938  1.00 20.00     0.070 C 
HETATM    6  N8  UNL     1     -33.733  17.052  -1.309  1.00 20.00    -0.299 NA
HETATM    7  C6  UNL     1     -33.978  18.155  -0.392  1.00 20.00     0.177 C 
ENDBRANCH   1   4
BRANCH   2   8
HETATM    8  N9  UNL     1     -33.564  15.006  -5.447  1.00 20.00    -0.398 N 
HETATM    9  C7  UNL     1     -34.011  15.198  -6.798  1.00 20.00     0.146 C 
HETATM   10  H23 UNL     1     -33.117  14.177  -5.144  1.00 20.00     0.158 HD
ENDBRANCH   2   8
TORSDOF 2
ENDMDL
MODEL 7
REMARK VINA RESULT:      -3.1      1.788      2.871
REMARK  2 active torsions:
REMARK  status: ('A' for Active; 'I' for Inactive)
REMARK    1  A    between atoms: C1_1  and  C3_3 
REMARK    2  A    between atoms: C2_2  and  N9_9 
ROOT
HETATM    1  C1  UNL     1     -33.451  16.683  -2.197  1.00 20.00     0.050 C 
HETATM    2  C2  UNL     1     -32.938  17.868  -1.820  1.00 20.00     0.002 C 
HETATM    3  C4  UNL     1     -32.649  18.912  -2.867  1.00 20.00     0.068 C 
ENDROOT
BRANCH   1   4
HETATM    4  C3  UNL     1     -33.754  16.347  -3.620  1.00 20.00     0.026 C 
HETATM    5  C5  UNL     1     -32.962  15.196  -4.201  1.00 20.00     0.070 C 
HETATM    6  N8  UNL     1     -34.663  16.997  -4.268  1.00 20.00    -0.299 NA
HETATM    7  C6  UNL     1     -34.936  16.626  -5.648  1.00 20.00     0.177 C 
ENDBRANCH   1   4
BRANCH   2   8
HETATM    8  N9  UNL     1     -32.648  18.244  -0.536  1.00 20.00    -0.398 N 
HETATM    9  C7  UNL     1     -31.328  18.687  -0.185  1.00 20.00     0.146 C 
HETATM   10  H23 UNL     1     -33.388  18.193   0.120  1.00 20.00     0.158 HD
ENDBRANCH   2   8
TORSDOF 2
ENDMDL
MODEL 8
REMARK VINA RESULT:      -3.1      2.848      4.988
REMARK  2 active torsions:
REMARK  status: ('A' for Active; 'I' for Inactive)
REMARK    1  A    between atoms: C1_1  and  C3_3 
REMARK    2  A    between atoms: C2_2  and  N9_9 
ROOT
HETATM    1  C1  UNL     1     -33.805  15.333  -4.337  1.00 20.00     0.050 C 
HETATM    2  C2  UNL     1     -33.809  16.457  -3.598  1.00 20.00     0.002 C 
HETATM    3  C4  UNL     1     -34.669  17.617  -4.026  1.00 20.00     0.068 C 
ENDROOT
BRANCH   1   4
HETATM    4  C3  UNL     1     -34.621  15.176  -5.578  1.00 20.00     0.026 C 
HETATM    5  C5  UNL     1     -35.944  14.464  -5.403  1.00 20.00     0.070 C 
HETATM    6  N8  UNL     1     -34.204  15.659  -6.702  1.00 20.00    -0.299 NA
HETATM    7  C6  UNL     1     -35.039  15.497  -7.883  1.00 20.00     0.177 C 
ENDBRANCH   1   4
BRANCH   2   8
HETATM    8  N9  UNL     1     -33.096  16.662  -2.448  1.00 20.00    -0.398 N 
HETATM    9  C7  UNL     1     -33.663  17.409  -1.360  1.00 20.00     0.146 C 
HETATM   10  H23 UNL     1     -32.186  16.274  -2.414  1.00 20.00     0.158 HD
ENDBRANCH   2   8
TORSDOF 2
ENDMDL
MODEL 9
REMARK VINA RESULT:      -3.0     11.065     12.263
REMARK  2 active torsions:
REMARK  status: ('A' for Active; 'I' for Inactive)
REMARK    1  A    between atoms: C1_1  and  C3_3 
REMARK    2  A    between atoms: C2_2  and  N9_9 
ROOT
HETATM    1  C1  UNL     1     -41.061  13.740   6.211  1.00 20.00     0.050 C 
HETATM    2  C2  UNL     1     -40.169  12.845   5.749  1.00 20.00     0.002 C 
HETATM    3  C4  UNL     1     -39.229  12.175   6.716  1.00 20.00     0.068 C 
ENDROOT
BRANCH   1   4
HETATM    4  C3  UNL     1     -41.167  14.107   7.654  1.00 20.00     0.026 C 
HETATM    5  C5  UNL     1     -40.338  15.295   8.089  1.00 20.00     0.070 C 
HETATM    6  N8  UNL     1     -41.953  13.449   8.442  1.00 20.00    -0.299 NA
HETATM    7  C6  UNL     1     -42.037  13.850   9.838  1.00 20.00     0.177 C 
ENDBRANCH   1   4
BRANCH   2   8
HETATM    8  N9  UNL     1     -40.027  12.456   4.444  1.00 20.00    -0.398 N 
HETATM    9  C7  UNL     1     -38.933  11.615   4.049  1.00 20.00     0.146 C 
HETATM   10  H23 UNL     1     -40.708  12.784   3.805  1.00 20.00     0.158 HD
ENDBRANCH   2   8
TORSDOF 2
ENDMDL
