MODEL 1
REMARK VINA RESULT:      -5.1      0.000      0.000
REMARK  1 active torsions:
REMARK  status: ('A' for Active; 'I' for Inactive)
REMARK    1  A    between atoms: C3_3  and  C7_7 
REMARK       I    between atoms: C3_3  and  N8_8 
ROOT
HETATM    1  C1  UNL     1     -34.743   5.742   6.294  1.00 20.00    -0.010 A 
HETATM    2  C2  UNL     1     -34.740   5.083   5.131  1.00 20.00    -0.010 A 
HETATM    3  C3  UNL     1     -32.661   7.985   4.325  1.00 20.00     0.219 C 
HETATM    4  C4  UNL     1     -33.941   6.993   6.209  1.00 20.00     0.153 A 
HETATM    5  C5  UNL     1     -33.934   5.799   4.103  1.00 20.00     0.153 A 
HETATM    6  N8  UNL     1     -33.463   6.976   4.831  1.00 20.00    -0.345 N 
HETATM    7  O9  UNL     1     -32.287   8.961   4.977  1.00 20.00    -0.273 OA
ENDROOT
BRANCH   3   8
HETATM    8  C7  UNL     1     -32.251   7.826   2.883  1.00 20.00     0.098 C 
HETATM    9  C6  UNL     1     -32.697   9.027   2.085  1.00 20.00     0.014 C 
ENDBRANCH   3   8
TORSDOF 1
ENDMDL
MODEL 2
REMARK VINA RESULT:      -4.8      1.691      2.109
REMARK  1 active torsions:
REMARK  status: ('A' for Active; 'I' for Inactive)
REMARK    1  A    between atoms: C3_3  and  C7_7 
REMARK       I    between atoms: C3_3  and  N8_8 
ROOT
HETATM    1  C1  UNL     1     -34.845   5.431   6.123  1.00 20.00    -0.010 A 
HETATM    2  C2  UNL     1     -34.448   6.649   6.505  1.00 20.00    -0.010 A 
HETATM    3  C3  UNL     1     -32.889   6.382   3.205  1.00 20.00     0.219 C 
HETATM    4  C4  UNL     1     -34.319   5.090   4.772  1.00 20.00     0.153 A 
HETATM    5  C5  UNL     1     -33.600   7.296   5.465  1.00 20.00     0.153 A 
HETATM    6  N8  UNL     1     -33.557   6.281   4.414  1.00 20.00    -0.345 N 
HETATM    7  O9  UNL     1     -32.880   5.500   2.346  1.00 20.00    -0.273 OA
ENDROOT
BRANCH   3   8
HETATM    8  C7  UNL     1     -32.144   7.674   2.982  1.00 20.00     0.098 C 
HETATM    9  C6  UNL     1     -32.166   8.036   1.517  1.00 20.00     0.014 C 
ENDBRANCH   3   8
TORSDOF 1
ENDMDL
MODEL 3
REMARK VINA RESULT:      -4.4      1.847      4.035
REMARK  1 active torsions:
REMARK  status: ('A' for Active; 'I' for Inactive)
REMARK    1  A    between atoms: C3_3  and  C7_7 
REMARK       I    between atoms: C3_3  and  N8_8 
ROOT
HETATM    1  C1  UNL     1     -31.845   8.623   3.800  1.00 20.00    -0.010 A 
HETATM    2  C2  UNL     1     -32.568   9.020   4.852  1.00 20.00    -0.010 A 
HETATM    3  C3  UNL     1     -34.030   5.736   4.167  1.00 20.00     0.219 C 
HETATM    4  C4  UNL     1     -32.270   7.275   3.329  1.00 20.00     0.153 A 
HETATM    5  C5  UNL     1     -33.578   7.995   5.235  1.00 20.00     0.153 A 
HETATM    6  N8  UNL     1     -33.345   6.936   4.255  1.00 20.00    -0.345 N 
HETATM    7  O9  UNL     1     -33.799   4.870   3.323  1.00 20.00    -0.273 OA
ENDROOT
BRANCH   3   8
HETATM    8  C7  UNL     1     -35.116   5.532   5.194  1.00 20.00     0.098 C 
HETATM    9  C6  UNL     1     -34.506   5.135   6.516  1.00 20.00     0.014 C 
ENDBRANCH   3   8
TORSDOF 1
ENDMDL
MODEL 4
REMARK VINA RESULT:      -3.9      1.587      3.629
REMARK  1 active torsions:
REMARK  status: ('A' for Active; 'I' for Inactive)
REMARK    1  A    between atoms: C3_3  and  C7_7 
REMARK       I    between atoms: C3_3  and  N8_8 
ROOT
HETATM    1  C1  UNL     1     -32.148   8.907   4.301  1.00 20.00    -0.010 A 
HETATM    2  C2  UNL     1     -32.242   8.139   3.211  1.00 20.00    -0.010 A 
HETATM    3  C3  UNL     1     -34.406   6.342   5.553  1.00 20.00     0.219 C 
HETATM    4  C4  UNL     1     -32.967   8.363   5.420  1.00 20.00     0.153 A 
HETATM    5  C5  UNL     1     -33.136   6.971   3.445  1.00 20.00     0.153 A 
HETATM    6  N8  UNL     1     -33.556   7.164   4.832  1.00 20.00    -0.345 N 
HETATM    7  O9  UNL     1     -34.733   6.545   6.723  1.00 20.00    -0.273 OA
ENDROOT
BRANCH   3   8
HETATM    8  C7  UNL     1     -34.932   5.141   4.809  1.00 20.00     0.098 C 
HETATM    9  C6  UNL     1     -33.848   4.098   4.683  1.00 20.00     0.014 C 
ENDBRANCH   3   8
TORSDOF 1
ENDMDL
MODEL 5
REMARK VINA RESULT:      -3.7     12.083     12.503
REMARK  1 active torsions:
REMARK  status: ('A' for Active; 'I' for Inactive)
REMARK    1  A    between atoms: C3_3  and  C7_7 
REMARK       I    between atoms: C3_3  and  N8_8 
ROOT
HETATM    1  C1  UNL     1     -30.069  18.924   3.676  1.00 20.00    -0.010 A 
HETATM    2  C2  UNL     1     -31.336  19.237   3.964  1.00 20.00    -0.010 A 
HETATM    3  C3  UNL     1     -31.505  18.804   0.334  1.00 20.00     0.219 C 
HETATM    4  C4  UNL     1     -29.887  18.695   2.215  1.00 20.00     0.153 A 
HETATM    5  C5  UNL     1     -32.182  19.263   2.739  1.00 20.00     0.153 A 
HETATM    6  N8  UNL     1     -31.228  18.918   1.686  1.00 20.00    -0.345 N 
HETATM    7  O9  UNL     1     -30.668  18.510  -0.520  1.00 20.00    -0.273 OA
ENDROOT
BRANCH   3   8
HETATM    8  C7  UNL     1     -32.937  19.067  -0.058  1.00 20.00     0.098 C 
HETATM    9  C6  UNL     1     -33.585  17.788  -0.531  1.00 20.00     0.014 C 
ENDBRANCH   3   8
TORSDOF 1
ENDMDL
MODEL 6
REMARK VINA RESULT:      -3.6     12.096     12.486
REMARK  1 active torsions:
REMARK  status: ('A' for Active; 'I' for Inactive)
REMARK    1  A    between atoms: C3_3  and  C7_7 
REMARK       I    between atoms: C3_3  and  N8_8 
ROOT
HETATM    1  C1  UNL     1     -33.608  18.096  -0.574  1.00 20.00    -0.010 A 
HETATM    2  C2  UNL     1     -32.444  18.114  -1.231  1.00 20.00    -0.010 A 
HETATM    3  C3  UNL     1     -31.388  19.056   2.145  1.00 20.00     0.219 C 
HETATM    4  C4  UNL     1     -33.428  18.458   0.859  1.00 20.00     0.153 A 
HETATM    5  C5  UNL     1     -31.319  18.489  -0.330  1.00 20.00     0.153 A 
HETATM    6  N8  UNL     1     -31.990  18.690   0.953  1.00 20.00    -0.345 N 
HETATM    7  O9  UNL     1     -31.995  19.214   3.204  1.00 20.00    -0.273 OA
ENDROOT
BRANCH   3   8
HETATM    8  C7  UNL     1     -29.896  19.262   2.080  1.00 20.00     0.098 C 
HETATM    9  C6  UNL     1     -29.262  18.849   3.386  1.00 20.00     0.014 C 
ENDBRANCH   3   8
TORSDOF 1
ENDMDL
MODEL 7
REMARK VINA RESULT:      -3.6      1.217      3.722
REMARK  1 active torsions:
REMARK  status: ('A' for Active; 'I' for Inactive)
REMARK    1  A    between atoms: C3_3  and  C7_7 
REMARK       I    between atoms: C3_3  and  N8_8 
ROOT
HETATM    1  C1  UNL     1     -31.844   8.144   2.825  1.00 20.00    -0.010 A 
HETATM    2  C2  UNL     1     -32.201   6.962   2.312  1.00 20.00    -0.010 A 
HETATM    3  C3  UNL     1     -34.132   7.015   5.421  1.00 20.00     0.219 C 
HETATM    4  C4  UNL     1     -32.520   8.395   4.128  1.00 20.00     0.153 A 
HETATM    5  C5  UNL     1     -33.167   6.255   3.198  1.00 20.00     0.153 A 
HETATM    6  N8  UNL     1     -33.327   7.192   4.308  1.00 20.00    -0.345 N 
HETATM    7  O9  UNL     1     -34.236   7.834   6.334  1.00 20.00    -0.273 OA
ENDROOT
BRANCH   3   8
HETATM    8  C7  UNL     1     -34.903   5.720   5.463  1.00 20.00     0.098 C 
HETATM    9  C6  UNL     1     -34.456   4.893   6.644  1.00 20.00     0.014 C 
ENDBRANCH   3   8
TORSDOF 1
ENDMDL
MODEL 8
REMARK VINA RESULT:      -3.6      1.445      2.077
REMARK  1 active torsions:
REMARK  status: ('A' for Active; 'I' for Inactive)
REMARK    1  A    between atoms: C3_3  and  C7_7 
REMARK       I    between atoms: C3_3  and  N8_8 
ROOT
HETATM    1  C1  UNL     1     -34.272   6.895   6.642  1.00 20.00    -0.010 A 
HETATM    2  C2  UNL     1     -34.937   5.854   6.131  1.00 20.00    -0.010 A 
HETATM    3  C3  UNL     1     -32.810   6.811   3.311  1.00 20.00     0.219 C 
HETATM    4  C4  UNL     1     -33.320   7.469   5.652  1.00 20.00     0.153 A 
HETATM    5  C5  UNL     1     -34.524   5.583   4.726  1.00 20.00     0.153 A 
HETATM    6  N8  UNL     1     -33.519   6.616   4.484  1.00 20.00    -0.345 N 
HETATM    7  O9  UNL     1     -31.969   7.698   3.152  1.00 20.00    -0.273 OA
ENDROOT
BRANCH   3   8
HETATM    8  C7  UNL     1     -33.129   5.850   2.193  1.00 20.00     0.098 C 
HETATM    9  C6  UNL     1     -32.621   4.472   2.539  1.00 20.00     0.014 C 
ENDBRANCH   3   8
TORSDOF 1
ENDMDL
MODEL 9
REMARK VINA RESULT:      -3.5     11.991     13.412
REMARK  1 active torsions:
REMARK  status: ('A' for Active; 'I' for Inactive)
REMARK    1  A    between atoms: C3_3  and  C7_7 
REMARK       I    between atoms: C3_3  and  N8_8 
ROOT
HETATM    1  C1  UNL     1     -36.246  15.788  -7.174  1.00 20.00    -0.010 A 
HETATM    2  C2  UNL     1     -35.567  16.936  -7.090  1.00 20.00    -0.010 A 
HETATM    3  C3  UNL     1     -34.067  15.005  -4.366  1.00 20.00     0.219 C 
HETATM    4  C4  UNL     1     -35.799  14.817  -6.137  1.00 20.00     0.153 A 
HETATM    5  C5  UNL     1     -34.569  16.897  -5.985  1.00 20.00     0.153 A 
HETATM    6  N8  UNL     1     -34.760  15.558  -5.431  1.00 20.00    -0.345 N 
HETATM    7  O9  UNL     1     -34.261  13.869  -3.932  1.00 20.00    -0.273 OA
ENDROOT
BRANCH   3   8
HETATM    8  C7  UNL     1     -33.025  15.896  -3.739  1.00 20.00     0.098 C 
HETATM    9  C6  UNL     1     -33.558  16.490  -2.458  1.00 20.00     0.014 C 
ENDBRANCH   3   8
TORSDOF 1
ENDMDL
