MODEL 1
REMARK VINA RESULT:      -3.4      0.000      0.000
REMARK  0 active torsions:
REMARK  status: ('A' for Active; 'I' for Inactive)
ROOT
HETATM    1  C1  UNL     1     -33.713   7.194   6.049  1.00 20.00     0.282 C 
HETATM    2  C2  UNL     1     -32.732   6.923   3.835  1.00 20.00     0.286 C 
HETATM    3  C3  UNL     1     -34.765   6.101   5.879  1.00 20.00     0.104 C 
HETATM    4  C4  UNL     1     -33.665   5.788   3.389  1.00 20.00     0.071 C 
HETATM    5  C5  UNL     1     -32.980   4.893   2.359  1.00 20.00     0.023 C 
HETATM    6  C6  UNL     1     -32.500   9.001   5.028  1.00 20.00     0.310 C 
HETATM    7  N7  UNL     1     -33.376   7.853   4.779  1.00 20.00     0.086 N 
HETATM    8  S8  UNL     1     -34.170   4.764   4.811  1.00 20.00    -0.161 SA
ENDROOT
TORSDOF 0
ENDMDL
MODEL 2
REMARK VINA RESULT:      -3.2      1.640      3.391
REMARK  0 active torsions:
REMARK  status: ('A' for Active; 'I' for Inactive)
ROOT
HETATM    1  C1  UNL     1     -33.737   5.085   4.115  1.00 20.00     0.282 C 
HETATM    2  C2  UNL     1     -33.510   7.107   5.454  1.00 20.00     0.286 C 
HETATM    3  C3  UNL     1     -33.369   5.745   2.788  1.00 20.00     0.104 C 
HETATM    4  C4  UNL     1     -33.109   8.023   4.289  1.00 20.00     0.071 C 
HETATM    5  C5  UNL     1     -32.244   9.181   4.779  1.00 20.00     0.023 C 
HETATM    6  C6  UNL     1     -34.888   5.286   6.215  1.00 20.00     0.310 C 
HETATM    7  N7  UNL     1     -34.404   6.013   5.039  1.00 20.00     0.086 N 
HETATM    8  S8  UNL     1     -32.183   7.095   3.022  1.00 20.00    -0.161 SA
ENDROOT
TORSDOF 0
ENDMDL
MODEL 3
REMARK VINA RESULT:      -3.1     16.389     17.162
REMARK  0 active torsions:
REMARK  status: ('A' for Active; 'I' for Inactive)
ROOT
HETATM    1  C1  UNL     1     -22.297  18.847  10.152  1.00 20.00     0.282 C 
HETATM    2  C2  UNL     1     -23.739  18.789  12.115  1.00 20.00     0.286 C 
HETATM    3  C3  UNL     1     -23.399  18.517   9.149  1.00 20.00     0.104 C 
HETATM    4  C4  UNL     1     -25.028  18.452  11.351  1.00 20.00     0.071 C 
HETATM    5  C5  UNL     1     -26.253  18.979  12.094  1.00 20.00     0.023 C 
HETATM    6  C6  UNL     1     -21.366  18.443  12.332  1.00 20.00     0.310 C 
HETATM    7  N7  UNL     1     -22.534  18.240  11.469  1.00 20.00     0.086 N 
HETATM    8  S8  UNL     1     -25.001  19.177   9.678  1.00 20.00    -0.161 SA
ENDROOT
TORSDOF 0
ENDMDL
MODEL 4
REMARK VINA RESULT:      -3.1      1.607      2.426
REMARK  0 active torsions:
REMARK  status: ('A' for Active; 'I' for Inactive)
ROOT
HETATM    1  C1  UNL     1     -32.337   8.459   4.404  1.00 20.00     0.282 C 
HETATM    2  C2  UNL     1     -33.202   6.320   3.621  1.00 20.00     0.286 C 
HETATM    3  C3  UNL     1     -33.344   8.619   5.540  1.00 20.00     0.104 C 
HETATM    4  C4  UNL     1     -34.322   6.212   4.667  1.00 20.00     0.071 C 
HETATM    5  C5  UNL     1     -34.661   4.752   4.952  1.00 20.00     0.023 C 
HETATM    6  C6  UNL     1     -31.945   7.744   2.143  1.00 20.00     0.310 C 
HETATM    7  N7  UNL     1     -32.889   7.714   3.263  1.00 20.00     0.086 N 
HETATM    8  S8  UNL     1     -33.832   7.015   6.229  1.00 20.00    -0.161 SA
ENDROOT
TORSDOF 0
ENDMDL
MODEL 5
REMARK VINA RESULT:      -3.0      0.945      2.596
REMARK  0 active torsions:
REMARK  status: ('A' for Active; 'I' for Inactive)
ROOT
HETATM    1  C1  UNL     1     -32.602   7.543   3.259  1.00 20.00     0.282 C 
HETATM    2  C2  UNL     1     -33.552   7.520   5.502  1.00 20.00     0.286 C 
HETATM    3  C3  UNL     1     -32.701   6.036   3.041  1.00 20.00     0.104 C 
HETATM    4  C4  UNL     1     -33.773   6.001   5.563  1.00 20.00     0.071 C 
HETATM    5  C5  UNL     1     -34.934   5.657   6.491  1.00 20.00     0.023 C 
HETATM    6  C6  UNL     1     -32.134   9.332   4.796  1.00 20.00     0.310 C 
HETATM    7  N7  UNL     1     -32.395   7.895   4.671  1.00 20.00     0.086 N 
HETATM    8  S8  UNL     1     -34.129   5.330   3.905  1.00 20.00    -0.161 SA
ENDROOT
TORSDOF 0
ENDMDL
MODEL 6
REMARK VINA RESULT:      -3.0     16.108     16.458
REMARK  0 active torsions:
REMARK  status: ('A' for Active; 'I' for Inactive)
ROOT
HETATM    1  C1  UNL     1     -24.067  18.327  12.230  1.00 20.00     0.282 C 
HETATM    2  C2  UNL     1     -25.058  19.263  10.212  1.00 20.00     0.286 C 
HETATM    3  C3  UNL     1     -23.074  17.425  11.503  1.00 20.00     0.104 C 
HETATM    4  C4  UNL     1     -24.182  18.475   9.227  1.00 20.00     0.071 C 
HETATM    5  C5  UNL     1     -24.013  19.239   7.917  1.00 20.00     0.023 C 
HETATM    6  C6  UNL     1     -26.284  19.255  12.284  1.00 20.00     0.310 C 
HETATM    7  N7  UNL     1     -25.306  18.532  11.466  1.00 20.00     0.086 N 
HETATM    8  S8  UNL     1     -22.532  18.157   9.936  1.00 20.00    -0.161 SA
ENDROOT
TORSDOF 0
ENDMDL
MODEL 7
REMARK VINA RESULT:      -3.0     13.115     14.068
REMARK  0 active torsions:
REMARK  status: ('A' for Active; 'I' for Inactive)
ROOT
HETATM    1  C1  UNL     1     -35.186  16.133  -6.254  1.00 20.00     0.282 C 
HETATM    2  C2  UNL     1     -34.727  17.474  -4.272  1.00 20.00     0.286 C 
HETATM    3  C3  UNL     1     -34.065  15.125  -6.014  1.00 20.00     0.104 C 
HETATM    4  C4  UNL     1     -33.543  16.627  -3.781  1.00 20.00     0.071 C 
HETATM    5  C5  UNL     1     -33.401  16.718  -2.264  1.00 20.00     0.023 C 
HETATM    6  C6  UNL     1     -35.890  18.429  -6.151  1.00 20.00     0.310 C 
HETATM    7  N7  UNL     1     -34.861  17.471  -5.739  1.00 20.00     0.086 N 
HETATM    8  S8  UNL     1     -33.760  14.877  -4.245  1.00 20.00    -0.161 SA
ENDROOT
TORSDOF 0
ENDMDL
MODEL 8
REMARK VINA RESULT:      -3.0      1.662      2.506
REMARK  0 active torsions:
REMARK  status: ('A' for Active; 'I' for Inactive)
ROOT
HETATM    1  C1  UNL     1     -33.596   7.984   5.314  1.00 20.00     0.282 C 
HETATM    2  C2  UNL     1     -33.956   5.811   4.273  1.00 20.00     0.286 C 
HETATM    3  C3  UNL     1     -32.345   8.328   4.510  1.00 20.00     0.104 C 
HETATM    4  C4  UNL     1     -32.744   5.886   3.332  1.00 20.00     0.071 C 
HETATM    5  C5  UNL     1     -32.983   5.061   2.071  1.00 20.00     0.023 C 
HETATM    6  C6  UNL     1     -34.856   6.283   6.455  1.00 20.00     0.310 C 
HETATM    7  N7  UNL     1     -33.743   6.538   5.536  1.00 20.00     0.086 N 
HETATM    8  S8  UNL     1     -32.404   7.611   2.847  1.00 20.00    -0.161 SA
ENDROOT
TORSDOF 0
ENDMDL
MODEL 9
REMARK VINA RESULT:      -2.9     12.495     13.446
REMARK  0 active torsions:
REMARK  status: ('A' for Active; 'I' for Inactive)
ROOT
HETATM    1  C1  UNL     1     -33.872  18.801  -3.255  1.00 20.00     0.282 C 
HETATM    2  C2  UNL     1     -33.402  16.474  -2.710  1.00 20.00     0.286 C 
HETATM    3  C3  UNL     1     -34.099  18.561  -4.746  1.00 20.00     0.104 C 
HETATM    4  C4  UNL     1     -33.574  15.941  -4.140  1.00 20.00     0.071 C 
HETATM    5  C5  UNL     1     -34.021  14.482  -4.127  1.00 20.00     0.023 C 
HETATM    6  C6  UNL     1     -32.597  18.247  -1.295  1.00 20.00     0.310 C 
HETATM    7  N7  UNL     1     -32.904  17.860  -2.674  1.00 20.00     0.086 N 
HETATM    8  S8  UNL     1     -34.807  16.923  -5.056  1.00 20.00    -0.161 SA
ENDROOT
TORSDOF 0
ENDMDL
