MODEL 1
REMARK VINA RESULT:      -3.6      0.000      0.000
REMARK  3 active torsions:
REMARK  status: ('A' for Active; 'I' for Inactive)
REMARK    1  A    between atoms: C2_2  and  N9_9 
REMARK    2  A    between atoms: C3_3  and  C8_8 
REMARK    3  A    between atoms: C7_7  and  C8_8 
ROOT
HETATM    1  C3  UNL     1     -41.017  13.323   6.747  1.00 20.00     0.099 C 
HETATM    2  N9  UNL     1     -40.474  12.172   6.520  1.00 20.00    -0.277 NA
ENDROOT
BRANCH   1   3
HETATM    3  C8  UNL     1     -42.526  13.487   6.913  1.00 20.00    -0.001 C 
HETATM    4  C5  UNL     1     -43.099  12.076   7.131  1.00 20.00     0.021 C 
HETATM    5  C6  UNL     1     -42.889  14.357   8.127  1.00 20.00     0.021 C 
BRANCH   3   6
HETATM    6  C7  UNL     1     -43.112  14.059   5.607  1.00 20.00     0.129 C 
HETATM    7 CL10 UNL     1     -41.901  14.234   4.307  1.00 20.00    -0.129 Cl
ENDBRANCH   3   6
ENDBRANCH   1   3
BRANCH   2   8
HETATM    8  C2  UNL     1     -39.118  12.183   6.394  1.00 20.00     0.111 C 
HETATM    9  C1  UNL     1     -38.485  11.956   5.236  1.00 20.00    -0.012 C 
HETATM   10  C4  UNL     1     -39.186  11.664   3.951  1.00 20.00     0.037 C 
ENDBRANCH   2   8
TORSDOF 3
ENDMDL
MODEL 2
REMARK VINA RESULT:      -3.6      9.559     10.295
REMARK  3 active torsions:
REMARK  status: ('A' for Active; 'I' for Inactive)
REMARK    1  A    between atoms: C2_2  and  N9_9 
REMARK    2  A    between atoms: C3_3  and  C8_8 
REMARK    3  A    between atoms: C7_7  and  C8_8 
ROOT
HETATM    1  C3  UNL     1     -33.421   6.745   4.836  1.00 20.00     0.099 C 
HETATM    2  N9  UNL     1     -33.744   7.974   5.074  1.00 20.00    -0.277 NA
ENDROOT
BRANCH   1   3
HETATM    3  C8  UNL     1     -34.452   5.619   4.853  1.00 20.00    -0.001 C 
HETATM    4  C5  UNL     1     -34.611   5.192   6.321  1.00 20.00     0.021 C 
HETATM    5  C6  UNL     1     -35.820   6.072   4.321  1.00 20.00     0.021 C 
BRANCH   3   6
HETATM    6  C7  UNL     1     -33.897   4.424   4.051  1.00 20.00     0.129 C 
HETATM    7 CL10 UNL     1     -32.925   4.914   2.636  1.00 20.00    -0.129 Cl
ENDBRANCH   3   6
ENDBRANCH   1   3
BRANCH   2   8
HETATM    8  C2  UNL     1     -32.718   8.866   5.024  1.00 20.00     0.111 C 
HETATM    9  C1  UNL     1     -32.177   9.304   3.880  1.00 20.00    -0.012 C 
HETATM   10  C4  UNL     1     -32.632   8.867   2.527  1.00 20.00     0.037 C 
ENDBRANCH   2   8
TORSDOF 3
ENDMDL
MODEL 3
REMARK VINA RESULT:      -3.6     11.366     12.603
REMARK  3 active torsions:
REMARK  status: ('A' for Active; 'I' for Inactive)
REMARK    1  A    between atoms: C2_2  and  N9_9 
REMARK    2  A    between atoms: C3_3  and  C8_8 
REMARK    3  A    between atoms: C7_7  and  C8_8 
ROOT
HETATM    1  C3  UNL     1     -33.389  16.692  -2.191  1.00 20.00     0.099 C 
HETATM    2  N9  UNL     1     -33.492  16.590  -3.476  1.00 20.00    -0.277 NA
ENDROOT
BRANCH   1   3
HETATM    3  C8  UNL     1     -33.625  18.013  -1.463  1.00 20.00    -0.001 C 
HETATM    4  C5  UNL     1     -34.811  18.695  -2.166  1.00 20.00     0.021 C 
HETATM    5  C6  UNL     1     -33.983  17.808   0.017  1.00 20.00     0.021 C 
BRANCH   3   6
HETATM    6  C7  UNL     1     -32.377  18.903  -1.629  1.00 20.00     0.129 C 
HETATM    7 CL10 UNL     1     -31.151  18.643  -0.358  1.00 20.00    -0.129 Cl
ENDBRANCH   3   6
ENDBRANCH   1   3
BRANCH   2   8
HETATM    8  C2  UNL     1     -33.251  15.349  -3.983  1.00 20.00     0.111 C 
HETATM    9  C1  UNL     1     -34.060  14.742  -4.860  1.00 20.00    -0.012 C 
HETATM   10  C4  UNL     1     -35.319  15.350  -5.384  1.00 20.00     0.037 C 
ENDBRANCH   2   8
TORSDOF 3
ENDMDL
MODEL 4
REMARK VINA RESULT:      -3.5      2.461      4.150
REMARK  3 active torsions:
REMARK  status: ('A' for Active; 'I' for Inactive)
REMARK    1  A    between atoms: C2_2  and  N9_9 
REMARK    2  A    between atoms: C3_3  and  C8_8 
REMARK    3  A    between atoms: C7_7  and  C8_8 
ROOT
HETATM    1  C3  UNL     1     -40.504  14.018   7.135  1.00 20.00     0.099 C 
HETATM    2  N9  UNL     1     -40.656  13.874   8.411  1.00 20.00    -0.277 NA
ENDROOT
BRANCH   1   3
HETATM    3  C8  UNL     1     -41.031  12.990   6.137  1.00 20.00    -0.001 C 
HETATM    4  C5  UNL     1     -42.294  12.376   6.765  1.00 20.00     0.021 C 
HETATM    5  C6  UNL     1     -41.410  13.625   4.790  1.00 20.00     0.021 C 
BRANCH   3   6
HETATM    6  C7  UNL     1     -39.977  11.877   5.965  1.00 20.00     0.129 C 
HETATM    7 CL10 UNL     1     -39.267  11.825   4.329  1.00 20.00    -0.129 Cl
ENDBRANCH   3   6
ENDBRANCH   1   3
BRANCH   2   8
HETATM    8  C2  UNL     1     -40.132  14.872   9.176  1.00 20.00     0.111 C 
HETATM    9  C1  UNL     1     -40.350  14.982  10.492  1.00 20.00    -0.012 C 
HETATM   10  C4  UNL     1     -41.191  14.030  11.276  1.00 20.00     0.037 C 
ENDBRANCH   2   8
TORSDOF 3
ENDMDL
MODEL 5
REMARK VINA RESULT:      -3.4     11.411     12.534
REMARK  3 active torsions:
REMARK  status: ('A' for Active; 'I' for Inactive)
REMARK    1  A    between atoms: C2_2  and  N9_9 
REMARK    2  A    between atoms: C3_3  and  C8_8 
REMARK    3  A    between atoms: C7_7  and  C8_8 
ROOT
HETATM    1  C3  UNL     1     -33.332  16.813  -2.269  1.00 20.00     0.099 C 
HETATM    2  N9  UNL     1     -33.588  16.569  -3.513  1.00 20.00    -0.277 NA
ENDROOT
BRANCH   1   3
HETATM    3  C8  UNL     1     -33.716  18.134  -1.608  1.00 20.00    -0.001 C 
HETATM    4  C5  UNL     1     -32.590  19.130  -1.931  1.00 20.00     0.021 C 
HETATM    5  C6  UNL     1     -35.040  18.696  -2.151  1.00 20.00     0.021 C 
BRANCH   3   6
HETATM    6  C7  UNL     1     -33.768  17.930  -0.080  1.00 20.00     0.129 C 
HETATM    7 CL10 UNL     1     -32.302  18.507   0.759  1.00 20.00    -0.129 Cl
ENDBRANCH   3   6
ENDBRANCH   1   3
BRANCH   2   8
HETATM    8  C2  UNL     1     -33.186  15.348  -3.962  1.00 20.00     0.111 C 
HETATM    9  C1  UNL     1     -33.916  14.591  -4.789  1.00 20.00    -0.012 C 
HETATM   10  C4  UNL     1     -35.255  14.991  -5.316  1.00 20.00     0.037 C 
ENDBRANCH   2   8
TORSDOF 3
ENDMDL
MODEL 6
REMARK VINA RESULT:      -3.4      9.782     11.322
REMARK  3 active torsions:
REMARK  status: ('A' for Active; 'I' for Inactive)
REMARK    1  A    between atoms: C2_2  and  N9_9 
REMARK    2  A    between atoms: C3_3  and  C8_8 
REMARK    3  A    between atoms: C7_7  and  C8_8 
ROOT
HETATM    1  C3  UNL     1     -43.083   4.694  -0.974  1.00 20.00     0.099 C 
HETATM    2  N9  UNL     1     -42.636   4.326  -2.131  1.00 20.00    -0.277 NA
ENDROOT
BRANCH   1   3
HETATM    3  C8  UNL     1     -42.337   5.700  -0.102  1.00 20.00    -0.001 C 
HETATM    4  C5  UNL     1     -42.394   5.162   1.337  1.00 20.00     0.021 C 
HETATM    5  C6  UNL     1     -40.864   5.851  -0.513  1.00 20.00     0.021 C 
BRANCH   3   6
HETATM    6  C7  UNL     1     -43.082   7.050  -0.151  1.00 20.00     0.129 C 
HETATM    7 CL10 UNL     1     -42.001   8.442  -0.436  1.00 20.00    -0.129 Cl
ENDBRANCH   3   6
ENDBRANCH   1   3
BRANCH   2   8
HETATM    8  C2  UNL     1     -43.409   3.422  -2.793  1.00 20.00     0.111 C 
HETATM    9  C1  UNL     1     -42.917   2.526  -3.657  1.00 20.00    -0.012 C 
HETATM   10  C4  UNL     1     -41.468   2.412  -3.999  1.00 20.00     0.037 C 
ENDBRANCH   2   8
TORSDOF 3
ENDMDL
MODEL 7
REMARK VINA RESULT:      -3.3     11.865     13.386
REMARK  3 active torsions:
REMARK  status: ('A' for Active; 'I' for Inactive)
REMARK    1  A    between atoms: C2_2  and  N9_9 
REMARK    2  A    between atoms: C3_3  and  C8_8 
REMARK    3  A    between atoms: C7_7  and  C8_8 
ROOT
HETATM    1  C3  UNL     1     -34.030  15.656  -4.592  1.00 20.00     0.099 C 
HETATM    2  N9  UNL     1     -33.978  16.697  -3.826  1.00 20.00    -0.277 NA
ENDROOT
BRANCH   1   3
HETATM    3  C8  UNL     1     -34.747  15.679  -5.939  1.00 20.00    -0.001 C 
HETATM    4  C5  UNL     1     -35.211  17.127  -6.165  1.00 20.00     0.021 C 
HETATM    5  C6  UNL     1     -33.825  15.271  -7.099  1.00 20.00     0.021 C 
BRANCH   3   6
HETATM    6  C7  UNL     1     -35.992  14.771  -5.856  1.00 20.00     0.129 C 
HETATM    7 CL10 UNL     1     -35.875  13.530  -4.579  1.00 20.00    -0.129 Cl
ENDBRANCH   3   6
ENDBRANCH   1   3
BRANCH   2   8
HETATM    8  C2  UNL     1     -33.304  16.525  -2.656  1.00 20.00     0.111 C 
HETATM    9  C1  UNL     1     -33.511  17.280  -1.570  1.00 20.00    -0.012 C 
HETATM   10  C4  UNL     1     -34.499  18.398  -1.512  1.00 20.00     0.037 C 
ENDBRANCH   2   8
TORSDOF 3
ENDMDL
MODEL 8
REMARK VINA RESULT:      -3.3      9.562     11.120
REMARK  3 active torsions:
REMARK  status: ('A' for Active; 'I' for Inactive)
REMARK    1  A    between atoms: C2_2  and  N9_9 
REMARK    2  A    between atoms: C3_3  and  C8_8 
REMARK    3  A    between atoms: C7_7  and  C8_8 
ROOT
HETATM    1  C3  UNL     1     -43.002   5.328  -0.839  1.00 20.00     0.099 C 
HETATM    2  N9  UNL     1     -42.483   4.597  -1.770  1.00 20.00    -0.277 NA
ENDROOT
BRANCH   1   3
HETATM    3  C8  UNL     1     -42.187   6.374  -0.082  1.00 20.00    -0.001 C 
HETATM    4  C5  UNL     1     -40.708   6.015  -0.295  1.00 20.00     0.021 C 
HETATM    5  C6  UNL     1     -42.429   7.797  -0.610  1.00 20.00     0.021 C 
BRANCH   3   6
HETATM    6  C7  UNL     1     -42.509   6.263   1.422  1.00 20.00     0.129 C 
HETATM    7 CL10 UNL     1     -43.417   4.785   1.843  1.00 20.00    -0.129 Cl
ENDBRANCH   3   6
ENDBRANCH   1   3
BRANCH   2   8
HETATM    8  C2  UNL     1     -43.332   3.707  -2.354  1.00 20.00     0.111 C 
HETATM    9  C1  UNL     1     -42.958   2.854  -3.315  1.00 20.00    -0.012 C 
HETATM   10  C4  UNL     1     -41.570   2.775  -3.860  1.00 20.00     0.037 C 
ENDBRANCH   2   8
TORSDOF 3
ENDMDL
MODEL 9
REMARK VINA RESULT:      -3.2      1.385      1.976
REMARK  3 active torsions:
REMARK  status: ('A' for Active; 'I' for Inactive)
REMARK    1  A    between atoms: C2_2  and  N9_9 
REMARK    2  A    between atoms: C3_3  and  C8_8 
REMARK    3  A    between atoms: C7_7  and  C8_8 
ROOT
HETATM    1  C3  UNL     1     -40.655  13.297   6.739  1.00 20.00     0.099 C 
HETATM    2  N9  UNL     1     -40.152  12.132   6.486  1.00 20.00    -0.277 NA
ENDROOT
BRANCH   1   3
HETATM    3  C8  UNL     1     -42.138  13.488   7.048  1.00 20.00    -0.001 C 
HETATM    4  C5  UNL     1     -42.731  14.291   5.879  1.00 20.00     0.021 C 
HETATM    5  C6  UNL     1     -42.888  12.151   7.158  1.00 20.00     0.021 C 
BRANCH   3   6
HETATM    6  C7  UNL     1     -42.273  14.323   8.338  1.00 20.00     0.129 C 
HETATM    7 CL10 UNL     1     -42.742  16.018   8.033  1.00 20.00    -0.129 Cl
ENDBRANCH   3   6
ENDBRANCH   1   3
BRANCH   2   8
HETATM    8  C2  UNL     1     -38.816  12.119   6.227  1.00 20.00     0.111 C 
HETATM    9  C1  UNL     1     -38.304  11.892   5.011  1.00 20.00    -0.012 C 
HETATM   10  C4  UNL     1     -39.133  11.627   3.798  1.00 20.00     0.037 C 
ENDBRANCH   2   8
TORSDOF 3
ENDMDL
