MODEL 1
REMARK VINA RESULT:      -4.5      0.000      0.000
REMARK  1 active torsions:
REMARK  status: ('A' for Active; 'I' for Inactive)
REMARK    1  A    between atoms: C1_1  and  C9_9 
ROOT
HETATM    1  C1  UNL     1     -33.115   7.450   4.738  1.00 20.00     0.020 C 
HETATM    2  C2  UNL     1     -33.872   7.597   6.010  1.00 20.00     0.058 C 
HETATM    3  C3  UNL     1     -34.360   6.170   6.242  1.00 20.00     0.038 C 
HETATM    4  C4  UNL     1     -34.490   5.556   4.841  1.00 20.00     0.055 C 
HETATM    5  C5  UNL     1     -35.843   5.821   4.188  1.00 20.00     0.041 C 
HETATM    6  C6  UNL     1     -34.095   4.086   4.803  1.00 20.00     0.041 C 
HETATM    7  N10 UNL     1     -33.478   6.360   4.112  1.00 20.00    -0.224 N 
HETATM    8  O11 UNL     1     -33.038   6.019   2.968  1.00 20.00    -0.085 OA
ENDROOT
BRANCH   1   9
HETATM    9  C9  UNL     1     -32.171   8.431   4.162  1.00 20.00     0.025 C 
HETATM   10  C7  UNL     1     -32.692   8.978   2.829  1.00 20.00     0.016 C 
HETATM   11  C8  UNL     1     -31.896   9.584   5.134  1.00 20.00     0.016 C 
ENDBRANCH   1   9
TORSDOF 1
ENDMDL
MODEL 2
REMARK VINA RESULT:      -4.2     12.614     13.735
REMARK  1 active torsions:
REMARK  status: ('A' for Active; 'I' for Inactive)
REMARK    1  A    between atoms: C1_1  and  C9_9 
ROOT
HETATM    1  C1  UNL     1     -34.435  16.272  -4.561  1.00 20.00     0.020 C 
HETATM    2  C2  UNL     1     -33.311  15.751  -3.738  1.00 20.00     0.058 C 
HETATM    3  C3  UNL     1     -33.394  16.645  -2.504  1.00 20.00     0.038 C 
HETATM    4  C4  UNL     1     -33.994  17.966  -3.004  1.00 20.00     0.055 C 
HETATM    5  C5  UNL     1     -32.948  18.942  -3.533  1.00 20.00     0.041 C 
HETATM    6  C6  UNL     1     -34.938  18.603  -1.994  1.00 20.00     0.041 C 
HETATM    7  N10 UNL     1     -34.773  17.473  -4.167  1.00 20.00    -0.224 N 
HETATM    8  O11 UNL     1     -35.663  18.181  -4.736  1.00 20.00    -0.085 OA
ENDROOT
BRANCH   1   9
HETATM    9  C9  UNL     1     -35.033  15.615  -5.742  1.00 20.00     0.025 C 
HETATM   10  C7  UNL     1     -33.952  15.197  -6.745  1.00 20.00     0.016 C 
HETATM   11  C8  UNL     1     -35.879  14.400  -5.342  1.00 20.00     0.016 C 
ENDBRANCH   1   9
TORSDOF 1
ENDMDL
MODEL 3
REMARK VINA RESULT:      -4.2     12.095     13.283
REMARK  1 active torsions:
REMARK  status: ('A' for Active; 'I' for Inactive)
REMARK    1  A    between atoms: C1_1  and  C9_9 
ROOT
HETATM    1  C1  UNL     1     -34.121  16.994  -4.017  1.00 20.00     0.020 C 
HETATM    2  C2  UNL     1     -35.130  17.828  -4.721  1.00 20.00     0.058 C 
HETATM    3  C3  UNL     1     -36.043  16.763  -5.321  1.00 20.00     0.038 C 
HETATM    4  C4  UNL     1     -35.143  15.540  -5.543  1.00 20.00     0.055 C 
HETATM    5  C5  UNL     1     -34.422  15.556  -6.887  1.00 20.00     0.041 C 
HETATM    6  C6  UNL     1     -35.860  14.224  -5.274  1.00 20.00     0.041 C 
HETATM    7  N10 UNL     1     -34.125  15.773  -4.488  1.00 20.00    -0.224 N 
HETATM    8  O11 UNL     1     -33.318  14.865  -4.112  1.00 20.00    -0.085 OA
ENDROOT
BRANCH   1   9
HETATM    9  C9  UNL     1     -33.144  17.462  -3.010  1.00 20.00     0.025 C 
HETATM   10  C7  UNL     1     -32.851  18.957  -3.184  1.00 20.00     0.016 C 
HETATM   11  C8  UNL     1     -33.630  17.183  -1.583  1.00 20.00     0.016 C 
ENDBRANCH   1   9
TORSDOF 1
ENDMDL
MODEL 4
REMARK VINA RESULT:      -4.2     12.459     13.396
REMARK  1 active torsions:
REMARK  status: ('A' for Active; 'I' for Inactive)
REMARK    1  A    between atoms: C1_1  and  C9_9 
ROOT
HETATM    1  C1  UNL     1     -34.038  16.662  -3.912  1.00 20.00     0.020 C 
HETATM    2  C2  UNL     1     -33.345  15.351  -3.808  1.00 20.00     0.058 C 
HETATM    3  C3  UNL     1     -33.498  14.810  -5.227  1.00 20.00     0.038 C 
HETATM    4  C4  UNL     1     -34.796  15.435  -5.757  1.00 20.00     0.055 C 
HETATM    5  C5  UNL     1     -36.042  14.627  -5.408  1.00 20.00     0.041 C 
HETATM    6  C6  UNL     1     -34.718  15.788  -7.236  1.00 20.00     0.041 C 
HETATM    7  N10 UNL     1     -34.832  16.681  -4.951  1.00 20.00    -0.224 N 
HETATM    8  O11 UNL     1     -35.595  17.656  -5.244  1.00 20.00    -0.085 OA
ENDROOT
BRANCH   1   9
HETATM    9  C9  UNL     1     -33.968  17.770  -2.935  1.00 20.00     0.025 C 
HETATM   10  C7  UNL     1     -33.631  17.247  -1.535  1.00 20.00     0.016 C 
HETATM   11  C8  UNL     1     -32.946  18.831  -3.362  1.00 20.00     0.016 C 
ENDBRANCH   1   9
TORSDOF 1
ENDMDL
MODEL 5
REMARK VINA RESULT:      -3.9     10.759     11.597
REMARK  1 active torsions:
REMARK  status: ('A' for Active; 'I' for Inactive)
REMARK    1  A    between atoms: C1_1  and  C9_9 
ROOT
HETATM    1  C1  UNL     1     -41.226  13.919   7.444  1.00 20.00     0.020 C 
HETATM    2  C2  UNL     1     -40.390  15.147   7.496  1.00 20.00     0.058 C 
HETATM    3  C3  UNL     1     -40.228  15.343   9.001  1.00 20.00     0.038 C 
HETATM    4  C4  UNL     1     -41.490  14.732   9.624  1.00 20.00     0.055 C 
HETATM    5  C5  UNL     1     -42.657  15.712   9.709  1.00 20.00     0.041 C 
HETATM    6  C6  UNL     1     -41.214  14.029  10.946  1.00 20.00     0.041 C 
HETATM    7  N10 UNL     1     -41.829  13.725   8.588  1.00 20.00    -0.224 N 
HETATM    8  O11 UNL     1     -42.657  12.783   8.803  1.00 20.00    -0.085 OA
ENDROOT
BRANCH   1   9
HETATM    9  C9  UNL     1     -41.471  13.076   6.254  1.00 20.00     0.025 C 
HETATM   10  C7  UNL     1     -41.783  13.937   5.025  1.00 20.00     0.016 C 
HETATM   11  C8  UNL     1     -40.280  12.154   5.963  1.00 20.00     0.016 C 
ENDBRANCH   1   9
TORSDOF 1
ENDMDL
MODEL 6
REMARK VINA RESULT:      -3.8     12.851     14.205
REMARK  1 active torsions:
REMARK  status: ('A' for Active; 'I' for Inactive)
REMARK    1  A    between atoms: C1_1  and  C9_9 
ROOT
HETATM    1  C1  UNL     1     -26.083  -1.972  11.155  1.00 20.00     0.020 C 
HETATM    2  C2  UNL     1     -26.461  -3.230  10.458  1.00 20.00     0.058 C 
HETATM    3  C3  UNL     1     -25.301  -4.149  10.834  1.00 20.00     0.038 C 
HETATM    4  C4  UNL     1     -24.101  -3.216  11.045  1.00 20.00     0.055 C 
HETATM    5  C5  UNL     1     -23.335  -2.918   9.759  1.00 20.00     0.041 C 
HETATM    6  C6  UNL     1     -23.195  -3.670  12.180  1.00 20.00     0.041 C 
HETATM    7  N10 UNL     1     -24.807  -1.972  11.441  1.00 20.00    -0.224 N 
HETATM    8  O11 UNL     1     -24.201  -0.992  11.981  1.00 20.00    -0.085 OA
ENDROOT
BRANCH   1   9
HETATM    9  C9  UNL     1     -26.962  -0.809  11.400  1.00 20.00     0.025 C 
HETATM   10  C7  UNL     1     -27.499  -0.239  10.082  1.00 20.00     0.016 C 
HETATM   11  C8  UNL     1     -28.125  -1.169  12.332  1.00 20.00     0.016 C 
ENDBRANCH   1   9
TORSDOF 1
ENDMDL
MODEL 7
REMARK VINA RESULT:      -3.7      9.573     10.331
REMARK  1 active torsions:
REMARK  status: ('A' for Active; 'I' for Inactive)
REMARK    1  A    between atoms: C1_1  and  C9_9 
ROOT
HETATM    1  C1  UNL     1     -40.422  12.988   5.831  1.00 20.00     0.020 C 
HETATM    2  C2  UNL     1     -41.393  13.522   4.840  1.00 20.00     0.058 C 
HETATM    3  C3  UNL     1     -41.830  14.822   5.509  1.00 20.00     0.038 C 
HETATM    4  C4  UNL     1     -41.681  14.568   7.016  1.00 20.00     0.055 C 
HETATM    5  C5  UNL     1     -42.915  13.930   7.646  1.00 20.00     0.041 C 
HETATM    6  C6  UNL     1     -41.200  15.797   7.775  1.00 20.00     0.041 C 
HETATM    7  N10 UNL     1     -40.608  13.544   7.001  1.00 20.00    -0.224 N 
HETATM    8  O11 UNL     1     -39.958  13.227   8.048  1.00 20.00    -0.085 OA
ENDROOT
BRANCH   1   9
HETATM    9  C9  UNL     1     -39.452  11.895   5.606  1.00 20.00     0.025 C 
HETATM   10  C7  UNL     1     -39.421  11.484   4.130  1.00 20.00     0.016 C 
HETATM   11  C8  UNL     1     -38.045  12.287   6.074  1.00 20.00     0.016 C 
ENDBRANCH   1   9
TORSDOF 1
ENDMDL
MODEL 8
REMARK VINA RESULT:      -3.6      1.003      3.892
REMARK  1 active torsions:
REMARK  status: ('A' for Active; 'I' for Inactive)
REMARK    1  A    between atoms: C1_1  and  C9_9 
ROOT
HETATM    1  C1  UNL     1     -33.720   6.698   4.493  1.00 20.00     0.020 C 
HETATM    2  C2  UNL     1     -33.571   8.013   5.170  1.00 20.00     0.058 C 
HETATM    3  C3  UNL     1     -32.989   8.870   4.049  1.00 20.00     0.038 C 
HETATM    4  C4  UNL     1     -32.212   7.892   3.157  1.00 20.00     0.055 C 
HETATM    5  C5  UNL     1     -30.774   7.669   3.616  1.00 20.00     0.041 C 
HETATM    6  C6  UNL     1     -32.312   8.236   1.678  1.00 20.00     0.041 C 
HETATM    7  N10 UNL     1     -32.964   6.642   3.427  1.00 20.00    -0.224 N 
HETATM    8  O11 UNL     1     -32.848   5.608   2.694  1.00 20.00    -0.085 OA
ENDROOT
BRANCH   1   9
HETATM    9  C9  UNL     1     -34.502   5.543   4.985  1.00 20.00     0.025 C 
HETATM   10  C7  UNL     1     -34.544   5.522   6.517  1.00 20.00     0.016 C 
HETATM   11  C8  UNL     1     -35.927   5.547   4.419  1.00 20.00     0.016 C 
ENDBRANCH   1   9
TORSDOF 1
ENDMDL
MODEL 9
REMARK VINA RESULT:      -3.6     12.454     13.747
REMARK  1 active torsions:
REMARK  status: ('A' for Active; 'I' for Inactive)
REMARK    1  A    between atoms: C1_1  and  C9_9 
ROOT
HETATM    1  C1  UNL     1     -25.464  -2.453  11.187  1.00 20.00     0.020 C 
HETATM    2  C2  UNL     1     -25.086  -1.158  11.812  1.00 20.00     0.058 C 
HETATM    3  C3  UNL     1     -26.433  -0.664  12.332  1.00 20.00     0.038 C 
HETATM    4  C4  UNL     1     -27.477  -1.271  11.384  1.00 20.00     0.055 C 
HETATM    5  C5  UNL     1     -27.739  -0.417  10.147  1.00 20.00     0.041 C 
HETATM    6  C6  UNL     1     -28.757  -1.678  12.101  1.00 20.00     0.041 C 
HETATM    7  N10 UNL     1     -26.749  -2.486  10.942  1.00 20.00    -0.224 N 
HETATM    8  O11 UNL     1     -27.334  -3.450  10.352  1.00 20.00    -0.085 OA
ENDROOT
BRANCH   1   9
HETATM    9  C9  UNL     1     -24.539  -3.527  10.769  1.00 20.00     0.025 C 
HETATM   10  C7  UNL     1     -23.986  -3.260   9.364  1.00 20.00     0.016 C 
HETATM   11  C8  UNL     1     -23.386  -3.697  11.766  1.00 20.00     0.016 C 
ENDBRANCH   1   9
TORSDOF 1
ENDMDL
