MODEL 1
REMARK VINA RESULT:      -4.1      0.000      0.000
REMARK  1 active torsions:
REMARK  status: ('A' for Active; 'I' for Inactive)
REMARK    1  A    between atoms: C2_2  and  C5_5 
ROOT
HETATM    1  C1  UNL     1     -34.500   5.045   5.172  1.00 20.00     0.153 A 
HETATM    2  C2  UNL     1     -33.860   5.921   4.110  1.00 20.00     0.096 A 
HETATM    3  C3  UNL     1     -34.684   5.472   6.584  1.00 20.00     0.042 C 
HETATM    4  C4  UNL     1     -33.275   5.266   2.899  1.00 20.00     0.050 C 
HETATM    5  O6  UNL     1     -35.285   5.771   4.218  1.00 20.00    -0.369 OA
ENDROOT
BRANCH   2   6
HETATM    6  C5  UNL     1     -33.367   7.297   4.429  1.00 20.00     0.154 C 
HETATM    7 CL7  UNL     1     -31.983   7.737   3.394  1.00 20.00    -0.127 Cl
ENDBRANCH   2   6
TORSDOF 1
ENDMDL
MODEL 2
REMARK VINA RESULT:      -4.0      2.225      3.371
REMARK  1 active torsions:
REMARK  status: ('A' for Active; 'I' for Inactive)
REMARK    1  A    between atoms: C2_2  and  C5_5 
ROOT
HETATM    1  C1  UNL     1     -32.749   7.664   4.517  1.00 20.00     0.153 A 
HETATM    2  C2  UNL     1     -33.962   6.942   5.076  1.00 20.00     0.096 A 
HETATM    3  C3  UNL     1     -32.220   7.437   3.147  1.00 20.00     0.042 C 
HETATM    4  C4  UNL     1     -34.119   6.850   6.561  1.00 20.00     0.050 C 
HETATM    5  O6  UNL     1     -34.041   8.283   4.567  1.00 20.00    -0.369 OA
ENDROOT
BRANCH   2   6
HETATM    6  C5  UNL     1     -34.714   5.938   4.261  1.00 20.00     0.154 C 
HETATM    7 CL7  UNL     1     -34.031   4.304   4.468  1.00 20.00    -0.127 Cl
ENDBRANCH   2   6
TORSDOF 1
ENDMDL
MODEL 3
REMARK VINA RESULT:      -3.5      1.571      2.277
REMARK  1 active torsions:
REMARK  status: ('A' for Active; 'I' for Inactive)
REMARK    1  A    between atoms: C2_2  and  C5_5 
ROOT
HETATM    1  C1  UNL     1     -34.429   6.654   6.172  1.00 20.00     0.153 A 
HETATM    2  C2  UNL     1     -33.557   7.323   5.125  1.00 20.00     0.096 A 
HETATM    3  C3  UNL     1     -34.868   5.236   6.089  1.00 20.00     0.042 C 
HETATM    4  C4  UNL     1     -33.580   8.816   5.022  1.00 20.00     0.050 C 
HETATM    5  O6  UNL     1     -33.020   6.836   6.365  1.00 20.00    -0.369 OA
ENDROOT
BRANCH   2   6
HETATM    6  C5  UNL     1     -33.077   6.578   3.920  1.00 20.00     0.154 C 
HETATM    7 CL7  UNL     1     -32.159   7.648   2.828  1.00 20.00    -0.127 Cl
ENDBRANCH   2   6
TORSDOF 1
ENDMDL
MODEL 4
REMARK VINA RESULT:      -3.3      2.609      3.551
REMARK  1 active torsions:
REMARK  status: ('A' for Active; 'I' for Inactive)
REMARK    1  A    between atoms: C2_2  and  C5_5 
ROOT
HETATM    1  C1  UNL     1     -32.171   7.246   3.206  1.00 20.00     0.153 A 
HETATM    2  C2  UNL     1     -32.865   8.080   4.267  1.00 20.00     0.096 A 
HETATM    3  C3  UNL     1     -32.704   5.953   2.703  1.00 20.00     0.042 C 
HETATM    4  C4  UNL     1     -32.052   9.063   5.050  1.00 20.00     0.050 C 
HETATM    5  O6  UNL     1     -32.962   8.393   2.869  1.00 20.00    -0.369 OA
ENDROOT
BRANCH   2   6
HETATM    6  C5  UNL     1     -34.156   7.641   4.883  1.00 20.00     0.154 C 
HETATM    7 CL7  UNL     1     -33.875   6.809   6.435  1.00 20.00    -0.127 Cl
ENDBRANCH   2   6
TORSDOF 1
ENDMDL
MODEL 5
REMARK VINA RESULT:      -3.2      2.548      3.289
REMARK  1 active torsions:
REMARK  status: ('A' for Active; 'I' for Inactive)
REMARK    1  A    between atoms: C2_2  and  C5_5 
ROOT
HETATM    1  C1  UNL     1     -33.305   8.025   4.081  1.00 20.00     0.153 A 
HETATM    2  C2  UNL     1     -34.018   6.895   4.801  1.00 20.00     0.096 A 
HETATM    3  C3  UNL     1     -32.367   8.962   4.753  1.00 20.00     0.042 C 
HETATM    4  C4  UNL     1     -35.273   6.343   4.201  1.00 20.00     0.050 C 
HETATM    5  O6  UNL     1     -32.847   6.669   4.002  1.00 20.00    -0.369 OA
ENDROOT
BRANCH   2   6
HETATM    6  C5  UNL     1     -33.814   6.652   6.263  1.00 20.00     0.154 C 
HETATM    7 CL7  UNL     1     -34.387   5.029   6.729  1.00 20.00    -0.127 Cl
ENDBRANCH   2   6
TORSDOF 1
ENDMDL
MODEL 6
REMARK VINA RESULT:      -3.2     16.473     17.239
REMARK  1 active torsions:
REMARK  status: ('A' for Active; 'I' for Inactive)
REMARK    1  A    between atoms: C2_2  and  C5_5 
ROOT
HETATM    1  C1  UNL     1     -24.175  17.851   9.844  1.00 20.00     0.153 A 
HETATM    2  C2  UNL     1     -23.783  17.468  11.259  1.00 20.00     0.096 A 
HETATM    3  C3  UNL     1     -24.119  19.244   9.327  1.00 20.00     0.042 C 
HETATM    4  C4  UNL     1     -24.324  16.196  11.833  1.00 20.00     0.050 C 
HETATM    5  O6  UNL     1     -22.900  17.270  10.144  1.00 20.00    -0.369 OA
ENDROOT
BRANCH   2   6
HETATM    6  C5  UNL     1     -23.305  18.492  12.240  1.00 20.00     0.154 C 
HETATM    7 CL7  UNL     1     -21.524  18.512  12.329  1.00 20.00    -0.127 Cl
ENDBRANCH   2   6
TORSDOF 1
ENDMDL
MODEL 7
REMARK VINA RESULT:      -3.1     16.853     17.556
REMARK  1 active torsions:
REMARK  status: ('A' for Active; 'I' for Inactive)
REMARK    1  A    between atoms: C2_2  and  C5_5 
ROOT
HETATM    1  C1  UNL     1     -24.260  18.682  10.491  1.00 20.00     0.153 A 
HETATM    2  C2  UNL     1     -22.814  18.433  10.879  1.00 20.00     0.096 A 
HETATM    3  C3  UNL     1     -24.673  19.225   9.170  1.00 20.00     0.042 C 
HETATM    4  C4  UNL     1     -22.463  18.371  12.332  1.00 20.00     0.050 C 
HETATM    5  O6  UNL     1     -23.680  17.372  10.447  1.00 20.00    -0.369 OA
ENDROOT
BRANCH   2   6
HETATM    6  C5  UNL     1     -21.693  18.727   9.933  1.00 20.00     0.154 C 
HETATM    7 CL7  UNL     1     -21.356  17.326   8.883  1.00 20.00    -0.127 Cl
ENDBRANCH   2   6
TORSDOF 1
ENDMDL
MODEL 8
REMARK VINA RESULT:      -3.0      1.571      1.944
REMARK  1 active torsions:
REMARK  status: ('A' for Active; 'I' for Inactive)
REMARK    1  A    between atoms: C2_2  and  C5_5 
ROOT
HETATM    1  C1  UNL     1     -34.287   6.512   5.840  1.00 20.00     0.153 A 
HETATM    2  C2  UNL     1     -34.023   5.724   4.570  1.00 20.00     0.096 A 
HETATM    3  C3  UNL     1     -33.793   7.896   6.063  1.00 20.00     0.042 C 
HETATM    4  C4  UNL     1     -34.112   4.231   4.622  1.00 20.00     0.050 C 
HETATM    5  O6  UNL     1     -35.275   6.386   4.809  1.00 20.00    -0.369 OA
ENDROOT
BRANCH   2   6
HETATM    6  C5  UNL     1     -33.232   6.306   3.442  1.00 20.00     0.154 C 
HETATM    7 CL7  UNL     1     -32.785   5.051   2.257  1.00 20.00    -0.127 Cl
ENDBRANCH   2   6
TORSDOF 1
ENDMDL
MODEL 9
REMARK VINA RESULT:      -3.0      2.575      3.117
REMARK  1 active torsions:
REMARK  status: ('A' for Active; 'I' for Inactive)
REMARK    1  A    between atoms: C2_2  and  C5_5 
ROOT
HETATM    1  C1  UNL     1     -33.556   8.349   4.923  1.00 20.00     0.153 A 
HETATM    2  C2  UNL     1     -32.655   8.297   3.702  1.00 20.00     0.096 A 
HETATM    3  C3  UNL     1     -33.743   7.204   5.853  1.00 20.00     0.042 C 
HETATM    4  C4  UNL     1     -32.902   9.265   2.588  1.00 20.00     0.050 C 
HETATM    5  O6  UNL     1     -32.241   8.919   4.929  1.00 20.00    -0.369 OA
ENDROOT
BRANCH   2   6
HETATM    6  C5  UNL     1     -31.884   7.063   3.356  1.00 20.00     0.154 C 
HETATM    7 CL7  UNL     1     -32.950   5.814   2.660  1.00 20.00    -0.127 Cl
ENDBRANCH   2   6
TORSDOF 1
ENDMDL
