MODEL 1
REMARK VINA RESULT:      -3.8      0.000      0.000
REMARK  2 active torsions:
REMARK  status: ('A' for Active; 'I' for Inactive)
REMARK    1  A    between atoms: C2_2  and  C6_6 
REMARK    2  A    between atoms: C3_3  and  C7_7 
ROOT
HETATM    1  C1  UNL     1     -30.705  18.859   0.592  1.00 20.00     0.133 A 
HETATM    2  C2  UNL     1     -31.706  18.890   1.540  1.00 20.00     0.016 A 
HETATM    3  C3  UNL     1     -32.421  18.494  -0.726  1.00 20.00     0.078 A 
HETATM    4  N8  UNL     1     -31.113  18.631  -0.708  1.00 20.00    -0.257 NA
HETATM    5  S9  UNL     1     -33.223  18.627   0.786  1.00 20.00    -0.076 SA
ENDROOT
BRANCH   3   6
HETATM    6  C7  UNL     1     -33.240  18.231  -1.975  1.00 20.00     0.037 C 
HETATM    7  C4  UNL     1     -34.647  18.823  -1.859  1.00 20.00     0.016 C 
HETATM    8  C5  UNL     1     -33.304  16.737  -2.302  1.00 20.00     0.016 C 
ENDBRANCH   3   6
BRANCH   2   9
HETATM    9  C6  UNL     1     -31.619  19.106   2.997  1.00 20.00     0.162 C 
HETATM   10 CL10 UNL     1     -29.953  18.865   3.587  1.00 20.00    -0.125 Cl
ENDBRANCH   2   9
TORSDOF 2
ENDMDL
MODEL 2
REMARK VINA RESULT:      -3.8     11.712     12.427
REMARK  2 active torsions:
REMARK  status: ('A' for Active; 'I' for Inactive)
REMARK    1  A    between atoms: C2_2  and  C6_6 
REMARK    2  A    between atoms: C3_3  and  C7_7 
ROOT
HETATM    1  C1  UNL     1     -32.517   8.771   3.546  1.00 20.00     0.133 A 
HETATM    2  C2  UNL     1     -32.392   7.908   2.478  1.00 20.00     0.016 A 
HETATM    3  C3  UNL     1     -33.309   6.958   4.493  1.00 20.00     0.078 A 
HETATM    4  N8  UNL     1     -33.044   8.229   4.702  1.00 20.00    -0.257 NA
HETATM    5  S9  UNL     1     -32.951   6.351   2.927  1.00 20.00    -0.076 SA
ENDROOT
BRANCH   3   6
HETATM    6  C7  UNL     1     -33.899   6.021   5.529  1.00 20.00     0.037 C 
HETATM    7  C4  UNL     1     -34.997   5.138   4.930  1.00 20.00     0.016 C 
HETATM    8  C5  UNL     1     -34.421   6.787   6.748  1.00 20.00     0.016 C 
ENDBRANCH   3   6
BRANCH   2   9
HETATM    9  C6  UNL     1     -31.877   8.158   1.118  1.00 20.00     0.162 C 
HETATM   10 CL10 UNL     1     -32.749   9.502   0.335  1.00 20.00    -0.125 Cl
ENDBRANCH   2   9
TORSDOF 2
ENDMDL
MODEL 3
REMARK VINA RESULT:      -3.7      3.562      5.217
REMARK  2 active torsions:
REMARK  status: ('A' for Active; 'I' for Inactive)
REMARK    1  A    between atoms: C2_2  and  C6_6 
REMARK    2  A    between atoms: C3_3  and  C7_7 
ROOT
HETATM    1  C1  UNL     1     -32.998  18.580  -3.897  1.00 20.00     0.133 A 
HETATM    2  C2  UNL     1     -33.565  17.350  -3.638  1.00 20.00     0.016 A 
HETATM    3  C3  UNL     1     -32.715  18.538  -1.722  1.00 20.00     0.078 A 
HETATM    4  N8  UNL     1     -32.510  19.263  -2.800  1.00 20.00    -0.257 NA
HETATM    5  S9  UNL     1     -33.489  17.023  -1.957  1.00 20.00    -0.076 SA
ENDROOT
BRANCH   3   6
HETATM    6  C7  UNL     1     -32.316  18.952  -0.319  1.00 20.00     0.037 C 
HETATM    7  C4  UNL     1     -30.919  18.442   0.043  1.00 20.00     0.016 C 
HETATM    8  C5  UNL     1     -33.347  18.496   0.717  1.00 20.00     0.016 C 
ENDBRANCH   3   6
BRANCH   2   9
HETATM    9  C6  UNL     1     -34.172  16.376  -4.565  1.00 20.00     0.162 C 
HETATM   10 CL10 UNL     1     -33.763  14.702  -4.102  1.00 20.00    -0.125 Cl
ENDBRANCH   2   9
TORSDOF 2
ENDMDL
MODEL 4
REMARK VINA RESULT:      -3.7      2.547      4.729
REMARK  2 active torsions:
REMARK  status: ('A' for Active; 'I' for Inactive)
REMARK    1  A    between atoms: C2_2  and  C6_6 
REMARK    2  A    between atoms: C3_3  and  C7_7 
ROOT
HETATM    1  C1  UNL     1     -31.397  18.615  -0.604  1.00 20.00     0.133 A 
HETATM    2  C2  UNL     1     -32.702  18.433  -0.196  1.00 20.00     0.016 A 
HETATM    3  C3  UNL     1     -31.122  18.960   1.545  1.00 20.00     0.078 A 
HETATM    4  N8  UNL     1     -30.490  18.918   0.393  1.00 20.00    -0.257 NA
HETATM    5  S9  UNL     1     -32.809  18.646   1.502  1.00 20.00    -0.076 SA
ENDROOT
BRANCH   3   6
HETATM    6  C7  UNL     1     -30.462  19.263   2.877  1.00 20.00     0.037 C 
HETATM    7  C4  UNL     1     -29.148  18.496   3.041  1.00 20.00     0.016 C 
HETATM    8  C5  UNL     1     -31.406  18.982   4.049  1.00 20.00     0.016 C 
ENDBRANCH   3   6
BRANCH   2   9
HETATM    9  C6  UNL     1     -33.903  18.106  -0.988  1.00 20.00     0.162 C 
HETATM   10 CL10 UNL     1     -33.574  16.785  -2.141  1.00 20.00    -0.125 Cl
ENDBRANCH   2   9
TORSDOF 2
ENDMDL
MODEL 5
REMARK VINA RESULT:      -3.7     12.089     12.847
REMARK  2 active torsions:
REMARK  status: ('A' for Active; 'I' for Inactive)
REMARK    1  A    between atoms: C2_2  and  C6_6 
REMARK    2  A    between atoms: C3_3  and  C7_7 
ROOT
HETATM    1  C1  UNL     1     -32.841   5.944   2.469  1.00 20.00     0.133 A 
HETATM    2  C2  UNL     1     -32.512   7.283   2.488  1.00 20.00     0.016 A 
HETATM    3  C3  UNL     1     -33.772   6.486   4.380  1.00 20.00     0.078 A 
HETATM    4  N8  UNL     1     -33.563   5.485   3.554  1.00 20.00    -0.257 NA
HETATM    5  S9  UNL     1     -33.127   8.008   3.915  1.00 20.00    -0.076 SA
ENDROOT
BRANCH   3   6
HETATM    6  C7  UNL     1     -34.532   6.376   5.688  1.00 20.00     0.037 C 
HETATM    7  C4  UNL     1     -34.027   7.388   6.719  1.00 20.00     0.016 C 
HETATM    8  C5  UNL     1     -34.480   4.954   6.252  1.00 20.00     0.016 C 
ENDBRANCH   3   6
BRANCH   2   9
HETATM    9  C6  UNL     1     -31.758   8.084   1.505  1.00 20.00     0.162 C 
HETATM   10 CL10 UNL     1     -32.758   9.409   0.850  1.00 20.00    -0.125 Cl
ENDBRANCH   2   9
TORSDOF 2
ENDMDL
MODEL 6
REMARK VINA RESULT:      -3.5      4.405      6.030
REMARK  2 active torsions:
REMARK  status: ('A' for Active; 'I' for Inactive)
REMARK    1  A    between atoms: C2_2  and  C6_6 
REMARK    2  A    between atoms: C3_3  and  C7_7 
ROOT
HETATM    1  C1  UNL     1     -33.674  15.921  -3.587  1.00 20.00     0.133 A 
HETATM    2  C2  UNL     1     -34.133  16.894  -4.450  1.00 20.00     0.016 A 
HETATM    3  C3  UNL     1     -33.441  17.663  -2.274  1.00 20.00     0.078 A 
HETATM    4  N8  UNL     1     -33.276  16.360  -2.339  1.00 20.00    -0.257 NA
HETATM    5  S9  UNL     1     -34.070  18.425  -3.679  1.00 20.00    -0.076 SA
ENDROOT
BRANCH   3   6
HETATM    6  C7  UNL     1     -33.115  18.511  -1.060  1.00 20.00     0.037 C 
HETATM    7  C4  UNL     1     -31.616  18.501  -0.752  1.00 20.00     0.016 C 
HETATM    8  C5  UNL     1     -33.924  18.074   0.165  1.00 20.00     0.016 C 
ENDBRANCH   3   6
BRANCH   2   9
HETATM    9  C6  UNL     1     -34.626  16.772  -5.835  1.00 20.00     0.162 C 
HETATM   10 CL10 UNL     1     -34.047  15.265  -6.595  1.00 20.00    -0.125 Cl
ENDBRANCH   2   9
TORSDOF 2
ENDMDL
MODEL 7
REMARK VINA RESULT:      -3.4      1.440      1.621
REMARK  2 active torsions:
REMARK  status: ('A' for Active; 'I' for Inactive)
REMARK    1  A    between atoms: C2_2  and  C6_6 
REMARK    2  A    between atoms: C3_3  and  C7_7 
ROOT
HETATM    1  C1  UNL     1     -33.575  18.892   1.121  1.00 20.00     0.133 A 
HETATM    2  C2  UNL     1     -32.226  18.941   1.400  1.00 20.00     0.016 A 
HETATM    3  C3  UNL     1     -32.809  18.356  -0.863  1.00 20.00     0.078 A 
HETATM    4  N8  UNL     1     -33.912  18.558  -0.176  1.00 20.00    -0.257 NA
HETATM    5  S9  UNL     1     -31.331  18.552  -0.010  1.00 20.00    -0.076 SA
ENDROOT
BRANCH   3   6
HETATM    6  C7  UNL     1     -32.768  17.969  -2.329  1.00 20.00     0.037 C 
HETATM    7  C4  UNL     1     -33.419  19.036  -3.211  1.00 20.00     0.016 C 
HETATM    8  C5  UNL     1     -33.410  16.600  -2.567  1.00 20.00     0.016 C 
ENDBRANCH   3   6
BRANCH   2   9
HETATM    9  C6  UNL     1     -31.533  19.262   2.663  1.00 20.00     0.162 C 
HETATM   10 CL10 UNL     1     -29.878  18.598   2.677  1.00 20.00    -0.125 Cl
ENDBRANCH   2   9
TORSDOF 2
ENDMDL
MODEL 8
REMARK VINA RESULT:      -3.4      3.868      5.111
REMARK  2 active torsions:
REMARK  status: ('A' for Active; 'I' for Inactive)
REMARK    1  A    between atoms: C2_2  and  C6_6 
REMARK    2  A    between atoms: C3_3  and  C7_7 
ROOT
HETATM    1  C1  UNL     1     -33.220  16.463  -2.737  1.00 20.00     0.133 A 
HETATM    2  C2  UNL     1     -33.313  17.805  -3.040  1.00 20.00     0.016 A 
HETATM    3  C3  UNL     1     -34.305  16.298  -4.636  1.00 20.00     0.078 A 
HETATM    4  N8  UNL     1     -33.789  15.597  -3.650  1.00 20.00    -0.257 NA
HETATM    5  S9  UNL     1     -34.143  18.003  -4.528  1.00 20.00    -0.076 SA
ENDROOT
BRANCH   3   6
HETATM    6  C7  UNL     1     -35.018  15.700  -5.834  1.00 20.00     0.037 C 
HETATM    7  C4  UNL     1     -35.846  14.474  -5.442  1.00 20.00     0.016 C 
HETATM    8  C5  UNL     1     -34.037  15.357  -6.958  1.00 20.00     0.016 C 
ENDBRANCH   3   6
BRANCH   2   9
HETATM    9  C6  UNL     1     -32.822  18.979  -2.293  1.00 20.00     0.162 C 
HETATM   10 CL10 UNL     1     -31.754  18.488  -0.951  1.00 20.00    -0.125 Cl
ENDBRANCH   2   9
TORSDOF 2
ENDMDL
MODEL 9
REMARK VINA RESULT:      -3.4      2.786      3.915
REMARK  2 active torsions:
REMARK  status: ('A' for Active; 'I' for Inactive)
REMARK    1  A    between atoms: C2_2  and  C6_6 
REMARK    2  A    between atoms: C3_3  and  C7_7 
ROOT
HETATM    1  C1  UNL     1     -32.950  19.237  -3.243  1.00 20.00     0.133 A 
HETATM    2  C2  UNL     1     -32.843  18.676  -1.988  1.00 20.00     0.016 A 
HETATM    3  C3  UNL     1     -33.745  17.245  -3.703  1.00 20.00     0.078 A 
HETATM    4  N8  UNL     1     -33.466  18.418  -4.228  1.00 20.00    -0.257 NA
HETATM    5  S9  UNL     1     -33.411  17.059  -2.029  1.00 20.00    -0.076 SA
ENDROOT
BRANCH   3   6
HETATM    6  C7  UNL     1     -34.332  16.076  -4.472  1.00 20.00     0.037 C 
HETATM    7  C4  UNL     1     -33.552  14.785  -4.215  1.00 20.00     0.016 C 
HETATM    8  C5  UNL     1     -34.412  16.374  -5.971  1.00 20.00     0.016 C 
ENDBRANCH   3   6
BRANCH   2   9
HETATM    9  C6  UNL     1     -32.341  19.263  -0.731  1.00 20.00     0.162 C 
HETATM   10 CL10 UNL     1     -31.033  18.270  -0.033  1.00 20.00    -0.125 Cl
ENDBRANCH   2   9
TORSDOF 2
ENDMDL
