MODEL 1
REMARK VINA RESULT:      -4.3      0.000      0.000
REMARK  0 active torsions:
REMARK  status: ('A' for Active; 'I' for Inactive)
ROOT
HETATM    1  C1  UNL     1     -33.346  16.582  -2.258  1.00 20.00     0.047 A 
HETATM    2  C2  UNL     1     -33.705  16.326  -3.594  1.00 20.00     0.026 A 
HETATM    3  C3  UNL     1     -34.226  17.421  -4.221  1.00 20.00    -0.001 A 
HETATM    4  C4  UNL     1     -33.625  17.898  -1.928  1.00 20.00     0.075 A 
HETATM    5  C5  UNL     1     -33.686  15.219  -4.514  1.00 20.00     0.175 A 
HETATM    6  C6  UNL     1     -34.607  17.212  -5.641  1.00 20.00     0.071 A 
HETATM    7  C7  UNL     1     -34.302  15.697  -5.838  1.00 20.00     0.137 A 
HETATM    8  O8  UNL     1     -33.270  14.097  -4.267  1.00 20.00    -0.291 OA
HETATM    9  S9  UNL     1     -34.311  18.783  -3.249  1.00 20.00    -0.082 SA
HETATM   10 CL10 UNL     1     -33.367  18.680  -0.423  1.00 20.00    -0.076 Cl
HETATM   11 BR11 UNL     1     -35.936  14.680  -6.075  1.00 20.00    -0.082 Br
ENDROOT
TORSDOF 0
ENDMDL
MODEL 2
REMARK VINA RESULT:      -3.9      6.030      6.964
REMARK  0 active torsions:
REMARK  status: ('A' for Active; 'I' for Inactive)
ROOT
HETATM    1  C1  UNL     1     -29.589  18.825   2.186  1.00 20.00     0.047 A 
HETATM    2  C2  UNL     1     -30.840  18.950   1.555  1.00 20.00     0.026 A 
HETATM    3  C3  UNL     1     -31.866  19.108   2.441  1.00 20.00    -0.001 A 
HETATM    4  C4  UNL     1     -29.734  18.892   3.563  1.00 20.00     0.075 A 
HETATM    5  C5  UNL     1     -31.366  18.956   0.215  1.00 20.00     0.175 A 
HETATM    6  C6  UNL     1     -33.210  19.263   1.828  1.00 20.00     0.071 A 
HETATM    7  C7  UNL     1     -32.893  19.100   0.311  1.00 20.00     0.137 A 
HETATM    8  O8  UNL     1     -30.707  18.847  -0.807  1.00 20.00    -0.291 OA
HETATM    9  S9  UNL     1     -31.383  19.109   4.046  1.00 20.00    -0.082 SA
HETATM   10 CL10 UNL     1     -28.505  18.788   4.754  1.00 20.00    -0.076 Cl
HETATM   11 BR11 UNL     1     -33.638  17.450  -0.385  1.00 20.00    -0.082 Br
ENDROOT
TORSDOF 0
ENDMDL
MODEL 3
REMARK VINA RESULT:      -3.6      3.855      4.630
REMARK  0 active torsions:
REMARK  status: ('A' for Active; 'I' for Inactive)
ROOT
HETATM    1  C1  UNL     1     -35.292  17.602  -6.033  1.00 20.00     0.047 A 
HETATM    2  C2  UNL     1     -34.441  17.288  -4.958  1.00 20.00     0.026 A 
HETATM    3  C3  UNL     1     -34.418  15.952  -4.674  1.00 20.00    -0.001 A 
HETATM    4  C4  UNL     1     -35.894  16.454  -6.523  1.00 20.00     0.075 A 
HETATM    5  C5  UNL     1     -33.568  17.980  -4.046  1.00 20.00     0.175 A 
HETATM    6  C6  UNL     1     -33.521  15.561  -3.557  1.00 20.00     0.071 A 
HETATM    7  C7  UNL     1     -32.981  16.942  -3.078  1.00 20.00     0.137 A 
HETATM    8  O8  UNL     1     -33.356  19.183  -4.041  1.00 20.00    -0.291 OA
HETATM    9  S9  UNL     1     -35.406  15.031  -5.666  1.00 20.00    -0.082 SA
HETATM   10 CL10 UNL     1     -37.008  16.326  -7.820  1.00 20.00    -0.076 Cl
HETATM   11 BR11 UNL     1     -33.667  17.388  -1.320  1.00 20.00    -0.082 Br
ENDROOT
TORSDOF 0
ENDMDL
MODEL 4
REMARK VINA RESULT:      -3.5     12.838     13.665
REMARK  0 active torsions:
REMARK  status: ('A' for Active; 'I' for Inactive)
ROOT
HETATM    1  C1  UNL     1     -39.845  12.748   6.625  1.00 20.00     0.047 A 
HETATM    2  C2  UNL     1     -40.699  13.699   7.213  1.00 20.00     0.026 A 
HETATM    3  C3  UNL     1     -41.562  14.261   6.316  1.00 20.00    -0.001 A 
HETATM    4  C4  UNL     1     -40.110  12.635   5.269  1.00 20.00     0.075 A 
HETATM    5  C5  UNL     1     -40.930  14.268   8.514  1.00 20.00     0.175 A 
HETATM    6  C6  UNL     1     -42.500  15.261   6.887  1.00 20.00     0.071 A 
HETATM    7  C7  UNL     1     -42.040  15.323   8.375  1.00 20.00     0.137 A 
HETATM    8  O8  UNL     1     -40.332  13.972   9.536  1.00 20.00    -0.291 OA
HETATM    9  S9  UNL     1     -41.387  13.685   4.753  1.00 20.00    -0.082 SA
HETATM   10 CL10 UNL     1     -39.335  11.614   4.130  1.00 20.00    -0.076 Cl
HETATM   11 BR11 UNL     1     -41.219  17.032   8.782  1.00 20.00    -0.082 Br
ENDROOT
TORSDOF 0
ENDMDL
MODEL 5
REMARK VINA RESULT:      -3.4      1.412      1.664
REMARK  0 active torsions:
REMARK  status: ('A' for Active; 'I' for Inactive)
ROOT
HETATM    1  C1  UNL     1     -33.732  16.234  -3.653  1.00 20.00     0.047 A 
HETATM    2  C2  UNL     1     -34.177  16.588  -4.940  1.00 20.00     0.026 A 
HETATM    3  C3  UNL     1     -34.583  17.890  -5.021  1.00 20.00    -0.001 A 
HETATM    4  C4  UNL     1     -33.829  17.318  -2.795  1.00 20.00     0.075 A 
HETATM    5  C5  UNL     1     -34.337  15.962  -6.226  1.00 20.00     0.175 A 
HETATM    6  C6  UNL     1     -35.047  18.322  -6.363  1.00 20.00     0.071 A 
HETATM    7  C7  UNL     1     -34.944  17.001  -7.182  1.00 20.00     0.137 A 
HETATM    8  O8  UNL     1     -34.056  14.804  -6.493  1.00 20.00    -0.291 OA
HETATM    9  S9  UNL     1     -34.453  18.730  -3.577  1.00 20.00    -0.082 SA
HETATM   10 CL10 UNL     1     -33.411  17.380  -1.133  1.00 20.00    -0.076 Cl
HETATM   11 BR11 UNL     1     -36.702  16.337  -7.661  1.00 20.00    -0.082 Br
ENDROOT
TORSDOF 0
ENDMDL
MODEL 6
REMARK VINA RESULT:      -3.4      3.479      3.880
REMARK  0 active torsions:
REMARK  status: ('A' for Active; 'I' for Inactive)
ROOT
HETATM    1  C1  UNL     1     -31.549  18.757  -0.825  1.00 20.00     0.047 A 
HETATM    2  C2  UNL     1     -32.691  18.878  -1.637  1.00 20.00     0.026 A 
HETATM    3  C3  UNL     1     -33.856  18.751  -0.935  1.00 20.00    -0.001 A 
HETATM    4  C4  UNL     1     -31.915  18.535   0.493  1.00 20.00     0.075 A 
HETATM    5  C5  UNL     1     -32.997  19.097  -3.026  1.00 20.00     0.175 A 
HETATM    6  C6  UNL     1     -35.095  18.887  -1.741  1.00 20.00     0.071 A 
HETATM    7  C7  UNL     1     -34.526  19.062  -3.181  1.00 20.00     0.137 A 
HETATM    8  O8  UNL     1     -32.179  19.261  -3.917  1.00 20.00    -0.291 OA
HETATM    9  S9  UNL     1     -33.633  18.482   0.704  1.00 20.00    -0.082 SA
HETATM   10 CL10 UNL     1     -30.885  18.321   1.847  1.00 20.00    -0.076 Cl
HETATM   11 BR11 UNL     1     -34.925  17.517  -4.283  1.00 20.00    -0.082 Br
ENDROOT
TORSDOF 0
ENDMDL
MODEL 7
REMARK VINA RESULT:      -3.4      2.054      2.445
REMARK  0 active torsions:
REMARK  status: ('A' for Active; 'I' for Inactive)
ROOT
HETATM    1  C1  UNL     1     -35.150  18.137  -3.713  1.00 20.00     0.047 A 
HETATM    2  C2  UNL     1     -34.993  17.014  -4.545  1.00 20.00     0.026 A 
HETATM    3  C3  UNL     1     -34.037  16.150  -4.094  1.00 20.00    -0.001 A 
HETATM    4  C4  UNL     1     -34.274  18.069  -2.641  1.00 20.00     0.075 A 
HETATM    5  C5  UNL     1     -35.559  16.499  -5.765  1.00 20.00     0.175 A 
HETATM    6  C6  UNL     1     -33.842  14.936  -4.926  1.00 20.00     0.071 A 
HETATM    7  C7  UNL     1     -34.830  15.189  -6.104  1.00 20.00     0.137 A 
HETATM    8  O8  UNL     1     -36.446  17.028  -6.415  1.00 20.00    -0.291 OA
HETATM    9  S9  UNL     1     -33.292  16.643  -2.676  1.00 20.00    -0.082 SA
HETATM   10 CL10 UNL     1     -34.089  19.198  -1.364  1.00 20.00    -0.076 Cl
HETATM   11 BR11 UNL     1     -33.875  15.513  -7.761  1.00 20.00    -0.082 Br
ENDROOT
TORSDOF 0
ENDMDL
MODEL 8
REMARK VINA RESULT:      -3.2      3.871      4.671
REMARK  0 active torsions:
REMARK  status: ('A' for Active; 'I' for Inactive)
ROOT
HETATM    1  C1  UNL     1     -35.579  16.710  -5.040  1.00 20.00     0.047 A 
HETATM    2  C2  UNL     1     -34.697  17.159  -4.040  1.00 20.00     0.026 A 
HETATM    3  C3  UNL     1     -33.672  16.287  -3.807  1.00 20.00    -0.001 A 
HETATM    4  C4  UNL     1     -35.168  15.480  -5.527  1.00 20.00     0.075 A 
HETATM    5  C5  UNL     1     -34.559  18.296  -3.168  1.00 20.00     0.175 A 
HETATM    6  C6  UNL     1     -32.700  16.721  -2.772  1.00 20.00     0.071 A 
HETATM    7  C7  UNL     1     -33.326  18.061  -2.282  1.00 20.00     0.137 A 
HETATM    8  O8  UNL     1     -35.307  19.261  -3.134  1.00 20.00    -0.291 OA
HETATM    9  S9  UNL     1     -33.725  14.910  -4.760  1.00 20.00    -0.082 SA
HETATM   10 CL10 UNL     1     -35.914  14.531  -6.746  1.00 20.00    -0.076 Cl
HETATM   11 BR11 UNL     1     -33.984  17.903  -0.465  1.00 20.00    -0.082 Br
ENDROOT
TORSDOF 0
ENDMDL
MODEL 9
REMARK VINA RESULT:      -3.2     12.679     13.533
REMARK  0 active torsions:
REMARK  status: ('A' for Active; 'I' for Inactive)
ROOT
HETATM    1  C1  UNL     1     -40.979  13.243   4.860  1.00 20.00     0.047 A 
HETATM    2  C2  UNL     1     -41.247  13.915   6.066  1.00 20.00     0.026 A 
HETATM    3  C3  UNL     1     -40.386  13.567   7.068  1.00 20.00    -0.001 A 
HETATM    4  C4  UNL     1     -39.898  12.390   5.013  1.00 20.00     0.075 A 
HETATM    5  C5  UNL     1     -42.188  14.883   6.565  1.00 20.00     0.175 A 
HETATM    6  C6  UNL     1     -40.612  14.261   8.361  1.00 20.00     0.071 A 
HETATM    7  C7  UNL     1     -41.877  15.116   8.052  1.00 20.00     0.137 A 
HETATM    8  O8  UNL     1     -43.082  15.404   5.918  1.00 20.00    -0.291 OA
HETATM    9  S9  UNL     1     -39.240  12.433   6.613  1.00 20.00    -0.082 SA
HETATM   10 CL10 UNL     1     -39.198  11.361   3.832  1.00 20.00    -0.076 Cl
HETATM   11 BR11 UNL     1     -43.417  14.468   9.037  1.00 20.00    -0.082 Br
ENDROOT
TORSDOF 0
ENDMDL
