MODEL 1
REMARK VINA RESULT:      -4.1      0.000      0.000
REMARK  2 active torsions:
REMARK  status: ('A' for Active; 'I' for Inactive)
REMARK    1  A    between atoms: C2_2  and  C5_5 
REMARK    2  A    between atoms: C9_9  and  N10_10 
ROOT
HETATM    1  C3  UNL     1     -33.164   8.665   5.299  1.00 20.00     0.070 C 
HETATM    2  C4  UNL     1     -33.824   7.607   6.203  1.00 20.00     0.277 C 
HETATM    3  C5  UNL     1     -33.347   7.619   4.175  1.00 20.00     0.247 C 
HETATM    4  N10 UNL     1     -33.341   6.579   5.243  1.00 20.00     0.105 N 
ENDROOT
BRANCH   4   5
HETATM    5  C9  UNL     1     -34.379   5.581   5.002  1.00 20.00     0.150 C 
HETATM    6  C6  UNL     1     -33.823   4.479   4.094  1.00 20.00     0.048 C 
HETATM    7  C7  UNL     1     -34.814   4.978   6.342  1.00 20.00     0.048 C 
HETATM    8  C8  UNL     1     -35.578   6.252   4.321  1.00 20.00     0.048 C 
ENDBRANCH   4   5
BRANCH   3   9
HETATM    9  C2  UNL     1     -32.208   7.458   3.254  1.00 20.00    -0.002 C 
HETATM   10  C1  UNL     1     -32.264   7.713   1.943  1.00 20.00     0.009 C 
ENDBRANCH   3   9
TORSDOF 2
ENDMDL
MODEL 2
REMARK VINA RESULT:      -4.1      0.090      1.359
REMARK  2 active torsions:
REMARK  status: ('A' for Active; 'I' for Inactive)
REMARK    1  A    between atoms: C2_2  and  C5_5 
REMARK    2  A    between atoms: C9_9  and  N10_10 
ROOT
HETATM    1  C3  UNL     1     -33.086   8.655   5.198  1.00 20.00     0.070 C 
HETATM    2  C4  UNL     1     -33.744   7.638   6.150  1.00 20.00     0.277 C 
HETATM    3  C5  UNL     1     -33.326   7.582   4.110  1.00 20.00     0.247 C 
HETATM    4  N10 UNL     1     -33.313   6.573   5.206  1.00 20.00     0.105 N 
ENDROOT
BRANCH   4   5
HETATM    5  C9  UNL     1     -34.380   5.594   5.023  1.00 20.00     0.150 C 
HETATM    6  C6  UNL     1     -35.563   6.259   4.311  1.00 20.00     0.048 C 
HETATM    7  C7  UNL     1     -33.852   4.431   4.175  1.00 20.00     0.048 C 
HETATM    8  C8  UNL     1     -34.831   5.074   6.394  1.00 20.00     0.048 C 
ENDBRANCH   4   5
BRANCH   3   9
HETATM    9  C2  UNL     1     -32.217   7.370   3.162  1.00 20.00    -0.002 C 
HETATM   10  C1  UNL     1     -32.244   7.753   1.881  1.00 20.00     0.009 C 
ENDBRANCH   3   9
TORSDOF 2
ENDMDL
MODEL 3
REMARK VINA RESULT:      -3.4      1.127      1.773
REMARK  2 active torsions:
REMARK  status: ('A' for Active; 'I' for Inactive)
REMARK    1  A    between atoms: C2_2  and  C5_5 
REMARK    2  A    between atoms: C9_9  and  N10_10 
ROOT
HETATM    1  C3  UNL     1     -32.639   8.461   3.775  1.00 20.00     0.070 C 
HETATM    2  C4  UNL     1     -33.169   8.273   5.210  1.00 20.00     0.277 C 
HETATM    3  C5  UNL     1     -33.263   7.071   3.511  1.00 20.00     0.247 C 
HETATM    4  N10 UNL     1     -33.111   6.807   4.971  1.00 20.00     0.105 N 
ENDROOT
BRANCH   4   5
HETATM    5  C9  UNL     1     -34.303   6.157   5.507  1.00 20.00     0.150 C 
HETATM    6  C6  UNL     1     -35.474   6.365   4.540  1.00 20.00     0.048 C 
HETATM    7  C7  UNL     1     -34.025   4.659   5.671  1.00 20.00     0.048 C 
HETATM    8  C8  UNL     1     -34.646   6.773   6.869  1.00 20.00     0.048 C 
ENDBRANCH   4   5
BRANCH   3   9
HETATM    9  C2  UNL     1     -32.449   6.144   2.704  1.00 20.00    -0.002 C 
HETATM   10  C1  UNL     1     -32.886   4.964   2.252  1.00 20.00     0.009 C 
ENDBRANCH   3   9
TORSDOF 2
ENDMDL
MODEL 4
REMARK VINA RESULT:      -3.3     12.181     14.056
REMARK  2 active torsions:
REMARK  status: ('A' for Active; 'I' for Inactive)
REMARK    1  A    between atoms: C2_2  and  C5_5 
REMARK    2  A    between atoms: C9_9  and  N10_10 
ROOT
HETATM    1  C3  UNL     1     -33.864  14.481  -4.302  1.00 20.00     0.070 C 
HETATM    2  C4  UNL     1     -34.213  14.999  -5.710  1.00 20.00     0.277 C 
HETATM    3  C5  UNL     1     -34.146  15.933  -3.850  1.00 20.00     0.247 C 
HETATM    4  N10 UNL     1     -33.816  16.353  -5.242  1.00 20.00     0.105 N 
ENDROOT
BRANCH   4   5
HETATM    5  C9  UNL     1     -34.764  17.355  -5.720  1.00 20.00     0.150 C 
HETATM    6  C6  UNL     1     -34.264  18.751  -5.336  1.00 20.00     0.048 C 
HETATM    7  C7  UNL     1     -34.880  17.246  -7.244  1.00 20.00     0.048 C 
HETATM    8  C8  UNL     1     -36.133  17.104  -5.076  1.00 20.00     0.048 C 
ENDBRANCH   4   5
BRANCH   3   9
HETATM    9  C2  UNL     1     -33.198  16.498  -2.872  1.00 20.00    -0.002 C 
HETATM   10  C1  UNL     1     -33.566  17.141  -1.759  1.00 20.00     0.009 C 
ENDBRANCH   3   9
TORSDOF 2
ENDMDL
MODEL 5
REMARK VINA RESULT:      -3.3     12.179     14.042
REMARK  2 active torsions:
REMARK  status: ('A' for Active; 'I' for Inactive)
REMARK    1  A    between atoms: C2_2  and  C5_5 
REMARK    2  A    between atoms: C9_9  and  N10_10 
ROOT
HETATM    1  C3  UNL     1     -33.860  14.481  -4.298  1.00 20.00     0.070 C 
HETATM    2  C4  UNL     1     -34.205  14.995  -5.708  1.00 20.00     0.277 C 
HETATM    3  C5  UNL     1     -34.145  15.934  -3.849  1.00 20.00     0.247 C 
HETATM    4  N10 UNL     1     -33.811  16.351  -5.241  1.00 20.00     0.105 N 
ENDROOT
BRANCH   4   5
HETATM    5  C9  UNL     1     -34.759  17.350  -5.724  1.00 20.00     0.150 C 
HETATM    6  C6  UNL     1     -36.126  17.110  -5.075  1.00 20.00     0.048 C 
HETATM    7  C7  UNL     1     -34.247  18.746  -5.353  1.00 20.00     0.048 C 
HETATM    8  C8  UNL     1     -34.886  17.232  -7.248  1.00 20.00     0.048 C 
ENDBRANCH   4   5
BRANCH   3   9
HETATM    9  C2  UNL     1     -33.201  16.501  -2.871  1.00 20.00    -0.002 C 
HETATM   10  C1  UNL     1     -33.572  17.145  -1.758  1.00 20.00     0.009 C 
ENDBRANCH   3   9
TORSDOF 2
ENDMDL
MODEL 6
REMARK VINA RESULT:      -3.2     12.203     13.648
REMARK  2 active torsions:
REMARK  status: ('A' for Active; 'I' for Inactive)
REMARK    1  A    between atoms: C2_2  and  C5_5 
REMARK    2  A    between atoms: C9_9  and  N10_10 
ROOT
HETATM    1  C3  UNL     1     -34.134  18.483  -5.032  1.00 20.00     0.070 C 
HETATM    2  C4  UNL     1     -34.797  17.505  -6.020  1.00 20.00     0.277 C 
HETATM    3  C5  UNL     1     -33.829  17.217  -4.198  1.00 20.00     0.247 C 
HETATM    4  N10 UNL     1     -34.997  16.581  -4.873  1.00 20.00     0.105 N 
ENDROOT
BRANCH   4   5
HETATM    5  C9  UNL     1     -34.687  15.209  -5.264  1.00 20.00     0.150 C 
HETATM    6  C6  UNL     1     -33.772  14.575  -4.211  1.00 20.00     0.048 C 
HETATM    7  C7  UNL     1     -35.991  14.411  -5.366  1.00 20.00     0.048 C 
HETATM    8  C8  UNL     1     -33.977  15.219  -6.623  1.00 20.00     0.048 C 
ENDBRANCH   4   5
BRANCH   3   9
HETATM    9  C2  UNL     1     -34.041  17.338  -2.745  1.00 20.00    -0.002 C 
HETATM   10  C1  UNL     1     -33.059  17.281  -1.838  1.00 20.00     0.009 C 
ENDBRANCH   3   9
TORSDOF 2
ENDMDL
MODEL 7
REMARK VINA RESULT:      -3.1     12.204     13.624
REMARK  2 active torsions:
REMARK  status: ('A' for Active; 'I' for Inactive)
REMARK    1  A    between atoms: C2_2  and  C5_5 
REMARK    2  A    between atoms: C9_9  and  N10_10 
ROOT
HETATM    1  C3  UNL     1     -34.128  18.481  -5.019  1.00 20.00     0.070 C 
HETATM    2  C4  UNL     1     -34.789  17.508  -6.013  1.00 20.00     0.277 C 
HETATM    3  C5  UNL     1     -33.826  17.211  -4.190  1.00 20.00     0.247 C 
HETATM    4  N10 UNL     1     -34.993  16.579  -4.870  1.00 20.00     0.105 N 
ENDROOT
BRANCH   4   5
HETATM    5  C9  UNL     1     -34.683  15.209  -5.266  1.00 20.00     0.150 C 
HETATM    6  C6  UNL     1     -33.975  15.221  -6.625  1.00 20.00     0.048 C 
HETATM    7  C7  UNL     1     -33.769  14.577  -4.211  1.00 20.00     0.048 C 
HETATM    8  C8  UNL     1     -35.986  14.406  -5.372  1.00 20.00     0.048 C 
ENDBRANCH   4   5
BRANCH   3   9
HETATM    9  C2  UNL     1     -34.041  17.326  -2.736  1.00 20.00    -0.002 C 
HETATM   10  C1  UNL     1     -33.059  17.294  -1.830  1.00 20.00     0.009 C 
ENDBRANCH   3   9
TORSDOF 2
ENDMDL
MODEL 8
REMARK VINA RESULT:      -3.1     10.221     11.245
REMARK  2 active torsions:
REMARK  status: ('A' for Active; 'I' for Inactive)
REMARK    1  A    between atoms: C2_2  and  C5_5 
REMARK    2  A    between atoms: C9_9  and  N10_10 
ROOT
HETATM    1  C3  UNL     1     -42.180  14.323   4.662  1.00 20.00     0.070 C 
HETATM    2  C4  UNL     1     -42.481  15.331   5.787  1.00 20.00     0.277 C 
HETATM    3  C5  UNL     1     -41.502  13.493   5.777  1.00 20.00     0.247 C 
HETATM    4  N10 UNL     1     -41.309  14.775   6.513  1.00 20.00     0.105 N 
ENDROOT
BRANCH   4   5
HETATM    5  C9  UNL     1     -41.618  14.611   7.930  1.00 20.00     0.150 C 
HETATM    6  C6  UNL     1     -42.572  13.425   8.108  1.00 20.00     0.048 C 
HETATM    7  C7  UNL     1     -40.319  14.352   8.700  1.00 20.00     0.048 C 
HETATM    8  C8  UNL     1     -42.285  15.890   8.453  1.00 20.00     0.048 C 
ENDBRANCH   4   5
BRANCH   3   9
HETATM    9  C2  UNL     1     -40.214  12.870   5.423  1.00 20.00    -0.002 C 
HETATM   10  C1  UNL     1     -39.783  11.705   5.919  1.00 20.00     0.009 C 
ENDBRANCH   3   9
TORSDOF 2
ENDMDL
MODEL 9
REMARK VINA RESULT:      -3.0     12.096     13.445
REMARK  2 active torsions:
REMARK  status: ('A' for Active; 'I' for Inactive)
REMARK    1  A    between atoms: C2_2  and  C5_5 
REMARK    2  A    between atoms: C9_9  and  N10_10 
ROOT
HETATM    1  C3  UNL     1     -28.073  -0.658  11.693  1.00 20.00     0.070 C 
HETATM    2  C4  UNL     1     -26.555  -0.474  11.883  1.00 20.00     0.277 C 
HETATM    3  C5  UNL     1     -27.702  -2.087  11.233  1.00 20.00     0.247 C 
HETATM    4  N10 UNL     1     -26.363  -1.543  10.867  1.00 20.00     0.105 N 
ENDROOT
BRANCH   4   5
HETATM    5  C9  UNL     1     -25.301  -2.454  11.282  1.00 20.00     0.150 C 
HETATM    6  C6  UNL     1     -25.848  -3.427  12.332  1.00 20.00     0.048 C 
HETATM    7  C7  UNL     1     -24.805  -3.234  10.061  1.00 20.00     0.048 C 
HETATM    8  C8  UNL     1     -24.146  -1.644  11.885  1.00 20.00     0.048 C 
ENDBRANCH   4   5
BRANCH   3   9
HETATM    9  C2  UNL     1     -28.425  -2.590  10.051  1.00 20.00    -0.002 C 
HETATM   10  C1  UNL     1     -28.996  -3.798   9.980  1.00 20.00     0.009 C 
ENDBRANCH   3   9
TORSDOF 2
ENDMDL
