MODEL 1
REMARK VINA RESULT:      -5.5      0.000      0.000
REMARK  2 active torsions:
REMARK  status: ('A' for Active; 'I' for Inactive)
REMARK    1  A    between atoms: C4_4  and  C7_7 
REMARK    2  A    between atoms: C5_5  and  O8_8 
ROOT
HETATM    1  C1  UNL     1     -33.839   6.939   6.375  1.00 20.00     0.007 C 
HETATM    2  C2  UNL     1     -34.664   5.650   6.305  1.00 20.00     0.032 C 
HETATM    3  C3  UNL     1     -33.791   6.198   4.105  1.00 20.00     0.036 C 
HETATM    4  C4  UNL     1     -33.798   7.475   4.945  1.00 20.00    -0.012 C 
HETATM    5  C5  UNL     1     -34.804   5.311   4.820  1.00 20.00     0.118 C 
ENDROOT
BRANCH   4   6
HETATM    6  C7  UNL     1     -32.603   8.373   4.676  1.00 20.00     0.000 C 
HETATM    7  C6  UNL     1     -31.876   7.978   3.429  1.00 20.00     0.005 C 
ENDBRANCH   4   6
BRANCH   5   8
HETATM    8  O8  UNL     1     -36.112   5.651   4.370  1.00 20.00    -0.396 OA
HETATM    9  H22 UNL     1     -36.439   6.340   4.970  1.00 20.00     0.210 HD
ENDBRANCH   5   8
TORSDOF 2
ENDMDL
MODEL 2
REMARK VINA RESULT:      -4.9      1.886      3.566
REMARK  2 active torsions:
REMARK  status: ('A' for Active; 'I' for Inactive)
REMARK    1  A    between atoms: C4_4  and  C7_7 
REMARK    2  A    between atoms: C5_5  and  O8_8 
ROOT
HETATM    1  C1  UNL     1     -33.514   6.113   3.966  1.00 20.00     0.007 C 
HETATM    2  C2  UNL     1     -32.562   6.668   2.902  1.00 20.00     0.032 C 
HETATM    3  C3  UNL     1     -32.533   8.096   4.867  1.00 20.00     0.036 C 
HETATM    4  C4  UNL     1     -33.834   7.293   4.882  1.00 20.00    -0.012 C 
HETATM    5  C5  UNL     1     -32.113   8.042   3.403  1.00 20.00     0.118 C 
ENDROOT
BRANCH   4   6
HETATM    6  C7  UNL     1     -34.258   6.869   6.278  1.00 20.00     0.000 C 
HETATM    7  C6  UNL     1     -34.628   5.420   6.334  1.00 20.00     0.005 C 
ENDBRANCH   4   6
BRANCH   5   8
HETATM    8  O8  UNL     1     -32.803   9.064   2.689  1.00 20.00    -0.396 OA
HETATM    9  H22 UNL     1     -32.210   9.351   1.976  1.00 20.00     0.210 HD
ENDBRANCH   5   8
TORSDOF 2
ENDMDL
MODEL 3
REMARK VINA RESULT:      -4.5      1.298      1.920
REMARK  2 active torsions:
REMARK  status: ('A' for Active; 'I' for Inactive)
REMARK    1  A    between atoms: C4_4  and  C7_7 
REMARK    2  A    between atoms: C5_5  and  O8_8 
ROOT
HETATM    1  C1  UNL     1     -34.024   6.725   4.005  1.00 20.00     0.007 C 
HETATM    2  C2  UNL     1     -34.961   5.725   4.691  1.00 20.00     0.032 C 
HETATM    3  C3  UNL     1     -34.043   7.263   6.332  1.00 20.00     0.036 C 
HETATM    4  C4  UNL     1     -33.121   7.263   5.113  1.00 20.00    -0.012 C 
HETATM    5  C5  UNL     1     -34.792   5.943   6.196  1.00 20.00     0.118 C 
ENDROOT
BRANCH   4   6
HETATM    6  C7  UNL     1     -32.542   8.633   4.801  1.00 20.00     0.000 C 
HETATM    7  C6  UNL     1     -32.543   8.919   3.333  1.00 20.00     0.005 C 
ENDBRANCH   4   6
BRANCH   5   8
HETATM    8  O8  UNL     1     -33.993   4.901   6.747  1.00 20.00    -0.396 OA
HETATM    9  H22 UNL     1     -33.148   4.919   6.269  1.00 20.00     0.210 HD
ENDBRANCH   5   8
TORSDOF 2
ENDMDL
MODEL 4
REMARK VINA RESULT:      -3.9      2.063      3.514
REMARK  2 active torsions:
REMARK  status: ('A' for Active; 'I' for Inactive)
REMARK    1  A    between atoms: C4_4  and  C7_7 
REMARK    2  A    between atoms: C5_5  and  O8_8 
ROOT
HETATM    1  C1  UNL     1     -33.492   8.648   5.637  1.00 20.00     0.007 C 
HETATM    2  C2  UNL     1     -32.810   9.153   4.362  1.00 20.00     0.032 C 
HETATM    3  C3  UNL     1     -33.404   6.811   4.114  1.00 20.00     0.036 C 
HETATM    4  C4  UNL     1     -33.338   7.128   5.607  1.00 20.00    -0.012 C 
HETATM    5  C5  UNL     1     -32.566   7.921   3.489  1.00 20.00     0.118 C 
ENDROOT
BRANCH   4   6
HETATM    6  C7  UNL     1     -34.398   6.403   6.419  1.00 20.00     0.000 C 
HETATM    7  C6  UNL     1     -34.896   5.177   5.721  1.00 20.00     0.005 C 
ENDBRANCH   4   6
BRANCH   5   8
HETATM    8  O8  UNL     1     -31.192   7.551   3.551  1.00 20.00    -0.396 OA
HETATM    9  H22 UNL     1     -30.700   8.356   3.776  1.00 20.00     0.210 HD
ENDBRANCH   5   8
TORSDOF 2
ENDMDL
MODEL 5
REMARK VINA RESULT:      -3.9      1.736      2.407
REMARK  2 active torsions:
REMARK  status: ('A' for Active; 'I' for Inactive)
REMARK    1  A    between atoms: C4_4  and  C7_7 
REMARK    2  A    between atoms: C5_5  and  O8_8 
ROOT
HETATM    1  C1  UNL     1     -34.351   5.187   4.391  1.00 20.00     0.007 C 
HETATM    2  C2  UNL     1     -34.843   5.699   5.748  1.00 20.00     0.032 C 
HETATM    3  C3  UNL     1     -33.555   7.426   4.627  1.00 20.00     0.036 C 
HETATM    4  C4  UNL     1     -33.165   6.077   4.026  1.00 20.00    -0.012 C 
HETATM    5  C5  UNL     1     -34.148   7.042   5.978  1.00 20.00     0.118 C 
ENDROOT
BRANCH   4   6
HETATM    6  C7  UNL     1     -32.903   6.142   2.530  1.00 20.00     0.000 C 
HETATM    7  C6  UNL     1     -32.230   7.419   2.136  1.00 20.00     0.005 C 
ENDBRANCH   4   6
BRANCH   5   8
HETATM    8  O8  UNL     1     -33.089   6.882   6.917  1.00 20.00    -0.396 OA
HETATM    9  H22 UNL     1     -32.392   7.503   6.654  1.00 20.00     0.210 HD
ENDBRANCH   5   8
TORSDOF 2
ENDMDL
MODEL 6
REMARK VINA RESULT:      -3.9     12.441     13.372
REMARK  2 active torsions:
REMARK  status: ('A' for Active; 'I' for Inactive)
REMARK    1  A    between atoms: C4_4  and  C7_7 
REMARK    2  A    between atoms: C5_5  and  O8_8 
ROOT
HETATM    1  C1  UNL     1     -34.483  17.182  -4.483  1.00 20.00     0.007 C 
HETATM    2  C2  UNL     1     -34.880  16.390  -5.733  1.00 20.00     0.032 C 
HETATM    3  C3  UNL     1     -33.993  14.886  -4.044  1.00 20.00     0.036 C 
HETATM    4  C4  UNL     1     -33.487  16.295  -3.738  1.00 20.00    -0.012 C 
HETATM    5  C5  UNL     1     -34.362  14.967  -5.521  1.00 20.00     0.118 C 
ENDROOT
BRANCH   4   6
HETATM    6  C7  UNL     1     -33.416  16.595  -2.250  1.00 20.00     0.000 C 
HETATM    7  C6  UNL     1     -32.860  17.957  -1.980  1.00 20.00     0.005 C 
ENDBRANCH   4   6
BRANCH   5   8
HETATM    8  O8  UNL     1     -33.187  14.761  -6.300  1.00 20.00    -0.396 OA
HETATM    9  H22 UNL     1     -33.366  15.142  -7.174  1.00 20.00     0.210 HD
ENDBRANCH   5   8
TORSDOF 2
ENDMDL
MODEL 7
REMARK VINA RESULT:      -3.8      1.730      2.419
REMARK  2 active torsions:
REMARK  status: ('A' for Active; 'I' for Inactive)
REMARK    1  A    between atoms: C4_4  and  C7_7 
REMARK    2  A    between atoms: C5_5  and  O8_8 
ROOT
HETATM    1  C1  UNL     1     -33.705   5.829   3.605  1.00 20.00     0.007 C 
HETATM    2  C2  UNL     1     -34.454   5.821   4.942  1.00 20.00     0.032 C 
HETATM    3  C3  UNL     1     -33.433   7.995   4.576  1.00 20.00     0.036 C 
HETATM    4  C4  UNL     1     -32.697   6.972   3.711  1.00 20.00    -0.012 C 
HETATM    5  C5  UNL     1     -34.091   7.130   5.645  1.00 20.00     0.118 C 
ENDROOT
BRANCH   4   6
HETATM    6  C7  UNL     1     -32.276   7.525   2.360  1.00 20.00     0.000 C 
HETATM    7  C6  UNL     1     -32.654   8.964   2.202  1.00 20.00     0.005 C 
ENDBRANCH   4   6
BRANCH   5   8
HETATM    8  O8  UNL     1     -33.143   6.874   6.678  1.00 20.00    -0.396 OA
HETATM    9  H22 UNL     1     -33.168   7.642   7.271  1.00 20.00     0.210 HD
ENDBRANCH   5   8
TORSDOF 2
ENDMDL
MODEL 8
REMARK VINA RESULT:      -3.8     16.287     16.769
REMARK  2 active torsions:
REMARK  status: ('A' for Active; 'I' for Inactive)
REMARK    1  A    between atoms: C4_4  and  C7_7 
REMARK    2  A    between atoms: C5_5  and  O8_8 
ROOT
HETATM    1  C1  UNL     1     -24.619  18.729  10.221  1.00 20.00     0.007 C 
HETATM    2  C2  UNL     1     -24.661  18.423  11.722  1.00 20.00     0.032 C 
HETATM    3  C3  UNL     1     -22.362  18.412  10.936  1.00 20.00     0.036 C 
HETATM    4  C4  UNL     1     -23.277  18.188   9.733  1.00 20.00    -0.012 C 
HETATM    5  C5  UNL     1     -23.242  18.010  12.115  1.00 20.00     0.118 C 
ENDROOT
BRANCH   4   6
HETATM    6  C7  UNL     1     -22.780  18.871   8.470  1.00 20.00     0.000 C 
HETATM    7  C6  UNL     1     -21.704  18.081   7.793  1.00 20.00     0.005 C 
ENDBRANCH   4   6
BRANCH   5   8
HETATM    8  O8  UNL     1     -23.178  16.596  12.275  1.00 20.00    -0.396 OA
HETATM    9  H22 UNL     1     -22.550  16.428  12.995  1.00 20.00     0.210 HD
ENDBRANCH   5   8
TORSDOF 2
ENDMDL
MODEL 9
REMARK VINA RESULT:      -3.8      2.099      3.337
REMARK  2 active torsions:
REMARK  status: ('A' for Active; 'I' for Inactive)
REMARK    1  A    between atoms: C4_4  and  C7_7 
REMARK    2  A    between atoms: C5_5  and  O8_8 
ROOT
HETATM    1  C1  UNL     1     -34.268   7.387   6.457  1.00 20.00     0.007 C 
HETATM    2  C2  UNL     1     -33.710   8.720   5.949  1.00 20.00     0.032 C 
HETATM    3  C3  UNL     1     -33.546   7.034   4.209  1.00 20.00     0.036 C 
HETATM    4  C4  UNL     1     -33.655   6.318   5.554  1.00 20.00    -0.012 C 
HETATM    5  C5  UNL     1     -33.058   8.425   4.597  1.00 20.00     0.118 C 
ENDROOT
BRANCH   4   6
HETATM    6  C7  UNL     1     -34.481   5.045   5.489  1.00 20.00     0.000 C 
HETATM    7  C6  UNL     1     -34.129   4.211   4.298  1.00 20.00     0.005 C 
ENDBRANCH   4   6
BRANCH   5   8
HETATM    8  O8  UNL     1     -31.641   8.391   4.743  1.00 20.00    -0.396 OA
HETATM    9  H22 UNL     1     -31.358   7.502   4.479  1.00 20.00     0.210 HD
ENDBRANCH   5   8
TORSDOF 2
ENDMDL
