MODEL 1
REMARK VINA RESULT:      -5.7      0.000      0.000
REMARK  2 active torsions:
REMARK  status: ('A' for Active; 'I' for Inactive)
REMARK    1  A    between atoms: C6_6  and  C8_8 
REMARK    2  A    between atoms: C7_7  and  C8_8 
ROOT
HETATM    1  C1  UNL     1     -34.758   5.812   6.220  1.00 20.00     0.001 A 
HETATM    2  C2  UNL     1     -34.770   5.010   5.011  1.00 20.00     0.001 A 
HETATM    3  C3  UNL     1     -34.022   6.918   6.017  1.00 20.00     0.013 A 
HETATM    4  C4  UNL     1     -34.042   5.621   4.062  1.00 20.00     0.013 A 
HETATM    5  C5  UNL     1     -33.540   6.846   4.653  1.00 20.00    -0.018 A 
HETATM    6  C7  UNL     1     -32.769   7.751   4.044  1.00 20.00     0.028 C 
HETATM    7 CL10 UNL     1     -32.213   9.142   4.917  1.00 20.00    -0.088 Cl
ENDROOT
BRANCH   6   8
HETATM    8  C8  UNL     1     -32.293   7.636   2.629  1.00 20.00     0.121 C 
BRANCH   8   9
HETATM    9  C6  UNL     1     -32.564   8.894   1.831  1.00 20.00     0.236 C 
HETATM   10  O9  UNL     1     -32.519   8.980   0.609  1.00 20.00    -0.307 OA
ENDBRANCH   8   9
ENDBRANCH   6   8
TORSDOF 2
ENDMDL
MODEL 2
REMARK VINA RESULT:      -5.3      1.667      2.050
REMARK  2 active torsions:
REMARK  status: ('A' for Active; 'I' for Inactive)
REMARK    1  A    between atoms: C6_6  and  C8_8 
REMARK    2  A    between atoms: C7_7  and  C8_8 
ROOT
HETATM    1  C1  UNL     1     -34.834   5.458   6.167  1.00 20.00     0.001 A 
HETATM    2  C2  UNL     1     -34.444   6.796   6.572  1.00 20.00     0.001 A 
HETATM    3  C3  UNL     1     -34.328   5.193   4.952  1.00 20.00     0.013 A 
HETATM    4  C4  UNL     1     -33.697   7.356   5.607  1.00 20.00     0.013 A 
HETATM    5  C5  UNL     1     -33.592   6.374   4.546  1.00 20.00    -0.018 A 
HETATM    6  C7  UNL     1     -32.930   6.530   3.396  1.00 20.00     0.028 C 
HETATM    7 CL10 UNL     1     -32.948   5.268   2.209  1.00 20.00    -0.088 Cl
ENDROOT
BRANCH   6   8
HETATM    8  C8  UNL     1     -32.182   7.771   3.019  1.00 20.00     0.121 C 
BRANCH   8   9
HETATM    9  C6  UNL     1     -32.151   7.985   1.520  1.00 20.00     0.236 C 
HETATM   10  O9  UNL     1     -32.493   9.013   0.945  1.00 20.00    -0.307 OA
ENDBRANCH   8   9
ENDBRANCH   6   8
TORSDOF 2
ENDMDL
MODEL 3
REMARK VINA RESULT:      -4.6      2.965      4.455
REMARK  2 active torsions:
REMARK  status: ('A' for Active; 'I' for Inactive)
REMARK    1  A    between atoms: C6_6  and  C8_8 
REMARK    2  A    between atoms: C7_7  and  C8_8 
ROOT
HETATM    1  C1  UNL     1     -31.860   8.805   4.065  1.00 20.00     0.001 A 
HETATM    2  C2  UNL     1     -32.831   9.112   5.099  1.00 20.00     0.001 A 
HETATM    3  C3  UNL     1     -32.145   7.608   3.526  1.00 20.00     0.013 A 
HETATM    4  C4  UNL     1     -33.714   8.105   5.199  1.00 20.00     0.013 A 
HETATM    5  C5  UNL     1     -33.320   7.115   4.214  1.00 20.00    -0.018 A 
HETATM    6  C7  UNL     1     -33.937   5.953   3.983  1.00 20.00     0.028 C 
HETATM    7 CL10 UNL     1     -33.303   4.858   2.799  1.00 20.00    -0.088 Cl
ENDROOT
BRANCH   6   8
HETATM    8  C8  UNL     1     -35.152   5.484   4.721  1.00 20.00     0.121 C 
BRANCH   8   9
HETATM    9  C6  UNL     1     -34.865   5.217   6.184  1.00 20.00     0.236 C 
HETATM   10  O9  UNL     1     -33.762   4.960   6.653  1.00 20.00    -0.307 OA
ENDBRANCH   8   9
ENDBRANCH   6   8
TORSDOF 2
ENDMDL
MODEL 4
REMARK VINA RESULT:      -4.1     11.712     12.859
REMARK  2 active torsions:
REMARK  status: ('A' for Active; 'I' for Inactive)
REMARK    1  A    between atoms: C6_6  and  C8_8 
REMARK    2  A    between atoms: C7_7  and  C8_8 
ROOT
HETATM    1  C1  UNL     1     -32.999  17.794  -1.980  1.00 20.00     0.001 A 
HETATM    2  C2  UNL     1     -33.164  18.771  -3.040  1.00 20.00     0.001 A 
HETATM    3  C3  UNL     1     -33.341  16.578  -2.434  1.00 20.00     0.013 A 
HETATM    4  C4  UNL     1     -33.609  18.157  -4.149  1.00 20.00     0.013 A 
HETATM    5  C5  UNL     1     -33.739  16.752  -3.816  1.00 20.00    -0.018 A 
HETATM    6  C7  UNL     1     -34.154  15.787  -4.642  1.00 20.00     0.028 C 
HETATM    7 CL10 UNL     1     -34.301  14.159  -4.066  1.00 20.00    -0.088 Cl
ENDROOT
BRANCH   6   8
HETATM    8  C8  UNL     1     -34.556  16.014  -6.066  1.00 20.00     0.121 C 
BRANCH   8   9
HETATM    9  C6  UNL     1     -35.859  15.322  -6.409  1.00 20.00     0.236 C 
HETATM   10  O9  UNL     1     -35.966  14.315  -7.099  1.00 20.00    -0.307 OA
ENDBRANCH   8   9
ENDBRANCH   6   8
TORSDOF 2
ENDMDL
MODEL 5
REMARK VINA RESULT:      -4.1     11.556     12.572
REMARK  2 active torsions:
REMARK  status: ('A' for Active; 'I' for Inactive)
REMARK    1  A    between atoms: C6_6  and  C8_8 
REMARK    2  A    between atoms: C7_7  and  C8_8 
ROOT
HETATM    1  C1  UNL     1     -33.123  18.910  -2.658  1.00 20.00     0.001 A 
HETATM    2  C2  UNL     1     -32.962  17.851  -1.678  1.00 20.00     0.001 A 
HETATM    3  C3  UNL     1     -33.526  18.383  -3.825  1.00 20.00     0.013 A 
HETATM    4  C4  UNL     1     -33.266  16.671  -2.242  1.00 20.00     0.013 A 
HETATM    5  C5  UNL     1     -33.634  16.954  -3.616  1.00 20.00    -0.018 A 
HETATM    6  C7  UNL     1     -34.007  16.052  -4.528  1.00 20.00     0.028 C 
HETATM    7 CL10 UNL     1     -34.366  16.557  -6.147  1.00 20.00    -0.088 Cl
ENDROOT
BRANCH   6   8
HETATM    8  C8  UNL     1     -34.105  14.581  -4.266  1.00 20.00     0.121 C 
BRANCH   8   9
HETATM    9  C6  UNL     1     -35.453  14.018  -4.664  1.00 20.00     0.236 C 
HETATM   10  O9  UNL     1     -35.888  12.921  -4.331  1.00 20.00    -0.307 OA
ENDBRANCH   8   9
ENDBRANCH   6   8
TORSDOF 2
ENDMDL
MODEL 6
REMARK VINA RESULT:      -3.9     11.630     12.011
REMARK  2 active torsions:
REMARK  status: ('A' for Active; 'I' for Inactive)
REMARK    1  A    between atoms: C6_6  and  C8_8 
REMARK    2  A    between atoms: C7_7  and  C8_8 
ROOT
HETATM    1  C1  UNL     1     -31.229  19.116   3.229  1.00 20.00     0.001 A 
HETATM    2  C2  UNL     1     -30.194  18.537   2.391  1.00 20.00     0.001 A 
HETATM    3  C3  UNL     1     -32.364  19.233   2.522  1.00 20.00     0.013 A 
HETATM    4  C4  UNL     1     -30.693  18.297   1.167  1.00 20.00     0.013 A 
HETATM    5  C5  UNL     1     -32.078  18.724   1.196  1.00 20.00    -0.018 A 
HETATM    6  C7  UNL     1     -32.939  18.658   0.177  1.00 20.00     0.028 C 
HETATM    7 CL10 UNL     1     -34.553  19.261   0.367  1.00 20.00    -0.088 Cl
ENDROOT
BRANCH   6   8
HETATM    8  C8  UNL     1     -32.599  18.123  -1.179  1.00 20.00     0.121 C 
BRANCH   8   9
HETATM    9  C6  UNL     1     -33.584  17.071  -1.643  1.00 20.00     0.236 C 
HETATM   10  O9  UNL     1     -33.401  16.288  -2.569  1.00 20.00    -0.307 OA
ENDBRANCH   8   9
ENDBRANCH   6   8
TORSDOF 2
ENDMDL
MODEL 7
REMARK VINA RESULT:      -3.9     12.141     13.054
REMARK  2 active torsions:
REMARK  status: ('A' for Active; 'I' for Inactive)
REMARK    1  A    between atoms: C6_6  and  C8_8 
REMARK    2  A    between atoms: C7_7  and  C8_8 
ROOT
HETATM    1  C1  UNL     1     -33.793  18.315  -2.243  1.00 20.00     0.001 A 
HETATM    2  C2  UNL     1     -33.352  16.965  -1.943  1.00 20.00     0.001 A 
HETATM    3  C3  UNL     1     -34.265  18.363  -3.499  1.00 20.00     0.013 A 
HETATM    4  C4  UNL     1     -33.552  16.180  -3.015  1.00 20.00     0.013 A 
HETATM    5  C5  UNL     1     -34.134  17.025  -4.040  1.00 20.00    -0.018 A 
HETATM    6  C7  UNL     1     -34.488  16.636  -5.268  1.00 20.00     0.028 C 
HETATM    7 CL10 UNL     1     -35.126  17.792  -6.391  1.00 20.00    -0.088 Cl
ENDROOT
BRANCH   6   8
HETATM    8  C8  UNL     1     -34.334  15.240  -5.785  1.00 20.00     0.121 C 
BRANCH   8   9
HETATM    9  C6  UNL     1     -35.669  14.593  -6.088  1.00 20.00     0.236 C 
HETATM   10  O9  UNL     1     -36.061  14.266  -7.203  1.00 20.00    -0.307 OA
ENDBRANCH   8   9
ENDBRANCH   6   8
TORSDOF 2
ENDMDL
MODEL 8
REMARK VINA RESULT:      -3.8      2.353      3.769
REMARK  2 active torsions:
REMARK  status: ('A' for Active; 'I' for Inactive)
REMARK    1  A    between atoms: C6_6  and  C8_8 
REMARK    2  A    between atoms: C7_7  and  C8_8 
ROOT
HETATM    1  C1  UNL     1     -32.171   9.293   4.829  1.00 20.00     0.001 A 
HETATM    2  C2  UNL     1     -32.245   8.796   3.467  1.00 20.00     0.001 A 
HETATM    3  C3  UNL     1     -32.908   8.509   5.632  1.00 20.00     0.013 A 
HETATM    4  C4  UNL     1     -33.027   7.706   3.431  1.00 20.00     0.013 A 
HETATM    5  C5  UNL     1     -33.478   7.477   4.790  1.00 20.00    -0.018 A 
HETATM    6  C7  UNL     1     -34.280   6.487   5.193  1.00 20.00     0.028 C 
HETATM    7 CL10 UNL     1     -34.764   6.389   6.854  1.00 20.00    -0.088 Cl
ENDROOT
BRANCH   6   8
HETATM    8  C8  UNL     1     -34.847   5.441   4.285  1.00 20.00     0.121 C 
BRANCH   8   9
HETATM    9  C6  UNL     1     -33.806   4.426   3.863  1.00 20.00     0.236 C 
HETATM   10  O9  UNL     1     -33.076   4.526   2.883  1.00 20.00    -0.307 OA
ENDBRANCH   8   9
ENDBRANCH   6   8
TORSDOF 2
ENDMDL
MODEL 9
REMARK VINA RESULT:      -3.8      2.362      4.060
REMARK  2 active torsions:
REMARK  status: ('A' for Active; 'I' for Inactive)
REMARK    1  A    between atoms: C6_6  and  C8_8 
REMARK    2  A    between atoms: C7_7  and  C8_8 
ROOT
HETATM    1  C1  UNL     1     -32.288   8.606   2.276  1.00 20.00     0.001 A 
HETATM    2  C2  UNL     1     -32.127   7.165   2.216  1.00 20.00     0.001 A 
HETATM    3  C3  UNL     1     -32.807   8.949   3.466  1.00 20.00     0.013 A 
HETATM    4  C4  UNL     1     -32.547   6.619   3.368  1.00 20.00     0.013 A 
HETATM    5  C5  UNL     1     -32.992   7.717   4.205  1.00 20.00    -0.018 A 
HETATM    6  C7  UNL     1     -33.487   7.608   5.441  1.00 20.00     0.028 C 
HETATM    7 CL10 UNL     1     -34.022   9.024   6.286  1.00 20.00    -0.088 Cl
ENDROOT
BRANCH   6   8
HETATM    8  C8  UNL     1     -33.661   6.310   6.167  1.00 20.00     0.121 C 
BRANCH   8   9
HETATM    9  C6  UNL     1     -34.901   5.567   5.717  1.00 20.00     0.236 C 
HETATM   10  O9  UNL     1     -34.916   4.624   4.933  1.00 20.00    -0.307 OA
ENDBRANCH   8   9
ENDBRANCH   6   8
TORSDOF 2
ENDMDL
