MODEL 1
REMARK VINA RESULT:      -3.8      0.000      0.000
REMARK  1 active torsions:
REMARK  status: ('A' for Active; 'I' for Inactive)
REMARK    1  A    between atoms: C2_2  and  C6_6 
ROOT
HETATM    1  C1  UNL     1     -32.995   8.284   4.471  1.00 20.00     0.134 A 
HETATM    2  C2  UNL     1     -33.296   6.939   4.419  1.00 20.00     0.006 A 
HETATM    3  C3  UNL     1     -32.398   7.891   2.398  1.00 20.00     0.167 A 
HETATM    4  N7  UNL     1     -32.480   8.832   3.312  1.00 20.00    -0.240 NA
HETATM    5  S8  UNL     1     -32.923   6.325   2.862  1.00 20.00    -0.061 SA
HETATM    6 CL9  UNL     1     -31.804   8.169   0.814  1.00 20.00    -0.054 Cl
ENDROOT
BRANCH   2   7
HETATM    7  C6  UNL     1     -33.867   6.029   5.490  1.00 20.00     0.019 C 
HETATM    8  C4  UNL     1     -34.965   5.120   4.931  1.00 20.00     0.015 C 
HETATM    9  C5  UNL     1     -34.381   6.826   6.692  1.00 20.00     0.015 C 
ENDBRANCH   2   7
TORSDOF 1
ENDMDL
MODEL 2
REMARK VINA RESULT:      -3.6     11.962     12.634
REMARK  1 active torsions:
REMARK  status: ('A' for Active; 'I' for Inactive)
REMARK    1  A    between atoms: C2_2  and  C6_6 
ROOT
HETATM    1  C1  UNL     1     -31.131  18.468  -0.450  1.00 20.00     0.134 A 
HETATM    2  C2  UNL     1     -32.502  18.440  -0.588  1.00 20.00     0.006 A 
HETATM    3  C3  UNL     1     -31.681  18.796   1.648  1.00 20.00     0.167 A 
HETATM    4  N7  UNL     1     -30.658  18.673   0.832  1.00 20.00    -0.240 NA
HETATM    5  S8  UNL     1     -33.241  18.677   0.941  1.00 20.00    -0.061 SA
HETATM    6 CL9  UNL     1     -31.514  19.063   3.332  1.00 20.00    -0.054 Cl
ENDROOT
BRANCH   2   7
HETATM    7  C6  UNL     1     -33.350  18.241  -1.830  1.00 20.00     0.019 C 
HETATM    8  C4  UNL     1     -33.415  16.767  -2.239  1.00 20.00     0.015 C 
HETATM    9  C5  UNL     1     -32.858  19.106  -2.993  1.00 20.00     0.015 C 
ENDBRANCH   2   7
TORSDOF 1
ENDMDL
MODEL 3
REMARK VINA RESULT:      -3.5      1.564      2.040
REMARK  1 active torsions:
REMARK  status: ('A' for Active; 'I' for Inactive)
REMARK    1  A    between atoms: C2_2  and  C6_6 
ROOT
HETATM    1  C1  UNL     1     -33.490   5.466   3.508  1.00 20.00     0.134 A 
HETATM    2  C2  UNL     1     -33.792   6.450   4.425  1.00 20.00     0.006 A 
HETATM    3  C3  UNL     1     -32.568   7.170   2.479  1.00 20.00     0.167 A 
HETATM    4  N7  UNL     1     -32.788   5.877   2.391  1.00 20.00    -0.240 NA
HETATM    5  S8  UNL     1     -33.177   7.955   3.879  1.00 20.00    -0.061 SA
HETATM    6 CL9  UNL     1     -31.724   8.064   1.285  1.00 20.00    -0.054 Cl
ENDROOT
BRANCH   2   7
HETATM    7  C6  UNL     1     -34.539   6.356   5.742  1.00 20.00     0.019 C 
HETATM    8  C4  UNL     1     -34.037   7.393   6.750  1.00 20.00     0.015 C 
HETATM    9  C5  UNL     1     -34.465   4.945   6.331  1.00 20.00     0.015 C 
ENDBRANCH   2   7
TORSDOF 1
ENDMDL
MODEL 4
REMARK VINA RESULT:      -3.4     11.981     12.689
REMARK  1 active torsions:
REMARK  status: ('A' for Active; 'I' for Inactive)
REMARK    1  A    between atoms: C2_2  and  C6_6 
ROOT
HETATM    1  C1  UNL     1     -33.318  15.216  -3.979  1.00 20.00     0.134 A 
HETATM    2  C2  UNL     1     -33.595  16.546  -3.744  1.00 20.00     0.006 A 
HETATM    3  C3  UNL     1     -34.837  15.517  -5.532  1.00 20.00     0.167 A 
HETATM    4  N7  UNL     1     -34.029  14.623  -5.004  1.00 20.00    -0.240 NA
HETATM    5  S8  UNL     1     -34.793  17.088  -4.845  1.00 20.00    -0.061 SA
HETATM    6 CL9  UNL     1     -35.894  15.173  -6.837  1.00 20.00    -0.054 Cl
ENDROOT
BRANCH   2   7
HETATM    7  C6  UNL     1     -33.010  17.494  -2.713  1.00 20.00     0.019 C 
HETATM    8  C4  UNL     1     -33.675  17.319  -1.345  1.00 20.00     0.015 C 
HETATM    9  C5  UNL     1     -33.094  18.950  -3.177  1.00 20.00     0.015 C 
ENDBRANCH   2   7
TORSDOF 1
ENDMDL
MODEL 5
REMARK VINA RESULT:      -3.3     12.151     12.693
REMARK  1 active torsions:
REMARK  status: ('A' for Active; 'I' for Inactive)
REMARK    1  A    between atoms: C2_2  and  C6_6 
ROOT
HETATM    1  C1  UNL     1     -33.302  16.638  -2.361  1.00 20.00     0.134 A 
HETATM    2  C2  UNL     1     -33.281  17.979  -2.038  1.00 20.00     0.006 A 
HETATM    3  C3  UNL     1     -33.988  17.451  -4.279  1.00 20.00     0.167 A 
HETATM    4  N7  UNL     1     -33.708  16.333  -3.646  1.00 20.00    -0.240 NA
HETATM    5  S8  UNL     1     -33.787  18.905  -3.391  1.00 20.00    -0.061 SA
HETATM    6 CL9  UNL     1     -34.530  17.499  -5.905  1.00 20.00    -0.054 Cl
ENDROOT
BRANCH   2   7
HETATM    7  C6  UNL     1     -32.895  18.660  -0.739  1.00 20.00     0.019 C 
HETATM    8  C4  UNL     1     -31.407  18.480  -0.428  1.00 20.00     0.015 C 
HETATM    9  C5  UNL     1     -33.758  18.175   0.429  1.00 20.00     0.015 C 
ENDBRANCH   2   7
TORSDOF 1
ENDMDL
MODEL 6
REMARK VINA RESULT:      -3.3      2.113      2.551
REMARK  1 active torsions:
REMARK  status: ('A' for Active; 'I' for Inactive)
REMARK    1  A    between atoms: C2_2  and  C6_6 
ROOT
HETATM    1  C1  UNL     1     -32.807   6.807   3.397  1.00 20.00     0.134 A 
HETATM    2  C2  UNL     1     -33.641   6.551   4.465  1.00 20.00     0.006 A 
HETATM    3  C3  UNL     1     -32.414   8.621   4.564  1.00 20.00     0.167 A 
HETATM    4  N7  UNL     1     -32.102   7.994   3.452  1.00 20.00    -0.240 NA
HETATM    5  S8  UNL     1     -33.547   7.842   5.590  1.00 20.00    -0.061 SA
HETATM    6 CL9  UNL     1     -31.749  10.138   5.006  1.00 20.00    -0.054 Cl
ENDROOT
BRANCH   2   7
HETATM    7  C6  UNL     1     -34.547   5.364   4.728  1.00 20.00     0.019 C 
HETATM    8  C4  UNL     1     -34.885   5.231   6.215  1.00 20.00     0.015 C 
HETATM    9  C5  UNL     1     -33.944   4.064   4.189  1.00 20.00     0.015 C 
ENDBRANCH   2   7
TORSDOF 1
ENDMDL
MODEL 7
REMARK VINA RESULT:      -3.2     11.959     12.612
REMARK  1 active torsions:
REMARK  status: ('A' for Active; 'I' for Inactive)
REMARK    1  A    between atoms: C2_2  and  C6_6 
ROOT
HETATM    1  C1  UNL     1     -33.715  18.639   0.489  1.00 20.00     0.134 A 
HETATM    2  C2  UNL     1     -33.054  18.396  -0.697  1.00 20.00     0.006 A 
HETATM    3  C3  UNL     1     -31.656  18.888   1.202  1.00 20.00     0.167 A 
HETATM    4  N7  UNL     1     -32.915  18.922   1.579  1.00 20.00    -0.240 NA
HETATM    5  S8  UNL     1     -31.362  18.524  -0.449  1.00 20.00    -0.061 SA
HETATM    6 CL9  UNL     1     -30.347  19.185   2.267  1.00 20.00    -0.054 Cl
ENDROOT
BRANCH   2   7
HETATM    7  C6  UNL     1     -33.609  18.059  -2.068  1.00 20.00     0.019 C 
HETATM    8  C4  UNL     1     -33.435  16.575  -2.398  1.00 20.00     0.015 C 
HETATM    9  C5  UNL     1     -32.986  18.935  -3.158  1.00 20.00     0.015 C 
ENDBRANCH   2   7
TORSDOF 1
ENDMDL
MODEL 8
REMARK VINA RESULT:      -3.2     11.922     12.793
REMARK  1 active torsions:
REMARK  status: ('A' for Active; 'I' for Inactive)
REMARK    1  A    between atoms: C2_2  and  C6_6 
ROOT
HETATM    1  C1  UNL     1     -34.916  17.811  -4.064  1.00 20.00     0.134 A 
HETATM    2  C2  UNL     1     -33.886  17.180  -3.398  1.00 20.00     0.006 A 
HETATM    3  C3  UNL     1     -34.934  15.908  -5.154  1.00 20.00     0.167 A 
HETATM    4  N7  UNL     1     -35.519  17.082  -5.071  1.00 20.00    -0.240 NA
HETATM    5  S8  UNL     1     -33.653  15.612  -4.051  1.00 20.00    -0.061 SA
HETATM    6 CL9  UNL     1     -35.393  14.707  -6.287  1.00 20.00    -0.054 Cl
ENDROOT
BRANCH   2   7
HETATM    7  C6  UNL     1     -33.017  17.677  -2.258  1.00 20.00     0.019 C 
HETATM    8  C4  UNL     1     -33.703  17.487  -0.902  1.00 20.00     0.015 C 
HETATM    9  C5  UNL     1     -32.605  19.138  -2.459  1.00 20.00     0.015 C 
ENDBRANCH   2   7
TORSDOF 1
ENDMDL
MODEL 9
REMARK VINA RESULT:      -3.2     12.456     13.214
REMARK  1 active torsions:
REMARK  status: ('A' for Active; 'I' for Inactive)
REMARK    1  A    between atoms: C2_2  and  C6_6 
ROOT
HETATM    1  C1  UNL     1     -34.467  17.456  -5.115  1.00 20.00     0.134 A 
HETATM    2  C2  UNL     1     -34.174  16.113  -5.224  1.00 20.00     0.006 A 
HETATM    3  C3  UNL     1     -33.545  17.160  -3.148  1.00 20.00     0.167 A 
HETATM    4  N7  UNL     1     -34.107  18.059  -3.925  1.00 20.00    -0.240 NA
HETATM    5  S8  UNL     1     -33.416  15.571  -3.784  1.00 20.00    -0.061 SA
HETATM    6 CL9  UNL     1     -32.958  17.511  -1.577  1.00 20.00    -0.054 Cl
ENDROOT
BRANCH   2   7
HETATM    7  C6  UNL     1     -34.425  15.153  -6.371  1.00 20.00     0.019 C 
HETATM    8  C4  UNL     1     -34.060  15.777  -7.720  1.00 20.00     0.015 C 
HETATM    9  C5  UNL     1     -35.872  14.650  -6.378  1.00 20.00     0.015 C 
ENDBRANCH   2   7
TORSDOF 1
ENDMDL
