MODEL 1
REMARK VINA RESULT:      -3.3      0.000      0.000
REMARK  4 active torsions:
REMARK  status: ('A' for Active; 'I' for Inactive)
REMARK    1  A    between atoms: C1_1  and  C7_7 
REMARK    2  A    between atoms: C1_1  and  C8_8 
REMARK    3  A    between atoms: C7_7  and  O10_10 
REMARK    4  A    between atoms: C7_7  and  O11_11 
ROOT
HETATM    1  C1  UNL     1     -33.669  15.773  -4.197  1.00 20.00     0.188 C 
HETATM    2  O9  UNL     1     -32.637  15.100  -4.108  1.00 20.00    -0.292 OA
ENDROOT
BRANCH   1   3
HETATM    3  C7  UNL     1     -33.854  17.012  -3.325  1.00 20.00     0.330 C 
BRANCH   3   4
HETATM    4  O10 UNL     1     -33.617  16.537  -1.998  1.00 20.00    -0.359 OA
HETATM    5  C5  UNL     1     -33.671  17.585  -1.039  1.00 20.00     0.205 C 
ENDBRANCH   3   4
BRANCH   3   6
HETATM    6  O11 UNL     1     -32.899  17.998  -3.699  1.00 20.00    -0.359 OA
HETATM    7  C6  UNL     1     -33.475  19.055  -4.456  1.00 20.00     0.205 C 
ENDBRANCH   3   6
ENDBRANCH   1   3
BRANCH   1   8
HETATM    8  C8  UNL     1     -34.771  15.417  -5.219  1.00 20.00     0.015 C 
HETATM    9  C2  UNL     1     -34.119  15.238  -6.597  1.00 20.00     0.023 C 
HETATM   10  C3  UNL     1     -35.440  14.093  -4.808  1.00 20.00     0.023 C 
HETATM   11  C4  UNL     1     -35.852  16.504  -5.283  1.00 20.00     0.023 C 
ENDBRANCH   1   8
TORSDOF 4
ENDMDL
MODEL 2
REMARK VINA RESULT:      -3.2     12.191     14.037
REMARK  4 active torsions:
REMARK  status: ('A' for Active; 'I' for Inactive)
REMARK    1  A    between atoms: C1_1  and  C7_7 
REMARK    2  A    between atoms: C1_1  and  C8_8 
REMARK    3  A    between atoms: C7_7  and  O10_10 
REMARK    4  A    between atoms: C7_7  and  O11_11 
ROOT
HETATM    1  C1  UNL     1     -40.888  14.180   7.576  1.00 20.00     0.188 C 
HETATM    2  O9  UNL     1     -40.201  13.788   8.524  1.00 20.00    -0.292 OA
ENDROOT
BRANCH   1   3
HETATM    3  C7  UNL     1     -41.100  13.284   6.360  1.00 20.00     0.330 C 
BRANCH   3   4
HETATM    4  O10 UNL     1     -39.779  13.064   5.860  1.00 20.00    -0.359 OA
HETATM    5  C5  UNL     1     -39.570  11.710   5.480  1.00 20.00     0.205 C 
ENDBRANCH   3   4
BRANCH   3   6
HETATM    6  O11 UNL     1     -41.705  12.064   6.773  1.00 20.00    -0.359 OA
HETATM    7  C6  UNL     1     -43.083  12.219   7.089  1.00 20.00     0.205 C 
ENDBRANCH   3   6
ENDBRANCH   1   3
BRANCH   1   8
HETATM    8  C8  UNL     1     -41.591  15.556   7.612  1.00 20.00     0.015 C 
HETATM    9  C2  UNL     1     -42.283  15.785   6.262  1.00 20.00     0.023 C 
HETATM   10  C3  UNL     1     -42.655  15.555   8.725  1.00 20.00     0.023 C 
HETATM   11  C4  UNL     1     -40.597  16.689   7.897  1.00 20.00     0.023 C 
ENDBRANCH   1   8
TORSDOF 4
ENDMDL
MODEL 3
REMARK VINA RESULT:      -3.1     12.387     14.144
REMARK  4 active torsions:
REMARK  status: ('A' for Active; 'I' for Inactive)
REMARK    1  A    between atoms: C1_1  and  C7_7 
REMARK    2  A    between atoms: C1_1  and  C8_8 
REMARK    3  A    between atoms: C7_7  and  O10_10 
REMARK    4  A    between atoms: C7_7  and  O11_11 
ROOT
HETATM    1  C1  UNL     1     -41.470  13.713   7.744  1.00 20.00     0.188 C 
HETATM    2  O9  UNL     1     -42.311  12.859   8.041  1.00 20.00    -0.292 OA
ENDROOT
BRANCH   1   3
HETATM    3  C7  UNL     1     -40.635  13.558   6.476  1.00 20.00     0.330 C 
BRANCH   3   4
HETATM    4  O10 UNL     1     -39.798  12.433   6.752  1.00 20.00    -0.359 OA
HETATM    5  C5  UNL     1     -39.555  11.650   5.591  1.00 20.00     0.205 C 
ENDBRANCH   3   4
BRANCH   3   6
HETATM    6  O11 UNL     1     -41.496  13.302   5.373  1.00 20.00    -0.359 OA
HETATM    7  C6  UNL     1     -42.176  14.471   4.930  1.00 20.00     0.205 C 
ENDBRANCH   3   6
ENDBRANCH   1   3
BRANCH   1   8
HETATM    8  C8  UNL     1     -41.276  14.980   8.607  1.00 20.00     0.015 C 
HETATM    9  C2  UNL     1     -40.507  14.591   9.877  1.00 20.00     0.023 C 
HETATM   10  C3  UNL     1     -40.448  16.012   7.819  1.00 20.00     0.023 C 
HETATM   11  C4  UNL     1     -42.619  15.620   8.977  1.00 20.00     0.023 C 
ENDBRANCH   1   8
TORSDOF 4
ENDMDL
MODEL 4
REMARK VINA RESULT:      -3.1      1.706      3.259
REMARK  4 active torsions:
REMARK  status: ('A' for Active; 'I' for Inactive)
REMARK    1  A    between atoms: C1_1  and  C7_7 
REMARK    2  A    between atoms: C1_1  and  C8_8 
REMARK    3  A    between atoms: C7_7  and  O10_10 
REMARK    4  A    between atoms: C7_7  and  O11_11 
ROOT
HETATM    1  C1  UNL     1     -34.377  15.535  -6.046  1.00 20.00     0.188 C 
HETATM    2  O9  UNL     1     -33.620  14.872  -6.761  1.00 20.00    -0.292 OA
ENDROOT
BRANCH   1   3
HETATM    3  C7  UNL     1     -34.370  15.338  -4.533  1.00 20.00     0.330 C 
BRANCH   3   4
HETATM    4  O10 UNL     1     -34.584  13.935  -4.367  1.00 20.00    -0.359 OA
HETATM    5  C5  UNL     1     -35.944  13.575  -4.567  1.00 20.00     0.205 C 
ENDBRANCH   3   4
BRANCH   3   6
HETATM    6  O11 UNL     1     -33.106  15.733  -4.012  1.00 20.00    -0.359 OA
HETATM    7  C6  UNL     1     -33.226  16.596  -2.888  1.00 20.00     0.205 C 
ENDBRANCH   3   6
ENDBRANCH   1   3
BRANCH   1   8
HETATM    8  C8  UNL     1     -35.310  16.610  -6.647  1.00 20.00     0.015 C 
HETATM    9  C2  UNL     1     -36.094  17.270  -5.505  1.00 20.00     0.023 C 
HETATM   10  C3  UNL     1     -34.462  17.682  -7.355  1.00 20.00     0.023 C 
HETATM   11  C4  UNL     1     -36.278  16.006  -7.673  1.00 20.00     0.023 C 
ENDBRANCH   1   8
TORSDOF 4
ENDMDL
MODEL 5
REMARK VINA RESULT:      -3.1      3.000      4.544
REMARK  4 active torsions:
REMARK  status: ('A' for Active; 'I' for Inactive)
REMARK    1  A    between atoms: C1_1  and  C7_7 
REMARK    2  A    between atoms: C1_1  and  C8_8 
REMARK    3  A    between atoms: C7_7  and  O10_10 
REMARK    4  A    between atoms: C7_7  and  O11_11 
ROOT
HETATM    1  C1  UNL     1     -35.835  14.844  -5.263  1.00 20.00     0.188 C 
HETATM    2  O9  UNL     1     -36.041  13.686  -4.889  1.00 20.00    -0.292 OA
ENDROOT
BRANCH   1   3
HETATM    3  C7  UNL     1     -37.006  15.749  -5.634  1.00 20.00     0.330 C 
BRANCH   3   4
HETATM    4  O10 UNL     1     -37.130  15.589  -7.048  1.00 20.00    -0.359 OA
HETATM    5  C5  UNL     1     -37.078  16.834  -7.733  1.00 20.00     0.205 C 
ENDBRANCH   3   4
BRANCH   3   6
HETATM    6  O11 UNL     1     -38.177  15.305  -4.959  1.00 20.00    -0.359 OA
HETATM    7  C6  UNL     1     -39.024  16.381  -4.571  1.00 20.00     0.205 C 
ENDBRANCH   3   6
ENDBRANCH   1   3
BRANCH   1   8
HETATM    8  C8  UNL     1     -34.405  15.426  -5.316  1.00 20.00     0.015 C 
HETATM    9  C2  UNL     1     -33.843  15.211  -6.728  1.00 20.00     0.023 C 
HETATM   10  C3  UNL     1     -34.457  16.936  -5.025  1.00 20.00     0.023 C 
HETATM   11  C4  UNL     1     -33.490  14.765  -4.277  1.00 20.00     0.023 C 
ENDBRANCH   1   8
TORSDOF 4
ENDMDL
MODEL 6
REMARK VINA RESULT:      -3.1      1.540      4.170
REMARK  4 active torsions:
REMARK  status: ('A' for Active; 'I' for Inactive)
REMARK    1  A    between atoms: C1_1  and  C7_7 
REMARK    2  A    between atoms: C1_1  and  C8_8 
REMARK    3  A    between atoms: C7_7  and  O10_10 
REMARK    4  A    between atoms: C7_7  and  O11_11 
ROOT
HETATM    1  C1  UNL     1     -33.807  16.309  -4.104  1.00 20.00     0.188 C 
HETATM    2  O9  UNL     1     -32.892  15.495  -3.947  1.00 20.00    -0.292 OA
ENDROOT
BRANCH   1   3
HETATM    3  C7  UNL     1     -34.867  16.072  -5.175  1.00 20.00     0.330 C 
BRANCH   3   4
HETATM    4  O10 UNL     1     -34.408  16.840  -6.289  1.00 20.00    -0.359 OA
HETATM    5  C5  UNL     1     -34.299  16.056  -7.470  1.00 20.00     0.205 C 
ENDBRANCH   3   4
BRANCH   3   6
HETATM    6  O11 UNL     1     -34.919  14.686  -5.490  1.00 20.00    -0.359 OA
HETATM    7  C6  UNL     1     -36.061  14.043  -4.936  1.00 20.00     0.205 C 
ENDBRANCH   3   6
ENDBRANCH   1   3
BRANCH   1   8
HETATM    8  C8  UNL     1     -33.937  17.552  -3.196  1.00 20.00     0.015 C 
HETATM    9  C2  UNL     1     -33.571  17.149  -1.761  1.00 20.00     0.023 C 
HETATM   10  C3  UNL     1     -32.957  18.638  -3.674  1.00 20.00     0.023 C 
HETATM   11  C4  UNL     1     -35.357  18.132  -3.236  1.00 20.00     0.023 C 
ENDBRANCH   1   8
TORSDOF 4
ENDMDL
MODEL 7
REMARK VINA RESULT:      -3.1     12.760     13.854
REMARK  4 active torsions:
REMARK  status: ('A' for Active; 'I' for Inactive)
REMARK    1  A    between atoms: C1_1  and  C7_7 
REMARK    2  A    between atoms: C1_1  and  C8_8 
REMARK    3  A    between atoms: C7_7  and  O10_10 
REMARK    4  A    between atoms: C7_7  and  O11_11 
ROOT
HETATM    1  C1  UNL     1     -40.926  13.994   7.572  1.00 20.00     0.188 C 
HETATM    2  O9  UNL     1     -40.083  13.591   8.379  1.00 20.00    -0.292 OA
ENDROOT
BRANCH   1   3
HETATM    3  C7  UNL     1     -41.432  15.431   7.646  1.00 20.00     0.330 C 
BRANCH   3   4
HETATM    4  O10 UNL     1     -42.012  15.525   8.948  1.00 20.00    -0.359 OA
HETATM    5  C5  UNL     1     -43.417  15.308   8.924  1.00 20.00     0.205 C 
ENDBRANCH   3   4
BRANCH   3   6
HETATM    6  O11 UNL     1     -40.335  16.325   7.503  1.00 20.00    -0.359 OA
HETATM    7  C6  UNL     1     -40.695  17.677   7.763  1.00 20.00     0.205 C 
ENDBRANCH   3   6
ENDBRANCH   1   3
BRANCH   1   8
HETATM    8  C8  UNL     1     -41.451  13.081   6.441  1.00 20.00     0.015 C 
HETATM    9  C2  UNL     1     -41.857  13.962   5.252  1.00 20.00     0.023 C 
HETATM   10  C3  UNL     1     -40.330  12.126   5.994  1.00 20.00     0.023 C 
HETATM   11  C4  UNL     1     -42.646  12.239   6.907  1.00 20.00     0.023 C 
ENDBRANCH   1   8
TORSDOF 4
ENDMDL
MODEL 8
REMARK VINA RESULT:      -3.1      1.547      4.129
REMARK  4 active torsions:
REMARK  status: ('A' for Active; 'I' for Inactive)
REMARK    1  A    between atoms: C1_1  and  C7_7 
REMARK    2  A    between atoms: C1_1  and  C8_8 
REMARK    3  A    between atoms: C7_7  and  O10_10 
REMARK    4  A    between atoms: C7_7  and  O11_11 
ROOT
HETATM    1  C1  UNL     1     -33.804  16.279  -4.151  1.00 20.00     0.188 C 
HETATM    2  O9  UNL     1     -32.902  15.452  -3.991  1.00 20.00    -0.292 OA
ENDROOT
BRANCH   1   3
HETATM    3  C7  UNL     1     -34.870  16.054  -5.219  1.00 20.00     0.330 C 
BRANCH   3   4
HETATM    4  O10 UNL     1     -34.392  16.794  -6.344  1.00 20.00    -0.359 OA
HETATM    5  C5  UNL     1     -34.217  15.971  -7.489  1.00 20.00     0.205 C 
ENDBRANCH   3   4
BRANCH   3   6
HETATM    6  O11 UNL     1     -34.956  14.665  -5.513  1.00 20.00    -0.359 OA
HETATM    7  C6  UNL     1     -36.095  14.052  -4.921  1.00 20.00     0.205 C 
ENDBRANCH   3   6
ENDBRANCH   1   3
BRANCH   1   8
HETATM    8  C8  UNL     1     -33.912  17.530  -3.250  1.00 20.00     0.015 C 
HETATM    9  C2  UNL     1     -35.356  18.046  -3.303  1.00 20.00     0.023 C 
HETATM   10  C3  UNL     1     -33.574  17.144  -1.798  1.00 20.00     0.023 C 
HETATM   11  C4  UNL     1     -32.940  18.630  -3.695  1.00 20.00     0.023 C 
ENDBRANCH   1   8
TORSDOF 4
ENDMDL
MODEL 9
REMARK VINA RESULT:      -3.0     12.762     14.464
REMARK  4 active torsions:
REMARK  status: ('A' for Active; 'I' for Inactive)
REMARK    1  A    between atoms: C1_1  and  C7_7 
REMARK    2  A    between atoms: C1_1  and  C8_8 
REMARK    3  A    between atoms: C7_7  and  O10_10 
REMARK    4  A    between atoms: C7_7  and  O11_11 
ROOT
HETATM    1  C1  UNL     1     -41.062  14.185   7.512  1.00 20.00     0.188 C 
HETATM    2  O9  UNL     1     -40.204  15.039   7.272  1.00 20.00    -0.292 OA
ENDROOT
BRANCH   1   3
HETATM    3  C7  UNL     1     -41.714  14.119   8.890  1.00 20.00     0.330 C 
BRANCH   3   4
HETATM    4  O10 UNL     1     -40.656  13.698   9.752  1.00 20.00    -0.359 OA
HETATM    5  C5  UNL     1     -40.644  14.421  10.976  1.00 20.00     0.205 C 
ENDBRANCH   3   4
BRANCH   3   6
HETATM    6  O11 UNL     1     -42.189  15.412   9.248  1.00 20.00    -0.359 OA
HETATM    7  C6  UNL     1     -43.415  15.740   8.607  1.00 20.00     0.205 C 
ENDBRANCH   3   6
ENDBRANCH   1   3
BRANCH   1   8
HETATM    8  C8  UNL     1     -41.536  13.198   6.422  1.00 20.00     0.015 C 
HETATM    9  C2  UNL     1     -42.723  12.397   6.972  1.00 20.00     0.023 C 
HETATM   10  C3  UNL     1     -41.999  13.989   5.184  1.00 20.00     0.023 C 
HETATM   11  C4  UNL     1     -40.410  12.249   5.994  1.00 20.00     0.023 C 
ENDBRANCH   1   8
TORSDOF 4
ENDMDL
