MODEL 1
REMARK VINA RESULT:      -4.9      0.000      0.000
REMARK  0 active torsions:
REMARK  status: ('A' for Active; 'I' for Inactive)
ROOT
HETATM    1  C1  UNL     1     -33.073  14.992  -4.276  1.00 20.00     0.097 A 
HETATM    2  C2  UNL     1     -34.128  15.268  -6.350  1.00 20.00     0.097 A 
HETATM    3  C3  UNL     1     -33.649  16.163  -3.786  1.00 20.00    -0.016 A 
HETATM    4  C4  UNL     1     -34.737  16.448  -5.924  1.00 20.00    -0.016 A 
HETATM    5  C5  UNL     1     -34.521  16.903  -4.608  1.00 20.00     0.045 A 
HETATM    6  C6  UNL     1     -33.369  16.587  -2.370  1.00 20.00     0.044 C 
HETATM    7  C7  UNL     1     -35.654  17.186  -6.861  1.00 20.00     0.044 C 
HETATM    8  C8  UNL     1     -33.668  18.067  -2.167  1.00 20.00     0.025 C 
HETATM    9  C9  UNL     1     -35.836  18.635  -6.428  1.00 20.00     0.025 C 
HETATM   10  C10 UNL     1     -35.044  18.409  -2.726  1.00 20.00     0.123 C 
HETATM   11  C11 UNL     1     -36.171  18.705  -4.944  1.00 20.00     0.123 C 
HETATM   12  N12 UNL     1     -33.327  14.587  -5.525  1.00 20.00    -0.374 N 
HETATM   13  N13 UNL     1     -35.123  18.074  -4.146  1.00 20.00    -0.380 N 
HETATM   14  H28 UNL     1     -32.893  13.727  -5.861  1.00 20.00     0.164 HD
ENDROOT
TORSDOF 0
ENDMDL
MODEL 2
REMARK VINA RESULT:      -4.7      0.446      3.227
REMARK  0 active torsions:
REMARK  status: ('A' for Active; 'I' for Inactive)
ROOT
HETATM    1  C1  UNL     1     -34.341  15.146  -6.250  1.00 20.00     0.097 A 
HETATM    2  C2  UNL     1     -33.170  14.938  -4.232  1.00 20.00     0.097 A 
HETATM    3  C3  UNL     1     -34.841  16.391  -5.874  1.00 20.00    -0.016 A 
HETATM    4  C4  UNL     1     -33.634  16.177  -3.793  1.00 20.00    -0.016 A 
HETATM    5  C5  UNL     1     -34.468  16.943  -4.633  1.00 20.00     0.045 A 
HETATM    6  C6  UNL     1     -35.731  17.148  -6.824  1.00 20.00     0.044 C 
HETATM    7  C7  UNL     1     -33.194  16.699  -2.452  1.00 20.00     0.044 C 
HETATM    8  C8  UNL     1     -36.541  18.211  -6.094  1.00 20.00     0.025 C 
HETATM    9  C9  UNL     1     -34.134  17.785  -1.946  1.00 20.00     0.025 C 
HETATM   10  C10 UNL     1     -35.634  19.042  -5.195  1.00 20.00     0.123 C 
HETATM   11  C11 UNL     1     -34.382  18.820  -3.036  1.00 20.00     0.123 C 
HETATM   12  N12 UNL     1     -33.533  14.468  -5.429  1.00 20.00    -0.374 N 
HETATM   13  N13 UNL     1     -34.942  18.192  -4.230  1.00 20.00    -0.380 N 
HETATM   14  H28 UNL     1     -33.180  13.558  -5.727  1.00 20.00     0.164 HD
ENDROOT
TORSDOF 0
ENDMDL
MODEL 3
REMARK VINA RESULT:      -4.5     12.257     14.049
REMARK  0 active torsions:
REMARK  status: ('A' for Active; 'I' for Inactive)
ROOT
HETATM    1  C1  UNL     1     -34.521   6.773   6.638  1.00 20.00     0.097 A 
HETATM    2  C2  UNL     1     -34.737   4.822   5.358  1.00 20.00     0.097 A 
HETATM    3  C3  UNL     1     -33.758   7.384   5.645  1.00 20.00    -0.016 A 
HETATM    4  C4  UNL     1     -33.982   5.374   4.325  1.00 20.00    -0.016 A 
HETATM    5  C5  UNL     1     -33.496   6.691   4.447  1.00 20.00     0.045 A 
HETATM    6  C6  UNL     1     -33.272   8.793   5.849  1.00 20.00     0.044 C 
HETATM    7  C7  UNL     1     -33.741   4.570   3.075  1.00 20.00     0.044 C 
HETATM    8  C8  UNL     1     -32.103   9.114   4.926  1.00 20.00     0.025 C 
HETATM    9  C9  UNL     1     -32.548   5.107   2.295  1.00 20.00     0.025 C 
HETATM   10  C10 UNL     1     -32.431   8.702   3.496  1.00 20.00     0.123 C 
HETATM   11  C11 UNL     1     -32.662   6.616   2.127  1.00 20.00     0.123 C 
HETATM   12  N12 UNL     1     -34.980   5.529   6.467  1.00 20.00    -0.374 N 
HETATM   13  N13 UNL     1     -32.746   7.277   3.427  1.00 20.00    -0.380 N 
HETATM   14  H28 UNL     1     -35.535   5.103   7.209  1.00 20.00     0.164 HD
ENDROOT
TORSDOF 0
ENDMDL
MODEL 4
REMARK VINA RESULT:      -4.5     12.209     14.253
REMARK  0 active torsions:
REMARK  status: ('A' for Active; 'I' for Inactive)
ROOT
HETATM    1  C1  UNL     1     -32.078   8.639   3.619  1.00 20.00     0.097 A 
HETATM    2  C2  UNL     1     -33.060   8.756   5.742  1.00 20.00     0.097 A 
HETATM    3  C3  UNL     1     -32.594   7.361   3.410  1.00 20.00    -0.016 A 
HETATM    4  C4  UNL     1     -33.607   7.482   5.599  1.00 20.00    -0.016 A 
HETATM    5  C5  UNL     1     -33.399   6.767   4.402  1.00 20.00     0.045 A 
HETATM    6  C6  UNL     1     -32.325   6.660   2.106  1.00 20.00     0.044 C 
HETATM    7  C7  UNL     1     -34.454   6.913   6.706  1.00 20.00     0.044 C 
HETATM    8  C8  UNL     1     -32.540   5.157   2.233  1.00 20.00     0.025 C 
HETATM    9  C9  UNL     1     -34.559   5.397   6.597  1.00 20.00     0.025 C 
HETATM   10  C10 UNL     1     -33.877   4.868   2.904  1.00 20.00     0.123 C 
HETATM   11  C11 UNL     1     -34.928   4.994   5.175  1.00 20.00     0.123 C 
HETATM   12  N12 UNL     1     -32.323   9.287   4.762  1.00 20.00    -0.374 N 
HETATM   13  N13 UNL     1     -33.941   5.495   4.222  1.00 20.00    -0.380 N 
HETATM   14  H28 UNL     1     -31.933  10.221   4.891  1.00 20.00     0.164 HD
ENDROOT
TORSDOF 0
ENDMDL
MODEL 5
REMARK VINA RESULT:      -4.3     12.169     13.827
REMARK  0 active torsions:
REMARK  status: ('A' for Active; 'I' for Inactive)
ROOT
HETATM    1  C1  UNL     1     -33.313   5.032   2.758  1.00 20.00     0.097 A 
HETATM    2  C2  UNL     1     -32.247   7.055   2.249  1.00 20.00     0.097 A 
HETATM    3  C3  UNL     1     -33.703   5.510   4.008  1.00 20.00    -0.016 A 
HETATM    4  C4  UNL     1     -32.605   7.596   3.483  1.00 20.00    -0.016 A 
HETATM    5  C5  UNL     1     -33.371   6.827   4.382  1.00 20.00     0.045 A 
HETATM    6  C6  UNL     1     -34.517   4.627   4.915  1.00 20.00     0.044 C 
HETATM    7  C7  UNL     1     -32.210   9.010   3.812  1.00 20.00     0.044 C 
HETATM    8  C8  UNL     1     -34.442   5.102   6.361  1.00 20.00     0.025 C 
HETATM    9  C9  UNL     1     -32.253   9.260   5.314  1.00 20.00     0.025 C 
HETATM   10  C10 UNL     1     -34.711   6.600   6.439  1.00 20.00     0.123 C 
HETATM   11  C11 UNL     1     -33.571   8.764   5.894  1.00 20.00     0.123 C 
HETATM   12  N12 UNL     1     -32.607   5.808   1.930  1.00 20.00    -0.374 N 
HETATM   13  N13 UNL     1     -33.755   7.341   5.621  1.00 20.00    -0.380 N 
HETATM   14  H28 UNL     1     -32.333   5.435   1.021  1.00 20.00     0.164 HD
ENDROOT
TORSDOF 0
ENDMDL
MODEL 6
REMARK VINA RESULT:      -4.2     12.287     14.090
REMARK  0 active torsions:
REMARK  status: ('A' for Active; 'I' for Inactive)
ROOT
HETATM    1  C1  UNL     1     -32.823   5.356   2.279  1.00 20.00     0.097 A 
HETATM    2  C2  UNL     1     -33.956   4.191   3.966  1.00 20.00     0.097 A 
HETATM    3  C3  UNL     1     -32.772   6.510   3.059  1.00 20.00    -0.016 A 
HETATM    4  C4  UNL     1     -33.940   5.309   4.799  1.00 20.00    -0.016 A 
HETATM    5  C5  UNL     1     -33.316   6.493   4.358  1.00 20.00     0.045 A 
HETATM    6  C6  UNL     1     -32.091   7.739   2.518  1.00 20.00     0.044 C 
HETATM    7  C7  UNL     1     -34.545   5.214   6.174  1.00 20.00     0.044 C 
HETATM    8  C8  UNL     1     -32.535   8.990   3.265  1.00 20.00     0.025 C 
HETATM    9  C9  UNL     1     -34.863   6.595   6.733  1.00 20.00     0.025 C 
HETATM   10  C10 UNL     1     -32.450   8.765   4.770  1.00 20.00     0.123 C 
HETATM   11  C11 UNL     1     -33.662   7.519   6.574  1.00 20.00     0.123 C 
HETATM   12  N12 UNL     1     -33.404   4.249   2.750  1.00 20.00    -0.374 N 
HETATM   13  N13 UNL     1     -33.273   7.627   5.170  1.00 20.00    -0.380 N 
HETATM   14  H28 UNL     1     -33.429   3.417   2.159  1.00 20.00     0.164 HD
ENDROOT
TORSDOF 0
ENDMDL
MODEL 7
REMARK VINA RESULT:      -4.2     12.233     13.941
REMARK  0 active torsions:
REMARK  status: ('A' for Active; 'I' for Inactive)
ROOT
HETATM    1  C1  UNL     1     -33.372   8.472   6.052  1.00 20.00     0.097 A 
HETATM    2  C2  UNL     1     -32.200   8.958   4.083  1.00 20.00     0.097 A 
HETATM    3  C3  UNL     1     -33.723   7.211   5.576  1.00 20.00    -0.016 A 
HETATM    4  C4  UNL     1     -32.514   7.711   3.545  1.00 20.00    -0.016 A 
HETATM    5  C5  UNL     1     -33.271   6.798   4.307  1.00 20.00     0.045 A 
HETATM    6  C6  UNL     1     -34.537   6.292   6.447  1.00 20.00     0.044 C 
HETATM    7  C7  UNL     1     -31.997   7.343   2.181  1.00 20.00     0.044 C 
HETATM    8  C8  UNL     1     -35.211   5.203   5.623  1.00 20.00     0.025 C 
HETATM    9  C9  UNL     1     -32.801   6.199   1.576  1.00 20.00     0.025 C 
HETATM   10  C10 UNL     1     -34.202   4.546   4.688  1.00 20.00     0.123 C 
HETATM   11  C11 UNL     1     -32.948   5.066   2.582  1.00 20.00     0.123 C 
HETATM   12  N12 UNL     1     -32.632   9.295   5.302  1.00 20.00    -0.374 N 
HETATM   13  N13 UNL     1     -33.595   5.537   3.804  1.00 20.00    -0.380 N 
HETATM   14  H28 UNL     1     -32.389  10.214   5.673  1.00 20.00     0.164 HD
ENDROOT
TORSDOF 0
ENDMDL
MODEL 8
REMARK VINA RESULT:      -4.1     12.525     14.193
REMARK  0 active torsions:
REMARK  status: ('A' for Active; 'I' for Inactive)
ROOT
HETATM    1  C1  UNL     1     -34.362   4.443   4.455  1.00 20.00     0.097 A 
HETATM    2  C2  UNL     1     -34.775   5.774   6.338  1.00 20.00     0.097 A 
HETATM    3  C3  UNL     1     -33.612   5.456   3.858  1.00 20.00    -0.016 A 
HETATM    4  C4  UNL     1     -34.037   6.827   5.800  1.00 20.00    -0.016 A 
HETATM    5  C5  UNL     1     -33.416   6.670   4.545  1.00 20.00     0.045 A 
HETATM    6  C6  UNL     1     -32.983   5.213   2.513  1.00 20.00     0.044 C 
HETATM    7  C7  UNL     1     -33.875   8.096   6.593  1.00 20.00     0.044 C 
HETATM    8  C8  UNL     1     -32.628   6.526   1.825  1.00 20.00     0.025 C 
HETATM    9  C9  UNL     1     -33.475   9.261   5.696  1.00 20.00     0.025 C 
HETATM   10  C10 UNL     1     -31.871   7.437   2.783  1.00 20.00     0.123 C 
HETATM   11  C11 UNL     1     -32.312   8.860   4.797  1.00 20.00     0.123 C 
HETATM   12  N12 UNL     1     -34.912   4.631   5.659  1.00 20.00    -0.374 N 
HETATM   13  N13 UNL     1     -32.663   7.700   3.982  1.00 20.00    -0.380 N 
HETATM   14  H28 UNL     1     -35.457   3.875   6.074  1.00 20.00     0.164 HD
ENDROOT
TORSDOF 0
ENDMDL
MODEL 9
REMARK VINA RESULT:      -4.0     12.271     14.214
REMARK  0 active torsions:
REMARK  status: ('A' for Active; 'I' for Inactive)
ROOT
HETATM    1  C1  UNL     1     -34.666   5.463   6.140  1.00 20.00     0.097 A 
HETATM    2  C2  UNL     1     -34.061   7.693   6.531  1.00 20.00     0.097 A 
HETATM    3  C3  UNL     1     -34.047   5.476   4.892  1.00 20.00    -0.016 A 
HETATM    4  C4  UNL     1     -33.422   7.774   5.295  1.00 20.00    -0.016 A 
HETATM    5  C5  UNL     1     -33.385   6.641   4.457  1.00 20.00     0.045 A 
HETATM    6  C6  UNL     1     -34.052   4.227   4.052  1.00 20.00     0.044 C 
HETATM    7  C7  UNL     1     -32.739   9.055   4.898  1.00 20.00     0.044 C 
HETATM    8  C8  UNL     1     -33.772   4.544   2.588  1.00 20.00     0.025 C 
HETATM    9  C9  UNL     1     -32.527   9.125   3.391  1.00 20.00     0.025 C 
HETATM   10  C10 UNL     1     -32.551   5.447   2.467  1.00 20.00     0.123 C 
HETATM   11  C11 UNL     1     -31.904   7.831   2.885  1.00 20.00     0.123 C 
HETATM   12  N12 UNL     1     -34.654   6.556   6.910  1.00 20.00    -0.374 N 
HETATM   13  N13 UNL     1     -32.746   6.685   3.218  1.00 20.00    -0.380 N 
HETATM   14  H28 UNL     1     -35.115   6.522   7.819  1.00 20.00     0.164 HD
ENDROOT
TORSDOF 0
ENDMDL
