MODEL 1
REMARK VINA RESULT:      -4.6      0.000      0.000
REMARK  2 active torsions:
REMARK  status: ('A' for Active; 'I' for Inactive)
REMARK    1  A    between atoms: C5_5  and  C8_8 
REMARK    2  A    between atoms: C6_6  and  N9_9 
ROOT
HETATM    1  C1  UNL     1     -32.442   8.679   4.705  1.00 20.00     0.006 C 
HETATM    2  C2  UNL     1     -32.114   6.940   2.898  1.00 20.00     0.006 C 
HETATM    3  C3  UNL     1     -33.733   7.986   5.138  1.00 20.00     0.024 C 
HETATM    4  C4  UNL     1     -33.405   6.246   3.329  1.00 20.00     0.024 C 
HETATM    5  C5  UNL     1     -32.098   8.440   3.228  1.00 20.00    -0.015 C 
HETATM    6  C6  UNL     1     -33.707   6.495   4.805  1.00 20.00     0.109 C 
ENDROOT
BRANCH   5   7
HETATM    7  C8  UNL     1     -33.020   9.233   2.299  1.00 20.00     0.000 C 
HETATM    8  C7  UNL     1     -32.597   9.116   0.870  1.00 20.00     0.005 C 
ENDBRANCH   5   7
BRANCH   6   9
HETATM    9  N9  UNL     1     -35.009   5.904   5.138  1.00 20.00    -0.059 NA
HETATM   10  O10 UNL     1     -35.009   4.688   4.956  1.00 20.00    -0.101 OA
ENDBRANCH   6   9
TORSDOF 2
ENDMDL
MODEL 2
REMARK VINA RESULT:      -4.3     10.897     11.771
REMARK  2 active torsions:
REMARK  status: ('A' for Active; 'I' for Inactive)
REMARK    1  A    between atoms: C5_5  and  C8_8 
REMARK    2  A    between atoms: C6_6  and  N9_9 
ROOT
HETATM    1  C1  UNL     1     -32.829  15.258  -4.069  1.00 20.00     0.006 C 
HETATM    2  C2  UNL     1     -34.195  17.309  -4.634  1.00 20.00     0.006 C 
HETATM    3  C3  UNL     1     -34.067  14.382  -4.252  1.00 20.00     0.024 C 
HETATM    4  C4  UNL     1     -35.435  16.435  -4.817  1.00 20.00     0.024 C 
HETATM    5  C5  UNL     1     -33.167  16.701  -3.669  1.00 20.00    -0.015 C 
HETATM    6  C6  UNL     1     -35.061  15.013  -5.227  1.00 20.00     0.109 C 
ENDROOT
BRANCH   5   7
HETATM    7  C8  UNL     1     -33.636  16.788  -2.215  1.00 20.00     0.000 C 
HETATM    8  C7  UNL     1     -32.845  17.790  -1.439  1.00 20.00     0.005 C 
ENDBRANCH   5   7
BRANCH   6   9
HETATM    9  N9  UNL     1     -36.274  14.189  -5.279  1.00 20.00    -0.059 NA
HETATM   10  O10 UNL     1     -36.212  13.248  -4.489  1.00 20.00    -0.101 OA
ENDBRANCH   6   9
TORSDOF 2
ENDMDL
MODEL 3
REMARK VINA RESULT:      -4.0      2.877      3.900
REMARK  2 active torsions:
REMARK  status: ('A' for Active; 'I' for Inactive)
REMARK    1  A    between atoms: C5_5  and  C8_8 
REMARK    2  A    between atoms: C6_6  and  N9_9 
ROOT
HETATM    1  C1  UNL     1     -34.491   5.644   6.467  1.00 20.00     0.006 C 
HETATM    2  C2  UNL     1     -35.288   6.336   4.169  1.00 20.00     0.006 C 
HETATM    3  C3  UNL     1     -33.419   6.732   6.423  1.00 20.00     0.024 C 
HETATM    4  C4  UNL     1     -34.216   7.424   4.123  1.00 20.00     0.024 C 
HETATM    5  C5  UNL     1     -34.908   5.155   5.073  1.00 20.00    -0.015 C 
HETATM    6  C6  UNL     1     -33.837   7.895   5.525  1.00 20.00     0.109 C 
ENDROOT
BRANCH   5   7
HETATM    7  C8  UNL     1     -33.824   4.281   4.434  1.00 20.00     0.000 C 
HETATM    8  C7  UNL     1     -33.401   4.811   3.103  1.00 20.00     0.005 C 
ENDBRANCH   5   7
BRANCH   6   9
HETATM    9  N9  UNL     1     -32.731   8.854   5.431  1.00 20.00    -0.059 NA
HETATM   10  O10 UNL     1     -32.138   8.750   4.358  1.00 20.00    -0.101 OA
ENDBRANCH   6   9
TORSDOF 2
ENDMDL
MODEL 4
REMARK VINA RESULT:      -3.9     15.369     16.208
REMARK  2 active torsions:
REMARK  status: ('A' for Active; 'I' for Inactive)
REMARK    1  A    between atoms: C5_5  and  C8_8 
REMARK    2  A    between atoms: C6_6  and  N9_9 
ROOT
HETATM    1  C1  UNL     1     -23.344  19.219   9.335  1.00 20.00     0.006 C 
HETATM    2  C2  UNL     1     -21.820  18.649  11.270  1.00 20.00     0.006 C 
HETATM    3  C3  UNL     1     -24.429  18.319   9.924  1.00 20.00     0.024 C 
HETATM    4  C4  UNL     1     -22.903  17.748  11.860  1.00 20.00     0.024 C 
HETATM    5  C5  UNL     1     -21.926  18.799   9.746  1.00 20.00    -0.015 C 
HETATM    6  C6  UNL     1     -24.299  18.204  11.442  1.00 20.00     0.109 C 
ENDROOT
BRANCH   5   7
HETATM    7  C8  UNL     1     -21.483  17.525   9.020  1.00 20.00     0.000 C 
HETATM    8  C7  UNL     1     -21.388  17.735   7.544  1.00 20.00     0.005 C 
ENDBRANCH   5   7
BRANCH   6   9
HETATM    9  N9  UNL     1     -25.291  17.244  11.940  1.00 20.00    -0.059 NA
HETATM   10  O10 UNL     1     -24.831  16.104  11.980  1.00 20.00    -0.101 OA
ENDBRANCH   6   9
TORSDOF 2
ENDMDL
MODEL 5
REMARK VINA RESULT:      -3.7      2.581      4.099
REMARK  2 active torsions:
REMARK  status: ('A' for Active; 'I' for Inactive)
REMARK    1  A    between atoms: C5_5  and  C8_8 
REMARK    2  A    between atoms: C6_6  and  N9_9 
ROOT
HETATM    1  C1  UNL     1     -35.132   6.584   4.462  1.00 20.00     0.006 C 
HETATM    2  C2  UNL     1     -33.410   5.420   3.022  1.00 20.00     0.006 C 
HETATM    3  C3  UNL     1     -34.128   7.695   4.765  1.00 20.00     0.024 C 
HETATM    4  C4  UNL     1     -32.405   6.529   3.323  1.00 20.00     0.024 C 
HETATM    5  C5  UNL     1     -34.462   5.244   4.127  1.00 20.00    -0.015 C 
HETATM    6  C6  UNL     1     -33.106   7.849   3.639  1.00 20.00     0.109 C 
ENDROOT
BRANCH   5   7
HETATM    7  C8  UNL     1     -33.868   4.582   5.373  1.00 20.00     0.000 C 
HETATM    8  C7  UNL     1     -34.468   5.129   6.627  1.00 20.00     0.005 C 
ENDBRANCH   5   7
BRANCH   6   9
HETATM    9  N9  UNL     1     -32.104   8.847   4.030  1.00 20.00    -0.059 NA
HETATM   10  O10 UNL     1     -32.254   9.199   5.199  1.00 20.00    -0.101 OA
ENDBRANCH   6   9
TORSDOF 2
ENDMDL
MODEL 6
REMARK VINA RESULT:      -3.7      9.835     10.787
REMARK  2 active torsions:
REMARK  status: ('A' for Active; 'I' for Inactive)
REMARK    1  A    between atoms: C5_5  and  C8_8 
REMARK    2  A    between atoms: C6_6  and  N9_9 
ROOT
HETATM    1  C1  UNL     1     -42.242  12.976   5.940  1.00 20.00     0.006 C 
HETATM    2  C2  UNL     1     -40.414  14.422   6.921  1.00 20.00     0.006 C 
HETATM    3  C3  UNL     1     -42.676  12.569   7.348  1.00 20.00     0.024 C 
HETATM    4  C4  UNL     1     -40.846  14.016   8.329  1.00 20.00     0.024 C 
HETATM    5  C5  UNL     1     -40.761  13.370   5.858  1.00 20.00    -0.015 C 
HETATM    6  C6  UNL     1     -42.327  13.645   8.375  1.00 20.00     0.109 C 
ENDROOT
BRANCH   5   7
HETATM    7  C8  UNL     1     -39.846  12.146   5.956  1.00 20.00     0.000 C 
HETATM    8  C7  UNL     1     -39.292  11.763   4.622  1.00 20.00     0.005 C 
ENDBRANCH   5   7
BRANCH   6   9
HETATM    9  N9  UNL     1     -42.662  13.157   9.717  1.00 20.00    -0.059 NA
HETATM   10  O10 UNL     1     -41.707  13.264  10.485  1.00 20.00    -0.101 OA
ENDBRANCH   6   9
TORSDOF 2
ENDMDL
MODEL 7
REMARK VINA RESULT:      -3.6      1.387      2.499
REMARK  2 active torsions:
REMARK  status: ('A' for Active; 'I' for Inactive)
REMARK    1  A    between atoms: C5_5  and  C8_8 
REMARK    2  A    between atoms: C6_6  and  N9_9 
ROOT
HETATM    1  C1  UNL     1     -34.556   7.899   4.099  1.00 20.00     0.006 C 
HETATM    2  C2  UNL     1     -33.775   7.824   6.503  1.00 20.00     0.006 C 
HETATM    3  C3  UNL     1     -34.568   6.372   4.054  1.00 20.00     0.024 C 
HETATM    4  C4  UNL     1     -33.786   6.297   6.460  1.00 20.00     0.024 C 
HETATM    5  C5  UNL     1     -33.561   8.463   5.123  1.00 20.00    -0.015 C 
HETATM    6  C6  UNL     1     -34.796   5.773   5.442  1.00 20.00     0.109 C 
ENDROOT
BRANCH   5   7
HETATM    7  C8  UNL     1     -32.114   8.310   4.648  1.00 20.00     0.000 C 
HETATM    8  C7  UNL     1     -32.035   8.146   3.165  1.00 20.00     0.005 C 
ENDBRANCH   5   7
BRANCH   6   9
HETATM    9  N9  UNL     1     -34.686   4.313   5.360  1.00 20.00    -0.059 NA
HETATM   10  O10 UNL     1     -34.042   3.966   4.371  1.00 20.00    -0.101 OA
ENDBRANCH   6   9
TORSDOF 2
ENDMDL
MODEL 8
REMARK VINA RESULT:      -3.4     11.477     12.689
REMARK  2 active torsions:
REMARK  status: ('A' for Active; 'I' for Inactive)
REMARK    1  A    between atoms: C5_5  and  C8_8 
REMARK    2  A    between atoms: C6_6  and  N9_9 
ROOT
HETATM    1  C1  UNL     1     -34.037  14.636  -4.280  1.00 20.00     0.006 C 
HETATM    2  C2  UNL     1     -35.548  16.420  -5.243  1.00 20.00     0.006 C 
HETATM    3  C3  UNL     1     -33.129  15.718  -3.697  1.00 20.00     0.024 C 
HETATM    4  C4  UNL     1     -34.642  17.503  -4.661  1.00 20.00     0.024 C 
HETATM    5  C5  UNL     1     -34.808  15.103  -5.522  1.00 20.00    -0.015 C 
HETATM    6  C6  UNL     1     -33.902  17.007  -3.421  1.00 20.00     0.109 C 
ENDROOT
BRANCH   5   7
HETATM    7  C8  UNL     1     -33.894  15.216  -6.745  1.00 20.00     0.000 C 
HETATM    8  C7  UNL     1     -34.608  15.814  -7.914  1.00 20.00     0.005 C 
ENDBRANCH   5   7
BRANCH   6   9
HETATM    9  N9  UNL     1     -32.966  18.043  -2.970  1.00 20.00    -0.059 NA
HETATM   10  O10 UNL     1     -32.635  17.869  -1.798  1.00 20.00    -0.101 OA
ENDBRANCH   6   9
TORSDOF 2
ENDMDL
MODEL 9
REMARK VINA RESULT:      -3.4     11.109     12.313
REMARK  2 active torsions:
REMARK  status: ('A' for Active; 'I' for Inactive)
REMARK    1  A    between atoms: C5_5  and  C8_8 
REMARK    2  A    between atoms: C6_6  and  N9_9 
ROOT
HETATM    1  C1  UNL     1     -33.210  17.654  -3.414  1.00 20.00     0.006 C 
HETATM    2  C2  UNL     1     -34.616  17.412  -5.501  1.00 20.00     0.006 C 
HETATM    3  C3  UNL     1     -33.418  16.173  -3.101  1.00 20.00     0.024 C 
HETATM    4  C4  UNL     1     -34.826  15.931  -5.190  1.00 20.00     0.024 C 
HETATM    5  C5  UNL     1     -34.348  18.258  -4.248  1.00 20.00    -0.015 C 
HETATM    6  C6  UNL     1     -33.669  15.362  -4.371  1.00 20.00     0.109 C 
ENDROOT
BRANCH   5   7
HETATM    7  C8  UNL     1     -35.618  18.452  -3.415  1.00 20.00     0.000 C 
HETATM    8  C7  UNL     1     -35.337  19.182  -2.142  1.00 20.00     0.005 C 
ENDBRANCH   5   7
BRANCH   6   9
HETATM    9  N9  UNL     1     -33.972  13.974  -4.005  1.00 20.00    -0.059 NA
HETATM   10  O10 UNL     1     -35.115  13.662  -4.336  1.00 20.00    -0.101 OA
ENDBRANCH   6   9
TORSDOF 2
ENDMDL
