MODEL 1
REMARK VINA RESULT:      -5.5      0.000      0.000
REMARK  2 active torsions:
REMARK  status: ('A' for Active; 'I' for Inactive)
REMARK    1  A    between atoms: C4_4  and  C8_8 
REMARK    2  A    between atoms: C5_5  and  O9_9 
ROOT
HETATM    1  C1  UNL     1     -33.539   7.839   5.561  1.00 20.00     0.007 C 
HETATM    2  C2  UNL     1     -32.394   8.650   4.943  1.00 20.00     0.032 C 
HETATM    3  C3  UNL     1     -32.841   6.702   3.575  1.00 20.00     0.036 C 
HETATM    4  C4  UNL     1     -34.077   6.955   4.437  1.00 20.00    -0.009 C 
HETATM    5  C5  UNL     1     -32.160   8.063   3.551  1.00 20.00     0.118 C 
ENDROOT
BRANCH   4   6
HETATM    6  C8  UNL     1     -34.727   5.677   4.939  1.00 20.00    -0.019 C 
HETATM    7  C6  UNL     1     -34.083   4.448   4.295  1.00 20.00     0.010 C 
HETATM    8  C7  UNL     1     -34.640   5.583   6.464  1.00 20.00     0.010 C 
ENDBRANCH   4   6
BRANCH   5   9
HETATM    9  O9  UNL     1     -32.787   8.903   2.586  1.00 20.00    -0.396 OA
HETATM   10  H25 UNL     1     -32.728   9.809   2.928  1.00 20.00     0.210 HD
ENDBRANCH   5   9
TORSDOF 2
ENDMDL
MODEL 2
REMARK VINA RESULT:      -5.2      2.025      3.822
REMARK  2 active torsions:
REMARK  status: ('A' for Active; 'I' for Inactive)
REMARK    1  A    between atoms: C4_4  and  C8_8 
REMARK    2  A    between atoms: C5_5  and  O9_9 
ROOT
HETATM    1  C1  UNL     1     -33.721   6.983   6.089  1.00 20.00     0.007 C 
HETATM    2  C2  UNL     1     -34.665   5.808   6.371  1.00 20.00     0.032 C 
HETATM    3  C3  UNL     1     -34.633   6.271   3.994  1.00 20.00     0.036 C 
HETATM    4  C4  UNL     1     -33.376   6.892   4.603  1.00 20.00    -0.009 C 
HETATM    5  C5  UNL     1     -35.009   5.202   5.011  1.00 20.00     0.118 C 
ENDROOT
BRANCH   4   6
HETATM    6  C8  UNL     1     -33.015   8.234   3.988  1.00 20.00    -0.019 C 
HETATM    7  C6  UNL     1     -32.205   9.083   4.970  1.00 20.00     0.010 C 
HETATM    8  C7  UNL     1     -32.237   8.043   2.684  1.00 20.00     0.010 C 
ENDBRANCH   4   6
BRANCH   5   9
HETATM    9  O9  UNL     1     -34.212   4.038   4.810  1.00 20.00    -0.396 OA
HETATM   10  H25 UNL     1     -34.826   3.289   4.748  1.00 20.00     0.210 HD
ENDBRANCH   5   9
TORSDOF 2
ENDMDL
MODEL 3
REMARK VINA RESULT:      -4.8      2.142      3.985
REMARK  2 active torsions:
REMARK  status: ('A' for Active; 'I' for Inactive)
REMARK    1  A    between atoms: C4_4  and  C8_8 
REMARK    2  A    between atoms: C5_5  and  O9_9 
ROOT
HETATM    1  C1  UNL     1     -34.003   5.766   3.934  1.00 20.00     0.007 C 
HETATM    2  C2  UNL     1     -34.287   4.707   5.006  1.00 20.00     0.032 C 
HETATM    3  C3  UNL     1     -33.446   6.720   6.058  1.00 20.00     0.036 C 
HETATM    4  C4  UNL     1     -33.965   7.104   4.672  1.00 20.00    -0.009 C 
HETATM    5  C5  UNL     1     -34.191   5.425   6.352  1.00 20.00     0.118 C 
ENDROOT
BRANCH   4   6
HETATM    6  C8  UNL     1     -33.105   8.147   3.980  1.00 20.00    -0.019 C 
HETATM    7  C6  UNL     1     -32.304   8.958   5.000  1.00 20.00     0.010 C 
HETATM    8  C7  UNL     1     -32.162   7.490   2.967  1.00 20.00     0.010 C 
ENDBRANCH   4   6
BRANCH   5   9
HETATM    9  O9  UNL     1     -35.507   5.715   6.813  1.00 20.00    -0.396 OA
HETATM   10  H25 UNL     1     -35.959   4.863   6.914  1.00 20.00     0.210 HD
ENDBRANCH   5   9
TORSDOF 2
ENDMDL
MODEL 4
REMARK VINA RESULT:      -4.8      1.080      1.697
REMARK  2 active torsions:
REMARK  status: ('A' for Active; 'I' for Inactive)
REMARK    1  A    between atoms: C4_4  and  C8_8 
REMARK    2  A    between atoms: C5_5  and  O9_9 
ROOT
HETATM    1  C1  UNL     1     -32.739   6.606   3.321  1.00 20.00     0.007 C 
HETATM    2  C2  UNL     1     -32.156   7.998   3.050  1.00 20.00     0.032 C 
HETATM    3  C3  UNL     1     -33.789   8.136   4.833  1.00 20.00     0.036 C 
HETATM    4  C4  UNL     1     -33.349   6.676   4.720  1.00 20.00    -0.009 C 
HETATM    5  C5  UNL     1     -32.629   8.890   4.198  1.00 20.00     0.118 C 
ENDROOT
BRANCH   4   6
HETATM    6  C8  UNL     1     -34.488   5.691   4.928  1.00 20.00    -0.019 C 
HETATM    7  C6  UNL     1     -34.167   4.343   4.280  1.00 20.00     0.010 C 
HETATM    8  C7  UNL     1     -34.782   5.507   6.419  1.00 20.00     0.010 C 
ENDBRANCH   4   6
BRANCH   5   9
HETATM    9  O9  UNL     1     -31.568   9.030   5.138  1.00 20.00    -0.396 OA
HETATM   10  H25 UNL     1     -31.682   8.322   5.792  1.00 20.00     0.210 HD
ENDBRANCH   5   9
TORSDOF 2
ENDMDL
MODEL 5
REMARK VINA RESULT:      -4.2      2.260      3.566
REMARK  2 active torsions:
REMARK  status: ('A' for Active; 'I' for Inactive)
REMARK    1  A    between atoms: C4_4  and  C8_8 
REMARK    2  A    between atoms: C5_5  and  O9_9 
ROOT
HETATM    1  C1  UNL     1     -33.333   7.534   5.090  1.00 20.00     0.007 C 
HETATM    2  C2  UNL     1     -34.180   7.311   6.349  1.00 20.00     0.032 C 
HETATM    3  C3  UNL     1     -34.762   5.659   4.677  1.00 20.00     0.036 C 
HETATM    4  C4  UNL     1     -33.386   6.218   4.316  1.00 20.00    -0.009 C 
HETATM    5  C5  UNL     1     -34.870   5.960   6.166  1.00 20.00     0.118 C 
ENDROOT
BRANCH   4   6
HETATM    6  C8  UNL     1     -33.187   6.394   2.820  1.00 20.00    -0.019 C 
HETATM    7  C6  UNL     1     -32.114   7.446   2.533  1.00 20.00     0.010 C 
HETATM    8  C7  UNL     1     -32.815   5.064   2.160  1.00 20.00     0.010 C 
ENDBRANCH   4   6
BRANCH   5   9
HETATM    9  O9  UNL     1     -34.161   4.977   6.913  1.00 20.00    -0.396 OA
HETATM   10  H25 UNL     1     -33.773   4.364   6.268  1.00 20.00     0.210 HD
ENDBRANCH   5   9
TORSDOF 2
ENDMDL
MODEL 6
REMARK VINA RESULT:      -4.2     15.003     16.033
REMARK  2 active torsions:
REMARK  status: ('A' for Active; 'I' for Inactive)
REMARK    1  A    between atoms: C4_4  and  C8_8 
REMARK    2  A    between atoms: C5_5  and  O9_9 
ROOT
HETATM    1  C1  UNL     1     -23.693  16.887  10.453  1.00 20.00     0.007 C 
HETATM    2  C2  UNL     1     -24.292  16.266  11.721  1.00 20.00     0.032 C 
HETATM    3  C3  UNL     1     -24.793  18.635  11.662  1.00 20.00     0.036 C 
HETATM    4  C4  UNL     1     -24.443  18.201  10.239  1.00 20.00    -0.009 C 
HETATM    5  C5  UNL     1     -25.212  17.328  12.322  1.00 20.00     0.118 C 
ENDROOT
BRANCH   4   6
HETATM    6  C8  UNL     1     -23.631  19.238   9.481  1.00 20.00    -0.019 C 
HETATM    7  C6  UNL     1     -22.132  18.969   9.625  1.00 20.00     0.010 C 
HETATM    8  C7  UNL     1     -24.026  19.263   8.002  1.00 20.00     0.010 C 
ENDBRANCH   4   6
BRANCH   5   9
HETATM    9  O9  UNL     1     -26.559  17.019  11.975  1.00 20.00    -0.396 OA
HETATM   10  H25 UNL     1     -26.983  16.685  12.781  1.00 20.00     0.210 HD
ENDBRANCH   5   9
TORSDOF 2
ENDMDL
MODEL 7
REMARK VINA RESULT:      -4.0     11.876     12.778
REMARK  2 active torsions:
REMARK  status: ('A' for Active; 'I' for Inactive)
REMARK    1  A    between atoms: C4_4  and  C8_8 
REMARK    2  A    between atoms: C5_5  and  O9_9 
ROOT
HETATM    1  C1  UNL     1     -34.632  17.046  -4.259  1.00 20.00     0.007 C 
HETATM    2  C2  UNL     1     -34.812  15.961  -5.327  1.00 20.00     0.032 C 
HETATM    3  C3  UNL     1     -32.982  15.360  -3.859  1.00 20.00     0.036 C 
HETATM    4  C4  UNL     1     -33.843  16.389  -3.128  1.00 20.00    -0.009 C 
HETATM    5  C5  UNL     1     -33.945  14.781  -4.887  1.00 20.00     0.118 C 
ENDROOT
BRANCH   4   6
HETATM    6  C8  UNL     1     -33.028  17.379  -2.312  1.00 20.00    -0.019 C 
HETATM    7  C6  UNL     1     -32.891  18.712  -3.051  1.00 20.00     0.010 C 
HETATM    8  C7  UNL     1     -33.657  17.598  -0.934  1.00 20.00     0.010 C 
ENDBRANCH   4   6
BRANCH   5   9
HETATM    9  O9  UNL     1     -34.778  13.801  -4.275  1.00 20.00    -0.396 OA
HETATM   10  H25 UNL     1     -34.917  14.089  -3.359  1.00 20.00     0.210 HD
ENDBRANCH   5   9
TORSDOF 2
ENDMDL
MODEL 8
REMARK VINA RESULT:      -3.9     15.427     16.525
REMARK  2 active torsions:
REMARK  status: ('A' for Active; 'I' for Inactive)
REMARK    1  A    between atoms: C4_4  and  C8_8 
REMARK    2  A    between atoms: C5_5  and  O9_9 
ROOT
HETATM    1  C1  UNL     1     -22.312  18.765  11.269  1.00 20.00     0.007 C 
HETATM    2  C2  UNL     1     -23.286  18.244  12.332  1.00 20.00     0.032 C 
HETATM    3  C3  UNL     1     -24.054  17.580  10.133  1.00 20.00     0.036 C 
HETATM    4  C4  UNL     1     -22.568  17.921  10.021  1.00 20.00    -0.009 C 
HETATM    5  C5  UNL     1     -24.219  17.269  11.615  1.00 20.00     0.118 C 
ENDROOT
BRANCH   4   6
HETATM    6  C8  UNL     1     -22.215  18.638   8.729  1.00 20.00    -0.019 C 
HETATM    7  C6  UNL     1     -21.539  17.684   7.743  1.00 20.00     0.010 C 
HETATM    8  C7  UNL     1     -23.461  19.261   8.095  1.00 20.00     0.010 C 
ENDBRANCH   4   6
BRANCH   5   9
HETATM    9  O9  UNL     1     -23.789  15.938  11.883  1.00 20.00    -0.396 OA
HETATM   10  H25 UNL     1     -22.933  16.009  12.333  1.00 20.00     0.210 HD
ENDBRANCH   5   9
TORSDOF 2
ENDMDL
MODEL 9
REMARK VINA RESULT:      -3.7     12.038     12.685
REMARK  2 active torsions:
REMARK  status: ('A' for Active; 'I' for Inactive)
REMARK    1  A    between atoms: C4_4  and  C8_8 
REMARK    2  A    between atoms: C5_5  and  O9_9 
ROOT
HETATM    1  C1  UNL     1     -32.036  18.120  -1.040  1.00 20.00     0.007 C 
HETATM    2  C2  UNL     1     -32.441  18.819   0.263  1.00 20.00     0.032 C 
HETATM    3  C3  UNL     1     -34.409  18.424  -1.092  1.00 20.00     0.036 C 
HETATM    4  C4  UNL     1     -33.313  17.479  -1.582  1.00 20.00    -0.009 C 
HETATM    5  C5  UNL     1     -33.967  18.750   0.328  1.00 20.00     0.118 C 
ENDROOT
BRANCH   4   6
HETATM    6  C8  UNL     1     -33.303  17.307  -3.092  1.00 20.00    -0.019 C 
HETATM    7  C6  UNL     1     -33.392  15.828  -3.472  1.00 20.00     0.010 C 
HETATM    8  C7  UNL     1     -34.449  18.090  -3.737  1.00 20.00     0.010 C 
ENDBRANCH   4   6
BRANCH   5   9
HETATM    9  O9  UNL     1     -34.341  17.694   1.208  1.00 20.00    -0.396 OA
HETATM   10  H25 UNL     1     -33.743  16.953   1.022  1.00 20.00     0.210 HD
ENDBRANCH   5   9
TORSDOF 2
ENDMDL
