MODEL 1
REMARK VINA RESULT:      -4.6      0.000      0.000
REMARK  1 active torsions:
REMARK  status: ('A' for Active; 'I' for Inactive)
REMARK    1  A    between atoms: C5_5  and  C8_8 
ROOT
HETATM    1  C1  UNL     1     -32.963  19.008   1.424  1.00 20.00     0.052 C 
HETATM    2  C2  UNL     1     -31.846  18.882   0.693  1.00 20.00    -0.080 C 
HETATM    3  C3  UNL     1     -34.295  18.776   0.814  1.00 20.00     0.150 C 
HETATM    4  C6  UNL     1     -31.855  18.440  -0.750  1.00 20.00     0.043 C 
HETATM    5  C7  UNL     1     -34.370  18.492  -0.669  1.00 20.00     0.092 C 
HETATM    6  C8  UNL     1     -33.146  17.707  -1.139  1.00 20.00     0.024 C 
HETATM    7  C9  UNL     1     -30.495  19.182   1.276  1.00 20.00     0.043 C 
HETATM    8  O11 UNL     1     -35.308  18.880   1.504  1.00 20.00    -0.293 OA
ENDROOT
BRANCH   6   9
HETATM    9  C5  UNL     1     -33.200  17.459  -2.616  1.00 20.00    -0.088 C 
HETATM   10  C4  UNL     1     -33.351  16.227  -3.123  1.00 20.00     0.014 C 
HETATM   11  C10 UNL     1     -33.076  18.669  -3.494  1.00 20.00     0.043 C 
ENDBRANCH   6   9
TORSDOF 1
ENDMDL
MODEL 2
REMARK VINA RESULT:      -4.4      2.260      4.691
REMARK  1 active torsions:
REMARK  status: ('A' for Active; 'I' for Inactive)
REMARK    1  A    between atoms: C5_5  and  C8_8 
ROOT
HETATM    1  C1  UNL     1     -34.505  17.023  -4.584  1.00 20.00     0.052 C 
HETATM    2  C2  UNL     1     -33.790  16.139  -3.872  1.00 20.00    -0.080 C 
HETATM    3  C3  UNL     1     -34.882  18.334  -4.002  1.00 20.00     0.150 C 
HETATM    4  C6  UNL     1     -33.268  16.433  -2.487  1.00 20.00     0.043 C 
HETATM    5  C7  UNL     1     -34.525  18.612  -2.559  1.00 20.00     0.092 C 
HETATM    6  C8  UNL     1     -33.208  17.936  -2.180  1.00 20.00     0.024 C 
HETATM    7  C9  UNL     1     -33.462  14.780  -4.420  1.00 20.00     0.043 C 
HETATM    8  O11 UNL     1     -35.525  19.138  -4.675  1.00 20.00    -0.293 OA
ENDROOT
BRANCH   6   9
HETATM    9  C5  UNL     1     -32.873  18.178  -0.740  1.00 20.00    -0.088 C 
HETATM   10  C4  UNL     1     -33.801  18.104   0.226  1.00 20.00     0.014 C 
HETATM   11  C10 UNL     1     -31.441  18.509  -0.441  1.00 20.00     0.043 C 
ENDBRANCH   6   9
TORSDOF 1
ENDMDL
MODEL 3
REMARK VINA RESULT:      -4.3     12.272     13.072
REMARK  1 active torsions:
REMARK  status: ('A' for Active; 'I' for Inactive)
REMARK    1  A    between atoms: C5_5  and  C8_8 
ROOT
HETATM    1  C1  UNL     1     -33.884   4.688   4.116  1.00 20.00     0.052 C 
HETATM    2  C2  UNL     1     -34.247   5.582   5.049  1.00 20.00    -0.080 C 
HETATM    3  C3  UNL     1     -33.123   5.115   2.917  1.00 20.00     0.150 C 
HETATM    4  C6  UNL     1     -33.858   7.038   4.984  1.00 20.00     0.043 C 
HETATM    5  C7  UNL     1     -32.850   6.589   2.722  1.00 20.00     0.092 C 
HETATM    6  C8  UNL     1     -32.655   7.293   4.065  1.00 20.00     0.024 C 
HETATM    7  C9  UNL     1     -35.078   5.179   6.232  1.00 20.00     0.043 C 
HETATM    8  O11 UNL     1     -32.785   4.279   2.080  1.00 20.00    -0.293 OA
ENDROOT
BRANCH   6   9
HETATM    9  C5  UNL     1     -32.424   8.761   3.875  1.00 20.00    -0.088 C 
HETATM   10  C4  UNL     1     -32.037   9.554   4.885  1.00 20.00     0.014 C 
HETATM   11  C10 UNL     1     -32.652   9.293   2.491  1.00 20.00     0.043 C 
ENDBRANCH   6   9
TORSDOF 1
ENDMDL
MODEL 4
REMARK VINA RESULT:      -4.2      1.630      2.589
REMARK  1 active torsions:
REMARK  status: ('A' for Active; 'I' for Inactive)
REMARK    1  A    between atoms: C5_5  and  C8_8 
ROOT
HETATM    1  C1  UNL     1     -32.745  19.263   1.130  1.00 20.00     0.052 C 
HETATM    2  C2  UNL     1     -33.978  18.955   0.702  1.00 20.00    -0.080 C 
HETATM    3  C3  UNL     1     -31.555  18.928   0.310  1.00 20.00     0.150 C 
HETATM    4  C6  UNL     1     -34.246  18.324  -0.642  1.00 20.00     0.043 C 
HETATM    5  C7  UNL     1     -31.757  18.148  -0.969  1.00 20.00     0.092 C 
HETATM    6  C8  UNL     1     -33.086  18.512  -1.630  1.00 20.00     0.024 C 
HETATM    7  C9  UNL     1     -35.187  19.223   1.551  1.00 20.00     0.043 C 
HETATM    8  O11 UNL     1     -30.433  19.233   0.711  1.00 20.00    -0.293 OA
ENDROOT
BRANCH   6   9
HETATM    9  C5  UNL     1     -33.305  17.710  -2.877  1.00 20.00    -0.088 C 
HETATM   10  C4  UNL     1     -33.261  16.370  -2.874  1.00 20.00     0.014 C 
HETATM   11  C10 UNL     1     -33.577  18.493  -4.127  1.00 20.00     0.043 C 
ENDBRANCH   6   9
TORSDOF 1
ENDMDL
MODEL 5
REMARK VINA RESULT:      -4.1     12.011     12.665
REMARK  1 active torsions:
REMARK  status: ('A' for Active; 'I' for Inactive)
REMARK    1  A    between atoms: C5_5  and  C8_8 
ROOT
HETATM    1  C1  UNL     1     -32.137   8.763   3.380  1.00 20.00     0.052 C 
HETATM    2  C2  UNL     1     -32.447   8.720   4.685  1.00 20.00    -0.080 C 
HETATM    3  C3  UNL     1     -32.366   7.583   2.510  1.00 20.00     0.150 C 
HETATM    4  C6  UNL     1     -33.100   7.525   5.334  1.00 20.00     0.043 C 
HETATM    5  C7  UNL     1     -32.864   6.305   3.145  1.00 20.00     0.092 C 
HETATM    6  C8  UNL     1     -33.793   6.602   4.321  1.00 20.00     0.024 C 
HETATM    7  C9  UNL     1     -32.156   9.879   5.593  1.00 20.00     0.043 C 
HETATM    8  O11 UNL     1     -32.091   7.646   1.313  1.00 20.00    -0.293 OA
ENDROOT
BRANCH   6   9
HETATM    9  C5  UNL     1     -34.256   5.336   4.976  1.00 20.00    -0.088 C 
HETATM   10  C4  UNL     1     -34.131   4.142   4.378  1.00 20.00     0.014 C 
HETATM   11  C10 UNL     1     -34.867   5.482   6.338  1.00 20.00     0.043 C 
ENDBRANCH   6   9
TORSDOF 1
ENDMDL
MODEL 6
REMARK VINA RESULT:      -4.0      2.906      5.524
REMARK  1 active torsions:
REMARK  status: ('A' for Active; 'I' for Inactive)
REMARK    1  A    between atoms: C5_5  and  C8_8 
ROOT
HETATM    1  C1  UNL     1     -34.429  16.030  -5.339  1.00 20.00     0.052 C 
HETATM    2  C2  UNL     1     -34.480  17.370  -5.311  1.00 20.00    -0.080 C 
HETATM    3  C3  UNL     1     -33.857  15.272  -4.199  1.00 20.00     0.150 C 
HETATM    4  C6  UNL     1     -34.036  18.183  -4.120  1.00 20.00     0.043 C 
HETATM    5  C7  UNL     1     -33.247  16.045  -3.052  1.00 20.00     0.092 C 
HETATM    6  C8  UNL     1     -33.988  17.362  -2.824  1.00 20.00     0.024 C 
HETATM    7  C9  UNL     1     -34.989  18.155  -6.485  1.00 20.00     0.043 C 
HETATM    8  O11 UNL     1     -33.833  14.043  -4.236  1.00 20.00    -0.293 OA
ENDROOT
BRANCH   6   9
HETATM    9  C5  UNL     1     -33.360  18.147  -1.712  1.00 20.00    -0.088 C 
HETATM   10  C4  UNL     1     -32.465  19.117  -1.948  1.00 20.00     0.014 C 
HETATM   11  C10 UNL     1     -33.790  17.785  -0.322  1.00 20.00     0.043 C 
ENDBRANCH   6   9
TORSDOF 1
ENDMDL
MODEL 7
REMARK VINA RESULT:      -4.0     12.161     12.991
REMARK  1 active torsions:
REMARK  status: ('A' for Active; 'I' for Inactive)
REMARK    1  A    between atoms: C5_5  and  C8_8 
ROOT
HETATM    1  C1  UNL     1     -34.113   4.756   4.315  1.00 20.00     0.052 C 
HETATM    2  C2  UNL     1     -33.342   5.114   3.278  1.00 20.00    -0.080 C 
HETATM    3  C3  UNL     1     -34.360   5.699   5.434  1.00 20.00     0.150 C 
HETATM    4  C6  UNL     1     -32.738   6.489   3.141  1.00 20.00     0.043 C 
HETATM    5  C7  UNL     1     -33.644   7.031   5.425  1.00 20.00     0.092 C 
HETATM    6  C8  UNL     1     -33.455   7.542   3.998  1.00 20.00     0.024 C 
HETATM    7  C9  UNL     1     -33.025   4.147   2.174  1.00 20.00     0.043 C 
HETATM    8  O11 UNL     1     -35.083   5.360   6.369  1.00 20.00    -0.293 OA
ENDROOT
BRANCH   6   9
HETATM    9  C5  UNL     1     -32.711   8.843   3.986  1.00 20.00    -0.088 C 
HETATM   10  C4  UNL     1     -32.075   9.305   5.072  1.00 20.00     0.014 C 
HETATM   11  C10 UNL     1     -32.720   9.597   2.689  1.00 20.00     0.043 C 
ENDBRANCH   6   9
TORSDOF 1
ENDMDL
MODEL 8
REMARK VINA RESULT:      -3.9     11.829     12.553
REMARK  1 active torsions:
REMARK  status: ('A' for Active; 'I' for Inactive)
REMARK    1  A    between atoms: C5_5  and  C8_8 
ROOT
HETATM    1  C1  UNL     1     -31.959   8.723   3.599  1.00 20.00     0.052 C 
HETATM    2  C2  UNL     1     -32.441   7.716   2.855  1.00 20.00    -0.080 C 
HETATM    3  C3  UNL     1     -32.437   8.932   4.988  1.00 20.00     0.150 C 
HETATM    4  C6  UNL     1     -33.428   6.705   3.384  1.00 20.00     0.043 C 
HETATM    5  C7  UNL     1     -33.547   8.047   5.510  1.00 20.00     0.092 C 
HETATM    6  C8  UNL     1     -33.451   6.642   4.918  1.00 20.00     0.024 C 
HETATM    7  C9  UNL     1     -32.021   7.533   1.426  1.00 20.00     0.043 C 
HETATM    8  O11 UNL     1     -31.973   9.851   5.661  1.00 20.00    -0.293 OA
ENDROOT
BRANCH   6   9
HETATM    9  C5  UNL     1     -34.573   5.775   5.404  1.00 20.00    -0.088 C 
HETATM   10  C4  UNL     1     -34.551   5.200   6.616  1.00 20.00     0.014 C 
HETATM   11  C10 UNL     1     -35.721   5.588   4.458  1.00 20.00     0.043 C 
ENDBRANCH   6   9
TORSDOF 1
ENDMDL
MODEL 9
REMARK VINA RESULT:      -3.8      3.040      4.729
REMARK  1 active torsions:
REMARK  status: ('A' for Active; 'I' for Inactive)
REMARK    1  A    between atoms: C5_5  and  C8_8 
ROOT
HETATM    1  C1  UNL     1     -29.220  19.220   4.702  1.00 20.00     0.052 C 
HETATM    2  C2  UNL     1     -28.634  19.165   3.497  1.00 20.00    -0.080 C 
HETATM    3  C3  UNL     1     -30.699  19.224   4.823  1.00 20.00     0.150 C 
HETATM    4  C6  UNL     1     -29.412  19.035   2.212  1.00 20.00     0.043 C 
HETATM    5  C7  UNL     1     -31.526  19.262   3.559  1.00 20.00     0.092 C 
HETATM    6  C8  UNL     1     -30.835  18.501   2.429  1.00 20.00     0.024 C 
HETATM    7  C9  UNL     1     -27.141  19.232   3.354  1.00 20.00     0.043 C 
HETATM    8  O11 UNL     1     -31.219  19.260   5.937  1.00 20.00    -0.293 OA
ENDROOT
BRANCH   6   9
HETATM    9  C5  UNL     1     -31.635  18.571   1.163  1.00 20.00    -0.088 C 
HETATM   10  C4  UNL     1     -31.055  18.526  -0.045  1.00 20.00     0.014 C 
HETATM   11  C10 UNL     1     -33.121  18.696   1.327  1.00 20.00     0.043 C 
ENDBRANCH   6   9
TORSDOF 1
ENDMDL
