MODEL 1
REMARK VINA RESULT:      -5.6      0.000      0.000
REMARK  2 active torsions:
REMARK  status: ('A' for Active; 'I' for Inactive)
REMARK    1  A    between atoms: C4_4  and  C8_8 
REMARK    2  A    between atoms: C5_5  and  O9_9 
ROOT
HETATM    1  C1  UNL     1     -33.519   6.813   6.134  1.00 20.00     0.007 C 
HETATM    2  C2  UNL     1     -34.560   5.758   6.480  1.00 20.00     0.032 C 
HETATM    3  C3  UNL     1     -34.771   6.325   4.116  1.00 20.00     0.036 C 
HETATM    4  C4  UNL     1     -34.109   7.474   4.893  1.00 20.00    -0.009 C 
HETATM    5  C5  UNL     1     -34.944   5.182   5.121  1.00 20.00     0.118 C 
ENDROOT
BRANCH   4   6
HETATM    6  C8  UNL     1     -33.077   8.234   4.077  1.00 20.00    -0.019 C 
HETATM    7  C6  UNL     1     -32.142   9.031   4.988  1.00 20.00     0.010 C 
HETATM    8  C7  UNL     1     -32.271   7.279   3.193  1.00 20.00     0.010 C 
ENDBRANCH   4   6
BRANCH   5   9
HETATM    9  O9  UNL     1     -34.049   4.130   4.773  1.00 20.00    -0.396 OA
HETATM   10  H25 UNL     1     -33.214   4.551   4.518  1.00 20.00     0.210 HD
ENDBRANCH   5   9
TORSDOF 2
ENDMDL
MODEL 2
REMARK VINA RESULT:      -5.3      0.459      1.267
REMARK  2 active torsions:
REMARK  status: ('A' for Active; 'I' for Inactive)
REMARK    1  A    between atoms: C4_4  and  C8_8 
REMARK    2  A    between atoms: C5_5  and  O9_9 
ROOT
HETATM    1  C1  UNL     1     -33.573   6.583   6.285  1.00 20.00     0.007 C 
HETATM    2  C2  UNL     1     -34.805   5.689   6.309  1.00 20.00     0.032 C 
HETATM    3  C3  UNL     1     -34.269   6.225   3.990  1.00 20.00     0.036 C 
HETATM    4  C4  UNL     1     -33.698   7.290   4.938  1.00 20.00    -0.009 C 
HETATM    5  C5  UNL     1     -34.871   5.140   4.888  1.00 20.00     0.118 C 
ENDROOT
BRANCH   4   6
HETATM    6  C8  UNL     1     -32.385   7.882   4.455  1.00 20.00    -0.019 C 
HETATM    7  C6  UNL     1     -32.244   7.728   2.939  1.00 20.00     0.010 C 
HETATM    8  C7  UNL     1     -32.273   9.355   4.851  1.00 20.00     0.010 C 
ENDBRANCH   4   6
BRANCH   5   9
HETATM    9  O9  UNL     1     -34.068   3.967   4.787  1.00 20.00    -0.396 OA
HETATM   10  H25 UNL     1     -34.393   3.351   5.461  1.00 20.00     0.210 HD
ENDBRANCH   5   9
TORSDOF 2
ENDMDL
MODEL 3
REMARK VINA RESULT:      -5.1      1.837      3.828
REMARK  2 active torsions:
REMARK  status: ('A' for Active; 'I' for Inactive)
REMARK    1  A    between atoms: C4_4  and  C8_8 
REMARK    2  A    between atoms: C5_5  and  O9_9 
ROOT
HETATM    1  C1  UNL     1     -32.847   6.358   3.434  1.00 20.00     0.007 C 
HETATM    2  C2  UNL     1     -32.332   7.727   3.014  1.00 20.00     0.032 C 
HETATM    3  C3  UNL     1     -33.961   8.018   4.807  1.00 20.00     0.036 C 
HETATM    4  C4  UNL     1     -34.193   6.687   4.074  1.00 20.00    -0.009 C 
HETATM    5  C5  UNL     1     -32.690   8.618   4.198  1.00 20.00     0.118 C 
ENDROOT
BRANCH   4   6
HETATM    6  C8  UNL     1     -34.704   5.582   4.983  1.00 20.00    -0.019 C 
HETATM    7  C6  UNL     1     -34.058   4.242   4.628  1.00 20.00     0.010 C 
HETATM    8  C7  UNL     1     -34.447   5.923   6.452  1.00 20.00     0.010 C 
ENDBRANCH   4   6
BRANCH   5   9
HETATM    9  O9  UNL     1     -31.651   8.567   5.170  1.00 20.00    -0.396 OA
HETATM   10  H25 UNL     1     -31.971   8.000   5.889  1.00 20.00     0.210 HD
ENDBRANCH   5   9
TORSDOF 2
ENDMDL
MODEL 4
REMARK VINA RESULT:      -4.6      2.050      3.833
REMARK  2 active torsions:
REMARK  status: ('A' for Active; 'I' for Inactive)
REMARK    1  A    between atoms: C4_4  and  C8_8 
REMARK    2  A    between atoms: C5_5  and  O9_9 
ROOT
HETATM    1  C1  UNL     1     -33.504   8.341   5.332  1.00 20.00     0.007 C 
HETATM    2  C2  UNL     1     -32.305   9.072   4.745  1.00 20.00     0.032 C 
HETATM    3  C3  UNL     1     -32.607   6.969   3.545  1.00 20.00     0.036 C 
HETATM    4  C4  UNL     1     -33.234   6.890   4.946  1.00 20.00    -0.009 C 
HETATM    5  C5  UNL     1     -32.121   8.413   3.382  1.00 20.00     0.118 C 
ENDROOT
BRANCH   4   6
HETATM    6  C8  UNL     1     -34.480   6.021   4.997  1.00 20.00    -0.019 C 
HETATM    7  C6  UNL     1     -34.287   4.745   4.174  1.00 20.00     0.010 C 
HETATM    8  C7  UNL     1     -34.841   5.671   6.442  1.00 20.00     0.010 C 
ENDBRANCH   4   6
BRANCH   5   9
HETATM    9  O9  UNL     1     -32.944   9.064   2.418  1.00 20.00    -0.396 OA
HETATM   10  H25 UNL     1     -33.504   8.377   2.024  1.00 20.00     0.210 HD
ENDBRANCH   5   9
TORSDOF 2
ENDMDL
MODEL 5
REMARK VINA RESULT:      -4.6      1.099      1.627
REMARK  2 active torsions:
REMARK  status: ('A' for Active; 'I' for Inactive)
REMARK    1  A    between atoms: C4_4  and  C8_8 
REMARK    2  A    between atoms: C5_5  and  O9_9 
ROOT
HETATM    1  C1  UNL     1     -33.231   7.517   5.930  1.00 20.00     0.007 C 
HETATM    2  C2  UNL     1     -34.430   6.967   6.690  1.00 20.00     0.032 C 
HETATM    3  C3  UNL     1     -34.464   6.078   4.418  1.00 20.00     0.036 C 
HETATM    4  C4  UNL     1     -33.670   7.392   4.474  1.00 20.00    -0.009 C 
HETATM    5  C5  UNL     1     -34.844   5.752   5.866  1.00 20.00     0.118 C 
ENDROOT
BRANCH   4   6
HETATM    6  C8  UNL     1     -32.506   7.431   3.498  1.00 20.00    -0.019 C 
HETATM    7  C6  UNL     1     -32.524   6.207   2.580  1.00 20.00     0.010 C 
HETATM    8  C7  UNL     1     -32.532   8.717   2.670  1.00 20.00     0.010 C 
ENDBRANCH   4   6
BRANCH   5   9
HETATM    9  O9  UNL     1     -34.102   4.611   6.286  1.00 20.00    -0.396 OA
HETATM   10  H25 UNL     1     -33.166   4.863   6.255  1.00 20.00     0.210 HD
ENDBRANCH   5   9
TORSDOF 2
ENDMDL
MODEL 6
REMARK VINA RESULT:      -4.4      1.323      1.751
REMARK  2 active torsions:
REMARK  status: ('A' for Active; 'I' for Inactive)
REMARK    1  A    between atoms: C4_4  and  C8_8 
REMARK    2  A    between atoms: C5_5  and  O9_9 
ROOT
HETATM    1  C1  UNL     1     -33.339   5.725   3.363  1.00 20.00     0.007 C 
HETATM    2  C2  UNL     1     -33.988   4.608   4.169  1.00 20.00     0.032 C 
HETATM    3  C3  UNL     1     -34.298   6.717   5.357  1.00 20.00     0.036 C 
HETATM    4  C4  UNL     1     -33.083   6.797   4.419  1.00 20.00    -0.009 C 
HETATM    5  C5  UNL     1     -34.942   5.351   5.098  1.00 20.00     0.118 C 
ENDROOT
BRANCH   4   6
HETATM    6  C8  UNL     1     -32.875   8.179   3.823  1.00 20.00    -0.019 C 
HETATM    7  C6  UNL     1     -32.126   9.085   4.802  1.00 20.00     0.010 C 
HETATM    8  C7  UNL     1     -32.119   8.092   2.496  1.00 20.00     0.010 C 
ENDBRANCH   4   6
BRANCH   5   9
HETATM    9  O9  UNL     1     -36.191   5.554   4.443  1.00 20.00    -0.396 OA
HETATM   10  H25 UNL     1     -36.877   5.242   5.054  1.00 20.00     0.210 HD
ENDBRANCH   5   9
TORSDOF 2
ENDMDL
MODEL 7
REMARK VINA RESULT:      -4.1     15.333     16.538
REMARK  2 active torsions:
REMARK  status: ('A' for Active; 'I' for Inactive)
REMARK    1  A    between atoms: C4_4  and  C8_8 
REMARK    2  A    between atoms: C5_5  and  O9_9 
ROOT
HETATM    1  C1  UNL     1     -24.384  18.450   9.669  1.00 20.00     0.007 C 
HETATM    2  C2  UNL     1     -23.206  18.698   8.737  1.00 20.00     0.032 C 
HETATM    3  C3  UNL     1     -22.352  18.178  10.963  1.00 20.00     0.036 C 
HETATM    4  C4  UNL     1     -23.786  18.722  11.046  1.00 20.00    -0.009 C 
HETATM    5  C5  UNL     1     -22.035  18.053   9.469  1.00 20.00     0.118 C 
ENDROOT
BRANCH   4   6
HETATM    6  C8  UNL     1     -24.596  18.108  12.176  1.00 20.00    -0.019 C 
HETATM    7  C6  UNL     1     -25.942  18.820  12.330  1.00 20.00     0.010 C 
HETATM    8  C7  UNL     1     -24.810  16.612  11.943  1.00 20.00     0.010 C 
ENDBRANCH   4   6
BRANCH   5   9
HETATM    9  O9  UNL     1     -21.961  16.670   9.133  1.00 20.00    -0.396 OA
HETATM   10  H25 UNL     1     -22.065  16.613   8.171  1.00 20.00     0.210 HD
ENDBRANCH   5   9
TORSDOF 2
ENDMDL
MODEL 8
REMARK VINA RESULT:      -3.9     15.821     16.810
REMARK  2 active torsions:
REMARK  status: ('A' for Active; 'I' for Inactive)
REMARK    1  A    between atoms: C4_4  and  C8_8 
REMARK    2  A    between atoms: C5_5  and  O9_9 
ROOT
HETATM    1  C1  UNL     1     -23.819  17.345   9.956  1.00 20.00     0.007 C 
HETATM    2  C2  UNL     1     -23.931  17.016  11.438  1.00 20.00     0.032 C 
HETATM    3  C3  UNL     1     -22.049  18.534  11.109  1.00 20.00     0.036 C 
HETATM    4  C4  UNL     1     -22.360  17.768   9.814  1.00 20.00    -0.009 C 
HETATM    5  C5  UNL     1     -23.139  18.134  12.108  1.00 20.00     0.118 C 
ENDROOT
BRANCH   4   6
HETATM    6  C8  UNL     1     -22.097  18.581   8.558  1.00 20.00    -0.019 C 
HETATM    7  C6  UNL     1     -21.419  17.724   7.487  1.00 20.00     0.010 C 
HETATM    8  C7  UNL     1     -23.395  19.181   8.015  1.00 20.00     0.010 C 
ENDBRANCH   4   6
BRANCH   5   9
HETATM    9  O9  UNL     1     -23.987  19.257  12.332  1.00 20.00    -0.396 OA
HETATM   10  H25 UNL     1     -23.407  20.031  12.400  1.00 20.00     0.210 HD
ENDBRANCH   5   9
TORSDOF 2
ENDMDL
MODEL 9
REMARK VINA RESULT:      -3.8      1.812      3.125
REMARK  2 active torsions:
REMARK  status: ('A' for Active; 'I' for Inactive)
REMARK    1  A    between atoms: C4_4  and  C8_8 
REMARK    2  A    between atoms: C5_5  and  O9_9 
ROOT
HETATM    1  C1  UNL     1     -33.201   7.374   4.123  1.00 20.00     0.007 C 
HETATM    2  C2  UNL     1     -33.523   8.330   5.263  1.00 20.00     0.032 C 
HETATM    3  C3  UNL     1     -34.597   6.185   5.710  1.00 20.00     0.036 C 
HETATM    4  C4  UNL     1     -34.337   6.358   4.205  1.00 20.00    -0.009 C 
HETATM    5  C5  UNL     1     -33.961   7.402   6.390  1.00 20.00     0.118 C 
ENDROOT
BRANCH   4   6
HETATM    6  C8  UNL     1     -34.018   5.052   3.497  1.00 20.00    -0.019 C 
HETATM    7  C6  UNL     1     -32.831   5.224   2.548  1.00 20.00     0.010 C 
HETATM    8  C7  UNL     1     -33.732   3.940   4.508  1.00 20.00     0.010 C 
ENDBRANCH   4   6
BRANCH   5   9
HETATM    9  O9  UNL     1     -32.821   6.968   7.126  1.00 20.00    -0.396 OA
HETATM   10  H25 UNL     1     -32.253   6.491   6.501  1.00 20.00     0.210 HD
ENDBRANCH   5   9
TORSDOF 2
ENDMDL
