MODEL 1
REMARK VINA RESULT:      -3.8      0.000      0.000
REMARK  4 active torsions:
REMARK  status: ('A' for Active; 'I' for Inactive)
REMARK    1  A    between atoms: C1_1  and  C7_7 
REMARK    2  A    between atoms: C1_1  and  O11_11 
REMARK    3  A    between atoms: C7_7  and  C8_8 
REMARK    4  A    between atoms: C8_8  and  C9_9 
ROOT
HETATM    1  C2  UNL     1     -33.730   7.527   6.592  1.00 20.00     0.011 C 
HETATM    2  C8  UNL     1     -33.553   6.946   5.176  1.00 20.00    -0.002 C 
ENDROOT
BRANCH   2   3
HETATM    3  C7  UNL     1     -33.760   8.076   4.141  1.00 20.00     0.116 C 
BRANCH   3   4
HETATM    4  C1  UNL     1     -32.614   8.197   3.156  1.00 20.00     0.258 C 
HETATM    5  O10 UNL     1     -31.802   7.315   2.908  1.00 20.00    -0.265 OA
BRANCH   4   6
HETATM    6  O11 UNL     1     -32.662   9.428   2.566  1.00 20.00    -0.326 OA
HETATM    7  C6  UNL     1     -32.851   9.425   1.147  1.00 20.00     0.213 C 
ENDBRANCH   4   6
ENDBRANCH   3   4
ENDBRANCH   2   3
BRANCH   2   8
HETATM    8  C9  UNL     1     -34.454   5.681   4.908  1.00 20.00    -0.048 C 
HETATM    9  C3  UNL     1     -33.749   4.636   4.022  1.00 20.00     0.015 C 
HETATM   10  C4  UNL     1     -35.774   6.088   4.217  1.00 20.00     0.015 C 
HETATM   11  C5  UNL     1     -34.835   5.005   6.244  1.00 20.00     0.015 C 
ENDBRANCH   2   8
TORSDOF 4
ENDMDL
MODEL 2
REMARK VINA RESULT:      -3.7      1.107      2.354
REMARK  4 active torsions:
REMARK  status: ('A' for Active; 'I' for Inactive)
REMARK    1  A    between atoms: C1_1  and  C7_7 
REMARK    2  A    between atoms: C1_1  and  O11_11 
REMARK    3  A    between atoms: C7_7  and  C8_8 
REMARK    4  A    between atoms: C8_8  and  C9_9 
ROOT
HETATM    1  C2  UNL     1     -32.881   4.956   2.674  1.00 20.00     0.011 C 
HETATM    2  C8  UNL     1     -33.442   6.248   3.301  1.00 20.00    -0.002 C 
ENDROOT
BRANCH   2   3
HETATM    3  C7  UNL     1     -32.281   7.250   3.503  1.00 20.00     0.116 C 
BRANCH   3   4
HETATM    4  C1  UNL     1     -32.434   8.513   2.677  1.00 20.00     0.258 C 
HETATM    5  O10 UNL     1     -32.682   9.623   3.127  1.00 20.00    -0.265 OA
BRANCH   4   6
HETATM    6  O11 UNL     1     -32.211   8.215   1.362  1.00 20.00    -0.326 OA
HETATM    7  C6  UNL     1     -32.669   9.192   0.422  1.00 20.00     0.213 C 
ENDBRANCH   4   6
ENDBRANCH   3   4
ENDBRANCH   2   3
BRANCH   2   8
HETATM    8  C9  UNL     1     -34.279   5.990   4.610  1.00 20.00    -0.048 C 
HETATM    9  C3  UNL     1     -33.925   6.979   5.737  1.00 20.00     0.015 C 
HETATM   10  C4  UNL     1     -34.044   4.556   5.135  1.00 20.00     0.015 C 
HETATM   11  C5  UNL     1     -35.790   6.118   4.311  1.00 20.00     0.015 C 
ENDBRANCH   2   8
TORSDOF 4
ENDMDL
MODEL 3
REMARK VINA RESULT:      -3.7      9.163     10.079
REMARK  4 active torsions:
REMARK  status: ('A' for Active; 'I' for Inactive)
REMARK    1  A    between atoms: C1_1  and  C7_7 
REMARK    2  A    between atoms: C1_1  and  O11_11 
REMARK    3  A    between atoms: C7_7  and  C8_8 
REMARK    4  A    between atoms: C8_8  and  C9_9 
ROOT
HETATM    1  C2  UNL     1     -41.911  14.253   4.538  1.00 20.00     0.011 C 
HETATM    2  C8  UNL     1     -41.274  13.725   5.839  1.00 20.00    -0.002 C 
ENDROOT
BRANCH   2   3
HETATM    3  C7  UNL     1     -40.669  12.327   5.568  1.00 20.00     0.116 C 
BRANCH   3   4
HETATM    4  C1  UNL     1     -39.265  12.170   6.119  1.00 20.00     0.258 C 
HETATM    5  O10 UNL     1     -38.984  12.059   7.305  1.00 20.00    -0.265 OA
BRANCH   4   6
HETATM    6  O11 UNL     1     -38.380  12.131   5.080  1.00 20.00    -0.326 OA
HETATM    7  C6  UNL     1     -38.913  11.678   3.832  1.00 20.00     0.213 C 
ENDBRANCH   4   6
ENDBRANCH   3   4
ENDBRANCH   2   3
BRANCH   2   8
HETATM    8  C9  UNL     1     -42.260  13.750   7.067  1.00 20.00    -0.048 C 
HETATM    9  C3  UNL     1     -41.559  14.168   8.374  1.00 20.00     0.015 C 
HETATM   10  C4  UNL     1     -42.898  12.360   7.285  1.00 20.00     0.015 C 
HETATM   11  C5  UNL     1     -43.417  14.740   6.802  1.00 20.00     0.015 C 
ENDBRANCH   2   8
TORSDOF 4
ENDMDL
MODEL 4
REMARK VINA RESULT:      -3.7      9.168     10.086
REMARK  4 active torsions:
REMARK  status: ('A' for Active; 'I' for Inactive)
REMARK    1  A    between atoms: C1_1  and  C7_7 
REMARK    2  A    between atoms: C1_1  and  O11_11 
REMARK    3  A    between atoms: C7_7  and  C8_8 
REMARK    4  A    between atoms: C8_8  and  C9_9 
ROOT
HETATM    1  C2  UNL     1     -41.954  14.219   4.636  1.00 20.00     0.011 C 
HETATM    2  C8  UNL     1     -41.309  13.693   5.933  1.00 20.00    -0.002 C 
ENDROOT
BRANCH   2   3
HETATM    3  C7  UNL     1     -40.694  12.301   5.657  1.00 20.00     0.116 C 
BRANCH   3   4
HETATM    4  C1  UNL     1     -39.267  12.173   6.154  1.00 20.00     0.258 C 
HETATM    5  O10 UNL     1     -38.940  12.013   7.323  1.00 20.00    -0.265 OA
BRANCH   4   6
HETATM    6  O11 UNL     1     -38.416  12.225   5.087  1.00 20.00    -0.326 OA
HETATM    7  C6  UNL     1     -38.929  11.688   3.863  1.00 20.00     0.213 C 
ENDBRANCH   4   6
ENDBRANCH   3   4
ENDBRANCH   2   3
BRANCH   2   8
HETATM    8  C9  UNL     1     -42.291  13.708   7.165  1.00 20.00    -0.048 C 
HETATM    9  C3  UNL     1     -43.416  14.749   7.006  1.00 20.00     0.015 C 
HETATM   10  C4  UNL     1     -41.525  14.020   8.470  1.00 20.00     0.015 C 
HETATM   11  C5  UNL     1     -42.941  12.318   7.346  1.00 20.00     0.015 C 
ENDBRANCH   2   8
TORSDOF 4
ENDMDL
MODEL 5
REMARK VINA RESULT:      -3.6     11.771     13.202
REMARK  4 active torsions:
REMARK  status: ('A' for Active; 'I' for Inactive)
REMARK    1  A    between atoms: C1_1  and  C7_7 
REMARK    2  A    between atoms: C1_1  and  O11_11 
REMARK    3  A    between atoms: C7_7  and  C8_8 
REMARK    4  A    between atoms: C8_8  and  C9_9 
ROOT
HETATM    1  C2  UNL     1     -33.416  15.710  -3.488  1.00 20.00     0.011 C 
HETATM    2  C8  UNL     1     -33.371  17.213  -3.150  1.00 20.00    -0.002 C 
ENDROOT
BRANCH   2   3
HETATM    3  C7  UNL     1     -33.404  17.382  -1.613  1.00 20.00     0.116 C 
BRANCH   3   4
HETATM    4  C1  UNL     1     -32.403  18.402  -1.106  1.00 20.00     0.258 C 
HETATM    5  O10 UNL     1     -31.813  19.216  -1.804  1.00 20.00    -0.265 OA
BRANCH   4   6
HETATM    6  O11 UNL     1     -32.302  18.291   0.251  1.00 20.00    -0.326 OA
HETATM    7  C6  UNL     1     -30.990  18.487   0.790  1.00 20.00     0.213 C 
ENDBRANCH   4   6
ENDBRANCH   3   4
ENDBRANCH   2   3
BRANCH   2   8
HETATM    8  C9  UNL     1     -34.481  18.049  -3.894  1.00 20.00    -0.048 C 
HETATM    9  C3  UNL     1     -33.893  19.235  -4.682  1.00 20.00     0.015 C 
HETATM   10  C4  UNL     1     -35.514  18.602  -2.887  1.00 20.00     0.015 C 
HETATM   11  C5  UNL     1     -35.255  17.147  -4.882  1.00 20.00     0.015 C 
ENDBRANCH   2   8
TORSDOF 4
ENDMDL
MODEL 6
REMARK VINA RESULT:      -3.5     11.777     13.169
REMARK  4 active torsions:
REMARK  status: ('A' for Active; 'I' for Inactive)
REMARK    1  A    between atoms: C1_1  and  C7_7 
REMARK    2  A    between atoms: C1_1  and  O11_11 
REMARK    3  A    between atoms: C7_7  and  C8_8 
REMARK    4  A    between atoms: C8_8  and  C9_9 
ROOT
HETATM    1  C2  UNL     1     -33.284  15.617  -3.658  1.00 20.00     0.011 C 
HETATM    2  C8  UNL     1     -33.292  17.104  -3.253  1.00 20.00    -0.002 C 
ENDROOT
BRANCH   2   3
HETATM    3  C7  UNL     1     -33.510  17.206  -1.725  1.00 20.00     0.116 C 
BRANCH   3   4
HETATM    4  C1  UNL     1     -32.586  18.206  -1.058  1.00 20.00     0.258 C 
HETATM    5  O10 UNL     1     -31.786  18.924  -1.643  1.00 20.00    -0.265 OA
BRANCH   4   6
HETATM    6  O11 UNL     1     -32.820  18.201   0.288  1.00 20.00    -0.326 OA
HETATM    7  C6  UNL     1     -34.140  18.585   0.685  1.00 20.00     0.213 C 
ENDBRANCH   4   6
ENDBRANCH   3   4
ENDBRANCH   2   3
BRANCH   2   8
HETATM    8  C9  UNL     1     -34.311  17.969  -4.088  1.00 20.00    -0.048 C 
HETATM    9  C3  UNL     1     -34.981  17.161  -5.215  1.00 20.00     0.015 C 
HETATM   10  C4  UNL     1     -33.602  19.187  -4.721  1.00 20.00     0.015 C 
HETATM   11  C5  UNL     1     -35.420  18.524  -3.165  1.00 20.00     0.015 C 
ENDBRANCH   2   8
TORSDOF 4
ENDMDL
MODEL 7
REMARK VINA RESULT:      -3.4     11.521     13.182
REMARK  4 active torsions:
REMARK  status: ('A' for Active; 'I' for Inactive)
REMARK    1  A    between atoms: C1_1  and  C7_7 
REMARK    2  A    between atoms: C1_1  and  O11_11 
REMARK    3  A    between atoms: C7_7  and  C8_8 
REMARK    4  A    between atoms: C8_8  and  C9_9 
ROOT
HETATM    1  C2  UNL     1     -33.503  16.947  -1.797  1.00 20.00     0.011 C 
HETATM    2  C8  UNL     1     -34.024  16.957  -3.247  1.00 20.00    -0.002 C 
ENDROOT
BRANCH   2   3
HETATM    3  C7  UNL     1     -33.152  16.004  -4.098  1.00 20.00     0.116 C 
BRANCH   3   4
HETATM    4  C1  UNL     1     -33.907  14.780  -4.582  1.00 20.00     0.258 C 
HETATM    5  O10 UNL     1     -34.286  13.861  -3.869  1.00 20.00    -0.265 OA
BRANCH   4   6
HETATM    6  O11 UNL     1     -34.126  14.894  -5.925  1.00 20.00    -0.326 OA
HETATM    7  C6  UNL     1     -35.499  14.879  -6.329  1.00 20.00     0.213 C 
ENDBRANCH   4   6
ENDBRANCH   3   4
ENDBRANCH   2   3
BRANCH   2   8
HETATM    8  C9  UNL     1     -34.139  18.406  -3.855  1.00 20.00    -0.048 C 
HETATM    9  C3  UNL     1     -35.347  19.182  -3.295  1.00 20.00     0.015 C 
HETATM   10  C4  UNL     1     -34.276  18.344  -5.392  1.00 20.00     0.015 C 
HETATM   11  C5  UNL     1     -32.859  19.216  -3.549  1.00 20.00     0.015 C 
ENDBRANCH   2   8
TORSDOF 4
ENDMDL
MODEL 8
REMARK VINA RESULT:      -3.4     12.064     13.350
REMARK  4 active torsions:
REMARK  status: ('A' for Active; 'I' for Inactive)
REMARK    1  A    between atoms: C1_1  and  C7_7 
REMARK    2  A    between atoms: C1_1  and  O11_11 
REMARK    3  A    between atoms: C7_7  and  C8_8 
REMARK    4  A    between atoms: C8_8  and  C9_9 
ROOT
HETATM    1  C2  UNL     1     -33.101  15.261  -4.141  1.00 20.00     0.011 C 
HETATM    2  C8  UNL     1     -34.337  16.181  -4.129  1.00 20.00    -0.002 C 
ENDROOT
BRANCH   2   3
HETATM    3  C7  UNL     1     -34.795  16.425  -5.586  1.00 20.00     0.116 C 
BRANCH   3   4
HETATM    4  C1  UNL     1     -35.400  15.194  -6.233  1.00 20.00     0.258 C 
HETATM    5  O10 UNL     1     -36.396  14.606  -5.832  1.00 20.00    -0.265 OA
BRANCH   4   6
HETATM    6  O11 UNL     1     -34.681  14.877  -7.350  1.00 20.00    -0.326 OA
HETATM    7  C6  UNL     1     -33.917  15.948  -7.916  1.00 20.00     0.213 C 
ENDBRANCH   4   6
ENDBRANCH   3   4
ENDBRANCH   2   3
BRANCH   2   8
HETATM    8  C9  UNL     1     -34.112  17.512  -3.315  1.00 20.00    -0.048 C 
HETATM    9  C3  UNL     1     -33.120  18.464  -4.009  1.00 20.00     0.015 C 
HETATM   10  C4  UNL     1     -33.576  17.202  -1.900  1.00 20.00     0.015 C 
HETATM   11  C5  UNL     1     -35.453  18.259  -3.135  1.00 20.00     0.015 C 
ENDBRANCH   2   8
TORSDOF 4
ENDMDL
MODEL 9
REMARK VINA RESULT:      -3.3      1.256      2.423
REMARK  4 active torsions:
REMARK  status: ('A' for Active; 'I' for Inactive)
REMARK    1  A    between atoms: C1_1  and  C7_7 
REMARK    2  A    between atoms: C1_1  and  O11_11 
REMARK    3  A    between atoms: C7_7  and  C8_8 
REMARK    4  A    between atoms: C8_8  and  C9_9 
ROOT
HETATM    1  C2  UNL     1     -32.937   4.928   2.571  1.00 20.00     0.011 C 
HETATM    2  C8  UNL     1     -33.505   6.169   3.288  1.00 20.00    -0.002 C 
ENDROOT
BRANCH   2   3
HETATM    3  C7  UNL     1     -32.344   7.142   3.598  1.00 20.00     0.116 C 
BRANCH   3   4
HETATM    4  C1  UNL     1     -32.338   8.365   2.701  1.00 20.00     0.258 C 
HETATM    5  O10 UNL     1     -32.269   8.342   1.480  1.00 20.00    -0.265 OA
BRANCH   4   6
HETATM    6  O11 UNL     1     -32.462   9.485   3.473  1.00 20.00    -0.326 OA
HETATM    7  C6  UNL     1     -32.121   9.324   4.854  1.00 20.00     0.213 C 
ENDBRANCH   4   6
ENDBRANCH   3   4
ENDBRANCH   2   3
BRANCH   2   8
HETATM    8  C9  UNL     1     -34.375   5.811   4.552  1.00 20.00    -0.048 C 
HETATM    9  C3  UNL     1     -35.885   5.958   4.285  1.00 20.00     0.015 C 
HETATM   10  C4  UNL     1     -34.004   6.721   5.744  1.00 20.00     0.015 C 
HETATM   11  C5  UNL     1     -34.101   4.356   4.993  1.00 20.00     0.015 C 
ENDBRANCH   2   8
TORSDOF 4
ENDMDL
