MODEL 1
REMARK VINA RESULT:      -5.3      0.000      0.000
REMARK  1 active torsions:
REMARK  status: ('A' for Active; 'I' for Inactive)
REMARK    1  A    between atoms: C1_1  and  C8_8 
ROOT
HETATM    1  C2  UNL     1     -34.932   5.082   5.865  1.00 20.00     0.000 C 
HETATM    2  C3  UNL     1     -34.109   4.681   4.646  1.00 20.00     0.001 C 
HETATM    3  C4  UNL     1     -34.227   6.175   6.661  1.00 20.00     0.006 C 
HETATM    4  C5  UNL     1     -33.985   5.842   3.662  1.00 20.00     0.019 C 
HETATM    5  C6  UNL     1     -34.571   8.048   4.867  1.00 20.00     0.025 A 
HETATM    6  C7  UNL     1     -33.697   7.295   5.819  1.00 20.00     0.004 A 
HETATM    7  C8  UNL     1     -33.495   7.118   4.320  1.00 20.00     0.040 A 
ENDROOT
BRANCH   7   8
HETATM    8  C1  UNL     1     -32.297   7.760   3.736  1.00 20.00     0.228 C 
HETATM    9  O9  UNL     1     -31.517   8.416   4.422  1.00 20.00    -0.279 OA
HETATM   10 CL10 UNL     1     -32.162   7.466   2.028  1.00 20.00    -0.043 Cl
ENDBRANCH   7   8
TORSDOF 1
ENDMDL
MODEL 2
REMARK VINA RESULT:      -5.1      1.354      1.469
REMARK  1 active torsions:
REMARK  status: ('A' for Active; 'I' for Inactive)
REMARK    1  A    between atoms: C1_1  and  C8_8 
ROOT
HETATM    1  C2  UNL     1     -34.730   6.222   6.722  1.00 20.00     0.000 C 
HETATM    2  C3  UNL     1     -34.674   5.104   5.688  1.00 20.00     0.001 C 
HETATM    3  C4  UNL     1     -33.481   7.094   6.648  1.00 20.00     0.006 C 
HETATM    4  C5  UNL     1     -34.692   5.666   4.269  1.00 20.00     0.019 C 
HETATM    5  C6  UNL     1     -34.067   8.170   4.336  1.00 20.00     0.025 A 
HETATM    6  C7  UNL     1     -33.100   7.493   5.256  1.00 20.00     0.004 A 
HETATM    7  C8  UNL     1     -33.639   6.736   4.049  1.00 20.00     0.040 A 
ENDROOT
BRANCH   7   8
HETATM    8  C1  UNL     1     -32.700   6.536   2.923  1.00 20.00     0.228 C 
HETATM    9  O9  UNL     1     -31.994   7.448   2.502  1.00 20.00    -0.279 OA
HETATM   10 CL10 UNL     1     -32.741   4.908   2.317  1.00 20.00    -0.043 Cl
ENDBRANCH   7   8
TORSDOF 1
ENDMDL
MODEL 3
REMARK VINA RESULT:      -5.1      2.403      3.613
REMARK  1 active torsions:
REMARK  status: ('A' for Active; 'I' for Inactive)
REMARK    1  A    between atoms: C1_1  and  C8_8 
ROOT
HETATM    1  C2  UNL     1     -32.534   6.802   2.329  1.00 20.00     0.000 C 
HETATM    2  C3  UNL     1     -32.127   7.699   3.493  1.00 20.00     0.001 C 
HETATM    3  C4  UNL     1     -32.982   5.433   2.830  1.00 20.00     0.006 C 
HETATM    4  C5  UNL     1     -33.320   8.001   4.395  1.00 20.00     0.019 C 
HETATM    5  C6  UNL     1     -35.194   6.286   3.938  1.00 20.00     0.025 A 
HETATM    6  C7  UNL     1     -33.928   5.489   3.989  1.00 20.00     0.004 A 
HETATM    7  C8  UNL     1     -34.054   6.748   4.836  1.00 20.00     0.040 A 
ENDROOT
BRANCH   7   8
HETATM    8  C1  UNL     1     -34.233   6.548   6.291  1.00 20.00     0.228 C 
HETATM    9  O9  UNL     1     -34.390   7.494   7.059  1.00 20.00    -0.279 OA
HETATM   10 CL10 UNL     1     -34.191   4.868   6.732  1.00 20.00    -0.043 Cl
ENDBRANCH   7   8
TORSDOF 1
ENDMDL
MODEL 4
REMARK VINA RESULT:      -4.6      2.543      3.707
REMARK  1 active torsions:
REMARK  status: ('A' for Active; 'I' for Inactive)
REMARK    1  A    between atoms: C1_1  and  C8_8 
ROOT
HETATM    1  C2  UNL     1     -32.617   6.659   2.317  1.00 20.00     0.000 C 
HETATM    2  C3  UNL     1     -32.199   7.529   3.497  1.00 20.00     0.001 C 
HETATM    3  C4  UNL     1     -33.025   5.267   2.787  1.00 20.00     0.006 C 
HETATM    4  C5  UNL     1     -33.375   7.780   4.437  1.00 20.00     0.019 C 
HETATM    5  C6  UNL     1     -35.225   6.041   3.972  1.00 20.00     0.025 A 
HETATM    6  C7  UNL     1     -33.943   5.269   3.970  1.00 20.00     0.004 A 
HETATM    7  C8  UNL     1     -34.073   6.500   4.857  1.00 20.00     0.040 A 
ENDROOT
BRANCH   7   8
HETATM    8  C1  UNL     1     -34.213   6.253   6.309  1.00 20.00     0.228 C 
HETATM    9  O9  UNL     1     -34.253   5.115   6.770  1.00 20.00    -0.279 OA
HETATM   10 CL10 UNL     1     -34.307   7.730   7.219  1.00 20.00    -0.043 Cl
ENDBRANCH   7   8
TORSDOF 1
ENDMDL
MODEL 5
REMARK VINA RESULT:      -4.4      2.434      3.468
REMARK  1 active torsions:
REMARK  status: ('A' for Active; 'I' for Inactive)
REMARK    1  A    between atoms: C1_1  and  C8_8 
ROOT
HETATM    1  C2  UNL     1     -32.393   9.012   4.717  1.00 20.00     0.000 C 
HETATM    2  C3  UNL     1     -32.557   8.147   3.472  1.00 20.00     0.001 C 
HETATM    3  C4  UNL     1     -33.649   8.964   5.581  1.00 20.00     0.006 C 
HETATM    4  C5  UNL     1     -32.701   6.674   3.844  1.00 20.00     0.019 C 
HETATM    5  C6  UNL     1     -33.331   6.479   6.339  1.00 20.00     0.025 A 
HETATM    6  C7  UNL     1     -34.185   7.582   5.797  1.00 20.00     0.004 A 
HETATM    7  C8  UNL     1     -33.779   6.433   4.884  1.00 20.00     0.040 A 
ENDROOT
BRANCH   7   8
HETATM    8  C1  UNL     1     -34.837   5.455   4.545  1.00 20.00     0.228 C 
HETATM    9  O9  UNL     1     -34.653   4.246   4.647  1.00 20.00    -0.279 OA
HETATM   10 CL10 UNL     1     -36.298   6.230   4.011  1.00 20.00    -0.043 Cl
ENDBRANCH   7   8
TORSDOF 1
ENDMDL
MODEL 6
REMARK VINA RESULT:      -4.2      1.612      2.348
REMARK  1 active torsions:
REMARK  status: ('A' for Active; 'I' for Inactive)
REMARK    1  A    between atoms: C1_1  and  C8_8 
ROOT
HETATM    1  C2  UNL     1     -35.007   5.412   5.902  1.00 20.00     0.000 C 
HETATM    2  C3  UNL     1     -34.404   6.635   6.583  1.00 20.00     0.001 C 
HETATM    3  C4  UNL     1     -35.373   5.723   4.454  1.00 20.00     0.006 C 
HETATM    4  C5  UNL     1     -33.078   7.026   5.936  1.00 20.00     0.019 C 
HETATM    5  C6  UNL     1     -32.903   5.919   3.611  1.00 20.00     0.025 A 
HETATM    6  C7  UNL     1     -34.301   6.446   3.697  1.00 20.00     0.004 A 
HETATM    7  C8  UNL     1     -33.181   7.173   4.430  1.00 20.00     0.040 A 
ENDROOT
BRANCH   7   8
HETATM    8  C1  UNL     1     -32.738   8.458   3.846  1.00 20.00     0.228 C 
HETATM    9  O9  UNL     1     -32.885   8.710   2.653  1.00 20.00    -0.279 OA
HETATM   10 CL10 UNL     1     -32.018   9.504   5.033  1.00 20.00    -0.043 Cl
ENDBRANCH   7   8
TORSDOF 1
ENDMDL
MODEL 7
REMARK VINA RESULT:      -4.1      2.661      3.687
REMARK  1 active torsions:
REMARK  status: ('A' for Active; 'I' for Inactive)
REMARK    1  A    between atoms: C1_1  and  C8_8 
ROOT
HETATM    1  C2  UNL     1     -31.910   8.074   2.887  1.00 20.00     0.000 C 
HETATM    2  C3  UNL     1     -32.490   6.748   2.407  1.00 20.00     0.001 C 
HETATM    3  C4  UNL     1     -32.965   8.892   3.626  1.00 20.00     0.006 C 
HETATM    4  C5  UNL     1     -32.893   5.866   3.585  1.00 20.00     0.019 C 
HETATM    5  C6  UNL     1     -33.084   7.317   5.712  1.00 20.00     0.025 A 
HETATM    6  C7  UNL     1     -33.751   8.106   4.630  1.00 20.00     0.004 A 
HETATM    7  C8  UNL     1     -33.789   6.585   4.577  1.00 20.00     0.040 A 
ENDROOT
BRANCH   7   8
HETATM    8  C1  UNL     1     -35.083   5.946   4.902  1.00 20.00     0.228 C 
HETATM    9  O9  UNL     1     -36.062   6.062   4.169  1.00 20.00    -0.279 OA
HETATM   10 CL10 UNL     1     -35.019   5.057   6.393  1.00 20.00    -0.043 Cl
ENDBRANCH   7   8
TORSDOF 1
ENDMDL
MODEL 8
REMARK VINA RESULT:      -4.0      9.230     10.656
REMARK  1 active torsions:
REMARK  status: ('A' for Active; 'I' for Inactive)
REMARK    1  A    between atoms: C1_1  and  C8_8 
ROOT
HETATM    1  C2  UNL     1     -42.136  15.804   6.948  1.00 20.00     0.000 C 
HETATM    2  C3  UNL     1     -40.708  15.649   7.458  1.00 20.00     0.001 C 
HETATM    3  C4  UNL     1     -42.329  15.049   5.637  1.00 20.00     0.006 C 
HETATM    4  C5  UNL     1     -40.408  14.196   7.815  1.00 20.00     0.019 C 
HETATM    5  C6  UNL     1     -42.160  12.663   6.700  1.00 20.00     0.025 A 
HETATM    6  C7  UNL     1     -41.774  13.658   5.650  1.00 20.00     0.004 A 
HETATM    7  C8  UNL     1     -40.747  13.234   6.692  1.00 20.00     0.040 A 
ENDROOT
BRANCH   7   8
HETATM    8  C1  UNL     1     -39.669  12.333   6.227  1.00 20.00     0.228 C 
HETATM    9  O9  UNL     1     -38.888  11.802   7.012  1.00 20.00    -0.279 OA
HETATM   10 CL10 UNL     1     -39.672  12.147   4.499  1.00 20.00    -0.043 Cl
ENDBRANCH   7   8
TORSDOF 1
ENDMDL
MODEL 9
REMARK VINA RESULT:      -3.9     12.295     13.383
REMARK  1 active torsions:
REMARK  status: ('A' for Active; 'I' for Inactive)
REMARK    1  A    between atoms: C1_1  and  C8_8 
ROOT
HETATM    1  C2  UNL     1     -33.373  17.581  -3.567  1.00 20.00     0.000 C 
HETATM    2  C3  UNL     1     -34.532  17.856  -4.519  1.00 20.00     0.001 C 
HETATM    3  C4  UNL     1     -33.535  16.222  -2.893  1.00 20.00     0.006 C 
HETATM    4  C5  UNL     1     -34.539  16.861  -5.676  1.00 20.00     0.019 C 
HETATM    5  C6  UNL     1     -33.088  14.818  -5.056  1.00 20.00     0.025 A 
HETATM    6  C7  UNL     1     -33.901  15.116  -3.834  1.00 20.00     0.004 A 
HETATM    7  C8  UNL     1     -34.480  15.418  -5.210  1.00 20.00     0.040 A 
ENDROOT
BRANCH   7   8
HETATM    8  C1  UNL     1     -35.545  14.510  -5.690  1.00 20.00     0.228 C 
HETATM    9  O9  UNL     1     -35.936  14.532  -6.854  1.00 20.00    -0.279 OA
HETATM   10 CL10 UNL     1     -36.130  13.464  -4.432  1.00 20.00    -0.043 Cl
ENDBRANCH   7   8
TORSDOF 1
ENDMDL
