MODEL 1
REMARK VINA RESULT:      -5.3      0.000      0.000
REMARK  0 active torsions:
REMARK  status: ('A' for Active; 'I' for Inactive)
ROOT
HETATM    1  C1  UNL     1     -33.054   6.315   2.886  1.00 20.00     0.047 A 
HETATM    2  C2  UNL     1     -33.560   6.205   4.195  1.00 20.00     0.025 A 
HETATM    3  C3  UNL     1     -33.382   7.342   4.929  1.00 20.00    -0.002 A 
HETATM    4  C4  UNL     1     -32.501   7.571   2.688  1.00 20.00     0.075 A 
HETATM    5  C5  UNL     1     -34.224   5.220   5.004  1.00 20.00     0.161 A 
HETATM    6  C6  UNL     1     -33.899   7.279   6.317  1.00 20.00     0.055 A 
HETATM    7  C7  UNL     1     -34.478   5.831   6.392  1.00 20.00     0.089 A 
HETATM    8  O8  UNL     1     -34.533   4.092   4.652  1.00 20.00    -0.292 OA
HETATM    9  S9  UNL     1     -32.613   8.574   4.095  1.00 20.00    -0.082 SA
HETATM   10 CL10 UNL     1     -31.764   8.181   1.266  1.00 20.00    -0.076 Cl
ENDROOT
TORSDOF 0
ENDMDL
MODEL 2
REMARK VINA RESULT:      -4.7      1.796      2.238
REMARK  0 active torsions:
REMARK  status: ('A' for Active; 'I' for Inactive)
ROOT
HETATM    1  C1  UNL     1     -32.922   7.865   3.935  1.00 20.00     0.047 A 
HETATM    2  C2  UNL     1     -33.568   6.901   4.730  1.00 20.00     0.025 A 
HETATM    3  C3  UNL     1     -33.701   5.698   4.101  1.00 20.00    -0.002 A 
HETATM    4  C4  UNL     1     -32.587   7.326   2.702  1.00 20.00     0.075 A 
HETATM    5  C5  UNL     1     -34.144   6.813   6.045  1.00 20.00     0.161 A 
HETATM    6  C6  UNL     1     -34.376   4.645   4.898  1.00 20.00     0.055 A 
HETATM    7  C7  UNL     1     -34.691   5.389   6.234  1.00 20.00     0.089 A 
HETATM    8  O8  UNL     1     -34.191   7.713   6.869  1.00 20.00    -0.292 OA
HETATM    9  S9  UNL     1     -33.067   5.670   2.551  1.00 20.00    -0.082 SA
HETATM   10 CL10 UNL     1     -31.790   8.103   1.398  1.00 20.00    -0.076 Cl
ENDROOT
TORSDOF 0
ENDMDL
MODEL 3
REMARK VINA RESULT:      -4.4     16.374     17.086
REMARK  0 active torsions:
REMARK  status: ('A' for Active; 'I' for Inactive)
ROOT
HETATM    1  C1  UNL     1     -24.922  18.884  10.006  1.00 20.00     0.047 A 
HETATM    2  C2  UNL     1     -23.577  18.748   9.614  1.00 20.00     0.025 A 
HETATM    3  C3  UNL     1     -22.735  18.560  10.670  1.00 20.00    -0.002 A 
HETATM    4  C4  UNL     1     -25.034  18.789  11.385  1.00 20.00     0.075 A 
HETATM    5  C5  UNL     1     -22.814  18.751   8.395  1.00 20.00     0.161 A 
HETATM    6  C6  UNL     1     -21.304  18.410  10.311  1.00 20.00     0.055 A 
HETATM    7  C7  UNL     1     -21.335  18.540   8.755  1.00 20.00     0.089 A 
HETATM    8  O8  UNL     1     -23.263  18.896   7.269  1.00 20.00    -0.292 OA
HETATM    9  S9  UNL     1     -23.505  18.538  12.157  1.00 20.00    -0.082 SA
HETATM   10 CL10 UNL     1     -26.459  18.891  12.332  1.00 20.00    -0.076 Cl
ENDROOT
TORSDOF 0
ENDMDL
MODEL 4
REMARK VINA RESULT:      -4.1     12.963     13.095
REMARK  0 active torsions:
REMARK  status: ('A' for Active; 'I' for Inactive)
ROOT
HETATM    1  C1  UNL     1     -29.390  18.712   2.437  1.00 20.00     0.047 A 
HETATM    2  C2  UNL     1     -30.664  18.833   1.850  1.00 20.00     0.025 A 
HETATM    3  C3  UNL     1     -31.639  19.124   2.759  1.00 20.00    -0.002 A 
HETATM    4  C4  UNL     1     -29.468  18.924   3.805  1.00 20.00     0.075 A 
HETATM    5  C5  UNL     1     -31.251  18.736   0.542  1.00 20.00     0.161 A 
HETATM    6  C6  UNL     1     -33.002  19.263   2.192  1.00 20.00     0.055 A 
HETATM    7  C7  UNL     1     -32.760  18.998   0.672  1.00 20.00     0.089 A 
HETATM    8  O8  UNL     1     -30.655  18.488  -0.495  1.00 20.00    -0.292 OA
HETATM    9  S9  UNL     1     -31.081  19.263   4.332  1.00 20.00    -0.082 SA
HETATM   10 CL10 UNL     1     -28.190  18.884   4.947  1.00 20.00    -0.076 Cl
ENDROOT
TORSDOF 0
ENDMDL
MODEL 5
REMARK VINA RESULT:      -4.1      2.685      3.060
REMARK  0 active torsions:
REMARK  status: ('A' for Active; 'I' for Inactive)
ROOT
HETATM    1  C1  UNL     1     -32.603   6.551   3.021  1.00 20.00     0.047 A 
HETATM    2  C2  UNL     1     -33.051   7.130   4.223  1.00 20.00     0.025 A 
HETATM    3  C3  UNL     1     -33.863   6.300   4.940  1.00 20.00    -0.002 A 
HETATM    4  C4  UNL     1     -33.115   5.270   2.884  1.00 20.00     0.075 A 
HETATM    5  C5  UNL     1     -32.900   8.371   4.933  1.00 20.00     0.161 A 
HETATM    6  C6  UNL     1     -34.364   6.862   6.217  1.00 20.00     0.055 A 
HETATM    7  C7  UNL     1     -33.717   8.283   6.232  1.00 20.00     0.089 A 
HETATM    8  O8  UNL     1     -32.237   9.329   4.568  1.00 20.00    -0.292 OA
HETATM    9  S9  UNL     1     -34.121   4.812   4.215  1.00 20.00    -0.082 SA
HETATM   10 CL10 UNL     1     -32.856   4.169   1.595  1.00 20.00    -0.076 Cl
ENDROOT
TORSDOF 0
ENDMDL
MODEL 6
REMARK VINA RESULT:      -4.0     12.352     13.198
REMARK  0 active torsions:
REMARK  status: ('A' for Active; 'I' for Inactive)
ROOT
HETATM    1  C1  UNL     1     -33.377  16.520  -2.434  1.00 20.00     0.047 A 
HETATM    2  C2  UNL     1     -33.724  16.158  -3.750  1.00 20.00     0.025 A 
HETATM    3  C3  UNL     1     -34.279  17.187  -4.453  1.00 20.00    -0.002 A 
HETATM    4  C4  UNL     1     -33.698  17.849  -2.201  1.00 20.00     0.075 A 
HETATM    5  C5  UNL     1     -33.664  14.991  -4.587  1.00 20.00     0.161 A 
HETATM    6  C6  UNL     1     -34.663  16.858  -5.847  1.00 20.00     0.055 A 
HETATM    7  C7  UNL     1     -34.251  15.356  -5.960  1.00 20.00     0.089 A 
HETATM    8  O8  UNL     1     -33.222  13.900  -4.265  1.00 20.00    -0.292 OA
HETATM    9  S9  UNL     1     -34.408  18.612  -3.583  1.00 20.00    -0.082 SA
HETATM   10 CL10 UNL     1     -33.468  18.746  -0.758  1.00 20.00    -0.076 Cl
ENDROOT
TORSDOF 0
ENDMDL
MODEL 7
REMARK VINA RESULT:      -3.9      1.808      2.525
REMARK  0 active torsions:
REMARK  status: ('A' for Active; 'I' for Inactive)
ROOT
HETATM    1  C1  UNL     1     -33.345   7.928   5.684  1.00 20.00     0.047 A 
HETATM    2  C2  UNL     1     -33.709   6.671   5.165  1.00 20.00     0.025 A 
HETATM    3  C3  UNL     1     -33.187   6.439   3.926  1.00 20.00    -0.002 A 
HETATM    4  C4  UNL     1     -32.539   8.606   4.782  1.00 20.00     0.075 A 
HETATM    5  C5  UNL     1     -34.491   5.535   5.569  1.00 20.00     0.161 A 
HETATM    6  C6  UNL     1     -33.540   5.126   3.334  1.00 20.00     0.055 A 
HETATM    7  C7  UNL     1     -34.436   4.490   4.443  1.00 20.00     0.089 A 
HETATM    8  O8  UNL     1     -35.094   5.418   6.624  1.00 20.00    -0.292 OA
HETATM    9  S9  UNL     1     -32.251   7.697   3.338  1.00 20.00    -0.082 SA
HETATM   10 CL10 UNL     1     -31.846  10.164   4.959  1.00 20.00    -0.076 Cl
ENDROOT
TORSDOF 0
ENDMDL
MODEL 8
REMARK VINA RESULT:      -3.8      1.962      2.362
REMARK  0 active torsions:
REMARK  status: ('A' for Active; 'I' for Inactive)
ROOT
HETATM    1  C1  UNL     1     -33.786   5.241   3.937  1.00 20.00     0.047 A 
HETATM    2  C2  UNL     1     -33.711   6.416   4.708  1.00 20.00     0.025 A 
HETATM    3  C3  UNL     1     -32.938   7.380   4.131  1.00 20.00    -0.002 A 
HETATM    4  C4  UNL     1     -33.040   5.379   2.776  1.00 20.00     0.075 A 
HETATM    5  C5  UNL     1     -34.225   6.908   5.958  1.00 20.00     0.161 A 
HETATM    6  C6  UNL     1     -32.827   8.641   4.903  1.00 20.00     0.055 A 
HETATM    7  C7  UNL     1     -33.701   8.338   6.162  1.00 20.00     0.089 A 
HETATM    8  O8  UNL     1     -34.952   6.296   6.725  1.00 20.00    -0.292 OA
HETATM    9  S9  UNL     1     -32.276   6.928   2.661  1.00 20.00    -0.082 SA
HETATM   10 CL10 UNL     1     -32.822   4.227   1.526  1.00 20.00    -0.076 Cl
ENDROOT
TORSDOF 0
ENDMDL
MODEL 9
REMARK VINA RESULT:      -3.7      3.334      4.399
REMARK  0 active torsions:
REMARK  status: ('A' for Active; 'I' for Inactive)
ROOT
HETATM    1  C1  UNL     1     -33.833   7.096   5.960  1.00 20.00     0.047 A 
HETATM    2  C2  UNL     1     -33.183   7.379   4.744  1.00 20.00     0.025 A 
HETATM    3  C3  UNL     1     -33.306   6.373   3.831  1.00 20.00    -0.002 A 
HETATM    4  C4  UNL     1     -34.436   5.848   5.904  1.00 20.00     0.075 A 
HETATM    5  C5  UNL     1     -32.407   8.445   4.171  1.00 20.00     0.161 A 
HETATM    6  C6  UNL     1     -32.639   6.622   2.531  1.00 20.00     0.055 A 
HETATM    7  C7  UNL     1     -32.013   8.037   2.742  1.00 20.00     0.089 A 
HETATM    8  O8  UNL     1     -32.112   9.493   4.722  1.00 20.00    -0.292 OA
HETATM    9  S9  UNL     1     -34.193   5.063   4.381  1.00 20.00    -0.082 SA
HETATM   10 CL10 UNL     1     -35.342   5.065   7.130  1.00 20.00    -0.076 Cl
ENDROOT
TORSDOF 0
ENDMDL
