MODEL 1
REMARK VINA RESULT:      -4.7      0.000      0.000
REMARK  2 active torsions:
REMARK  status: ('A' for Active; 'I' for Inactive)
REMARK    1  A    between atoms: C4_4  and  C7_7 
REMARK    2  A    between atoms: C5_5  and  O8_8 
ROOT
HETATM    1  C1  UNL     1     -34.811   5.633   6.082  1.00 20.00     0.007 C 
HETATM    2  C2  UNL     1     -33.773   6.646   6.554  1.00 20.00     0.032 C 
HETATM    3  C3  UNL     1     -34.519   7.164   4.275  1.00 20.00     0.036 C 
HETATM    4  C4  UNL     1     -34.720   5.673   4.559  1.00 20.00    -0.012 C 
HETATM    5  C5  UNL     1     -33.691   7.696   5.446  1.00 20.00     0.118 C 
ENDROOT
BRANCH   4   6
HETATM    6  C7  UNL     1     -33.574   4.819   4.020  1.00 20.00     0.000 C 
HETATM    7  C6  UNL     1     -33.051   5.341   2.719  1.00 20.00     0.005 C 
ENDBRANCH   4   6
BRANCH   5   8
HETATM    8  O8  UNL     1     -32.341   7.872   5.036  1.00 20.00    -0.396 OA
HETATM    9  H22 UNL     1     -32.198   8.827   4.954  1.00 20.00     0.210 HD
ENDBRANCH   5   8
TORSDOF 2
ENDMDL
MODEL 2
REMARK VINA RESULT:      -4.1      1.639      2.995
REMARK  2 active torsions:
REMARK  status: ('A' for Active; 'I' for Inactive)
REMARK    1  A    between atoms: C4_4  and  C7_7 
REMARK    2  A    between atoms: C5_5  and  O8_8 
ROOT
HETATM    1  C1  UNL     1     -32.551   8.753   5.123  1.00 20.00     0.007 C 
HETATM    2  C2  UNL     1     -31.829   7.980   4.026  1.00 20.00     0.032 C 
HETATM    3  C3  UNL     1     -34.231   7.478   4.008  1.00 20.00     0.036 C 
HETATM    4  C4  UNL     1     -33.808   7.935   5.407  1.00 20.00    -0.012 C 
HETATM    5  C5  UNL     1     -32.928   7.271   3.233  1.00 20.00     0.118 C 
ENDROOT
BRANCH   4   6
HETATM    6  C7  UNL     1     -33.540   6.761   6.346  1.00 20.00     0.000 C 
HETATM    7  C6  UNL     1     -34.576   5.689   6.211  1.00 20.00     0.005 C 
ENDBRANCH   4   6
BRANCH   5   8
HETATM    8  O8  UNL     1     -32.645   5.881   3.138  1.00 20.00    -0.396 OA
HETATM    9  H22 UNL     1     -33.494   5.434   2.991  1.00 20.00     0.210 HD
ENDBRANCH   5   8
TORSDOF 2
ENDMDL
MODEL 3
REMARK VINA RESULT:      -3.9      1.908      2.836
REMARK  2 active torsions:
REMARK  status: ('A' for Active; 'I' for Inactive)
REMARK    1  A    between atoms: C4_4  and  C7_7 
REMARK    2  A    between atoms: C5_5  and  O8_8 
ROOT
HETATM    1  C1  UNL     1     -33.508   6.581   6.391  1.00 20.00     0.007 C 
HETATM    2  C2  UNL     1     -34.925   6.025   6.308  1.00 20.00     0.032 C 
HETATM    3  C3  UNL     1     -33.747   5.727   4.176  1.00 20.00     0.036 C 
HETATM    4  C4  UNL     1     -33.135   6.900   4.946  1.00 20.00    -0.012 C 
HETATM    5  C5  UNL     1     -35.026   5.362   4.933  1.00 20.00     0.118 C 
ENDROOT
BRANCH   4   6
HETATM    6  C7  UNL     1     -33.686   8.248   4.486  1.00 20.00     0.000 C 
HETATM    7  C6  UNL     1     -32.703   8.996   3.641  1.00 20.00     0.005 C 
ENDBRANCH   4   6
BRANCH   5   8
HETATM    8  O8  UNL     1     -36.156   5.860   4.230  1.00 20.00    -0.396 OA
HETATM    9  H22 UNL     1     -36.171   5.408   3.372  1.00 20.00     0.210 HD
ENDBRANCH   5   8
TORSDOF 2
ENDMDL
MODEL 4
REMARK VINA RESULT:      -3.9      1.762      2.715
REMARK  2 active torsions:
REMARK  status: ('A' for Active; 'I' for Inactive)
REMARK    1  A    between atoms: C4_4  and  C7_7 
REMARK    2  A    between atoms: C5_5  and  O8_8 
ROOT
HETATM    1  C1  UNL     1     -35.131   6.215   4.263  1.00 20.00     0.007 C 
HETATM    2  C2  UNL     1     -34.792   4.962   5.063  1.00 20.00     0.032 C 
HETATM    3  C3  UNL     1     -34.406   6.980   6.404  1.00 20.00     0.036 C 
HETATM    4  C4  UNL     1     -34.305   7.321   4.915  1.00 20.00    -0.012 C 
HETATM    5  C5  UNL     1     -34.457   5.452   6.472  1.00 20.00     0.118 C 
ENDROOT
BRANCH   4   6
HETATM    6  C7  UNL     1     -32.861   7.340   4.420  1.00 20.00     0.000 C 
HETATM    7  C6  UNL     1     -32.251   8.702   4.523  1.00 20.00     0.005 C 
ENDBRANCH   4   6
BRANCH   5   8
HETATM    8  O8  UNL     1     -33.191   4.949   6.879  1.00 20.00    -0.396 OA
HETATM    9  H22 UNL     1     -32.840   5.576   7.530  1.00 20.00     0.210 HD
ENDBRANCH   5   8
TORSDOF 2
ENDMDL
MODEL 5
REMARK VINA RESULT:      -3.7     12.688     13.315
REMARK  2 active torsions:
REMARK  status: ('A' for Active; 'I' for Inactive)
REMARK    1  A    between atoms: C4_4  and  C7_7 
REMARK    2  A    between atoms: C5_5  and  O8_8 
ROOT
HETATM    1  C1  UNL     1     -34.045  18.351   0.012  1.00 20.00     0.007 C 
HETATM    2  C2  UNL     1     -32.676  18.484   0.669  1.00 20.00     0.032 C 
HETATM    3  C3  UNL     1     -32.604  19.262  -1.657  1.00 20.00     0.036 C 
HETATM    4  C4  UNL     1     -33.747  18.259  -1.482  1.00 20.00    -0.012 C 
HETATM    5  C5  UNL     1     -31.793  19.190  -0.361  1.00 20.00     0.118 C 
ENDROOT
BRANCH   4   6
HETATM    6  C7  UNL     1     -33.352  16.847  -1.911  1.00 20.00     0.000 C 
HETATM    7  C6  UNL     1     -33.346  16.697  -3.400  1.00 20.00     0.005 C 
ENDBRANCH   4   6
BRANCH   5   8
HETATM    8  O8  UNL     1     -30.604  18.443  -0.582  1.00 20.00    -0.396 OA
HETATM    9  H22 UNL     1     -29.980  18.701   0.115  1.00 20.00     0.210 HD
ENDBRANCH   5   8
TORSDOF 2
ENDMDL
MODEL 6
REMARK VINA RESULT:      -3.7     15.808     16.885
REMARK  2 active torsions:
REMARK  status: ('A' for Active; 'I' for Inactive)
REMARK    1  A    between atoms: C4_4  and  C7_7 
REMARK    2  A    between atoms: C5_5  and  O8_8 
ROOT
HETATM    1  C1  UNL     1     -22.449  18.347  11.891  1.00 20.00     0.007 C 
HETATM    2  C2  UNL     1     -23.885  18.606  12.332  1.00 20.00     0.032 C 
HETATM    3  C3  UNL     1     -23.829  17.136  10.368  1.00 20.00     0.036 C 
HETATM    4  C4  UNL     1     -22.560  17.990  10.411  1.00 20.00    -0.012 C 
HETATM    5  C5  UNL     1     -24.755  17.722  11.436  1.00 20.00     0.118 C 
ENDROOT
BRANCH   4   6
HETATM    6  C7  UNL     1     -22.660  19.226   9.519  1.00 20.00     0.000 C 
HETATM    7  C6  UNL     1     -23.157  18.888   8.149  1.00 20.00     0.005 C 
ENDBRANCH   4   6
BRANCH   5   8
HETATM    8  O8  UNL     1     -25.769  18.501  10.815  1.00 20.00    -0.396 OA
HETATM    9  H22 UNL     1     -26.344  17.880  10.341  1.00 20.00     0.210 HD
ENDBRANCH   5   8
TORSDOF 2
ENDMDL
MODEL 7
REMARK VINA RESULT:      -3.5      9.167     10.022
REMARK  2 active torsions:
REMARK  status: ('A' for Active; 'I' for Inactive)
REMARK    1  A    between atoms: C4_4  and  C7_7 
REMARK    2  A    between atoms: C5_5  and  O8_8 
ROOT
HETATM    1  C1  UNL     1     -43.388   6.743  -0.273  1.00 20.00     0.007 C 
HETATM    2  C2  UNL     1     -43.112   5.246  -0.352  1.00 20.00     0.032 C 
HETATM    3  C3  UNL     1     -43.167   5.999   1.983  1.00 20.00     0.036 C 
HETATM    4  C4  UNL     1     -42.801   7.172   1.069  1.00 20.00    -0.012 C 
HETATM    5  C5  UNL     1     -43.105   4.753   1.097  1.00 20.00     0.118 C 
ENDROOT
BRANCH   4   6
HETATM    6  C7  UNL     1     -41.294   7.406   0.999  1.00 20.00     0.000 C 
HETATM    7  C6  UNL     1     -40.925   8.343  -0.108  1.00 20.00     0.005 C 
ENDBRANCH   4   6
BRANCH   5   8
HETATM    8  O8  UNL     1     -41.907   4.036   1.364  1.00 20.00    -0.396 OA
HETATM    9  H22 UNL     1     -41.600   4.325   2.238  1.00 20.00     0.210 HD
ENDBRANCH   5   8
TORSDOF 2
ENDMDL
MODEL 8
REMARK VINA RESULT:      -3.4      8.906      9.647
REMARK  2 active torsions:
REMARK  status: ('A' for Active; 'I' for Inactive)
REMARK    1  A    between atoms: C4_4  and  C7_7 
REMARK    2  A    between atoms: C5_5  and  O8_8 
ROOT
HETATM    1  C1  UNL     1     -42.142   7.376   1.287  1.00 20.00     0.007 C 
HETATM    2  C2  UNL     1     -40.809   7.094   0.602  1.00 20.00     0.032 C 
HETATM    3  C3  UNL     1     -42.653   6.016  -0.605  1.00 20.00     0.036 C 
HETATM    4  C4  UNL     1     -43.044   6.221   0.861  1.00 20.00    -0.012 C 
HETATM    5  C5  UNL     1     -41.159   6.336  -0.680  1.00 20.00     0.118 C 
ENDROOT
BRANCH   4   6
HETATM    6  C7  UNL     1     -42.824   4.967   1.703  1.00 20.00     0.000 C 
HETATM    7  C6  UNL     1     -43.417   3.751   1.062  1.00 20.00     0.005 C 
ENDBRANCH   4   6
BRANCH   5   8
HETATM    8  O8  UNL     1     -40.414   5.128  -0.754  1.00 20.00    -0.396 OA
HETATM    9  H22 UNL     1     -41.039   4.406  -0.583  1.00 20.00     0.210 HD
ENDBRANCH   5   8
TORSDOF 2
ENDMDL
MODEL 9
REMARK VINA RESULT:      -3.4     12.972     13.865
REMARK  2 active torsions:
REMARK  status: ('A' for Active; 'I' for Inactive)
REMARK    1  A    between atoms: C4_4  and  C7_7 
REMARK    2  A    between atoms: C5_5  and  O8_8 
ROOT
HETATM    1  C1  UNL     1     -34.560  18.581  -1.277  1.00 20.00     0.007 C 
HETATM    2  C2  UNL     1     -34.710  18.741  -2.786  1.00 20.00     0.032 C 
HETATM    3  C3  UNL     1     -33.396  16.739  -2.249  1.00 20.00     0.036 C 
HETATM    4  C4  UNL     1     -33.293  17.748  -1.103  1.00 20.00    -0.012 C 
HETATM    5  C5  UNL     1     -34.078  17.488  -3.396  1.00 20.00     0.118 C 
ENDROOT
BRANCH   4   6
HETATM    6  C7  UNL     1     -32.024  18.594  -1.186  1.00 20.00     0.000 C 
HETATM    7  C6  UNL     1     -31.220  18.522   0.075  1.00 20.00     0.005 C 
ENDBRANCH   4   6
BRANCH   5   8
HETATM    8  O8  UNL     1     -33.109  17.853  -4.371  1.00 20.00    -0.396 OA
HETATM    9  H22 UNL     1     -32.669  18.651  -4.039  1.00 20.00     0.210 HD
ENDBRANCH   5   8
TORSDOF 2
ENDMDL
