MODEL 1
REMARK VINA RESULT:      -6.7      0.000      0.000
REMARK  1 active torsions:
REMARK  status: ('A' for Active; 'I' for Inactive)
REMARK    1  A    between atoms: C5_5  and  O10_10 
ROOT
HETATM    1  C1  UNL     1     -33.272   8.277   5.226  1.00 20.00     0.050 A 
HETATM    2  C2  UNL     1     -32.392   7.549   3.077  1.00 20.00     0.079 A 
HETATM    3  C3  UNL     1     -33.828   7.018   5.383  1.00 20.00    -0.046 A 
HETATM    4  C4  UNL     1     -33.676   6.034   4.400  1.00 20.00    -0.018 A 
HETATM    5  C5  UNL     1     -32.967   6.286   3.238  1.00 20.00     0.075 A 
HETATM    6  C6  UNL     1     -32.543   8.537   4.063  1.00 20.00     0.119 A 
HETATM    7  C7  UNL     1     -34.674   6.519   6.512  1.00 20.00     0.039 C 
HETATM    8  C8  UNL     1     -34.407   4.784   4.781  1.00 20.00     0.042 C 
HETATM    9  C9  UNL     1     -34.602   5.002   6.289  1.00 20.00     0.009 C 
HETATM   10  F11 UNL     1     -31.988   9.743   3.882  1.00 20.00    -0.206 F 
ENDROOT
BRANCH   5  11
HETATM   11  O10 UNL     1     -32.829   5.341   2.275  1.00 20.00    -0.360 OA
HETATM   12  H20 UNL     1     -33.147   5.677   1.420  1.00 20.00     0.217 HD
ENDBRANCH   5  11
TORSDOF 1
ENDMDL
MODEL 2
REMARK VINA RESULT:      -6.5      2.065      3.487
REMARK  1 active torsions:
REMARK  status: ('A' for Active; 'I' for Inactive)
REMARK    1  A    between atoms: C5_5  and  O10_10 
ROOT
HETATM    1  C1  UNL     1     -34.075   6.942   6.103  1.00 20.00     0.050 A 
HETATM    2  C2  UNL     1     -34.359   4.968   4.708  1.00 20.00     0.079 A 
HETATM    3  C3  UNL     1     -33.322   7.507   5.087  1.00 20.00    -0.046 A 
HETATM    4  C4  UNL     1     -33.082   6.813   3.896  1.00 20.00    -0.018 A 
HETATM    5  C5  UNL     1     -33.588   5.541   3.694  1.00 20.00     0.075 A 
HETATM    6  C6  UNL     1     -34.601   5.663   5.904  1.00 20.00     0.119 A 
HETATM    7  C7  UNL     1     -32.629   8.833   5.083  1.00 20.00     0.039 C 
HETATM    8  C8  UNL     1     -32.207   7.613   2.981  1.00 20.00     0.042 C 
HETATM    9  C9  UNL     1     -32.354   9.019   3.583  1.00 20.00     0.009 C 
HETATM   10  F11 UNL     1     -35.337   5.090   6.865  1.00 20.00    -0.206 F 
ENDROOT
BRANCH   5  11
HETATM   11  O10 UNL     1     -33.347   4.858   2.546  1.00 20.00    -0.360 OA
HETATM   12  H20 UNL     1     -33.834   5.255   1.805  1.00 20.00     0.217 HD
ENDBRANCH   5  11
TORSDOF 1
ENDMDL
MODEL 3
REMARK VINA RESULT:      -6.3      1.946      2.638
REMARK  1 active torsions:
REMARK  status: ('A' for Active; 'I' for Inactive)
REMARK    1  A    between atoms: C5_5  and  O10_10 
ROOT
HETATM    1  C1  UNL     1     -33.066   6.169   2.846  1.00 20.00     0.050 A 
HETATM    2  C2  UNL     1     -32.138   8.328   3.480  1.00 20.00     0.079 A 
HETATM    3  C3  UNL     1     -33.590   6.060   4.123  1.00 20.00    -0.046 A 
HETATM    4  C4  UNL     1     -33.390   7.068   5.074  1.00 20.00    -0.018 A 
HETATM    5  C5  UNL     1     -32.660   8.204   4.769  1.00 20.00     0.075 A 
HETATM    6  C6  UNL     1     -32.340   7.318   2.525  1.00 20.00     0.119 A 
HETATM    7  C7  UNL     1     -34.362   4.920   4.708  1.00 20.00     0.039 C 
HETATM    8  C8  UNL     1     -34.010   6.694   6.384  1.00 20.00     0.042 C 
HETATM    9  C9  UNL     1     -34.978   5.583   5.948  1.00 20.00     0.009 C 
HETATM   10  F11 UNL     1     -31.823   7.457   1.297  1.00 20.00    -0.206 F 
ENDROOT
BRANCH   5  11
HETATM   11  O10 UNL     1     -32.450   9.177   5.692  1.00 20.00    -0.360 OA
HETATM   12  H20 UNL     1     -31.507   9.409   5.732  1.00 20.00     0.217 HD
ENDBRANCH   5  11
TORSDOF 1
ENDMDL
MODEL 4
REMARK VINA RESULT:      -6.2      2.397      3.633
REMARK  1 active torsions:
REMARK  status: ('A' for Active; 'I' for Inactive)
REMARK    1  A    between atoms: C5_5  and  O10_10 
ROOT
HETATM    1  C1  UNL     1     -32.491   6.382   2.754  1.00 20.00     0.050 A 
HETATM    2  C2  UNL     1     -33.986   4.755   3.775  1.00 20.00     0.079 A 
HETATM    3  C3  UNL     1     -32.820   7.266   3.768  1.00 20.00    -0.046 A 
HETATM    4  C4  UNL     1     -33.725   6.907   4.774  1.00 20.00    -0.018 A 
HETATM    5  C5  UNL     1     -34.321   5.658   4.787  1.00 20.00     0.075 A 
HETATM    6  C6  UNL     1     -33.077   5.114   2.767  1.00 20.00     0.119 A 
HETATM    7  C7  UNL     1     -32.357   8.678   3.946  1.00 20.00     0.039 C 
HETATM    8  C8  UNL     1     -33.950   8.046   5.719  1.00 20.00     0.042 C 
HETATM    9  C9  UNL     1     -32.732   8.931   5.413  1.00 20.00     0.009 C 
HETATM   10  F11 UNL     1     -32.776   4.234   1.803  1.00 20.00    -0.206 F 
ENDROOT
BRANCH   5  11
HETATM   11  O10 UNL     1     -35.211   5.310   5.751  1.00 20.00    -0.360 OA
HETATM   12  H20 UNL     1     -36.022   4.953   5.352  1.00 20.00     0.217 HD
ENDBRANCH   5  11
TORSDOF 1
ENDMDL
MODEL 5
REMARK VINA RESULT:      -5.5      2.578      4.010
REMARK  1 active torsions:
REMARK  status: ('A' for Active; 'I' for Inactive)
REMARK    1  A    between atoms: C5_5  and  O10_10 
ROOT
HETATM    1  C1  UNL     1     -34.417   5.132   4.966  1.00 20.00     0.050 A 
HETATM    2  C2  UNL     1     -34.143   7.106   6.362  1.00 20.00     0.079 A 
HETATM    3  C3  UNL     1     -33.664   5.764   3.989  1.00 20.00    -0.046 A 
HETATM    4  C4  UNL     1     -33.159   7.054   4.188  1.00 20.00    -0.018 A 
HETATM    5  C5  UNL     1     -33.395   7.740   5.367  1.00 20.00     0.075 A 
HETATM    6  C6  UNL     1     -34.649   5.812   6.164  1.00 20.00     0.119 A 
HETATM    7  C7  UNL     1     -33.318   5.259   2.624  1.00 20.00     0.039 C 
HETATM    8  C8  UNL     1     -32.426   7.531   2.974  1.00 20.00     0.042 C 
HETATM    9  C9  UNL     1     -32.171   6.206   2.240  1.00 20.00     0.009 C 
HETATM   10  F11 UNL     1     -35.370   5.228   7.130  1.00 20.00    -0.206 F 
ENDROOT
BRANCH   5  11
HETATM   11  O10 UNL     1     -32.920   8.997   5.560  1.00 20.00    -0.360 OA
HETATM   12  H20 UNL     1     -33.641   9.597   5.817  1.00 20.00     0.217 HD
ENDBRANCH   5  11
TORSDOF 1
ENDMDL
MODEL 6
REMARK VINA RESULT:      -5.2      1.757      2.773
REMARK  1 active torsions:
REMARK  status: ('A' for Active; 'I' for Inactive)
REMARK    1  A    between atoms: C5_5  and  O10_10 
ROOT
HETATM    1  C1  UNL     1     -32.286   7.874   3.732  1.00 20.00     0.050 A 
HETATM    2  C2  UNL     1     -33.442   8.207   5.847  1.00 20.00     0.079 A 
HETATM    3  C3  UNL     1     -32.867   6.619   3.653  1.00 20.00    -0.046 A 
HETATM    4  C4  UNL     1     -33.723   6.156   4.659  1.00 20.00    -0.018 A 
HETATM    5  C5  UNL     1     -34.015   6.935   5.765  1.00 20.00     0.075 A 
HETATM    6  C6  UNL     1     -32.585   8.673   4.838  1.00 20.00     0.119 A 
HETATM    7  C7  UNL     1     -32.671   5.578   2.597  1.00 20.00     0.039 C 
HETATM    8  C8  UNL     1     -34.180   4.760   4.368  1.00 20.00     0.042 C 
HETATM    9  C9  UNL     1     -33.866   4.652   2.868  1.00 20.00     0.009 C 
HETATM   10  F11 UNL     1     -32.042   9.893   4.942  1.00 20.00    -0.206 F 
ENDROOT
BRANCH   5  11
HETATM   11  O10 UNL     1     -34.832   6.485   6.751  1.00 20.00    -0.360 OA
HETATM   12  H20 UNL     1     -34.425   6.628   7.622  1.00 20.00     0.217 HD
ENDBRANCH   5  11
TORSDOF 1
ENDMDL
MODEL 7
REMARK VINA RESULT:      -5.0     16.214     17.047
REMARK  1 active torsions:
REMARK  status: ('A' for Active; 'I' for Inactive)
REMARK    1  A    between atoms: C5_5  and  O10_10 
ROOT
HETATM    1  C1  UNL     1     -24.934  18.839  10.265  1.00 20.00     0.050 A 
HETATM    2  C2  UNL     1     -23.742  18.352  12.330  1.00 20.00     0.079 A 
HETATM    3  C3  UNL     1     -23.717  18.824   9.602  1.00 20.00    -0.046 A 
HETATM    4  C4  UNL     1     -22.523  18.583  10.291  1.00 20.00    -0.018 A 
HETATM    5  C5  UNL     1     -22.518  18.351  11.656  1.00 20.00     0.075 A 
HETATM    6  C6  UNL     1     -24.941  18.593  11.640  1.00 20.00     0.119 A 
HETATM    7  C7  UNL     1     -23.454  19.094   8.154  1.00 20.00     0.039 C 
HETATM    8  C8  UNL     1     -21.349  18.667   9.366  1.00 20.00     0.042 C 
HETATM    9  C9  UNL     1     -22.036  18.524   7.999  1.00 20.00     0.009 C 
HETATM   10  F11 UNL     1     -26.100  18.596  12.310  1.00 20.00    -0.206 F 
ENDROOT
BRANCH   5  11
HETATM   11  O10 UNL     1     -21.362  18.131  12.331  1.00 20.00    -0.360 OA
HETATM   12  H20 UNL     1     -20.695  18.794  12.087  1.00 20.00     0.217 HD
ENDBRANCH   5  11
TORSDOF 1
ENDMDL
MODEL 8
REMARK VINA RESULT:      -4.9      2.288      3.282
REMARK  1 active torsions:
REMARK  status: ('A' for Active; 'I' for Inactive)
REMARK    1  A    between atoms: C5_5  and  O10_10 
ROOT
HETATM    1  C1  UNL     1     -34.161   5.285   4.990  1.00 20.00     0.050 A 
HETATM    2  C2  UNL     1     -33.044   5.415   2.832  1.00 20.00     0.079 A 
HETATM    3  C3  UNL     1     -33.805   6.605   5.213  1.00 20.00    -0.046 A 
HETATM    4  C4  UNL     1     -33.072   7.326   4.262  1.00 20.00    -0.018 A 
HETATM    5  C5  UNL     1     -32.679   6.743   3.070  1.00 20.00     0.075 A 
HETATM    6  C6  UNL     1     -33.780   4.692   3.784  1.00 20.00     0.119 A 
HETATM    7  C7  UNL     1     -34.062   7.436   6.430  1.00 20.00     0.039 C 
HETATM    8  C8  UNL     1     -32.773   8.707   4.756  1.00 20.00     0.042 C 
HETATM    9  C9  UNL     1     -33.804   8.848   5.886  1.00 20.00     0.009 C 
HETATM   10  F11 UNL     1     -34.112   3.419   3.536  1.00 20.00    -0.206 F 
ENDROOT
BRANCH   5  11
HETATM   11  O10 UNL     1     -31.956   7.432   2.151  1.00 20.00    -0.360 OA
HETATM   12  H20 UNL     1     -31.710   6.854   1.409  1.00 20.00     0.217 HD
ENDBRANCH   5  11
TORSDOF 1
ENDMDL
MODEL 9
REMARK VINA RESULT:      -4.5     12.329     13.619
REMARK  1 active torsions:
REMARK  status: ('A' for Active; 'I' for Inactive)
REMARK    1  A    between atoms: C5_5  and  O10_10 
ROOT
HETATM    1  C1  UNL     1     -34.960  17.382  -5.831  1.00 20.00     0.050 A 
HETATM    2  C2  UNL     1     -34.246  15.094  -6.251  1.00 20.00     0.079 A 
HETATM    3  C3  UNL     1     -34.417  17.280  -4.561  1.00 20.00    -0.046 A 
HETATM    4  C4  UNL     1     -33.800  16.100  -4.133  1.00 20.00    -0.018 A 
HETATM    5  C5  UNL     1     -33.712  14.996  -4.964  1.00 20.00     0.075 A 
HETATM    6  C6  UNL     1     -34.865  16.279  -6.681  1.00 20.00     0.119 A 
HETATM    7  C7  UNL     1     -34.429  18.303  -3.469  1.00 20.00     0.039 C 
HETATM    8  C8  UNL     1     -33.339  16.224  -2.714  1.00 20.00     0.042 C 
HETATM    9  C9  UNL     1     -33.346  17.749  -2.532  1.00 20.00     0.009 C 
HETATM   10  F11 UNL     1     -35.377  16.346  -7.918  1.00 20.00    -0.206 F 
ENDROOT
BRANCH   5  11
HETATM   11  O10 UNL     1     -33.128  13.843  -4.549  1.00 20.00    -0.360 OA
HETATM   12  H20 UNL     1     -32.165  13.955  -4.483  1.00 20.00     0.217 HD
ENDBRANCH   5  11
TORSDOF 1
ENDMDL
