MODEL 1
REMARK VINA RESULT:      -4.9      0.000      0.000
REMARK  2 active torsions:
REMARK  status: ('A' for Active; 'I' for Inactive)
REMARK    1  A    between atoms: C7_7  and  C9_9 
REMARK    2  A    between atoms: C8_8  and  C10_10 
ROOT
HETATM    1  C1  UNL     1     -34.561   5.507   5.131  1.00 20.00     0.131 C 
HETATM    2  C2  UNL     1     -33.972   5.334   6.513  1.00 20.00     0.083 C 
HETATM    3  C6  UNL     1     -34.458   7.619   6.049  1.00 20.00     0.018 C 
HETATM    4  C7  UNL     1     -34.364   6.941   4.676  1.00 20.00     0.060 C 
HETATM    5  C8  UNL     1     -33.363   6.741   6.678  1.00 20.00    -0.002 C 
HETATM    6  O11 UNL     1     -35.090   4.624   4.474  1.00 20.00    -0.298 OA
ENDROOT
BRANCH   4   7
HETATM    7  C9  UNL     1     -32.882   7.167   4.331  1.00 20.00     0.001 C 
HETATM    8  C4  UNL     1     -32.398   8.602   4.147  1.00 20.00     0.006 C 
HETATM    9  C3  UNL     1     -32.439   8.870   2.648  1.00 20.00     0.001 C 
HETATM   10  C5  UNL     1     -32.173   7.515   2.000  1.00 20.00     0.005 C 
HETATM   11  C10 UNL     1     -32.741   6.470   2.954  1.00 20.00    -0.005 C 
ENDBRANCH   4   7
TORSDOF 2
ENDMDL
MODEL 2
REMARK VINA RESULT:      -4.7      1.494      3.811
REMARK  2 active torsions:
REMARK  status: ('A' for Active; 'I' for Inactive)
REMARK    1  A    between atoms: C7_7  and  C9_9 
REMARK    2  A    between atoms: C8_8  and  C10_10 
ROOT
HETATM    1  C1  UNL     1     -32.378   7.478   2.882  1.00 20.00     0.131 C 
HETATM    2  C2  UNL     1     -32.779   8.903   2.574  1.00 20.00     0.083 C 
HETATM    3  C6  UNL     1     -32.050   8.668   4.829  1.00 20.00     0.018 C 
HETATM    4  C7  UNL     1     -32.436   7.252   4.381  1.00 20.00     0.060 C 
HETATM    5  C8  UNL     1     -33.155   9.347   4.003  1.00 20.00    -0.002 C 
HETATM    6  O11 UNL     1     -32.079   6.635   2.051  1.00 20.00    -0.298 OA
ENDROOT
BRANCH   4   7
HETATM    7  C9  UNL     1     -33.905   7.185   4.831  1.00 20.00     0.001 C 
HETATM    8  C4  UNL     1     -34.194   7.014   6.318  1.00 20.00     0.006 C 
HETATM    9  C3  UNL     1     -34.412   5.521   6.535  1.00 20.00     0.001 C 
HETATM   10  C5  UNL     1     -35.003   5.017   5.221  1.00 20.00     0.005 C 
HETATM   11  C10 UNL     1     -34.420   5.905   4.127  1.00 20.00    -0.005 C 
ENDBRANCH   4   7
TORSDOF 2
ENDMDL
MODEL 3
REMARK VINA RESULT:      -4.2      1.576      2.466
REMARK  2 active torsions:
REMARK  status: ('A' for Active; 'I' for Inactive)
REMARK    1  A    between atoms: C7_7  and  C9_9 
REMARK    2  A    between atoms: C8_8  and  C10_10 
ROOT
HETATM    1  C1  UNL     1     -33.578   5.083   3.363  1.00 20.00     0.131 C 
HETATM    2  C2  UNL     1     -33.823   3.989   4.376  1.00 20.00     0.083 C 
HETATM    3  C6  UNL     1     -35.322   5.813   4.682  1.00 20.00     0.018 C 
HETATM    4  C7  UNL     1     -34.142   6.390   3.888  1.00 20.00     0.060 C 
HETATM    5  C8  UNL     1     -34.443   4.850   5.496  1.00 20.00    -0.002 C 
HETATM    6  O11 UNL     1     -32.995   4.942   2.299  1.00 20.00    -0.298 OA
ENDROOT
BRANCH   4   7
HETATM    7  C9  UNL     1     -33.246   6.914   5.022  1.00 20.00     0.001 C 
HETATM    8  C4  UNL     1     -33.891   7.757   6.117  1.00 20.00     0.006 C 
HETATM    9  C3  UNL     1     -33.660   9.210   5.720  1.00 20.00     0.001 C 
HETATM   10  C5  UNL     1     -32.341   9.202   4.954  1.00 20.00     0.005 C 
HETATM   11  C10 UNL     1     -32.254   7.840   4.274  1.00 20.00    -0.005 C 
ENDBRANCH   4   7
TORSDOF 2
ENDMDL
MODEL 4
REMARK VINA RESULT:      -3.9      8.926     10.100
REMARK  2 active torsions:
REMARK  status: ('A' for Active; 'I' for Inactive)
REMARK    1  A    between atoms: C7_7  and  C9_9 
REMARK    2  A    between atoms: C8_8  and  C10_10 
ROOT
HETATM    1  C1  UNL     1     -42.156  14.276   5.584  1.00 20.00     0.131 C 
HETATM    2  C2  UNL     1     -43.307  13.621   6.313  1.00 20.00     0.083 C 
HETATM    3  C6  UNL     1     -41.408  13.875   7.728  1.00 20.00     0.018 C 
HETATM    4  C7  UNL     1     -40.857  13.948   6.298  1.00 20.00     0.060 C 
HETATM    5  C8  UNL     1     -42.495  12.847   7.372  1.00 20.00    -0.002 C 
HETATM    6  O11 UNL     1     -42.254  14.944   4.567  1.00 20.00    -0.298 OA
ENDROOT
BRANCH   4   7
HETATM    7  C9  UNL     1     -40.492  12.477   6.041  1.00 20.00     0.001 C 
HETATM    8  C4  UNL     1     -39.212  11.934   6.669  1.00 20.00     0.006 C 
HETATM    9  C3  UNL     1     -38.140  12.036   5.591  1.00 20.00     0.001 C 
HETATM   10  C5  UNL     1     -38.891  11.868   4.274  1.00 20.00     0.005 C 
HETATM   11  C10 UNL     1     -40.287  12.437   4.506  1.00 20.00    -0.005 C 
ENDBRANCH   4   7
TORSDOF 2
ENDMDL
MODEL 5
REMARK VINA RESULT:      -3.8      9.433     10.719
REMARK  2 active torsions:
REMARK  status: ('A' for Active; 'I' for Inactive)
REMARK    1  A    between atoms: C7_7  and  C9_9 
REMARK    2  A    between atoms: C8_8  and  C10_10 
ROOT
HETATM    1  C1  UNL     1     -42.298  13.698   8.026  1.00 20.00     0.131 C 
HETATM    2  C2  UNL     1     -42.663  15.144   7.778  1.00 20.00     0.083 C 
HETATM    3  C6  UNL     1     -43.156  13.782   5.888  1.00 20.00     0.018 C 
HETATM    4  C7  UNL     1     -42.121  12.989   6.697  1.00 20.00     0.060 C 
HETATM    5  C8  UNL     1     -42.544  15.148   6.240  1.00 20.00    -0.002 C 
HETATM    6  O11 UNL     1     -42.147  13.188   9.125  1.00 20.00    -0.298 OA
ENDROOT
BRANCH   4   7
HETATM    7  C9  UNL     1     -40.809  13.453   6.042  1.00 20.00     0.001 C 
HETATM    8  C4  UNL     1     -40.508  12.981   4.623  1.00 20.00     0.006 C 
HETATM    9  C3  UNL     1     -39.608  11.760   4.769  1.00 20.00     0.001 C 
HETATM   10  C5  UNL     1     -38.819  12.006   6.051  1.00 20.00     0.005 C 
HETATM   11  C10 UNL     1     -39.729  12.826   6.959  1.00 20.00    -0.005 C 
ENDBRANCH   4   7
TORSDOF 2
ENDMDL
MODEL 6
REMARK VINA RESULT:      -3.8     12.014     13.252
REMARK  2 active torsions:
REMARK  status: ('A' for Active; 'I' for Inactive)
REMARK    1  A    between atoms: C7_7  and  C9_9 
REMARK    2  A    between atoms: C8_8  and  C10_10 
ROOT
HETATM    1  C1  UNL     1     -34.106  14.823  -4.730  1.00 20.00     0.131 C 
HETATM    2  C2  UNL     1     -35.560  14.731  -5.133  1.00 20.00     0.083 C 
HETATM    3  C6  UNL     1     -34.528  16.684  -6.024  1.00 20.00     0.018 C 
HETATM    4  C7  UNL     1     -33.643  16.263  -4.844  1.00 20.00     0.060 C 
HETATM    5  C8  UNL     1     -35.833  16.234  -5.345  1.00 20.00    -0.002 C 
HETATM    6  O11 UNL     1     -33.420  13.887  -4.350  1.00 20.00    -0.298 OA
ENDROOT
BRANCH   4   7
HETATM    7  C9  UNL     1     -34.256  17.088  -3.700  1.00 20.00     0.001 C 
HETATM    8  C4  UNL     1     -34.028  18.596  -3.699  1.00 20.00     0.006 C 
HETATM    9  C3  UNL     1     -32.835  18.840  -2.782  1.00 20.00     0.001 C 
HETATM   10  C5  UNL     1     -32.904  17.724  -1.744  1.00 20.00     0.005 C 
HETATM   11  C10 UNL     1     -33.534  16.528  -2.448  1.00 20.00    -0.005 C 
ENDBRANCH   4   7
TORSDOF 2
ENDMDL
MODEL 7
REMARK VINA RESULT:      -3.7     12.497     14.110
REMARK  2 active torsions:
REMARK  status: ('A' for Active; 'I' for Inactive)
REMARK    1  A    between atoms: C7_7  and  C9_9 
REMARK    2  A    between atoms: C8_8  and  C10_10 
ROOT
HETATM    1  C1  UNL     1     -35.116  17.201  -6.349  1.00 20.00     0.131 C 
HETATM    2  C2  UNL     1     -34.460  16.205  -7.277  1.00 20.00     0.083 C 
HETATM    3  C6  UNL     1     -35.253  15.158  -5.290  1.00 20.00     0.018 C 
HETATM    4  C7  UNL     1     -35.123  16.646  -4.937  1.00 20.00     0.060 C 
HETATM    5  C8  UNL     1     -34.031  15.162  -6.224  1.00 20.00    -0.002 C 
HETATM    6  O11 UNL     1     -35.551  18.293  -6.680  1.00 20.00    -0.298 OA
ENDROOT
BRANCH   4   7
HETATM    7  C9  UNL     1     -33.697  16.694  -4.364  1.00 20.00     0.001 C 
HETATM    8  C4  UNL     1     -33.426  15.970  -3.049  1.00 20.00     0.006 C 
HETATM    9  C3  UNL     1     -33.537  17.027  -1.957  1.00 20.00     0.001 C 
HETATM   10  C5  UNL     1     -33.096  18.327  -2.623  1.00 20.00     0.005 C 
HETATM   11  C10 UNL     1     -33.488  18.205  -4.091  1.00 20.00    -0.005 C 
ENDBRANCH   4   7
TORSDOF 2
ENDMDL
MODEL 8
REMARK VINA RESULT:      -3.6     12.500     14.334
REMARK  2 active torsions:
REMARK  status: ('A' for Active; 'I' for Inactive)
REMARK    1  A    between atoms: C7_7  and  C9_9 
REMARK    2  A    between atoms: C8_8  and  C10_10 
ROOT
HETATM    1  C1  UNL     1     -34.512  15.626  -7.114  1.00 20.00     0.131 C 
HETATM    2  C2  UNL     1     -35.953  15.265  -7.398  1.00 20.00     0.083 C 
HETATM    3  C6  UNL     1     -35.714  17.582  -6.902  1.00 20.00     0.018 C 
HETATM    4  C7  UNL     1     -34.465  16.913  -6.312  1.00 20.00     0.060 C 
HETATM    5  C8  UNL     1     -36.632  16.389  -6.589  1.00 20.00    -0.002 C 
HETATM    6  O11 UNL     1     -33.541  14.971  -7.456  1.00 20.00    -0.298 OA
ENDROOT
BRANCH   4   7
HETATM    7  C9  UNL     1     -34.926  16.634  -4.872  1.00 20.00     0.001 C 
HETATM    8  C4  UNL     1     -34.976  17.804  -3.894  1.00 20.00     0.006 C 
HETATM    9  C3  UNL     1     -33.663  17.762  -3.122  1.00 20.00     0.001 C 
HETATM   10  C5  UNL     1     -33.285  16.285  -3.072  1.00 20.00     0.005 C 
HETATM   11  C10 UNL     1     -33.840  15.661  -4.347  1.00 20.00    -0.005 C 
ENDBRANCH   4   7
TORSDOF 2
ENDMDL
MODEL 9
REMARK VINA RESULT:      -3.5     12.016     14.305
REMARK  2 active torsions:
REMARK  status: ('A' for Active; 'I' for Inactive)
REMARK    1  A    between atoms: C7_7  and  C9_9 
REMARK    2  A    between atoms: C8_8  and  C10_10 
ROOT
HETATM    1  C1  UNL     1     -36.123  15.555  -7.401  1.00 20.00     0.131 C 
HETATM    2  C2  UNL     1     -37.262  16.544  -7.298  1.00 20.00     0.083 C 
HETATM    3  C6  UNL     1     -35.149  17.615  -7.053  1.00 20.00     0.018 C 
HETATM    4  C7  UNL     1     -34.890  16.136  -6.735  1.00 20.00     0.060 C 
HETATM    5  C8  UNL     1     -36.558  17.612  -6.436  1.00 20.00    -0.002 C 
HETATM    6  O11 UNL     1     -36.193  14.451  -7.918  1.00 20.00    -0.298 OA
ENDROOT
BRANCH   4   7
HETATM    7  C9  UNL     1     -35.079  16.120  -5.209  1.00 20.00     0.001 C 
HETATM    8  C4  UNL     1     -34.009  16.779  -4.345  1.00 20.00     0.006 C 
HETATM    9  C3  UNL     1     -33.077  15.657  -3.902  1.00 20.00     0.001 C 
HETATM   10  C5  UNL     1     -33.965  14.419  -3.822  1.00 20.00     0.005 C 
HETATM   11  C10 UNL     1     -35.051  14.607  -4.877  1.00 20.00    -0.005 C 
ENDBRANCH   4   7
TORSDOF 2
ENDMDL
