MODEL 1
REMARK VINA RESULT:      -4.4      0.000      0.000
REMARK  2 active torsions:
REMARK  status: ('A' for Active; 'I' for Inactive)
REMARK    1  A    between atoms: C1_1  and  C4_4 
REMARK    2  A    between atoms: C1_1  and  C5_5 
ROOT
HETATM    1  C2  UNL     1     -34.608   5.025   5.965  1.00 20.00     0.055 A 
HETATM    2  C3  UNL     1     -34.144   4.632   4.594  1.00 20.00     0.055 A 
HETATM    3  C4  UNL     1     -34.704   6.007   4.830  1.00 20.00     0.164 A 
HETATM    4  F7  UNL     1     -35.986   6.224   4.334  1.00 20.00    -0.235 F 
ENDROOT
BRANCH   3   5
HETATM    5  C1  UNL     1     -33.815   7.171   4.797  1.00 20.00     0.179 C 
HETATM    6  O6  UNL     1     -33.952   8.087   5.606  1.00 20.00    -0.293 OA
BRANCH   5   7
HETATM    7  C5  UNL     1     -32.751   7.155   3.722  1.00 20.00     0.196 C 
HETATM    8 CL8  UNL     1     -32.525   8.772   3.040  1.00 20.00    -0.122 Cl
ENDBRANCH   5   7
ENDBRANCH   3   5
TORSDOF 2
ENDMDL
MODEL 2
REMARK VINA RESULT:      -4.3      1.616      1.709
REMARK  2 active torsions:
REMARK  status: ('A' for Active; 'I' for Inactive)
REMARK    1  A    between atoms: C1_1  and  C4_4 
REMARK    2  A    between atoms: C1_1  and  C5_5 
ROOT
HETATM    1  C2  UNL     1     -34.435   6.472   6.310  1.00 20.00     0.055 A 
HETATM    2  C3  UNL     1     -34.490   4.996   6.047  1.00 20.00     0.055 A 
HETATM    3  C4  UNL     1     -34.652   5.967   4.910  1.00 20.00     0.164 A 
HETATM    4  F7  UNL     1     -35.948   6.103   4.420  1.00 20.00    -0.235 F 
ENDROOT
BRANCH   3   5
HETATM    5  C1  UNL     1     -33.589   6.106   3.912  1.00 20.00     0.179 C 
HETATM    6  O6  UNL     1     -33.322   5.180   3.148  1.00 20.00    -0.293 OA
BRANCH   5   7
HETATM    7  C5  UNL     1     -32.870   7.436   3.900  1.00 20.00     0.196 C 
HETATM    8 CL8  UNL     1     -32.132   7.735   2.319  1.00 20.00    -0.122 Cl
ENDBRANCH   5   7
ENDBRANCH   3   5
TORSDOF 2
ENDMDL
MODEL 3
REMARK VINA RESULT:      -4.3      1.786      2.014
REMARK  2 active torsions:
REMARK  status: ('A' for Active; 'I' for Inactive)
REMARK    1  A    between atoms: C1_1  and  C4_4 
REMARK    2  A    between atoms: C1_1  and  C5_5 
ROOT
HETATM    1  C2  UNL     1     -35.543   5.774   4.549  1.00 20.00     0.055 A 
HETATM    2  C3  UNL     1     -34.702   5.400   5.734  1.00 20.00     0.055 A 
HETATM    3  C4  UNL     1     -34.057   5.604   4.392  1.00 20.00     0.164 A 
HETATM    4  F7  UNL     1     -33.654   4.443   3.739  1.00 20.00    -0.235 F 
ENDROOT
BRANCH   3   5
HETATM    5  C1  UNL     1     -33.210   6.777   4.161  1.00 20.00     0.179 C 
HETATM    6  O6  UNL     1     -32.555   6.883   3.126  1.00 20.00    -0.293 OA
BRANCH   5   7
HETATM    7  C5  UNL     1     -33.206   7.811   5.265  1.00 20.00     0.196 C 
HETATM    8 CL8  UNL     1     -32.149   9.169   4.848  1.00 20.00    -0.122 Cl
ENDBRANCH   5   7
ENDBRANCH   3   5
TORSDOF 2
ENDMDL
MODEL 4
REMARK VINA RESULT:      -4.2      2.236      3.267
REMARK  2 active torsions:
REMARK  status: ('A' for Active; 'I' for Inactive)
REMARK    1  A    between atoms: C1_1  and  C4_4 
REMARK    2  A    between atoms: C1_1  and  C5_5 
ROOT
HETATM    1  C2  UNL     1     -32.337   7.692   3.673  1.00 20.00     0.055 A 
HETATM    2  C3  UNL     1     -32.272   8.662   4.816  1.00 20.00     0.055 A 
HETATM    3  C4  UNL     1     -33.542   7.902   4.548  1.00 20.00     0.164 A 
HETATM    4  F7  UNL     1     -34.573   8.643   3.977  1.00 20.00    -0.235 F 
ENDROOT
BRANCH   3   5
HETATM    5  C1  UNL     1     -33.967   6.845   5.469  1.00 20.00     0.179 C 
HETATM    6  O6  UNL     1     -33.532   6.803   6.618  1.00 20.00    -0.293 OA
BRANCH   5   7
HETATM    7  C5  UNL     1     -34.949   5.841   4.908  1.00 20.00     0.196 C 
HETATM    8 CL8  UNL     1     -34.113   4.374   4.379  1.00 20.00    -0.122 Cl
ENDBRANCH   5   7
ENDBRANCH   3   5
TORSDOF 2
ENDMDL
MODEL 5
REMARK VINA RESULT:      -4.2      1.423      1.614
REMARK  2 active torsions:
REMARK  status: ('A' for Active; 'I' for Inactive)
REMARK    1  A    between atoms: C1_1  and  C4_4 
REMARK    2  A    between atoms: C1_1  and  C5_5 
ROOT
HETATM    1  C2  UNL     1     -34.366   4.877   4.506  1.00 20.00     0.055 A 
HETATM    2  C3  UNL     1     -35.525   5.820   4.371  1.00 20.00     0.055 A 
HETATM    3  C4  UNL     1     -34.622   5.909   5.570  1.00 20.00     0.164 A 
HETATM    4  F7  UNL     1     -35.156   5.420   6.759  1.00 20.00    -0.235 F 
ENDROOT
BRANCH   3   5
HETATM    5  C1  UNL     1     -33.712   7.048   5.714  1.00 20.00     0.179 C 
HETATM    6  O6  UNL     1     -33.065   7.205   6.748  1.00 20.00    -0.293 OA
BRANCH   5   7
HETATM    7  C5  UNL     1     -33.638   7.983   4.528  1.00 20.00     0.196 C 
HETATM    8 CL8  UNL     1     -32.182   7.669   3.572  1.00 20.00    -0.122 Cl
ENDBRANCH   5   7
ENDBRANCH   3   5
TORSDOF 2
ENDMDL
MODEL 6
REMARK VINA RESULT:      -4.2      1.328      1.328
REMARK  2 active torsions:
REMARK  status: ('A' for Active; 'I' for Inactive)
REMARK    1  A    between atoms: C1_1  and  C4_4 
REMARK    2  A    between atoms: C1_1  and  C5_5 
ROOT
HETATM    1  C2  UNL     1     -34.774   5.705   6.353  1.00 20.00     0.055 A 
HETATM    2  C3  UNL     1     -34.121   4.784   5.365  1.00 20.00     0.055 A 
HETATM    3  C4  UNL     1     -34.626   6.128   4.917  1.00 20.00     0.164 A 
HETATM    4  F7  UNL     1     -35.796   6.106   4.164  1.00 20.00    -0.235 F 
ENDROOT
BRANCH   3   5
HETATM    5  C1  UNL     1     -33.673   7.183   4.563  1.00 20.00     0.179 C 
HETATM    6  O6  UNL     1     -33.743   8.292   5.090  1.00 20.00    -0.293 OA
BRANCH   5   7
HETATM    7  C5  UNL     1     -32.634   6.810   3.530  1.00 20.00     0.196 C 
HETATM    8 CL8  UNL     1     -33.128   5.363   2.639  1.00 20.00    -0.122 Cl
ENDBRANCH   5   7
ENDBRANCH   3   5
TORSDOF 2
ENDMDL
MODEL 7
REMARK VINA RESULT:      -4.2      1.261      1.421
REMARK  2 active torsions:
REMARK  status: ('A' for Active; 'I' for Inactive)
REMARK    1  A    between atoms: C1_1  and  C4_4 
REMARK    2  A    between atoms: C1_1  and  C5_5 
ROOT
HETATM    1  C2  UNL     1     -35.478   5.908   4.502  1.00 20.00     0.055 A 
HETATM    2  C3  UNL     1     -34.611   5.335   5.584  1.00 20.00     0.055 A 
HETATM    3  C4  UNL     1     -33.980   5.967   4.375  1.00 20.00     0.164 A 
HETATM    4  F7  UNL     1     -33.423   5.080   3.458  1.00 20.00    -0.235 F 
ENDROOT
BRANCH   3   5
HETATM    5  C1  UNL     1     -33.288   7.253   4.502  1.00 20.00     0.179 C 
HETATM    6  O6  UNL     1     -33.548   8.014   5.431  1.00 20.00    -0.293 OA
BRANCH   5   7
HETATM    7  C5  UNL     1     -32.265   7.556   3.430  1.00 20.00     0.196 C 
HETATM    8 CL8  UNL     1     -32.724   9.001   2.517  1.00 20.00    -0.122 Cl
ENDBRANCH   5   7
ENDBRANCH   3   5
TORSDOF 2
ENDMDL
MODEL 8
REMARK VINA RESULT:      -4.1      2.651      3.604
REMARK  2 active torsions:
REMARK  status: ('A' for Active; 'I' for Inactive)
REMARK    1  A    between atoms: C1_1  and  C4_4 
REMARK    2  A    between atoms: C1_1  and  C5_5 
ROOT
HETATM    1  C2  UNL     1     -32.939   8.676   3.342  1.00 20.00     0.055 A 
HETATM    2  C3  UNL     1     -31.878   8.090   4.225  1.00 20.00     0.055 A 
HETATM    3  C4  UNL     1     -33.316   7.700   4.422  1.00 20.00     0.164 A 
HETATM    4  F7  UNL     1     -33.938   8.255   5.537  1.00 20.00    -0.235 F 
ENDROOT
BRANCH   3   5
HETATM    5  C1  UNL     1     -33.762   6.352   4.063  1.00 20.00     0.179 C 
HETATM    6  O6  UNL     1     -33.132   5.680   3.249  1.00 20.00    -0.293 OA
BRANCH   5   7
HETATM    7  C5  UNL     1     -35.019   5.871   4.753  1.00 20.00     0.196 C 
HETATM    8 CL8  UNL     1     -34.654   5.285   6.383  1.00 20.00    -0.122 Cl
ENDBRANCH   5   7
ENDBRANCH   3   5
TORSDOF 2
ENDMDL
MODEL 9
REMARK VINA RESULT:      -4.0      1.456      1.523
REMARK  2 active torsions:
REMARK  status: ('A' for Active; 'I' for Inactive)
REMARK    1  A    between atoms: C1_1  and  C4_4 
REMARK    2  A    between atoms: C1_1  and  C5_5 
ROOT
HETATM    1  C2  UNL     1     -34.114   5.150   5.938  1.00 20.00     0.055 A 
HETATM    2  C3  UNL     1     -35.222   5.741   5.118  1.00 20.00     0.055 A 
HETATM    3  C4  UNL     1     -34.163   6.634   5.701  1.00 20.00     0.164 A 
HETATM    4  F7  UNL     1     -34.562   7.400   6.793  1.00 20.00    -0.235 F 
ENDROOT
BRANCH   3   5
HETATM    5  C1  UNL     1     -33.176   7.265   4.821  1.00 20.00     0.179 C 
HETATM    6  O6  UNL     1     -32.570   8.273   5.181  1.00 20.00    -0.293 OA
BRANCH   5   7
HETATM    7  C5  UNL     1     -32.970   6.597   3.480  1.00 20.00     0.196 C 
HETATM    8 CL8  UNL     1     -32.157   7.693   2.353  1.00 20.00    -0.122 Cl
ENDBRANCH   5   7
ENDBRANCH   3   5
TORSDOF 2
ENDMDL
