MODEL 1
REMARK VINA RESULT:      -4.3      0.000      0.000
REMARK  4 active torsions:
REMARK  status: ('A' for Active; 'I' for Inactive)
REMARK    1  A    between atoms: C2_2  and  C6_6 
REMARK    2  A    between atoms: C6_6  and  C8_8 
REMARK    3  A    between atoms: C7_7  and  C8_8 
REMARK    4  A    between atoms: C8_8  and  O9_9 
ROOT
HETATM    1  C1  UNL     1     -33.348  16.669  -2.508  1.00 20.00    -0.111 C 
HETATM    2  C2  UNL     1     -33.398  15.796  -3.331  1.00 20.00    -0.104 C 
HETATM    3  C3  UNL     1     -33.285  17.732  -1.506  1.00 20.00     0.112 C 
ENDROOT
BRANCH   2   4
HETATM    4  C6  UNL     1     -33.461  14.725  -4.340  1.00 20.00     0.126 C 
BRANCH   4   5
HETATM    5  C8  UNL     1     -34.111  15.217  -5.641  1.00 20.00     0.132 C 
BRANCH   5   6
HETATM    6  C7  UNL     1     -35.576  14.742  -5.788  1.00 20.00     0.007 C 
HETATM    7  C4  UNL     1     -36.590  15.886  -5.700  1.00 20.00     0.012 C 
HETATM    8  C5  UNL     1     -35.911  13.688  -4.727  1.00 20.00     0.012 C 
ENDBRANCH   5   6
BRANCH   5   9
HETATM    9  O9  UNL     1     -33.353  14.746  -6.756  1.00 20.00    -0.394 OA
HETATM   10  H23 UNL     1     -33.361  15.460  -7.412  1.00 20.00     0.210 HD
ENDBRANCH   5   9
ENDBRANCH   4   5
ENDBRANCH   2   4
TORSDOF 4
ENDMDL
MODEL 2
REMARK VINA RESULT:      -4.0     11.508     12.304
REMARK  4 active torsions:
REMARK  status: ('A' for Active; 'I' for Inactive)
REMARK    1  A    between atoms: C2_2  and  C6_6 
REMARK    2  A    between atoms: C6_6  and  C8_8 
REMARK    3  A    between atoms: C7_7  and  C8_8 
REMARK    4  A    between atoms: C8_8  and  O9_9 
ROOT
HETATM    1  C1  UNL     1     -32.597   8.649   1.579  1.00 20.00    -0.111 C 
HETATM    2  C2  UNL     1     -32.603   8.019   2.601  1.00 20.00    -0.104 C 
HETATM    3  C3  UNL     1     -32.590   9.413   0.332  1.00 20.00     0.112 C 
ENDROOT
BRANCH   2   4
HETATM    4  C6  UNL     1     -32.611   7.248   3.856  1.00 20.00     0.126 C 
BRANCH   4   5
HETATM    5  C8  UNL     1     -33.879   6.394   3.983  1.00 20.00     0.132 C 
BRANCH   5   6
HETATM    6  C7  UNL     1     -34.475   6.425   5.410  1.00 20.00     0.007 C 
HETATM    7  C4  UNL     1     -33.695   7.333   6.366  1.00 20.00     0.012 C 
HETATM    8  C5  UNL     1     -34.544   5.012   5.998  1.00 20.00     0.012 C 
ENDBRANCH   5   6
BRANCH   5   9
HETATM    9  O9  UNL     1     -33.576   5.042   3.632  1.00 20.00    -0.394 OA
HETATM   10  H23 UNL     1     -34.374   4.526   3.824  1.00 20.00     0.210 HD
ENDBRANCH   5   9
ENDBRANCH   4   5
ENDBRANCH   2   4
TORSDOF 4
ENDMDL
MODEL 3
REMARK VINA RESULT:      -4.0      1.390      1.744
REMARK  4 active torsions:
REMARK  status: ('A' for Active; 'I' for Inactive)
REMARK    1  A    between atoms: C2_2  and  C6_6 
REMARK    2  A    between atoms: C6_6  and  C8_8 
REMARK    3  A    between atoms: C7_7  and  C8_8 
REMARK    4  A    between atoms: C8_8  and  O9_9 
ROOT
HETATM    1  C1  UNL     1     -33.493  16.732  -2.238  1.00 20.00    -0.111 C 
HETATM    2  C2  UNL     1     -33.263  15.989  -3.152  1.00 20.00    -0.104 C 
HETATM    3  C3  UNL     1     -33.771  17.637  -1.123  1.00 20.00     0.112 C 
ENDROOT
BRANCH   2   4
HETATM    4  C6  UNL     1     -32.983  15.077  -4.275  1.00 20.00     0.126 C 
BRANCH   4   5
HETATM    5  C8  UNL     1     -34.268  14.690  -5.018  1.00 20.00     0.132 C 
BRANCH   5   6
HETATM    6  C7  UNL     1     -35.171  15.911  -5.316  1.00 20.00     0.007 C 
HETATM    7  C4  UNL     1     -36.640  15.533  -5.533  1.00 20.00     0.012 C 
HETATM    8  C5  UNL     1     -34.660  16.674  -6.542  1.00 20.00     0.012 C 
ENDBRANCH   5   6
BRANCH   5   9
HETATM    9  O9  UNL     1     -35.001  13.746  -4.236  1.00 20.00    -0.394 OA
HETATM   10  H23 UNL     1     -35.445  14.255  -3.540  1.00 20.00     0.210 HD
ENDBRANCH   5   9
ENDBRANCH   4   5
ENDBRANCH   2   4
TORSDOF 4
ENDMDL
MODEL 4
REMARK VINA RESULT:      -3.9     11.385     12.151
REMARK  4 active torsions:
REMARK  status: ('A' for Active; 'I' for Inactive)
REMARK    1  A    between atoms: C2_2  and  C6_6 
REMARK    2  A    between atoms: C6_6  and  C8_8 
REMARK    3  A    between atoms: C7_7  and  C8_8 
REMARK    4  A    between atoms: C8_8  and  O9_9 
ROOT
HETATM    1  C1  UNL     1     -32.665   8.908   2.197  1.00 20.00    -0.111 C 
HETATM    2  C2  UNL     1     -32.736   8.731   3.382  1.00 20.00    -0.104 C 
HETATM    3  C3  UNL     1     -32.575   9.123   0.753  1.00 20.00     0.112 C 
ENDROOT
BRANCH   2   4
HETATM    4  C6  UNL     1     -32.825   8.514   4.837  1.00 20.00     0.126 C 
BRANCH   4   5
HETATM    5  C8  UNL     1     -33.111   7.043   5.168  1.00 20.00     0.132 C 
BRANCH   5   6
HETATM    6  C7  UNL     1     -34.065   6.380   4.146  1.00 20.00     0.007 C 
HETATM    7  C4  UNL     1     -35.281   5.720   4.801  1.00 20.00     0.012 C 
HETATM    8  C5  UNL     1     -33.316   5.340   3.305  1.00 20.00     0.012 C 
ENDBRANCH   5   6
BRANCH   5   9
HETATM    9  O9  UNL     1     -33.689   6.956   6.472  1.00 20.00    -0.394 OA
HETATM   10  H23 UNL     1     -34.335   6.234   6.436  1.00 20.00     0.210 HD
ENDBRANCH   5   9
ENDBRANCH   4   5
ENDBRANCH   2   4
TORSDOF 4
ENDMDL
MODEL 5
REMARK VINA RESULT:      -3.9      1.338      1.801
REMARK  4 active torsions:
REMARK  status: ('A' for Active; 'I' for Inactive)
REMARK    1  A    between atoms: C2_2  and  C6_6 
REMARK    2  A    between atoms: C6_6  and  C8_8 
REMARK    3  A    between atoms: C7_7  and  C8_8 
REMARK    4  A    between atoms: C8_8  and  O9_9 
ROOT
HETATM    1  C1  UNL     1     -33.597  17.287  -1.414  1.00 20.00    -0.111 C 
HETATM    2  C2  UNL     1     -33.419  16.646  -2.414  1.00 20.00    -0.104 C 
HETATM    3  C3  UNL     1     -33.810  18.066  -0.195  1.00 20.00     0.112 C 
ENDROOT
BRANCH   2   4
HETATM    4  C6  UNL     1     -33.203  15.860  -3.641  1.00 20.00     0.126 C 
BRANCH   4   5
HETATM    5  C8  UNL     1     -34.234  16.213  -4.722  1.00 20.00     0.132 C 
BRANCH   5   6
HETATM    6  C7  UNL     1     -34.443  15.066  -5.739  1.00 20.00     0.007 C 
HETATM    7  C4  UNL     1     -34.152  15.483  -7.183  1.00 20.00     0.012 C 
HETATM    8  C5  UNL     1     -35.872  14.519  -5.649  1.00 20.00     0.012 C 
ENDBRANCH   5   6
BRANCH   5   9
HETATM    9  O9  UNL     1     -33.806  17.384  -5.420  1.00 20.00    -0.394 OA
HETATM   10  H23 UNL     1     -33.659  17.115  -6.340  1.00 20.00     0.210 HD
ENDBRANCH   5   9
ENDBRANCH   4   5
ENDBRANCH   2   4
TORSDOF 4
ENDMDL
MODEL 6
REMARK VINA RESULT:      -3.7     11.556     12.332
REMARK  4 active torsions:
REMARK  status: ('A' for Active; 'I' for Inactive)
REMARK    1  A    between atoms: C2_2  and  C6_6 
REMARK    2  A    between atoms: C6_6  and  C8_8 
REMARK    3  A    between atoms: C7_7  and  C8_8 
REMARK    4  A    between atoms: C8_8  and  O9_9 
ROOT
HETATM    1  C1  UNL     1     -34.247   6.397   6.004  1.00 20.00    -0.111 C 
HETATM    2  C2  UNL     1     -33.958   7.530   5.730  1.00 20.00    -0.104 C 
HETATM    3  C3  UNL     1     -34.597   5.017   6.334  1.00 20.00     0.112 C 
ENDROOT
BRANCH   2   4
HETATM    4  C6  UNL     1     -33.605   8.921   5.397  1.00 20.00     0.126 C 
BRANCH   4   5
HETATM    5  C8  UNL     1     -32.494   8.979   4.339  1.00 20.00     0.132 C 
BRANCH   5   6
HETATM    6  C7  UNL     1     -32.917   8.333   2.998  1.00 20.00     0.007 C 
HETATM    7  C4  UNL     1     -32.115   7.074   2.659  1.00 20.00     0.012 C 
HETATM    8  C5  UNL     1     -32.788   9.339   1.850  1.00 20.00     0.012 C 
ENDBRANCH   5   6
BRANCH   5   9
HETATM    9  O9  UNL     1     -31.333   8.310   4.835  1.00 20.00    -0.394 OA
HETATM   10  H23 UNL     1     -31.585   7.382   4.957  1.00 20.00     0.210 HD
ENDBRANCH   5   9
ENDBRANCH   4   5
ENDBRANCH   2   4
TORSDOF 4
ENDMDL
MODEL 7
REMARK VINA RESULT:      -3.6      6.313      8.233
REMARK  4 active torsions:
REMARK  status: ('A' for Active; 'I' for Inactive)
REMARK    1  A    between atoms: C2_2  and  C6_6 
REMARK    2  A    between atoms: C6_6  and  C8_8 
REMARK    3  A    between atoms: C7_7  and  C8_8 
REMARK    4  A    between atoms: C8_8  and  O9_9 
ROOT
HETATM    1  C1  UNL     1     -28.673  18.734   3.587  1.00 20.00    -0.111 C 
HETATM    2  C2  UNL     1     -29.399  18.968   2.660  1.00 20.00    -0.104 C 
HETATM    3  C3  UNL     1     -27.786  18.447   4.714  1.00 20.00     0.112 C 
ENDROOT
BRANCH   2   4
HETATM    4  C6  UNL     1     -30.292  19.257   1.524  1.00 20.00     0.126 C 
BRANCH   4   5
HETATM    5  C8  UNL     1     -31.622  18.501   1.650  1.00 20.00     0.132 C 
BRANCH   5   6
HETATM    6  C7  UNL     1     -32.571  18.770   0.457  1.00 20.00     0.007 C 
HETATM    7  C4  UNL     1     -33.814  17.875   0.466  1.00 20.00     0.012 C 
HETATM    8  C5  UNL     1     -31.831  18.592  -0.872  1.00 20.00     0.012 C 
ENDBRANCH   5   6
BRANCH   5   9
HETATM    9  O9  UNL     1     -32.273  18.887   2.861  1.00 20.00    -0.394 OA
HETATM   10  H23 UNL     1     -31.739  18.525   3.585  1.00 20.00     0.210 HD
ENDBRANCH   5   9
ENDBRANCH   4   5
ENDBRANCH   2   4
TORSDOF 4
ENDMDL
MODEL 8
REMARK VINA RESULT:      -3.6     12.347     13.491
REMARK  4 active torsions:
REMARK  status: ('A' for Active; 'I' for Inactive)
REMARK    1  A    between atoms: C2_2  and  C6_6 
REMARK    2  A    between atoms: C6_6  and  C8_8 
REMARK    3  A    between atoms: C7_7  and  C8_8 
REMARK    4  A    between atoms: C8_8  and  O9_9 
ROOT
HETATM    1  C1  UNL     1     -39.893  12.096   5.041  1.00 20.00    -0.111 C 
HETATM    2  C2  UNL     1     -40.717  12.453   5.838  1.00 20.00    -0.104 C 
HETATM    3  C3  UNL     1     -38.890  11.663   4.069  1.00 20.00     0.112 C 
ENDROOT
BRANCH   2   4
HETATM    4  C6  UNL     1     -41.727  12.890   6.817  1.00 20.00     0.126 C 
BRANCH   4   5
HETATM    5  C8  UNL     1     -41.164  13.955   7.768  1.00 20.00     0.132 C 
BRANCH   5   6
HETATM    6  C7  UNL     1     -41.050  15.346   7.099  1.00 20.00     0.007 C 
HETATM    7  C4  UNL     1     -40.608  16.445   8.070  1.00 20.00     0.012 C 
HETATM    8  C5  UNL     1     -42.380  15.746   6.453  1.00 20.00     0.012 C 
ENDBRANCH   5   6
BRANCH   5   9
HETATM    9  O9  UNL     1     -39.873  13.548   8.223  1.00 20.00    -0.394 OA
HETATM   10  H23 UNL     1     -39.873  13.666   9.185  1.00 20.00     0.210 HD
ENDBRANCH   5   9
ENDBRANCH   4   5
ENDBRANCH   2   4
TORSDOF 4
ENDMDL
MODEL 9
REMARK VINA RESULT:      -3.6     12.214     12.906
REMARK  4 active torsions:
REMARK  status: ('A' for Active; 'I' for Inactive)
REMARK    1  A    between atoms: C2_2  and  C6_6 
REMARK    2  A    between atoms: C6_6  and  C8_8 
REMARK    3  A    between atoms: C7_7  and  C8_8 
REMARK    4  A    between atoms: C8_8  and  O9_9 
ROOT
HETATM    1  C1  UNL     1     -32.334   8.028   4.071  1.00 20.00    -0.111 C 
HETATM    2  C2  UNL     1     -32.559   6.959   3.573  1.00 20.00    -0.104 C 
HETATM    3  C3  UNL     1     -32.061   9.328   4.681  1.00 20.00     0.112 C 
ENDROOT
BRANCH   2   4
HETATM    4  C6  UNL     1     -32.835   5.648   2.959  1.00 20.00     0.126 C 
BRANCH   4   5
HETATM    5  C8  UNL     1     -34.060   4.977   3.595  1.00 20.00     0.132 C 
BRANCH   5   6
HETATM    6  C7  UNL     1     -34.774   5.894   4.617  1.00 20.00     0.007 C 
HETATM    7  C4  UNL     1     -34.792   5.314   6.034  1.00 20.00     0.012 C 
HETATM    8  C5  UNL     1     -36.211   6.183   4.171  1.00 20.00     0.012 C 
ENDBRANCH   5   6
BRANCH   5   9
HETATM    9  O9  UNL     1     -33.654   3.774   4.250  1.00 20.00    -0.394 OA
HETATM   10  H23 UNL     1     -33.704   3.952   5.202  1.00 20.00     0.210 HD
ENDBRANCH   5   9
ENDBRANCH   4   5
ENDBRANCH   2   4
TORSDOF 4
ENDMDL
