MODEL 1
REMARK VINA RESULT:      -4.4      0.000      0.000
REMARK  1 active torsions:
REMARK  status: ('A' for Active; 'I' for Inactive)
REMARK    1  A    between atoms: C2_2  and  C6_6 
ROOT
HETATM    1  C1  UNL     1     -33.617   7.797   5.691  1.00 20.00    -0.021 C 
HETATM    2  C2  UNL     1     -33.219   7.452   4.451  1.00 20.00    -0.061 C 
HETATM    3  C3  UNL     1     -34.331   6.903   6.661  1.00 20.00     0.037 C 
HETATM    4  C4  UNL     1     -33.459   6.107   3.816  1.00 20.00     0.108 C 
HETATM    5  C5  UNL     1     -34.282   5.415   6.330  1.00 20.00     0.078 C 
HETATM    6  S7  UNL     1     -34.766   5.132   4.609  1.00 20.00    -0.165 SA
ENDROOT
BRANCH   2   7
HETATM    7  C6  UNL     1     -32.477   8.434   3.586  1.00 20.00     0.149 C 
HETATM    8 CL8  UNL     1     -32.174   7.629   2.050  1.00 20.00    -0.126 Cl
ENDBRANCH   2   7
TORSDOF 1
ENDMDL
MODEL 2
REMARK VINA RESULT:      -4.0      1.234      1.234
REMARK  1 active torsions:
REMARK  status: ('A' for Active; 'I' for Inactive)
REMARK    1  A    between atoms: C2_2  and  C6_6 
ROOT
HETATM    1  C1  UNL     1     -33.722   7.618   5.760  1.00 20.00    -0.021 C 
HETATM    2  C2  UNL     1     -33.272   7.348   4.520  1.00 20.00    -0.061 C 
HETATM    3  C3  UNL     1     -34.447   6.658   6.657  1.00 20.00     0.037 C 
HETATM    4  C4  UNL     1     -33.455   6.033   3.808  1.00 20.00     0.108 C 
HETATM    5  C5  UNL     1     -34.347   5.191   6.252  1.00 20.00     0.078 C 
HETATM    6  S7  UNL     1     -34.763   4.986   4.502  1.00 20.00    -0.165 SA
ENDROOT
BRANCH   2   7
HETATM    7  C6  UNL     1     -32.527   8.391   3.734  1.00 20.00     0.149 C 
HETATM    8 CL8  UNL     1     -31.912   9.561   4.898  1.00 20.00    -0.126 Cl
ENDBRANCH   2   7
TORSDOF 1
ENDMDL
MODEL 3
REMARK VINA RESULT:      -4.0      1.148      1.985
REMARK  1 active torsions:
REMARK  status: ('A' for Active; 'I' for Inactive)
REMARK    1  A    between atoms: C2_2  and  C6_6 
ROOT
HETATM    1  C1  UNL     1     -33.200   6.062   3.479  1.00 20.00    -0.021 C 
HETATM    2  C2  UNL     1     -33.066   7.272   4.054  1.00 20.00    -0.061 C 
HETATM    3  C3  UNL     1     -34.046   4.936   3.998  1.00 20.00     0.037 C 
HETATM    4  C4  UNL     1     -33.723   7.687   5.345  1.00 20.00     0.108 C 
HETATM    5  C5  UNL     1     -35.076   5.329   5.050  1.00 20.00     0.078 C 
HETATM    6  S7  UNL     1     -34.301   6.303   6.364  1.00 20.00    -0.165 SA
ENDROOT
BRANCH   2   7
HETATM    7  C6  UNL     1     -32.212   8.332   3.413  1.00 20.00     0.149 C 
HETATM    8 CL8  UNL     1     -32.128   7.946   1.697  1.00 20.00    -0.126 Cl
ENDBRANCH   2   7
TORSDOF 1
ENDMDL
MODEL 4
REMARK VINA RESULT:      -3.9      2.388      3.497
REMARK  1 active torsions:
REMARK  status: ('A' for Active; 'I' for Inactive)
REMARK    1  A    between atoms: C2_2  and  C6_6 
ROOT
HETATM    1  C1  UNL     1     -32.940   8.321   5.231  1.00 20.00    -0.021 C 
HETATM    2  C2  UNL     1     -33.649   7.177   5.255  1.00 20.00    -0.061 C 
HETATM    3  C3  UNL     1     -32.194   8.865   4.047  1.00 20.00     0.037 C 
HETATM    4  C4  UNL     1     -33.783   6.226   4.093  1.00 20.00     0.108 C 
HETATM    5  C5  UNL     1     -32.565   8.243   2.706  1.00 20.00     0.078 C 
HETATM    6  S7  UNL     1     -32.520   6.437   2.809  1.00 20.00    -0.165 SA
ENDROOT
BRANCH   2   7
HETATM    7  C6  UNL     1     -34.383   6.758   6.499  1.00 20.00     0.149 C 
HETATM    8 CL8  UNL     1     -34.687   5.030   6.352  1.00 20.00    -0.126 Cl
ENDBRANCH   2   7
TORSDOF 1
ENDMDL
MODEL 5
REMARK VINA RESULT:      -3.8      2.728      3.847
REMARK  1 active torsions:
REMARK  status: ('A' for Active; 'I' for Inactive)
REMARK    1  A    between atoms: C2_2  and  C6_6 
ROOT
HETATM    1  C1  UNL     1     -33.722   6.055   4.194  1.00 20.00    -0.021 C 
HETATM    2  C2  UNL     1     -33.617   7.031   5.115  1.00 20.00    -0.061 C 
HETATM    3  C3  UNL     1     -33.087   6.063   2.834  1.00 20.00     0.037 C 
HETATM    4  C4  UNL     1     -32.864   8.321   4.918  1.00 20.00     0.108 C 
HETATM    5  C5  UNL     1     -31.976   7.090   2.643  1.00 20.00     0.078 C 
HETATM    6  S7  UNL     1     -32.527   8.728   3.183  1.00 20.00    -0.165 SA
ENDROOT
BRANCH   2   7
HETATM    7  C6  UNL     1     -34.276   6.887   6.460  1.00 20.00     0.149 C 
HETATM    8 CL8  UNL     1     -34.793   5.209   6.594  1.00 20.00    -0.126 Cl
ENDBRANCH   2   7
TORSDOF 1
ENDMDL
MODEL 6
REMARK VINA RESULT:      -3.4      1.946      2.713
REMARK  1 active torsions:
REMARK  status: ('A' for Active; 'I' for Inactive)
REMARK    1  A    between atoms: C2_2  and  C6_6 
ROOT
HETATM    1  C1  UNL     1     -34.255   6.111   5.693  1.00 20.00    -0.021 C 
HETATM    2  C2  UNL     1     -33.779   5.993   4.439  1.00 20.00    -0.061 C 
HETATM    3  C3  UNL     1     -34.188   7.347   6.542  1.00 20.00     0.037 C 
HETATM    4  C4  UNL     1     -33.063   7.085   3.686  1.00 20.00     0.108 C 
HETATM    5  C5  UNL     1     -33.870   8.634   5.790  1.00 20.00     0.078 C 
HETATM    6  S7  UNL     1     -32.414   8.411   4.738  1.00 20.00    -0.165 SA
ENDROOT
BRANCH   2   7
HETATM    7  C6  UNL     1     -33.941   4.705   3.678  1.00 20.00     0.149 C 
HETATM    8 CL8  UNL     1     -32.826   4.777   2.317  1.00 20.00    -0.126 Cl
ENDBRANCH   2   7
TORSDOF 1
ENDMDL
MODEL 7
REMARK VINA RESULT:      -3.4     12.511     13.303
REMARK  1 active torsions:
REMARK  status: ('A' for Active; 'I' for Inactive)
REMARK    1  A    between atoms: C2_2  and  C6_6 
ROOT
HETATM    1  C1  UNL     1     -33.374  15.714  -3.525  1.00 20.00    -0.021 C 
HETATM    2  C2  UNL     1     -33.630  17.025  -3.692  1.00 20.00    -0.061 C 
HETATM    3  C3  UNL     1     -33.759  14.619  -4.476  1.00 20.00     0.037 C 
HETATM    4  C4  UNL     1     -34.383  17.611  -4.859  1.00 20.00     0.108 C 
HETATM    5  C5  UNL     1     -34.154  15.082  -5.874  1.00 20.00     0.078 C 
HETATM    6  S7  UNL     1     -35.381  16.408  -5.780  1.00 20.00    -0.165 SA
ENDROOT
BRANCH   2   7
HETATM    7  C6  UNL     1     -33.159  18.031  -2.678  1.00 20.00     0.149 C 
HETATM    8 CL8  UNL     1     -33.642  17.423  -1.098  1.00 20.00    -0.126 Cl
ENDBRANCH   2   7
TORSDOF 1
ENDMDL
MODEL 8
REMARK VINA RESULT:      -3.4     15.354     15.740
REMARK  1 active torsions:
REMARK  status: ('A' for Active; 'I' for Inactive)
REMARK    1  A    between atoms: C2_2  and  C6_6 
ROOT
HETATM    1  C1  UNL     1     -23.553  17.164  10.504  1.00 20.00    -0.021 C 
HETATM    2  C2  UNL     1     -24.013  18.274   9.897  1.00 20.00    -0.061 C 
HETATM    3  C3  UNL     1     -24.103  16.564  11.765  1.00 20.00     0.037 C 
HETATM    4  C4  UNL     1     -25.147  19.125  10.408  1.00 20.00     0.108 C 
HETATM    5  C5  UNL     1     -25.485  17.063  12.172  1.00 20.00     0.078 C 
HETATM    6  S7  UNL     1     -25.535  18.873  12.161  1.00 20.00    -0.165 SA
ENDROOT
BRANCH   2   7
HETATM    7  C6  UNL     1     -23.395  18.754   8.613  1.00 20.00     0.149 C 
HETATM    8 CL8  UNL     1     -22.099  17.628   8.221  1.00 20.00    -0.126 Cl
ENDBRANCH   2   7
TORSDOF 1
ENDMDL
MODEL 9
REMARK VINA RESULT:      -3.3     12.446     13.075
REMARK  1 active torsions:
REMARK  status: ('A' for Active; 'I' for Inactive)
REMARK    1  A    between atoms: C2_2  and  C6_6 
ROOT
HETATM    1  C1  UNL     1     -33.414  16.678  -2.089  1.00 20.00    -0.021 C 
HETATM    2  C2  UNL     1     -33.606  16.501  -3.410  1.00 20.00    -0.061 C 
HETATM    3  C3  UNL     1     -33.889  17.854  -1.286  1.00 20.00     0.037 C 
HETATM    4  C4  UNL     1     -34.307  17.481  -4.315  1.00 20.00     0.108 C 
HETATM    5  C5  UNL     1     -34.950  18.715  -1.961  1.00 20.00     0.078 C 
HETATM    6  S7  UNL     1     -34.435  19.158  -3.639  1.00 20.00    -0.165 SA
ENDROOT
BRANCH   2   7
HETATM    7  C6  UNL     1     -33.109  15.257  -4.093  1.00 20.00     0.149 C 
HETATM    8 CL8  UNL     1     -34.493  14.180  -4.258  1.00 20.00    -0.126 Cl
ENDBRANCH   2   7
TORSDOF 1
ENDMDL
