MODEL 1
REMARK VINA RESULT:      -4.1      0.000      0.000
REMARK  0 active torsions:
REMARK  status: ('A' for Active; 'I' for Inactive)
ROOT
HETATM    1  C1  UNL     1     -34.790   5.484   6.139  1.00 20.00     0.136 A 
HETATM    2  C2  UNL     1     -34.593   4.763   4.962  1.00 20.00     0.136 A 
HETATM    3  C3  UNL     1     -33.001   8.430   5.281  1.00 20.00     0.083 A 
HETATM    4  C4  UNL     1     -32.649   7.146   3.183  1.00 20.00     0.083 A 
HETATM    5  C5  UNL     1     -33.601   7.196   5.313  1.00 20.00     0.092 A 
HETATM    6  C6  UNL     1     -33.398   6.454   4.103  1.00 20.00     0.092 A 
HETATM    7  N7  UNL     1     -34.308   6.731   6.375  1.00 20.00    -0.257 NA
HETATM    8  N8  UNL     1     -33.891   5.208   3.888  1.00 20.00    -0.257 NA
HETATM    9  S9  UNL     1     -32.192   8.691   3.785  1.00 20.00    -0.109 SA
ENDROOT
TORSDOF 0
ENDMDL
MODEL 2
REMARK VINA RESULT:      -4.1      0.077      2.048
REMARK  0 active torsions:
REMARK  status: ('A' for Active; 'I' for Inactive)
ROOT
HETATM    1  C1  UNL     1     -34.601   4.809   4.992  1.00 20.00     0.136 A 
HETATM    2  C2  UNL     1     -34.766   5.560   6.155  1.00 20.00     0.136 A 
HETATM    3  C3  UNL     1     -32.660   7.121   3.119  1.00 20.00     0.083 A 
HETATM    4  C4  UNL     1     -32.952   8.459   5.192  1.00 20.00     0.083 A 
HETATM    5  C5  UNL     1     -33.400   6.463   4.070  1.00 20.00     0.092 A 
HETATM    6  C6  UNL     1     -33.569   7.235   5.266  1.00 20.00     0.092 A 
HETATM    7  N7  UNL     1     -33.914   5.218   3.895  1.00 20.00    -0.257 NA
HETATM    8  N8  UNL     1     -34.261   6.805   6.352  1.00 20.00    -0.257 NA
HETATM    9  S9  UNL     1     -32.170   8.673   3.675  1.00 20.00    -0.109 SA
ENDROOT
TORSDOF 0
ENDMDL
MODEL 3
REMARK VINA RESULT:      -4.1      2.084      3.678
REMARK  0 active torsions:
REMARK  status: ('A' for Active; 'I' for Inactive)
ROOT
HETATM    1  C1  UNL     1     -32.225   7.435   2.810  1.00 20.00     0.136 A 
HETATM    2  C2  UNL     1     -32.124   8.429   3.784  1.00 20.00     0.136 A 
HETATM    3  C3  UNL     1     -34.280   5.141   4.578  1.00 20.00     0.083 A 
HETATM    4  C4  UNL     1     -34.102   6.910   6.314  1.00 20.00     0.083 A 
HETATM    5  C5  UNL     1     -33.514   6.204   4.169  1.00 20.00     0.092 A 
HETATM    6  C6  UNL     1     -33.411   7.225   5.171  1.00 20.00     0.092 A 
HETATM    7  N7  UNL     1     -32.921   6.278   2.950  1.00 20.00    -0.257 NA
HETATM    8  N8  UNL     1     -32.709   8.375   5.008  1.00 20.00    -0.257 NA
HETATM    9  S9  UNL     1     -34.875   5.379   6.175  1.00 20.00    -0.109 SA
ENDROOT
TORSDOF 0
ENDMDL
MODEL 4
REMARK VINA RESULT:      -4.0      2.083      3.090
REMARK  0 active torsions:
REMARK  status: ('A' for Active; 'I' for Inactive)
ROOT
HETATM    1  C1  UNL     1     -32.164   8.408   3.778  1.00 20.00     0.136 A 
HETATM    2  C2  UNL     1     -32.241   7.407   2.810  1.00 20.00     0.136 A 
HETATM    3  C3  UNL     1     -34.134   6.876   6.306  1.00 20.00     0.083 A 
HETATM    4  C4  UNL     1     -34.272   5.092   4.581  1.00 20.00     0.083 A 
HETATM    5  C5  UNL     1     -33.441   7.193   5.164  1.00 20.00     0.092 A 
HETATM    6  C6  UNL     1     -33.520   6.164   4.169  1.00 20.00     0.092 A 
HETATM    7  N7  UNL     1     -32.756   8.354   4.999  1.00 20.00    -0.257 NA
HETATM    8  N8  UNL     1     -32.920   6.240   2.954  1.00 20.00    -0.257 NA
HETATM    9  S9  UNL     1     -34.882   5.332   6.172  1.00 20.00    -0.109 SA
ENDROOT
TORSDOF 0
ENDMDL
MODEL 5
REMARK VINA RESULT:      -3.5     16.203     17.147
REMARK  0 active torsions:
REMARK  status: ('A' for Active; 'I' for Inactive)
ROOT
HETATM    1  C1  UNL     1     -22.392  18.895   8.239  1.00 20.00     0.136 A 
HETATM    2  C2  UNL     1     -21.303  18.691   9.087  1.00 20.00     0.136 A 
HETATM    3  C3  UNL     1     -24.997  18.726  10.648  1.00 20.00     0.083 A 
HETATM    4  C4  UNL     1     -23.058  18.363  12.158  1.00 20.00     0.083 A 
HETATM    5  C5  UNL     1     -23.799  18.739   9.977  1.00 20.00     0.092 A 
HETATM    6  C6  UNL     1     -22.680  18.529  10.849  1.00 20.00     0.092 A 
HETATM    7  N7  UNL     1     -23.689  18.930   8.638  1.00 20.00    -0.257 NA
HETATM    8  N8  UNL     1     -21.390  18.499  10.428  1.00 20.00    -0.257 NA
HETATM    9  S9  UNL     1     -24.767  18.460  12.332  1.00 20.00    -0.109 SA
ENDROOT
TORSDOF 0
ENDMDL
MODEL 6
REMARK VINA RESULT:      -3.5     12.914     13.163
REMARK  0 active torsions:
REMARK  status: ('A' for Active; 'I' for Inactive)
ROOT
HETATM    1  C1  UNL     1     -31.843  18.461  -0.951  1.00 20.00     0.136 A 
HETATM    2  C2  UNL     1     -33.128  18.656  -0.444  1.00 20.00     0.136 A 
HETATM    3  C3  UNL     1     -29.998  18.911   2.051  1.00 20.00     0.083 A 
HETATM    4  C4  UNL     1     -32.286  19.259   2.955  1.00 20.00     0.083 A 
HETATM    5  C5  UNL     1     -30.967  18.794   1.086  1.00 20.00     0.092 A 
HETATM    6  C6  UNL     1     -32.288  18.995   1.607  1.00 20.00     0.092 A 
HETATM    7  N7  UNL     1     -30.703  18.519  -0.217  1.00 20.00    -0.257 NA
HETATM    8  N8  UNL     1     -33.415  18.932   0.854  1.00 20.00    -0.257 NA
HETATM    9  S9  UNL     1     -30.686  19.263   3.587  1.00 20.00    -0.109 SA
ENDROOT
TORSDOF 0
ENDMDL
MODEL 7
REMARK VINA RESULT:      -3.4     12.916     13.095
REMARK  0 active torsions:
REMARK  status: ('A' for Active; 'I' for Inactive)
ROOT
HETATM    1  C1  UNL     1     -33.100  18.665  -0.529  1.00 20.00     0.136 A 
HETATM    2  C2  UNL     1     -31.794  18.477  -0.980  1.00 20.00     0.136 A 
HETATM    3  C3  UNL     1     -32.413  19.254   2.906  1.00 20.00     0.083 A 
HETATM    4  C4  UNL     1     -30.085  18.919   2.104  1.00 20.00     0.083 A 
HETATM    5  C5  UNL     1     -32.353  18.996   1.559  1.00 20.00     0.092 A 
HETATM    6  C6  UNL     1     -31.010  18.803   1.096  1.00 20.00     0.092 A 
HETATM    7  N7  UNL     1     -33.446  18.933   0.756  1.00 20.00    -0.257 NA
HETATM    8  N8  UNL     1     -30.687  18.536  -0.195  1.00 20.00    -0.257 NA
HETATM    9  S9  UNL     1     -30.843  19.261   3.610  1.00 20.00    -0.109 SA
ENDROOT
TORSDOF 0
ENDMDL
MODEL 8
REMARK VINA RESULT:      -3.3     13.034     13.471
REMARK  0 active torsions:
REMARK  status: ('A' for Active; 'I' for Inactive)
ROOT
HETATM    1  C1  UNL     1     -30.709  18.743   0.937  1.00 20.00     0.136 A 
HETATM    2  C2  UNL     1     -31.760  18.953   1.829  1.00 20.00     0.136 A 
HETATM    3  C3  UNL     1     -32.576  18.589  -2.081  1.00 20.00     0.083 A 
HETATM    4  C4  UNL     1     -34.450  18.962  -0.492  1.00 20.00     0.083 A 
HETATM    5  C5  UNL     1     -32.149  18.694  -0.781  1.00 20.00     0.092 A 
HETATM    6  C6  UNL     1     -33.231  18.909   0.136  1.00 20.00     0.092 A 
HETATM    7  N7  UNL     1     -30.847  18.604  -0.407  1.00 20.00    -0.257 NA
HETATM    8  N8  UNL     1     -33.068  19.046   1.477  1.00 20.00    -0.257 NA
HETATM    9  S9  UNL     1     -34.285  18.751  -2.192  1.00 20.00    -0.109 SA
ENDROOT
TORSDOF 0
ENDMDL
MODEL 9
REMARK VINA RESULT:      -3.3     13.024     13.364
REMARK  0 active torsions:
REMARK  status: ('A' for Active; 'I' for Inactive)
ROOT
HETATM    1  C1  UNL     1     -31.742  18.937   1.815  1.00 20.00     0.136 A 
HETATM    2  C2  UNL     1     -30.698  18.749   0.909  1.00 20.00     0.136 A 
HETATM    3  C3  UNL     1     -34.457  18.952  -0.476  1.00 20.00     0.083 A 
HETATM    4  C4  UNL     1     -32.598  18.616  -2.090  1.00 20.00     0.083 A 
HETATM    5  C5  UNL     1     -33.230  18.902   0.138  1.00 20.00     0.092 A 
HETATM    6  C6  UNL     1     -32.157  18.708  -0.794  1.00 20.00     0.092 A 
HETATM    7  N7  UNL     1     -33.055  19.023   1.479  1.00 20.00    -0.257 NA
HETATM    8  N8  UNL     1     -30.851  18.625  -0.434  1.00 20.00    -0.257 NA
HETATM    9  S9  UNL     1     -34.310  18.764  -2.180  1.00 20.00    -0.109 SA
ENDROOT
TORSDOF 0
ENDMDL
