MODEL 1
REMARK VINA RESULT:      -4.0      0.000      0.000
REMARK  0 active torsions:
REMARK  status: ('A' for Active; 'I' for Inactive)
ROOT
HETATM    1  C1  UNL     1     -34.250   6.897   6.403  1.00 20.00     0.064 C 
HETATM    2  C2  UNL     1     -33.142   7.499   5.547  1.00 20.00     0.170 C 
HETATM    3  C3  UNL     1     -33.448   6.074   3.678  1.00 20.00     0.205 C 
HETATM    4  C4  UNL     1     -34.607   5.523   5.925  1.00 20.00     0.258 A 
HETATM    5  C5  UNL     1     -34.224   5.118   4.527  1.00 20.00     0.277 A 
HETATM    6  N6  UNL     1     -35.609   5.404   4.862  1.00 20.00     0.099 N 
HETATM    7  O7  UNL     1     -33.509   7.420   4.168  1.00 20.00    -0.389 OA
HETATM    8  H16 UNL     1     -36.129   4.533   4.973  1.00 20.00     0.317 HD
ENDROOT
TORSDOF 0
ENDMDL
MODEL 2
REMARK VINA RESULT:      -3.7      1.605      2.338
REMARK  0 active torsions:
REMARK  status: ('A' for Active; 'I' for Inactive)
ROOT
HETATM    1  C1  UNL     1     -34.739   5.492   6.014  1.00 20.00     0.064 C 
HETATM    2  C2  UNL     1     -34.784   5.350   4.497  1.00 20.00     0.170 C 
HETATM    3  C3  UNL     1     -33.421   7.228   4.016  1.00 20.00     0.205 C 
HETATM    4  C4  UNL     1     -34.342   6.881   6.409  1.00 20.00     0.258 A 
HETATM    5  C5  UNL     1     -33.644   7.751   5.398  1.00 20.00     0.277 A 
HETATM    6  N6  UNL     1     -32.911   7.182   6.518  1.00 20.00     0.099 N 
HETATM    7  O7  UNL     1     -33.549   5.802   3.939  1.00 20.00    -0.389 OA
HETATM    8  H16 UNL     1     -32.761   7.891   7.235  1.00 20.00     0.317 HD
ENDROOT
TORSDOF 0
ENDMDL
MODEL 3
REMARK VINA RESULT:      -3.5      1.293      2.081
REMARK  0 active torsions:
REMARK  status: ('A' for Active; 'I' for Inactive)
ROOT
HETATM    1  C1  UNL     1     -33.150   6.852   3.978  1.00 20.00     0.064 C 
HETATM    2  C2  UNL     1     -33.284   7.707   5.233  1.00 20.00     0.170 C 
HETATM    3  C3  UNL     1     -34.643   6.188   6.443  1.00 20.00     0.205 C 
HETATM    4  C4  UNL     1     -34.237   5.824   3.914  1.00 20.00     0.258 A 
HETATM    5  C5  UNL     1     -34.975   5.467   5.176  1.00 20.00     0.277 A 
HETATM    6  N6  UNL     1     -34.015   4.545   4.592  1.00 20.00     0.099 N 
HETATM    7  O7  UNL     1     -33.377   6.860   6.380  1.00 20.00    -0.389 OA
HETATM    8  H16 UNL     1     -34.503   3.800   4.094  1.00 20.00     0.317 HD
ENDROOT
TORSDOF 0
ENDMDL
MODEL 4
REMARK VINA RESULT:      -3.5      1.716      2.926
REMARK  0 active torsions:
REMARK  status: ('A' for Active; 'I' for Inactive)
ROOT
HETATM    1  C1  UNL     1     -33.776   5.825   3.596  1.00 20.00     0.064 C 
HETATM    2  C2  UNL     1     -34.381   4.958   4.694  1.00 20.00     0.170 C 
HETATM    3  C3  UNL     1     -34.291   6.597   6.404  1.00 20.00     0.205 C 
HETATM    4  C4  UNL     1     -33.022   6.979   4.182  1.00 20.00     0.258 A 
HETATM    5  C5  UNL     1     -33.308   7.387   5.602  1.00 20.00     0.277 A 
HETATM    6  N6  UNL     1     -33.767   8.203   4.489  1.00 20.00     0.099 N 
HETATM    7  O7  UNL     1     -35.138   5.778   5.586  1.00 20.00    -0.389 OA
HETATM    8  H16 UNL     1     -33.161   9.015   4.376  1.00 20.00     0.317 HD
ENDROOT
TORSDOF 0
ENDMDL
MODEL 5
REMARK VINA RESULT:      -3.4     12.856     13.480
REMARK  0 active torsions:
REMARK  status: ('A' for Active; 'I' for Inactive)
ROOT
HETATM    1  C1  UNL     1     -33.365  16.037  -3.333  1.00 20.00     0.064 C 
HETATM    2  C2  UNL     1     -33.922  17.256  -4.059  1.00 20.00     0.170 C 
HETATM    3  C3  UNL     1     -35.084  16.053  -5.739  1.00 20.00     0.205 C 
HETATM    4  C4  UNL     1     -33.380  14.832  -4.222  1.00 20.00     0.258 A 
HETATM    5  C5  UNL     1     -34.279  14.832  -5.429  1.00 20.00     0.277 A 
HETATM    6  N6  UNL     1     -34.603  14.025  -4.265  1.00 20.00     0.099 N 
HETATM    7  O7  UNL     1     -35.199  16.937  -4.616  1.00 20.00    -0.389 OA
HETATM    8  H16 UNL     1     -34.365  13.048  -4.439  1.00 20.00     0.317 HD
ENDROOT
TORSDOF 0
ENDMDL
MODEL 6
REMARK VINA RESULT:      -3.4      1.681      2.633
REMARK  0 active torsions:
REMARK  status: ('A' for Active; 'I' for Inactive)
ROOT
HETATM    1  C1  UNL     1     -33.432   5.961   3.781  1.00 20.00     0.064 C 
HETATM    2  C2  UNL     1     -32.545   6.884   2.953  1.00 20.00     0.170 C 
HETATM    3  C3  UNL     1     -32.467   8.655   4.525  1.00 20.00     0.205 C 
HETATM    4  C4  UNL     1     -34.169   6.731   4.833  1.00 20.00     0.258 A 
HETATM    5  C5  UNL     1     -33.658   8.090   5.230  1.00 20.00     0.277 A 
HETATM    6  N6  UNL     1     -33.502   6.950   6.119  1.00 20.00     0.099 N 
HETATM    7  O7  UNL     1     -31.716   7.656   3.823  1.00 20.00    -0.389 OA
HETATM    8  H16 UNL     1     -34.196   6.991   6.866  1.00 20.00     0.317 HD
ENDROOT
TORSDOF 0
ENDMDL
MODEL 7
REMARK VINA RESULT:      -3.4     16.648     17.216
REMARK  0 active torsions:
REMARK  status: ('A' for Active; 'I' for Inactive)
ROOT
HETATM    1  C1  UNL     1     -24.982  18.437  11.315  1.00 20.00     0.064 C 
HETATM    2  C2  UNL     1     -24.552  18.871   9.918  1.00 20.00     0.170 C 
HETATM    3  C3  UNL     1     -22.241  18.428  10.204  1.00 20.00     0.205 C 
HETATM    4  C4  UNL     1     -23.817  18.438  12.256  1.00 20.00     0.258 A 
HETATM    5  C5  UNL     1     -22.424  18.403  11.688  1.00 20.00     0.277 A 
HETATM    6  N6  UNL     1     -22.992  17.229  12.330  1.00 20.00     0.099 N 
HETATM    7  O7  UNL     1     -23.439  18.081   9.495  1.00 20.00    -0.389 OA
HETATM    8  H16 UNL     1     -22.612  17.127  13.271  1.00 20.00     0.317 HD
ENDROOT
TORSDOF 0
ENDMDL
MODEL 8
REMARK VINA RESULT:      -3.3     13.598     14.368
REMARK  0 active torsions:
REMARK  status: ('A' for Active; 'I' for Inactive)
ROOT
HETATM    1  C1  UNL     1     -34.704  14.392  -4.755  1.00 20.00     0.064 C 
HETATM    2  C2  UNL     1     -36.122  14.325  -5.311  1.00 20.00     0.170 C 
HETATM    3  C3  UNL     1     -35.645  15.383  -7.378  1.00 20.00     0.205 C 
HETATM    4  C4  UNL     1     -33.899  15.434  -5.469  1.00 20.00     0.258 A 
HETATM    5  C5  UNL     1     -34.365  15.914  -6.817  1.00 20.00     0.277 A 
HETATM    6  N6  UNL     1     -33.206  15.044  -6.700  1.00 20.00     0.099 N 
HETATM    7  O7  UNL     1     -36.071  14.176  -6.731  1.00 20.00    -0.389 OA
HETATM    8  H16 UNL     1     -32.349  15.587  -6.801  1.00 20.00     0.317 HD
ENDROOT
TORSDOF 0
ENDMDL
MODEL 9
REMARK VINA RESULT:      -3.2      1.710      2.228
REMARK  0 active torsions:
REMARK  status: ('A' for Active; 'I' for Inactive)
ROOT
HETATM    1  C1  UNL     1     -33.358   7.633   5.531  1.00 20.00     0.064 C 
HETATM    2  C2  UNL     1     -34.184   6.925   6.599  1.00 20.00     0.170 C 
HETATM    3  C3  UNL     1     -34.807   5.069   5.264  1.00 20.00     0.205 C 
HETATM    4  C4  UNL     1     -33.724   7.145   4.163  1.00 20.00     0.258 A 
HETATM    5  C5  UNL     1     -34.435   5.825   4.029  1.00 20.00     0.277 A 
HETATM    6  N6  UNL     1     -33.037   5.956   3.651  1.00 20.00     0.099 N 
HETATM    7  O7  UNL     1     -34.084   5.511   6.420  1.00 20.00    -0.389 OA
HETATM    8  H16 UNL     1     -32.953   6.016   2.636  1.00 20.00     0.317 HD
ENDROOT
TORSDOF 0
ENDMDL
