MODEL 1
REMARK VINA RESULT:      -5.3      0.000      0.000
REMARK  3 active torsions:
REMARK  status: ('A' for Active; 'I' for Inactive)
REMARK    1  A    between atoms: C2_2  and  C6_6 
REMARK    2  A    between atoms: C3_3  and  C6_6 
REMARK    3  A    between atoms: C3_3  and  C7_7 
ROOT
HETATM    1  C3  UNL     1     -34.405   6.132   4.753  1.00 20.00     0.240 C 
HETATM    2  O8  UNL     1     -35.470   6.233   4.144  1.00 20.00    -0.287 OA
ENDROOT
BRANCH   1   3
HETATM    3  C6  UNL     1     -33.054   6.137   4.042  1.00 20.00     0.088 C 
HETATM    4  C5  UNL     1     -33.166   5.218   2.825  1.00 20.00     0.023 C 
BRANCH   3   5
HETATM    5  C2  UNL     1     -32.655   7.578   3.780  1.00 20.00    -0.082 C 
HETATM    6  C1  UNL     1     -32.560   8.525   4.728  1.00 20.00     0.014 C 
HETATM    7  C4  UNL     1     -32.332   7.912   2.346  1.00 20.00     0.043 C 
ENDBRANCH   3   5
ENDBRANCH   1   3
BRANCH   1   8
HETATM    8  C7  UNL     1     -34.378   6.023   6.252  1.00 20.00     0.451 C 
HETATM    9  F9  UNL     1     -34.605   7.221   6.846  1.00 20.00    -0.163 F 
HETATM   10  F10 UNL     1     -33.182   5.576   6.711  1.00 20.00    -0.163 F 
HETATM   11  F11 UNL     1     -35.323   5.166   6.713  1.00 20.00    -0.163 F 
ENDBRANCH   1   8
TORSDOF 3
ENDMDL
MODEL 2
REMARK VINA RESULT:      -5.2      0.009      1.140
REMARK  3 active torsions:
REMARK  status: ('A' for Active; 'I' for Inactive)
REMARK    1  A    between atoms: C2_2  and  C6_6 
REMARK    2  A    between atoms: C3_3  and  C6_6 
REMARK    3  A    between atoms: C3_3  and  C7_7 
ROOT
HETATM    1  C3  UNL     1     -34.404   6.126   4.751  1.00 20.00     0.240 C 
HETATM    2  O8  UNL     1     -35.470   6.221   4.141  1.00 20.00    -0.287 OA
ENDROOT
BRANCH   1   3
HETATM    3  C6  UNL     1     -33.054   6.130   4.040  1.00 20.00     0.088 C 
HETATM    4  C5  UNL     1     -33.166   5.210   2.823  1.00 20.00     0.023 C 
BRANCH   3   5
HETATM    5  C2  UNL     1     -32.653   7.571   3.777  1.00 20.00    -0.082 C 
HETATM    6  C1  UNL     1     -32.558   8.518   4.724  1.00 20.00     0.014 C 
HETATM    7  C4  UNL     1     -32.330   7.903   2.343  1.00 20.00     0.043 C 
ENDBRANCH   3   5
ENDBRANCH   1   3
BRANCH   1   8
HETATM    8  C7  UNL     1     -34.378   6.028   6.250  1.00 20.00     0.451 C 
HETATM    9  F9  UNL     1     -35.319   5.168   6.714  1.00 20.00    -0.163 F 
HETATM   10  F10 UNL     1     -34.611   7.225   6.845  1.00 20.00    -0.163 F 
HETATM   11  F11 UNL     1     -33.178   5.588   6.707  1.00 20.00    -0.163 F 
ENDBRANCH   1   8
TORSDOF 3
ENDMDL
MODEL 3
REMARK VINA RESULT:      -4.8      1.642      2.418
REMARK  3 active torsions:
REMARK  status: ('A' for Active; 'I' for Inactive)
REMARK    1  A    between atoms: C2_2  and  C6_6 
REMARK    2  A    between atoms: C3_3  and  C6_6 
REMARK    3  A    between atoms: C3_3  and  C7_7 
ROOT
HETATM    1  C3  UNL     1     -33.866   6.569   5.645  1.00 20.00     0.240 C 
HETATM    2  O8  UNL     1     -33.184   6.704   6.661  1.00 20.00    -0.287 OA
ENDROOT
BRANCH   1   3
HETATM    3  C6  UNL     1     -33.784   7.541   4.472  1.00 20.00     0.088 C 
HETATM    4  C5  UNL     1     -33.581   8.945   5.044  1.00 20.00     0.023 C 
BRANCH   3   5
HETATM    5  C2  UNL     1     -32.730   7.036   3.503  1.00 20.00    -0.082 C 
HETATM    6  C1  UNL     1     -32.853   5.926   2.757  1.00 20.00     0.014 C 
HETATM    7  C4  UNL     1     -31.491   7.887   3.391  1.00 20.00     0.043 C 
ENDBRANCH   3   5
ENDBRANCH   1   3
BRANCH   1   8
HETATM    8  C7  UNL     1     -34.809   5.408   5.496  1.00 20.00     0.451 C 
HETATM    9  F9  UNL     1     -35.403   5.089   6.673  1.00 20.00    -0.163 F 
HETATM   10  F10 UNL     1     -34.178   4.290   5.056  1.00 20.00    -0.163 F 
HETATM   11  F11 UNL     1     -35.801   5.674   4.610  1.00 20.00    -0.163 F 
ENDBRANCH   1   8
TORSDOF 3
ENDMDL
MODEL 4
REMARK VINA RESULT:      -4.7      2.662      3.741
REMARK  3 active torsions:
REMARK  status: ('A' for Active; 'I' for Inactive)
REMARK    1  A    between atoms: C2_2  and  C6_6 
REMARK    2  A    between atoms: C3_3  and  C6_6 
REMARK    3  A    between atoms: C3_3  and  C7_7 
ROOT
HETATM    1  C3  UNL     1     -33.328   6.437   3.535  1.00 20.00     0.240 C 
HETATM    2  O8  UNL     1     -33.098   5.295   3.136  1.00 20.00    -0.287 OA
ENDROOT
BRANCH   1   3
HETATM    3  C6  UNL     1     -34.502   6.758   4.457  1.00 20.00     0.088 C 
HETATM    4  C5  UNL     1     -35.684   5.888   4.025  1.00 20.00     0.023 C 
BRANCH   3   5
HETATM    5  C2  UNL     1     -34.035   6.617   5.895  1.00 20.00    -0.082 C 
HETATM    6  C1  UNL     1     -33.419   7.585   6.592  1.00 20.00     0.014 C 
HETATM    7  C4  UNL     1     -34.327   5.288   6.544  1.00 20.00     0.043 C 
ENDBRANCH   3   5
ENDBRANCH   1   3
BRANCH   1   8
HETATM    8  C7  UNL     1     -32.438   7.585   3.151  1.00 20.00     0.451 C 
HETATM    9  F9  UNL     1     -33.044   8.781   3.355  1.00 20.00    -0.163 F 
HETATM   10  F10 UNL     1     -32.083   7.541   1.843  1.00 20.00    -0.163 F 
HETATM   11  F11 UNL     1     -31.288   7.595   3.871  1.00 20.00    -0.163 F 
ENDBRANCH   1   8
TORSDOF 3
ENDMDL
MODEL 5
REMARK VINA RESULT:      -4.6      2.722      3.845
REMARK  3 active torsions:
REMARK  status: ('A' for Active; 'I' for Inactive)
REMARK    1  A    between atoms: C2_2  and  C6_6 
REMARK    2  A    between atoms: C3_3  and  C6_6 
REMARK    3  A    between atoms: C3_3  and  C7_7 
ROOT
HETATM    1  C3  UNL     1     -33.446   8.090   5.146  1.00 20.00     0.240 C 
HETATM    2  O8  UNL     1     -34.245   8.853   5.690  1.00 20.00    -0.287 OA
ENDROOT
BRANCH   1   3
HETATM    3  C6  UNL     1     -33.464   6.583   5.386  1.00 20.00     0.088 C 
HETATM    4  C5  UNL     1     -34.102   6.338   6.754  1.00 20.00     0.023 C 
BRANCH   3   5
HETATM    5  C2  UNL     1     -34.120   5.914   4.192  1.00 20.00    -0.082 C 
HETATM    6  C1  UNL     1     -33.451   5.334   3.183  1.00 20.00     0.014 C 
HETATM    7  C4  UNL     1     -35.628   5.908   4.199  1.00 20.00     0.043 C 
ENDBRANCH   3   5
ENDBRANCH   1   3
BRANCH   1   8
HETATM    8  C7  UNL     1     -32.416   8.608   4.182  1.00 20.00     0.451 C 
HETATM    9  F9  UNL     1     -31.367   7.756   4.062  1.00 20.00    -0.163 F 
HETATM   10  F10 UNL     1     -31.908   9.805   4.571  1.00 20.00    -0.163 F 
HETATM   11  F11 UNL     1     -32.929   8.784   2.939  1.00 20.00    -0.163 F 
ENDBRANCH   1   8
TORSDOF 3
ENDMDL
MODEL 6
REMARK VINA RESULT:      -4.6      2.744      3.940
REMARK  3 active torsions:
REMARK  status: ('A' for Active; 'I' for Inactive)
REMARK    1  A    between atoms: C2_2  and  C6_6 
REMARK    2  A    between atoms: C3_3  and  C6_6 
REMARK    3  A    between atoms: C3_3  and  C7_7 
ROOT
HETATM    1  C3  UNL     1     -33.331   7.798   4.527  1.00 20.00     0.240 C 
HETATM    2  O8  UNL     1     -33.917   8.872   4.660  1.00 20.00    -0.287 OA
ENDROOT
BRANCH   1   3
HETATM    3  C6  UNL     1     -33.623   6.593   5.418  1.00 20.00     0.088 C 
HETATM    4  C5  UNL     1     -34.102   7.121   6.771  1.00 20.00     0.023 C 
BRANCH   3   5
HETATM    5  C2  UNL     1     -34.562   5.661   4.673  1.00 20.00    -0.082 C 
HETATM    6  C1  UNL     1     -35.777   6.010   4.218  1.00 20.00     0.014 C 
HETATM    7  C4  UNL     1     -34.039   4.268   4.434  1.00 20.00     0.043 C 
ENDBRANCH   3   5
ENDBRANCH   1   3
BRANCH   1   8
HETATM    8  C7  UNL     1     -32.301   7.606   3.449  1.00 20.00     0.451 C 
HETATM    9  F9  UNL     1     -32.460   8.497   2.439  1.00 20.00    -0.163 F 
HETATM   10  F10 UNL     1     -32.364   6.369   2.897  1.00 20.00    -0.163 F 
HETATM   11  F11 UNL     1     -31.039   7.763   3.922  1.00 20.00    -0.163 F 
ENDBRANCH   1   8
TORSDOF 3
ENDMDL
MODEL 7
REMARK VINA RESULT:      -4.5      0.896      1.847
REMARK  3 active torsions:
REMARK  status: ('A' for Active; 'I' for Inactive)
REMARK    1  A    between atoms: C2_2  and  C6_6 
REMARK    2  A    between atoms: C3_3  and  C6_6 
REMARK    3  A    between atoms: C3_3  and  C7_7 
ROOT
HETATM    1  C3  UNL     1     -34.681   6.388   4.959  1.00 20.00     0.240 C 
HETATM    2  O8  UNL     1     -35.647   5.768   4.513  1.00 20.00    -0.287 OA
ENDROOT
BRANCH   1   3
HETATM    3  C6  UNL     1     -33.946   7.450   4.145  1.00 20.00     0.088 C 
HETATM    4  C5  UNL     1     -33.502   8.551   5.109  1.00 20.00     0.023 C 
BRANCH   3   5
HETATM    5  C2  UNL     1     -32.859   6.766   3.335  1.00 20.00    -0.082 C 
HETATM    6  C1  UNL     1     -32.927   5.503   2.884  1.00 20.00     0.014 C 
HETATM    7  C4  UNL     1     -31.651   7.614   3.025  1.00 20.00     0.043 C 
ENDBRANCH   3   5
ENDBRANCH   1   3
BRANCH   1   8
HETATM    8  C7  UNL     1     -34.185   6.146   6.357  1.00 20.00     0.451 C 
HETATM    9  F9  UNL     1     -34.991   6.723   7.282  1.00 20.00    -0.163 F 
HETATM   10  F10 UNL     1     -32.940   6.647   6.552  1.00 20.00    -0.163 F 
HETATM   11  F11 UNL     1     -34.128   4.823   6.651  1.00 20.00    -0.163 F 
ENDBRANCH   1   8
TORSDOF 3
ENDMDL
MODEL 8
REMARK VINA RESULT:      -4.3      1.743      2.317
REMARK  3 active torsions:
REMARK  status: ('A' for Active; 'I' for Inactive)
REMARK    1  A    between atoms: C2_2  and  C6_6 
REMARK    2  A    between atoms: C3_3  and  C6_6 
REMARK    3  A    between atoms: C3_3  and  C7_7 
ROOT
HETATM    1  C3  UNL     1     -33.595   6.161   4.165  1.00 20.00     0.240 C 
HETATM    2  O8  UNL     1     -32.739   5.974   3.300  1.00 20.00    -0.287 OA
ENDROOT
BRANCH   1   3
HETATM    3  C6  UNL     1     -33.878   7.542   4.749  1.00 20.00     0.088 C 
HETATM    4  C5  UNL     1     -33.997   7.391   6.266  1.00 20.00     0.023 C 
BRANCH   3   5
HETATM    5  C2  UNL     1     -32.821   8.505   4.236  1.00 20.00    -0.082 C 
HETATM    6  C1  UNL     1     -31.904   9.109   5.009  1.00 20.00     0.014 C 
HETATM    7  C4  UNL     1     -32.833   8.748   2.749  1.00 20.00     0.043 C 
ENDBRANCH   3   5
ENDBRANCH   1   3
BRANCH   1   8
HETATM    8  C7  UNL     1     -34.436   5.026   4.678  1.00 20.00     0.451 C 
HETATM    9  F9  UNL     1     -35.761   5.282   4.544  1.00 20.00    -0.163 F 
HETATM   10  F10 UNL     1     -34.214   4.779   5.994  1.00 20.00    -0.163 F 
HETATM   11  F11 UNL     1     -34.185   3.870   4.014  1.00 20.00    -0.163 F 
ENDBRANCH   1   8
TORSDOF 3
ENDMDL
MODEL 9
REMARK VINA RESULT:      -4.2      2.833      3.625
REMARK  3 active torsions:
REMARK  status: ('A' for Active; 'I' for Inactive)
REMARK    1  A    between atoms: C2_2  and  C6_6 
REMARK    2  A    between atoms: C3_3  and  C6_6 
REMARK    3  A    between atoms: C3_3  and  C7_7 
ROOT
HETATM    1  C3  UNL     1     -33.904   5.211   3.818  1.00 20.00     0.240 C 
HETATM    2  O8  UNL     1     -34.036   4.154   4.436  1.00 20.00    -0.287 OA
ENDROOT
BRANCH   1   3
HETATM    3  C6  UNL     1     -34.660   6.480   4.203  1.00 20.00     0.088 C 
HETATM    4  C5  UNL     1     -36.149   6.138   4.251  1.00 20.00     0.023 C 
BRANCH   3   5
HETATM    5  C2  UNL     1     -34.042   7.041   5.471  1.00 20.00    -0.082 C 
HETATM    6  C1  UNL     1     -34.270   6.560   6.705  1.00 20.00     0.014 C 
HETATM    7  C4  UNL     1     -33.101   8.202   5.276  1.00 20.00     0.043 C 
ENDBRANCH   3   5
ENDBRANCH   1   3
BRANCH   1   8
HETATM    8  C7  UNL     1     -32.958   5.315   2.655  1.00 20.00     0.451 C 
HETATM    9  F9  UNL     1     -32.132   4.241   2.582  1.00 20.00    -0.163 F 
HETATM   10  F10 UNL     1     -32.168   6.414   2.735  1.00 20.00    -0.163 F 
HETATM   11  F11 UNL     1     -33.618   5.389   1.472  1.00 20.00    -0.163 F 
ENDBRANCH   1   8
TORSDOF 3
ENDMDL
