MODEL 1
REMARK VINA RESULT:      -4.0      0.000      0.000
REMARK  1 active torsions:
REMARK  status: ('A' for Active; 'I' for Inactive)
REMARK    1  A    between atoms: C6_6  and  O8_8 
ROOT
HETATM    1  C1  UNL     1     -32.915   5.079   2.348  1.00 20.00     0.015 C 
HETATM    2  C2  UNL     1     -33.551   5.424   3.306  1.00 20.00    -0.077 C 
HETATM    3  C3  UNL     1     -33.778   7.091   5.138  1.00 20.00     0.080 C 
HETATM    4  C4  UNL     1     -34.328   6.972   6.545  1.00 20.00     0.171 C 
HETATM    5  C5  UNL     1     -34.274   4.833   5.610  1.00 20.00     0.219 C 
HETATM    6  C6  UNL     1     -34.324   5.844   4.475  1.00 20.00     0.143 C 
HETATM    7  O7  UNL     1     -34.405   5.572   6.838  1.00 20.00    -0.387 OA
ENDROOT
BRANCH   6   8
HETATM    8  O8  UNL     1     -35.687   6.049   4.110  1.00 20.00    -0.375 OA
HETATM    9  H16 UNL     1     -36.044   6.726   4.709  1.00 20.00     0.211 HD
ENDBRANCH   6   8
TORSDOF 1
ENDMDL
MODEL 2
REMARK VINA RESULT:      -3.9     13.421     14.307
REMARK  1 active torsions:
REMARK  status: ('A' for Active; 'I' for Inactive)
REMARK    1  A    between atoms: C6_6  and  O8_8 
ROOT
HETATM    1  C1  UNL     1     -33.355  16.277  -3.029  1.00 20.00     0.015 C 
HETATM    2  C2  UNL     1     -33.766  15.857  -4.076  1.00 20.00    -0.077 C 
HETATM    3  C3  UNL     1     -34.852  16.423  -6.241  1.00 20.00     0.080 C 
HETATM    4  C4  UNL     1     -35.775  15.627  -7.142  1.00 20.00     0.171 C 
HETATM    5  C5  UNL     1     -35.444  14.397  -5.185  1.00 20.00     0.219 C 
HETATM    6  C6  UNL     1     -34.268  15.346  -5.352  1.00 20.00     0.143 C 
HETATM    7  O7  UNL     1     -36.259  14.526  -6.365  1.00 20.00    -0.387 OA
ENDROOT
BRANCH   6   8
HETATM    8  O8  UNL     1     -33.227  14.660  -6.046  1.00 20.00    -0.375 OA
HETATM    9  H16 UNL     1     -32.906  13.957  -5.456  1.00 20.00     0.211 HD
ENDBRANCH   6   8
TORSDOF 1
ENDMDL
MODEL 3
REMARK VINA RESULT:      -3.8      1.387      2.315
REMARK  1 active torsions:
REMARK  status: ('A' for Active; 'I' for Inactive)
REMARK    1  A    between atoms: C6_6  and  O8_8 
ROOT
HETATM    1  C1  UNL     1     -32.231   8.668   4.401  1.00 20.00     0.015 C 
HETATM    2  C2  UNL     1     -33.062   7.827   4.608  1.00 20.00    -0.077 C 
HETATM    3  C3  UNL     1     -34.078   6.305   6.292  1.00 20.00     0.080 C 
HETATM    4  C4  UNL     1     -34.725   4.942   6.155  1.00 20.00     0.171 C 
HETATM    5  C5  UNL     1     -33.821   5.520   4.081  1.00 20.00     0.219 C 
HETATM    6  C6  UNL     1     -34.073   6.801   4.862  1.00 20.00     0.143 C 
HETATM    7  O7  UNL     1     -34.352   4.438   4.868  1.00 20.00    -0.387 OA
ENDROOT
BRANCH   6   8
HETATM    8  O8  UNL     1     -35.366   7.295   4.518  1.00 20.00    -0.375 OA
HETATM    9  H16 UNL     1     -35.994   6.564   4.645  1.00 20.00     0.211 HD
ENDBRANCH   6   8
TORSDOF 1
ENDMDL
MODEL 4
REMARK VINA RESULT:      -3.8     16.384     17.198
REMARK  1 active torsions:
REMARK  status: ('A' for Active; 'I' for Inactive)
REMARK    1  A    between atoms: C6_6  and  O8_8 
ROOT
HETATM    1  C1  UNL     1     -24.029  19.263   7.908  1.00 20.00     0.015 C 
HETATM    2  C2  UNL     1     -23.644  18.577   8.815  1.00 20.00    -0.077 C 
HETATM    3  C3  UNL     1     -24.302  17.093  10.699  1.00 20.00     0.080 C 
HETATM    4  C4  UNL     1     -23.648  16.815  12.037  1.00 20.00     0.171 C 
HETATM    5  C5  UNL     1     -22.464  18.542  11.002  1.00 20.00     0.219 C 
HETATM    6  C6  UNL     1     -23.177  17.743   9.922  1.00 20.00     0.143 C 
HETATM    7  O7  UNL     1     -22.686  17.856  12.248  1.00 20.00    -0.387 OA
ENDROOT
BRANCH   6   8
HETATM    8  O8  UNL     1     -22.286  16.741   9.435  1.00 20.00    -0.375 OA
HETATM    9  H16 UNL     1     -22.416  16.688   8.474  1.00 20.00     0.211 HD
ENDBRANCH   6   8
TORSDOF 1
ENDMDL
MODEL 5
REMARK VINA RESULT:      -3.8     16.332     17.178
REMARK  1 active torsions:
REMARK  status: ('A' for Active; 'I' for Inactive)
REMARK    1  A    between atoms: C6_6  and  O8_8 
ROOT
HETATM    1  C1  UNL     1     -24.502  16.219  11.803  1.00 20.00     0.015 C 
HETATM    2  C2  UNL     1     -24.040  17.038  11.055  1.00 20.00    -0.077 C 
HETATM    3  C3  UNL     1     -24.522  18.713   9.281  1.00 20.00     0.080 C 
HETATM    4  C4  UNL     1     -23.699  19.200   8.106  1.00 20.00     0.171 C 
HETATM    5  C5  UNL     1     -22.553  17.425   9.102  1.00 20.00     0.219 C 
HETATM    6  C6  UNL     1     -23.479  18.035  10.143  1.00 20.00     0.143 C 
HETATM    7  O7  UNL     1     -22.640  18.253   7.927  1.00 20.00    -0.387 OA
ENDROOT
BRANCH   6   8
HETATM    8  O8  UNL     1     -22.751  19.015  10.880  1.00 20.00    -0.375 OA
HETATM    9  H16 UNL     1     -22.454  18.590  11.703  1.00 20.00     0.211 HD
ENDBRANCH   6   8
TORSDOF 1
ENDMDL
MODEL 6
REMARK VINA RESULT:      -3.7     16.302     17.439
REMARK  1 active torsions:
REMARK  status: ('A' for Active; 'I' for Inactive)
REMARK    1  A    between atoms: C6_6  and  O8_8 
ROOT
HETATM    1  C1  UNL     1     -26.420  17.693  12.222  1.00 20.00     0.015 C 
HETATM    2  C2  UNL     1     -25.245  17.555  12.016  1.00 20.00    -0.077 C 
HETATM    3  C3  UNL     1     -22.977  18.538  12.287  1.00 20.00     0.080 C 
HETATM    4  C4  UNL     1     -21.728  18.436  11.435  1.00 20.00     0.171 C 
HETATM    5  C5  UNL     1     -23.471  17.394  10.283  1.00 20.00     0.219 C 
HETATM    6  C6  UNL     1     -23.813  17.390  11.765  1.00 20.00     0.143 C 
HETATM    7  O7  UNL     1     -22.140  17.929  10.161  1.00 20.00    -0.387 OA
ENDROOT
BRANCH   6   8
HETATM    8  O8  UNL     1     -23.358  16.163  12.332  1.00 20.00    -0.375 OA
HETATM    9  H16 UNL     1     -22.578  16.372  12.873  1.00 20.00     0.211 HD
ENDBRANCH   6   8
TORSDOF 1
ENDMDL
MODEL 7
REMARK VINA RESULT:      -3.7     16.100     16.921
REMARK  1 active torsions:
REMARK  status: ('A' for Active; 'I' for Inactive)
REMARK    1  A    between atoms: C6_6  and  O8_8 
ROOT
HETATM    1  C1  UNL     1     -22.169  17.331   8.739  1.00 20.00     0.015 C 
HETATM    2  C2  UNL     1     -22.746  17.409   9.789  1.00 20.00    -0.077 C 
HETATM    3  C3  UNL     1     -24.356  16.320  11.341  1.00 20.00     0.080 C 
HETATM    4  C4  UNL     1     -25.345  16.898  12.332  1.00 20.00     0.171 C 
HETATM    5  C5  UNL     1     -24.425  18.669  11.120  1.00 20.00     0.219 C 
HETATM    6  C6  UNL     1     -23.450  17.502  11.068  1.00 20.00     0.143 C 
HETATM    7  O7  UNL     1     -25.494  18.284  12.003  1.00 20.00    -0.387 OA
ENDROOT
BRANCH   6   8
HETATM    8  O8  UNL     1     -22.512  17.647  12.132  1.00 20.00    -0.375 OA
HETATM    9  H16 UNL     1     -22.792  17.046  12.843  1.00 20.00     0.211 HD
ENDBRANCH   6   8
TORSDOF 1
ENDMDL
MODEL 8
REMARK VINA RESULT:      -3.6      9.352     10.247
REMARK  1 active torsions:
REMARK  status: ('A' for Active; 'I' for Inactive)
REMARK    1  A    between atoms: C6_6  and  O8_8 
ROOT
HETATM    1  C1  UNL     1     -39.141  11.677   4.518  1.00 20.00     0.015 C 
HETATM    2  C2  UNL     1     -39.959  12.219   5.209  1.00 20.00    -0.077 C 
HETATM    3  C3  UNL     1     -41.847  13.835   5.286  1.00 20.00     0.080 C 
HETATM    4  C4  UNL     1     -42.331  14.767   6.379  1.00 20.00     0.171 C 
HETATM    5  C5  UNL     1     -40.331  13.796   7.094  1.00 20.00     0.219 C 
HETATM    6  C6  UNL     1     -40.955  12.882   6.052  1.00 20.00     0.143 C 
HETATM    7  O7  UNL     1     -41.272  14.857   7.339  1.00 20.00    -0.387 OA
ENDROOT
BRANCH   6   8
HETATM    8  O8  UNL     1     -41.752  11.908   6.722  1.00 20.00    -0.375 OA
HETATM    9  H16 UNL     1     -41.179  11.143   6.898  1.00 20.00     0.211 HD
ENDBRANCH   6   8
TORSDOF 1
ENDMDL
MODEL 9
REMARK VINA RESULT:      -3.6      8.614     10.075
REMARK  1 active torsions:
REMARK  status: ('A' for Active; 'I' for Inactive)
REMARK    1  A    between atoms: C6_6  and  O8_8 
ROOT
HETATM    1  C1  UNL     1     -40.451  14.706   8.368  1.00 20.00     0.015 C 
HETATM    2  C2  UNL     1     -40.515  13.881   7.498  1.00 20.00    -0.077 C 
HETATM    3  C3  UNL     1     -39.275  12.177   6.178  1.00 20.00     0.080 C 
HETATM    4  C4  UNL     1     -39.452  11.681   4.757  1.00 20.00     0.171 C 
HETATM    5  C5  UNL     1     -40.908  13.478   5.077  1.00 20.00     0.219 C 
HETATM    6  C6  UNL     1     -40.592  12.876   6.438  1.00 20.00     0.143 C 
HETATM    7  O7  UNL     1     -40.287  12.634   4.090  1.00 20.00    -0.387 OA
ENDROOT
BRANCH   6   8
HETATM    8  O8  UNL     1     -41.596  11.912   6.751  1.00 20.00    -0.375 OA
HETATM    9  H16 UNL     1     -42.253  12.358   7.312  1.00 20.00     0.211 HD
ENDBRANCH   6   8
TORSDOF 1
ENDMDL
