MODEL 1
REMARK VINA RESULT:      -4.8      0.000      0.000
REMARK  3 active torsions:
REMARK  status: ('A' for Active; 'I' for Inactive)
REMARK    1  A    between atoms: C1_1  and  O7_7 
REMARK    2  A    between atoms: C4_4  and  C5_5 
REMARK    3  A    between atoms: C5_5  and  O7_7 
ROOT
HETATM    1  C5  UNL     1     -33.736   6.921   6.242  1.00 20.00     0.184 C 
ENDROOT
BRANCH   1   2
HETATM    2  C4  UNL     1     -34.709   5.835   5.943  1.00 20.00     0.010 A 
HETATM    3  C2  UNL     1     -35.386   5.772   4.601  1.00 20.00     0.007 A 
HETATM    4  C3  UNL     1     -34.352   4.745   4.970  1.00 20.00     0.007 A 
ENDBRANCH   1   2
BRANCH   1   5
HETATM    5  O7  UNL     1     -33.859   7.965   5.277  1.00 20.00    -0.308 OA
BRANCH   5   6
HETATM    6  C1  UNL     1     -32.701   8.348   4.646  1.00 20.00     0.357 C 
HETATM    7  O6  UNL     1     -32.033   9.316   5.000  1.00 20.00    -0.246 OA
HETATM    8 CL8  UNL     1     -32.298   7.313   3.300  1.00 20.00    -0.012 Cl
ENDBRANCH   5   6
ENDBRANCH   1   5
TORSDOF 3
ENDMDL
MODEL 2
REMARK VINA RESULT:      -4.8      2.198      3.513
REMARK  3 active torsions:
REMARK  status: ('A' for Active; 'I' for Inactive)
REMARK    1  A    between atoms: C1_1  and  O7_7 
REMARK    2  A    between atoms: C4_4  and  C5_5 
REMARK    3  A    between atoms: C5_5  and  O7_7 
ROOT
HETATM    1  C5  UNL     1     -33.531   6.974   6.085  1.00 20.00     0.184 C 
ENDROOT
BRANCH   1   2
HETATM    2  C4  UNL     1     -33.485   7.952   4.964  1.00 20.00     0.010 A 
HETATM    3  C2  UNL     1     -32.349   8.931   4.857  1.00 20.00     0.007 A 
HETATM    4  C3  UNL     1     -32.464   7.803   3.870  1.00 20.00     0.007 A 
ENDBRANCH   1   2
BRANCH   1   5
HETATM    5  O7  UNL     1     -34.765   6.258   6.057  1.00 20.00    -0.308 OA
BRANCH   5   6
HETATM    6  C1  UNL     1     -35.081   5.639   4.872  1.00 20.00     0.357 C 
HETATM    7  O6  UNL     1     -36.041   5.967   4.180  1.00 20.00    -0.246 OA
HETATM    8 CL8  UNL     1     -33.974   4.351   4.473  1.00 20.00    -0.012 Cl
ENDBRANCH   5   6
ENDBRANCH   1   5
TORSDOF 3
ENDMDL
MODEL 3
REMARK VINA RESULT:      -4.7      2.070      3.612
REMARK  3 active torsions:
REMARK  status: ('A' for Active; 'I' for Inactive)
REMARK    1  A    between atoms: C1_1  and  O7_7 
REMARK    2  A    between atoms: C4_4  and  C5_5 
REMARK    3  A    between atoms: C5_5  and  O7_7 
ROOT
HETATM    1  C5  UNL     1     -33.903   6.974   5.382  1.00 20.00     0.184 C 
ENDROOT
BRANCH   1   2
HETATM    2  C4  UNL     1     -33.582   8.310   4.808  1.00 20.00     0.010 A 
HETATM    3  C2  UNL     1     -32.221   8.915   5.010  1.00 20.00     0.007 A 
HETATM    4  C3  UNL     1     -32.631   8.427   3.649  1.00 20.00     0.007 A 
ENDBRANCH   1   2
BRANCH   1   5
HETATM    5  O7  UNL     1     -34.604   6.186   4.420  1.00 20.00    -0.308 OA
BRANCH   5   6
HETATM    6  C1  UNL     1     -34.004   5.007   4.048  1.00 20.00     0.357 C 
HETATM    7  O6  UNL     1     -34.159   3.955   4.661  1.00 20.00    -0.246 OA
HETATM    8 CL8  UNL     1     -33.011   5.181   2.625  1.00 20.00    -0.012 Cl
ENDBRANCH   5   6
ENDBRANCH   1   5
TORSDOF 3
ENDMDL
MODEL 4
REMARK VINA RESULT:      -4.6      2.047      3.629
REMARK  3 active torsions:
REMARK  status: ('A' for Active; 'I' for Inactive)
REMARK    1  A    between atoms: C1_1  and  O7_7 
REMARK    2  A    between atoms: C4_4  and  C5_5 
REMARK    3  A    between atoms: C5_5  and  O7_7 
ROOT
HETATM    1  C5  UNL     1     -33.726   8.083   5.175  1.00 20.00     0.184 C 
ENDROOT
BRANCH   1   2
HETATM    2  C4  UNL     1     -32.454   8.180   4.408  1.00 20.00     0.010 A 
HETATM    3  C2  UNL     1     -32.245   7.345   3.176  1.00 20.00     0.007 A 
HETATM    4  C3  UNL     1     -32.434   8.831   3.053  1.00 20.00     0.007 A 
ENDBRANCH   1   2
BRANCH   1   5
HETATM    5  O7  UNL     1     -33.608   7.088   6.191  1.00 20.00    -0.308 OA
BRANCH   5   6
HETATM    6  C1  UNL     1     -34.331   5.936   5.999  1.00 20.00     0.357 C 
HETATM    7  O6  UNL     1     -34.262   4.969   6.752  1.00 20.00    -0.246 OA
HETATM    8 CL8  UNL     1     -35.340   6.007   4.578  1.00 20.00    -0.012 Cl
ENDBRANCH   5   6
ENDBRANCH   1   5
TORSDOF 3
ENDMDL
MODEL 5
REMARK VINA RESULT:      -4.5      1.566      1.667
REMARK  3 active torsions:
REMARK  status: ('A' for Active; 'I' for Inactive)
REMARK    1  A    between atoms: C1_1  and  O7_7 
REMARK    2  A    between atoms: C4_4  and  C5_5 
REMARK    3  A    between atoms: C5_5  and  O7_7 
ROOT
HETATM    1  C5  UNL     1     -33.278   7.406   5.471  1.00 20.00     0.184 C 
ENDROOT
BRANCH   1   2
HETATM    2  C4  UNL     1     -34.523   6.593   5.412  1.00 20.00     0.010 A 
HETATM    3  C2  UNL     1     -34.511   5.233   4.772  1.00 20.00     0.007 A 
HETATM    4  C3  UNL     1     -34.664   5.361   6.262  1.00 20.00     0.007 A 
ENDBRANCH   1   2
BRANCH   1   5
HETATM    5  O7  UNL     1     -33.319   8.434   4.481  1.00 20.00    -0.308 OA
BRANCH   5   6
HETATM    6  C1  UNL     1     -32.623   8.190   3.323  1.00 20.00     0.357 C 
HETATM    7  O6  UNL     1     -31.927   7.192   3.157  1.00 20.00    -0.246 OA
HETATM    8 CL8  UNL     1     -32.839   9.447   2.133  1.00 20.00    -0.012 Cl
ENDBRANCH   5   6
ENDBRANCH   1   5
TORSDOF 3
ENDMDL
MODEL 6
REMARK VINA RESULT:      -4.5      2.425      3.874
REMARK  3 active torsions:
REMARK  status: ('A' for Active; 'I' for Inactive)
REMARK    1  A    between atoms: C1_1  and  O7_7 
REMARK    2  A    between atoms: C4_4  and  C5_5 
REMARK    3  A    between atoms: C5_5  and  O7_7 
ROOT
HETATM    1  C5  UNL     1     -34.295   7.426   5.079  1.00 20.00     0.184 C 
ENDROOT
BRANCH   1   2
HETATM    2  C4  UNL     1     -33.430   8.339   4.282  1.00 20.00     0.010 A 
HETATM    3  C2  UNL     1     -32.084   8.758   4.805  1.00 20.00     0.007 A 
HETATM    4  C3  UNL     1     -32.177   7.821   3.634  1.00 20.00     0.007 A 
ENDBRANCH   1   2
BRANCH   1   5
HETATM    5  O7  UNL     1     -34.591   6.251   4.323  1.00 20.00    -0.308 OA
BRANCH   5   6
HETATM    6  C1  UNL     1     -34.363   5.052   4.951  1.00 20.00     0.357 C 
HETATM    7  O6  UNL     1     -34.175   4.002   4.343  1.00 20.00    -0.246 OA
HETATM    8 CL8  UNL     1     -34.373   5.194   6.690  1.00 20.00    -0.012 Cl
ENDBRANCH   5   6
ENDBRANCH   1   5
TORSDOF 3
ENDMDL
MODEL 7
REMARK VINA RESULT:      -4.4      1.916      2.177
REMARK  3 active torsions:
REMARK  status: ('A' for Active; 'I' for Inactive)
REMARK    1  A    between atoms: C1_1  and  O7_7 
REMARK    2  A    between atoms: C4_4  and  C5_5 
REMARK    3  A    between atoms: C5_5  and  O7_7 
ROOT
HETATM    1  C5  UNL     1     -33.559   7.639   4.675  1.00 20.00     0.184 C 
ENDROOT
BRANCH   1   2
HETATM    2  C4  UNL     1     -33.590   6.558   5.698  1.00 20.00     0.010 A 
HETATM    3  C2  UNL     1     -34.699   6.504   6.712  1.00 20.00     0.007 A 
HETATM    4  C3  UNL     1     -34.627   5.472   5.621  1.00 20.00     0.007 A 
ENDBRANCH   1   2
BRANCH   1   5
HETATM    5  O7  UNL     1     -32.312   7.617   3.980  1.00 20.00    -0.308 OA
BRANCH   5   6
HETATM    6  C1  UNL     1     -32.346   7.157   2.687  1.00 20.00     0.357 C 
HETATM    7  O6  UNL     1     -32.092   7.865   1.717  1.00 20.00    -0.246 OA
HETATM    8 CL8  UNL     1     -32.787   5.472   2.588  1.00 20.00    -0.012 Cl
ENDBRANCH   5   6
ENDBRANCH   1   5
TORSDOF 3
ENDMDL
MODEL 8
REMARK VINA RESULT:      -4.0      9.169      9.516
REMARK  3 active torsions:
REMARK  status: ('A' for Active; 'I' for Inactive)
REMARK    1  A    between atoms: C1_1  and  O7_7 
REMARK    2  A    between atoms: C4_4  and  C5_5 
REMARK    3  A    between atoms: C5_5  and  O7_7 
ROOT
HETATM    1  C5  UNL     1     -40.771  13.096   6.085  1.00 20.00     0.184 C 
ENDROOT
BRANCH   1   2
HETATM    2  C4  UNL     1     -39.914  11.913   5.796  1.00 20.00     0.010 A 
HETATM    3  C2  UNL     1     -39.328  11.718   4.425  1.00 20.00     0.007 A 
HETATM    4  C3  UNL     1     -38.436  12.083   5.580  1.00 20.00     0.007 A 
ENDBRANCH   1   2
BRANCH   1   5
HETATM    5  O7  UNL     1     -41.178  13.081   7.453  1.00 20.00    -0.308 OA
BRANCH   5   6
HETATM    6  C1  UNL     1     -40.617  14.036   8.264  1.00 20.00     0.357 C 
HETATM    7  O6  UNL     1     -40.372  13.846   9.452  1.00 20.00    -0.246 OA
HETATM    8 CL8  UNL     1     -40.299  15.529   7.420  1.00 20.00    -0.012 Cl
ENDBRANCH   5   6
ENDBRANCH   1   5
TORSDOF 3
ENDMDL
MODEL 9
REMARK VINA RESULT:      -4.0     12.265     12.800
REMARK  3 active torsions:
REMARK  status: ('A' for Active; 'I' for Inactive)
REMARK    1  A    between atoms: C1_1  and  O7_7 
REMARK    2  A    between atoms: C4_4  and  C5_5 
REMARK    3  A    between atoms: C5_5  and  O7_7 
ROOT
HETATM    1  C5  UNL     1     -33.465  16.764  -3.454  1.00 20.00     0.184 C 
ENDROOT
BRANCH   1   2
HETATM    2  C4  UNL     1     -33.372  16.877  -1.972  1.00 20.00     0.010 A 
HETATM    3  C2  UNL     1     -32.564  17.980  -1.345  1.00 20.00     0.007 A 
HETATM    4  C3  UNL     1     -34.064  18.002  -1.254  1.00 20.00     0.007 A 
ENDBRANCH   1   2
BRANCH   1   5
HETATM    5  O7  UNL     1     -32.925  15.513  -3.882  1.00 20.00    -0.308 OA
BRANCH   5   6
HETATM    6  C1  UNL     1     -33.790  14.672  -4.538  1.00 20.00     0.357 C 
HETATM    7  O6  UNL     1     -34.407  13.773  -3.975  1.00 20.00    -0.246 OA
HETATM    8 CL8  UNL     1     -33.904  15.027  -6.243  1.00 20.00    -0.012 Cl
ENDBRANCH   5   6
ENDBRANCH   1   5
TORSDOF 3
ENDMDL
