MODEL 1
REMARK VINA RESULT:      -4.5      0.000      0.000
REMARK  4 active torsions:
REMARK  status: ('A' for Active; 'I' for Inactive)
REMARK    1  A    between atoms: C1_1  and  C8_8 
REMARK    2  A    between atoms: C1_1  and  C9_9 
REMARK    3  A    between atoms: C6_6  and  C8_8 
REMARK    4  A    between atoms: C7_7  and  C9_9 
ROOT
HETATM    1  C1  UNL     1     -33.960   4.811   3.943  1.00 20.00     0.127 C 
HETATM    2  O10 UNL     1     -33.859   3.632   4.278  1.00 20.00    -0.298 OA
ENDROOT
BRANCH   1   3
HETATM    3  C8  UNL     1     -33.014   5.454   2.942  1.00 20.00     0.082 C 
BRANCH   3   4
HETATM    4  C6  UNL     1     -33.062   6.970   2.980  1.00 20.00    -0.008 A 
HETATM    5  C2  UNL     1     -31.960   7.747   3.642  1.00 20.00     0.005 A 
HETATM    6  C3  UNL     1     -32.106   7.778   2.146  1.00 20.00     0.005 A 
ENDBRANCH   3   4
ENDBRANCH   1   3
BRANCH   1   7
HETATM    7  C9  UNL     1     -35.040   5.723   4.503  1.00 20.00     0.082 C 
BRANCH   7   8
HETATM    8  C7  UNL     1     -34.902   5.946   5.998  1.00 20.00    -0.008 A 
HETATM    9  C4  UNL     1     -33.557   5.834   6.660  1.00 20.00     0.005 A 
HETATM   10  C5  UNL     1     -34.216   7.178   6.518  1.00 20.00     0.005 A 
ENDBRANCH   7   8
ENDBRANCH   1   7
TORSDOF 4
ENDMDL
MODEL 2
REMARK VINA RESULT:      -4.4      2.296      2.946
REMARK  4 active torsions:
REMARK  status: ('A' for Active; 'I' for Inactive)
REMARK    1  A    between atoms: C1_1  and  C8_8 
REMARK    2  A    between atoms: C1_1  and  C9_9 
REMARK    3  A    between atoms: C6_6  and  C8_8 
REMARK    4  A    between atoms: C7_7  and  C9_9 
ROOT
HETATM    1  C1  UNL     1     -32.580   8.409   4.562  1.00 20.00     0.127 C 
HETATM    2  O10 UNL     1     -32.011   9.407   5.002  1.00 20.00    -0.298 OA
ENDROOT
BRANCH   1   3
HETATM    3  C8  UNL     1     -32.052   7.637   3.364  1.00 20.00     0.082 C 
BRANCH   3   4
HETATM    4  C6  UNL     1     -32.767   7.995   2.074  1.00 20.00    -0.008 A 
HETATM    5  C2  UNL     1     -32.816   9.422   1.606  1.00 20.00     0.005 A 
HETATM    6  C3  UNL     1     -31.979   8.416   0.865  1.00 20.00     0.005 A 
ENDBRANCH   3   4
ENDBRANCH   1   3
BRANCH   1   7
HETATM    7  C9  UNL     1     -33.857   7.866   5.180  1.00 20.00     0.082 C 
BRANCH   7   8
HETATM    8  C7  UNL     1     -33.943   6.351   5.115  1.00 20.00    -0.008 A 
HETATM    9  C4  UNL     1     -34.767   5.596   6.120  1.00 20.00     0.005 A 
HETATM   10  C5  UNL     1     -35.221   5.684   4.690  1.00 20.00     0.005 A 
ENDBRANCH   7   8
ENDBRANCH   1   7
TORSDOF 4
ENDMDL
MODEL 3
REMARK VINA RESULT:      -4.4      2.299      4.737
REMARK  4 active torsions:
REMARK  status: ('A' for Active; 'I' for Inactive)
REMARK    1  A    between atoms: C1_1  and  C8_8 
REMARK    2  A    between atoms: C1_1  and  C9_9 
REMARK    3  A    between atoms: C6_6  and  C8_8 
REMARK    4  A    between atoms: C7_7  and  C9_9 
ROOT
HETATM    1  C1  UNL     1     -32.576   8.414   4.562  1.00 20.00     0.127 C 
HETATM    2  O10 UNL     1     -32.009   9.414   5.002  1.00 20.00    -0.298 OA
ENDROOT
BRANCH   1   3
HETATM    3  C8  UNL     1     -33.852   7.868   5.180  1.00 20.00     0.082 C 
BRANCH   3   4
HETATM    4  C6  UNL     1     -33.939   6.355   5.104  1.00 20.00    -0.008 A 
HETATM    5  C2  UNL     1     -34.760   5.591   6.105  1.00 20.00     0.005 A 
HETATM    6  C3  UNL     1     -35.220   5.691   4.677  1.00 20.00     0.005 A 
ENDBRANCH   3   4
ENDBRANCH   1   3
BRANCH   1   7
HETATM    7  C9  UNL     1     -32.046   7.644   3.364  1.00 20.00     0.082 C 
BRANCH   7   8
HETATM    8  C7  UNL     1     -32.770   7.993   2.075  1.00 20.00    -0.008 A 
HETATM    9  C4  UNL     1     -32.826   9.418   1.600  1.00 20.00     0.005 A 
HETATM   10  C5  UNL     1     -31.990   8.410   0.860  1.00 20.00     0.005 A 
ENDBRANCH   7   8
ENDBRANCH   1   7
TORSDOF 4
ENDMDL
MODEL 4
REMARK VINA RESULT:      -4.4      0.043      3.451
REMARK  4 active torsions:
REMARK  status: ('A' for Active; 'I' for Inactive)
REMARK    1  A    between atoms: C1_1  and  C8_8 
REMARK    2  A    between atoms: C1_1  and  C9_9 
REMARK    3  A    between atoms: C6_6  and  C8_8 
REMARK    4  A    between atoms: C7_7  and  C9_9 
ROOT
HETATM    1  C1  UNL     1     -33.945   4.815   3.921  1.00 20.00     0.127 C 
HETATM    2  O10 UNL     1     -33.884   3.622   4.215  1.00 20.00    -0.298 OA
ENDROOT
BRANCH   1   3
HETATM    3  C8  UNL     1     -35.021   5.734   4.476  1.00 20.00     0.082 C 
BRANCH   3   4
HETATM    4  C6  UNL     1     -34.899   5.943   5.973  1.00 20.00    -0.008 A 
HETATM    5  C2  UNL     1     -33.559   5.840   6.646  1.00 20.00     0.005 A 
HETATM    6  C3  UNL     1     -34.231   7.178   6.512  1.00 20.00     0.005 A 
ENDBRANCH   3   4
ENDBRANCH   1   3
BRANCH   1   7
HETATM    7  C9  UNL     1     -32.948   5.469   2.979  1.00 20.00     0.082 C 
BRANCH   7   8
HETATM    8  C7  UNL     1     -33.034   6.984   2.992  1.00 20.00    -0.008 A 
HETATM    9  C4  UNL     1     -31.942   7.799   3.627  1.00 20.00     0.005 A 
HETATM   10  C5  UNL     1     -32.110   7.802   2.133  1.00 20.00     0.005 A 
ENDBRANCH   7   8
ENDBRANCH   1   7
TORSDOF 4
ENDMDL
MODEL 5
REMARK VINA RESULT:      -4.3      1.987      2.892
REMARK  4 active torsions:
REMARK  status: ('A' for Active; 'I' for Inactive)
REMARK    1  A    between atoms: C1_1  and  C8_8 
REMARK    2  A    between atoms: C1_1  and  C9_9 
REMARK    3  A    between atoms: C6_6  and  C8_8 
REMARK    4  A    between atoms: C7_7  and  C9_9 
ROOT
HETATM    1  C1  UNL     1     -33.393   8.114   5.596  1.00 20.00     0.127 C 
HETATM    2  O10 UNL     1     -34.189   9.013   5.859  1.00 20.00    -0.298 OA
ENDROOT
BRANCH   1   3
HETATM    3  C8  UNL     1     -32.348   8.250   4.501  1.00 20.00     0.082 C 
BRANCH   3   4
HETATM    4  C6  UNL     1     -32.852   7.786   3.147  1.00 20.00    -0.008 A 
HETATM    5  C2  UNL     1     -31.946   7.820   1.949  1.00 20.00     0.005 A 
HETATM    6  C3  UNL     1     -32.345   6.501   2.551  1.00 20.00     0.005 A 
ENDBRANCH   3   4
ENDBRANCH   1   3
BRANCH   1   7
HETATM    7  C9  UNL     1     -33.389   6.790   6.343  1.00 20.00     0.082 C 
BRANCH   7   8
HETATM    8  C7  UNL     1     -34.622   5.952   6.058  1.00 20.00    -0.008 A 
HETATM    9  C4  UNL     1     -35.290   6.019   4.713  1.00 20.00     0.005 A 
HETATM   10  C5  UNL     1     -34.540   4.781   5.119  1.00 20.00     0.005 A 
ENDBRANCH   7   8
ENDBRANCH   1   7
TORSDOF 4
ENDMDL
MODEL 6
REMARK VINA RESULT:      -4.0      1.483      2.823
REMARK  4 active torsions:
REMARK  status: ('A' for Active; 'I' for Inactive)
REMARK    1  A    between atoms: C1_1  and  C8_8 
REMARK    2  A    between atoms: C1_1  and  C9_9 
REMARK    3  A    between atoms: C6_6  and  C8_8 
REMARK    4  A    between atoms: C7_7  and  C9_9 
ROOT
HETATM    1  C1  UNL     1     -34.518   6.163   6.022  1.00 20.00     0.127 C 
HETATM    2  O10 UNL     1     -34.821   5.374   6.916  1.00 20.00    -0.298 OA
ENDROOT
BRANCH   1   3
HETATM    3  C8  UNL     1     -33.477   7.252   6.220  1.00 20.00     0.082 C 
BRANCH   3   4
HETATM    4  C6  UNL     1     -33.353   8.170   5.017  1.00 20.00    -0.008 A 
HETATM    5  C2  UNL     1     -32.287   9.228   4.979  1.00 20.00     0.005 A 
HETATM    6  C3  UNL     1     -32.188   8.030   4.076  1.00 20.00     0.005 A 
ENDBRANCH   3   4
ENDBRANCH   1   3
BRANCH   1   7
HETATM    7  C9  UNL     1     -35.162   6.114   4.646  1.00 20.00     0.082 C 
BRANCH   7   8
HETATM    8  C7  UNL     1     -34.679   4.939   3.814  1.00 20.00    -0.008 A 
HETATM    9  C4  UNL     1     -33.383   5.029   3.057  1.00 20.00     0.005 A 
HETATM   10  C5  UNL     1     -33.491   4.134   4.261  1.00 20.00     0.005 A 
ENDBRANCH   7   8
ENDBRANCH   1   7
TORSDOF 4
ENDMDL
MODEL 7
REMARK VINA RESULT:      -3.9      2.032      2.898
REMARK  4 active torsions:
REMARK  status: ('A' for Active; 'I' for Inactive)
REMARK    1  A    between atoms: C1_1  and  C8_8 
REMARK    2  A    between atoms: C1_1  and  C9_9 
REMARK    3  A    between atoms: C6_6  and  C8_8 
REMARK    4  A    between atoms: C7_7  and  C9_9 
ROOT
HETATM    1  C1  UNL     1     -32.726   8.148   4.407  1.00 20.00     0.127 C 
HETATM    2  O10 UNL     1     -32.025   9.028   4.905  1.00 20.00    -0.298 OA
ENDROOT
BRANCH   1   3
HETATM    3  C8  UNL     1     -32.212   7.221   3.318  1.00 20.00     0.082 C 
BRANCH   3   4
HETATM    4  C6  UNL     1     -33.242   6.195   2.886  1.00 20.00    -0.008 A 
HETATM    5  C2  UNL     1     -32.864   5.094   1.936  1.00 20.00     0.005 A 
HETATM    6  C3  UNL     1     -33.149   4.777   3.377  1.00 20.00     0.005 A 
ENDBRANCH   3   4
ENDBRANCH   1   3
BRANCH   1   7
HETATM    7  C9  UNL     1     -34.164   7.916   4.839  1.00 20.00     0.082 C 
BRANCH   7   8
HETATM    8  C7  UNL     1     -34.269   7.295   6.220  1.00 20.00    -0.008 A 
HETATM    9  C4  UNL     1     -34.790   5.894   6.383  1.00 20.00     0.005 A 
HETATM   10  C5  UNL     1     -33.335   6.189   6.625  1.00 20.00     0.005 A 
ENDBRANCH   7   8
ENDBRANCH   1   7
TORSDOF 4
ENDMDL
MODEL 8
REMARK VINA RESULT:      -3.8      9.512     10.952
REMARK  4 active torsions:
REMARK  status: ('A' for Active; 'I' for Inactive)
REMARK    1  A    between atoms: C1_1  and  C8_8 
REMARK    2  A    between atoms: C1_1  and  C9_9 
REMARK    3  A    between atoms: C6_6  and  C8_8 
REMARK    4  A    between atoms: C7_7  and  C9_9 
ROOT
HETATM    1  C1  UNL     1     -41.936  12.790   6.866  1.00 20.00     0.127 C 
HETATM    2  O10 UNL     1     -42.630  11.790   7.044  1.00 20.00    -0.298 OA
ENDROOT
BRANCH   1   3
HETATM    3  C8  UNL     1     -41.932  13.958   7.838  1.00 20.00     0.082 C 
BRANCH   3   4
HETATM    4  C6  UNL     1     -40.567  14.609   7.968  1.00 20.00    -0.008 A 
HETATM    5  C2  UNL     1     -40.450  16.098   8.126  1.00 20.00     0.005 A 
HETATM    6  C3  UNL     1     -40.130  15.193   9.283  1.00 20.00     0.005 A 
ENDBRANCH   3   4
ENDBRANCH   1   3
BRANCH   1   7
HETATM    7  C9  UNL     1     -41.024  12.939   5.659  1.00 20.00     0.082 C 
BRANCH   7   8
HETATM    8  C7  UNL     1     -40.007  11.818   5.549  1.00 20.00    -0.008 A 
HETATM    9  C4  UNL     1     -39.141  11.698   4.327  1.00 20.00     0.005 A 
HETATM   10  C5  UNL     1     -38.537  12.120   5.638  1.00 20.00     0.005 A 
ENDBRANCH   7   8
ENDBRANCH   1   7
TORSDOF 4
ENDMDL
MODEL 9
REMARK VINA RESULT:      -3.8      9.517     10.636
REMARK  4 active torsions:
REMARK  status: ('A' for Active; 'I' for Inactive)
REMARK    1  A    between atoms: C1_1  and  C8_8 
REMARK    2  A    between atoms: C1_1  and  C9_9 
REMARK    3  A    between atoms: C6_6  and  C8_8 
REMARK    4  A    between atoms: C7_7  and  C9_9 
ROOT
HETATM    1  C1  UNL     1     -41.838  12.873   6.812  1.00 20.00     0.127 C 
HETATM    2  O10 UNL     1     -42.509  11.858   6.990  1.00 20.00    -0.298 OA
ENDROOT
BRANCH   1   3
HETATM    3  C8  UNL     1     -40.893  13.024   5.632  1.00 20.00     0.082 C 
BRANCH   3   4
HETATM    4  C6  UNL     1     -39.938  11.853   5.491  1.00 20.00    -0.008 A 
HETATM    5  C2  UNL     1     -39.128  11.681   4.237  1.00 20.00     0.005 A 
HETATM    6  C3  UNL     1     -38.452  12.081   5.520  1.00 20.00     0.005 A 
ENDBRANCH   3   4
ENDBRANCH   1   3
BRANCH   1   7
HETATM    7  C9  UNL     1     -41.898  14.060   7.759  1.00 20.00     0.082 C 
BRANCH   7   8
HETATM    8  C7  UNL     1     -40.546  14.721   7.958  1.00 20.00    -0.008 A 
HETATM    9  C4  UNL     1     -40.457  16.196   8.233  1.00 20.00     0.005 A 
HETATM   10  C5  UNL     1     -40.135  15.208   9.319  1.00 20.00     0.005 A 
ENDBRANCH   7   8
ENDBRANCH   1   7
TORSDOF 4
ENDMDL
