MODEL 1
REMARK VINA RESULT:      -3.2      0.000      0.000
REMARK  2 active torsions:
REMARK  status: ('A' for Active; 'I' for Inactive)
REMARK    1  A    between atoms: C1_1  and  C7_7 
REMARK    2  A    between atoms: C7_7  and  N8_8 
ROOT
HETATM    1  C1  UNL     1     -33.507  17.003  -2.666  1.00 20.00    -0.053 C 
HETATM    2  C2  UNL     1     -33.580  16.012  -3.340  1.00 20.00    -0.021 C 
HETATM    3 BR9  UNL     1     -33.694  14.446  -4.409  1.00 20.00     0.010 Br
ENDROOT
BRANCH   1   4
HETATM    4  C7  UNL     1     -33.419  18.222  -1.836  1.00 20.00     0.214 C 
HETATM    5  C3  UNL     1     -34.822  18.795  -1.603  1.00 20.00     0.063 C 
HETATM    6  C4  UNL     1     -32.536  19.263  -2.534  1.00 20.00     0.063 C 
BRANCH   4   7
HETATM    7  N8  UNL     1     -32.824  17.906  -0.535  1.00 20.00     0.100 N 
HETATM    8  C5  UNL     1     -33.713  18.326   0.546  1.00 20.00     0.311 C 
HETATM    9  C6  UNL     1     -31.517  18.547  -0.404  1.00 20.00     0.311 C 
ENDBRANCH   4   7
ENDBRANCH   1   4
TORSDOF 2
ENDMDL
MODEL 2
REMARK VINA RESULT:      -3.0     11.498     12.645
REMARK  2 active torsions:
REMARK  status: ('A' for Active; 'I' for Inactive)
REMARK    1  A    between atoms: C1_1  and  C7_7 
REMARK    2  A    between atoms: C7_7  and  N8_8 
ROOT
HETATM    1  C1  UNL     1     -41.001  12.896   6.031  1.00 20.00    -0.053 C 
HETATM    2  C2  UNL     1     -40.197  12.412   5.281  1.00 20.00    -0.021 C 
HETATM    3 BR9  UNL     1     -38.925  11.643   4.098  1.00 20.00     0.010 Br
ENDROOT
BRANCH   1   4
HETATM    4  C7  UNL     1     -41.989  13.494   6.952  1.00 20.00     0.214 C 
HETATM    5  C3  UNL     1     -43.027  12.441   7.356  1.00 20.00     0.063 C 
HETATM    6  C4  UNL     1     -42.682  14.680   6.270  1.00 20.00     0.063 C 
BRANCH   4   7
HETATM    7  N8  UNL     1     -41.323  13.980   8.163  1.00 20.00     0.100 N 
HETATM    8  C5  UNL     1     -42.308  14.279   9.199  1.00 20.00     0.311 C 
HETATM    9  C6  UNL     1     -40.519  15.162   7.862  1.00 20.00     0.311 C 
ENDBRANCH   4   7
ENDBRANCH   1   4
TORSDOF 2
ENDMDL
MODEL 3
REMARK VINA RESULT:      -3.0      3.158      4.951
REMARK  2 active torsions:
REMARK  status: ('A' for Active; 'I' for Inactive)
REMARK    1  A    between atoms: C1_1  and  C7_7 
REMARK    2  A    between atoms: C7_7  and  N8_8 
ROOT
HETATM    1  C1  UNL     1     -33.602  16.169  -3.042  1.00 20.00    -0.053 C 
HETATM    2  C2  UNL     1     -33.543  16.882  -2.078  1.00 20.00    -0.021 C 
HETATM    3 BR9  UNL     1     -33.452  18.013  -0.553  1.00 20.00     0.010 Br
ENDROOT
BRANCH   1   4
HETATM    4  C7  UNL     1     -33.672  15.291  -4.228  1.00 20.00     0.214 C 
HETATM    5  C3  UNL     1     -34.703  14.181  -3.993  1.00 20.00     0.063 C 
HETATM    6  C4  UNL     1     -32.294  14.677  -4.501  1.00 20.00     0.063 C 
BRANCH   4   7
HETATM    7  N8  UNL     1     -34.078  16.062  -5.405  1.00 20.00     0.100 N 
HETATM    8  C5  UNL     1     -35.411  16.626  -5.208  1.00 20.00     0.311 C 
HETATM    9  C6  UNL     1     -34.047  15.222  -6.600  1.00 20.00     0.311 C 
ENDBRANCH   4   7
ENDBRANCH   1   4
TORSDOF 2
ENDMDL
MODEL 4
REMARK VINA RESULT:      -2.9     11.533     12.791
REMARK  2 active torsions:
REMARK  status: ('A' for Active; 'I' for Inactive)
REMARK    1  A    between atoms: C1_1  and  C7_7 
REMARK    2  A    between atoms: C7_7  and  N8_8 
ROOT
HETATM    1  C1  UNL     1     -40.651  13.299   6.240  1.00 20.00    -0.053 C 
HETATM    2  C2  UNL     1     -40.026  12.650   5.446  1.00 20.00    -0.021 C 
HETATM    3 BR9  UNL     1     -39.035  11.624   4.191  1.00 20.00     0.010 Br
ENDROOT
BRANCH   1   4
HETATM    4  C7  UNL     1     -41.421  14.098   7.216  1.00 20.00     0.214 C 
HETATM    5  C3  UNL     1     -42.214  15.187   6.485  1.00 20.00     0.063 C 
HETATM    6  C4  UNL     1     -40.467  14.736   8.232  1.00 20.00     0.063 C 
BRANCH   4   7
HETATM    7  N8  UNL     1     -42.364  13.242   7.939  1.00 20.00     0.100 N 
HETATM    8  C5  UNL     1     -43.312  12.632   7.010  1.00 20.00     0.311 C 
HETATM    9  C6  UNL     1     -43.068  14.011   8.962  1.00 20.00     0.311 C 
ENDBRANCH   4   7
ENDBRANCH   1   4
TORSDOF 2
ENDMDL
MODEL 5
REMARK VINA RESULT:      -2.9     24.226     24.853
REMARK  2 active torsions:
REMARK  status: ('A' for Active; 'I' for Inactive)
REMARK    1  A    between atoms: C1_1  and  C7_7 
REMARK    2  A    between atoms: C7_7  and  N8_8 
ROOT
HETATM    1  C1  UNL     1     -24.858  -2.875   9.938  1.00 20.00    -0.053 C 
HETATM    2  C2  UNL     1     -24.042  -3.234   9.134  1.00 20.00    -0.021 C 
HETATM    3 BR9  UNL     1     -22.748  -3.803   7.863  1.00 20.00     0.010 Br
ENDROOT
BRANCH   1   4
HETATM    4  C7  UNL     1     -25.864  -2.432  10.925  1.00 20.00     0.214 C 
HETATM    5  C3  UNL     1     -25.213  -1.486  11.940  1.00 20.00     0.063 C 
HETATM    6  C4  UNL     1     -26.455  -3.649  11.645  1.00 20.00     0.063 C 
BRANCH   4   7
HETATM    7  N8  UNL     1     -26.952  -1.717  10.253  1.00 20.00     0.100 N 
HETATM    8  C5  UNL     1     -27.441  -0.629  11.097  1.00 20.00     0.311 C 
HETATM    9  C6  UNL     1     -28.037  -2.637   9.921  1.00 20.00     0.311 C 
ENDBRANCH   4   7
ENDBRANCH   1   4
TORSDOF 2
ENDMDL
MODEL 6
REMARK VINA RESULT:      -2.9     11.426     12.456
REMARK  2 active torsions:
REMARK  status: ('A' for Active; 'I' for Inactive)
REMARK    1  A    between atoms: C1_1  and  C7_7 
REMARK    2  A    between atoms: C7_7  and  N8_8 
ROOT
HETATM    1  C1  UNL     1     -40.518  13.506   6.625  1.00 20.00    -0.053 C 
HETATM    2  C2  UNL     1     -39.994  12.811   5.798  1.00 20.00    -0.021 C 
HETATM    3 BR9  UNL     1     -39.163  11.713   4.489  1.00 20.00     0.010 Br
ENDROOT
BRANCH   1   4
HETATM    4  C7  UNL     1     -41.164  14.361   7.642  1.00 20.00     0.214 C 
HETATM    5  C3  UNL     1     -40.252  14.490   8.868  1.00 20.00     0.063 C 
HETATM    6  C4  UNL     1     -42.511  13.754   8.051  1.00 20.00     0.063 C 
BRANCH   4   7
HETATM    7  N8  UNL     1     -41.405  15.700   7.099  1.00 20.00     0.100 N 
HETATM    8  C5  UNL     1     -40.725  16.708   7.910  1.00 20.00     0.311 C 
HETATM    9  C6  UNL     1     -42.838  15.973   7.035  1.00 20.00     0.311 C 
ENDBRANCH   4   7
ENDBRANCH   1   4
TORSDOF 2
ENDMDL
MODEL 7
REMARK VINA RESULT:      -2.8      3.876      5.533
REMARK  2 active torsions:
REMARK  status: ('A' for Active; 'I' for Inactive)
REMARK    1  A    between atoms: C1_1  and  C7_7 
REMARK    2  A    between atoms: C7_7  and  N8_8 
ROOT
HETATM    1  C1  UNL     1     -34.342  16.550  -4.813  1.00 20.00    -0.053 C 
HETATM    2  C2  UNL     1     -33.927  16.817  -3.719  1.00 20.00    -0.021 C 
HETATM    3 BR9  UNL     1     -33.272  17.238  -1.985  1.00 20.00     0.010 Br
ENDROOT
BRANCH   1   4
HETATM    4  C7  UNL     1     -34.852  16.223  -6.161  1.00 20.00     0.214 C 
HETATM    5  C3  UNL     1     -33.872  15.286  -6.875  1.00 20.00     0.063 C 
HETATM    6  C4  UNL     1     -35.035  17.511  -6.973  1.00 20.00     0.063 C 
BRANCH   4   7
HETATM    7  N8  UNL     1     -36.150  15.551  -6.061  1.00 20.00     0.100 N 
HETATM    8  C5  UNL     1     -37.136  16.437  -5.446  1.00 20.00     0.311 C 
HETATM    9  C6  UNL     1     -36.024  14.313  -5.296  1.00 20.00     0.311 C 
ENDBRANCH   4   7
ENDBRANCH   1   4
TORSDOF 2
ENDMDL
MODEL 8
REMARK VINA RESULT:      -2.8      2.900      3.841
REMARK  2 active torsions:
REMARK  status: ('A' for Active; 'I' for Inactive)
REMARK    1  A    between atoms: C1_1  and  C7_7 
REMARK    2  A    between atoms: C7_7  and  N8_8 
ROOT
HETATM    1  C1  UNL     1     -32.419  18.337  -1.032  1.00 20.00    -0.053 C 
HETATM    2  C2  UNL     1     -31.747  18.512  -0.052  1.00 20.00    -0.021 C 
HETATM    3 BR9  UNL     1     -30.686  18.786   1.500  1.00 20.00     0.010 Br
ENDROOT
BRANCH   1   4
HETATM    4  C7  UNL     1     -33.245  18.125  -2.238  1.00 20.00     0.214 C 
HETATM    5  C3  UNL     1     -32.973  16.731  -2.815  1.00 20.00     0.063 C 
HETATM    6  C4  UNL     1     -32.922  19.199  -3.283  1.00 20.00     0.063 C 
BRANCH   4   7
HETATM    7  N8  UNL     1     -34.667  18.219  -1.900  1.00 20.00     0.100 N 
HETATM    8  C5  UNL     1     -35.458  18.482  -3.100  1.00 20.00     0.311 C 
HETATM    9  C6  UNL     1     -34.885  19.263  -0.902  1.00 20.00     0.311 C 
ENDBRANCH   4   7
ENDBRANCH   1   4
TORSDOF 2
ENDMDL
MODEL 9
REMARK VINA RESULT:      -2.8      3.971      5.752
REMARK  2 active torsions:
REMARK  status: ('A' for Active; 'I' for Inactive)
REMARK    1  A    between atoms: C1_1  and  C7_7 
REMARK    2  A    between atoms: C7_7  and  N8_8 
ROOT
HETATM    1  C1  UNL     1     -34.421  16.178  -4.572  1.00 20.00    -0.053 C 
HETATM    2  C2  UNL     1     -33.906  16.646  -3.593  1.00 20.00    -0.021 C 
HETATM    3 BR9  UNL     1     -33.091  17.384  -2.044  1.00 20.00     0.010 Br
ENDROOT
BRANCH   1   4
HETATM    4  C7  UNL     1     -35.056  15.604  -5.776  1.00 20.00     0.214 C 
HETATM    5  C3  UNL     1     -35.860  14.356  -5.395  1.00 20.00     0.063 C 
HETATM    6  C4  UNL     1     -33.980  15.240  -6.806  1.00 20.00     0.063 C 
BRANCH   4   7
HETATM    7  N8  UNL     1     -35.967  16.578  -6.382  1.00 20.00     0.100 N 
HETATM    8  C5  UNL     1     -37.204  16.665  -5.609  1.00 20.00     0.311 C 
HETATM    9  C6  UNL     1     -36.251  16.216  -7.768  1.00 20.00     0.311 C 
ENDBRANCH   4   7
ENDBRANCH   1   4
TORSDOF 2
ENDMDL
