MODEL 1
REMARK VINA RESULT:      -4.3      0.000      0.000
REMARK  2 active torsions:
REMARK  status: ('A' for Active; 'I' for Inactive)
REMARK    1  A    between atoms: C1_1  and  C9_9 
REMARK    2  A    between atoms: C9_9  and  N10_10 
ROOT
HETATM    1  C2  UNL     1     -34.628   6.004   6.805  1.00 20.00     0.003 C 
HETATM    2  C3  UNL     1     -33.735   7.167   6.388  1.00 20.00     0.030 C 
HETATM    3  C4  UNL     1     -34.675   4.937   5.716  1.00 20.00     0.030 C 
HETATM    4  C5  UNL     1     -34.123   7.699   5.006  1.00 20.00     0.273 C 
HETATM    5  C6  UNL     1     -35.032   5.546   4.358  1.00 20.00     0.273 C 
HETATM    6  N10 UNL     1     -34.175   6.670   3.959  1.00 20.00     0.099 N 
ENDROOT
BRANCH   6   7
HETATM    7  C9  UNL     1     -32.845   6.233   3.545  1.00 20.00     0.287 C 
HETATM    8  C8  UNL     1     -32.908   5.213   2.424  1.00 20.00     0.051 C 
BRANCH   7   9
HETATM    9  C1  UNL     1     -32.078   7.469   3.105  1.00 20.00     0.155 C 
HETATM   10  C7  UNL     1     -32.272   7.909   1.676  1.00 20.00     0.093 C 
HETATM   11  O11 UNL     1     -31.364   8.114   3.875  1.00 20.00    -0.296 OA
ENDBRANCH   7   9
ENDBRANCH   6   7
TORSDOF 2
ENDMDL
MODEL 2
REMARK VINA RESULT:      -3.6     12.266     13.583
REMARK  2 active torsions:
REMARK  status: ('A' for Active; 'I' for Inactive)
REMARK    1  A    between atoms: C1_1  and  C9_9 
REMARK    2  A    between atoms: C9_9  and  N10_10 
ROOT
HETATM    1  C2  UNL     1     -33.599  17.793  -2.074  1.00 20.00     0.003 C 
HETATM    2  C3  UNL     1     -33.602  16.316  -2.452  1.00 20.00     0.030 C 
HETATM    3  C4  UNL     1     -34.453  18.604  -3.044  1.00 20.00     0.030 C 
HETATM    4  C5  UNL     1     -33.235  16.118  -3.926  1.00 20.00     0.273 C 
HETATM    5  C6  UNL     1     -34.055  18.328  -4.496  1.00 20.00     0.273 C 
HETATM    6  N10 UNL     1     -34.052  16.905  -4.858  1.00 20.00     0.099 N 
ENDROOT
BRANCH   6   7
HETATM    7  C9  UNL     1     -35.403  16.366  -5.002  1.00 20.00     0.287 C 
HETATM    8  C8  UNL     1     -36.277  17.255  -5.867  1.00 20.00     0.051 C 
BRANCH   7   9
HETATM    9  C1  UNL     1     -35.275  14.980  -5.611  1.00 20.00     0.155 C 
HETATM   10  C7  UNL     1     -35.871  13.840  -4.823  1.00 20.00     0.093 C 
HETATM   11  O11 UNL     1     -34.753  14.785  -6.710  1.00 20.00    -0.296 OA
ENDBRANCH   7   9
ENDBRANCH   6   7
TORSDOF 2
ENDMDL
MODEL 3
REMARK VINA RESULT:      -3.5     12.285     13.387
REMARK  2 active torsions:
REMARK  status: ('A' for Active; 'I' for Inactive)
REMARK    1  A    between atoms: C1_1  and  C9_9 
REMARK    2  A    between atoms: C9_9  and  N10_10 
ROOT
HETATM    1  C2  UNL     1     -34.116  18.216  -1.541  1.00 20.00     0.003 C 
HETATM    2  C3  UNL     1     -33.614  16.827  -1.919  1.00 20.00     0.030 C 
HETATM    3  C4  UNL     1     -35.124  18.727  -2.566  1.00 20.00     0.030 C 
HETATM    4  C5  UNL     1     -33.109  16.793  -3.364  1.00 20.00     0.273 C 
HETATM    5  C6  UNL     1     -34.566  18.628  -3.988  1.00 20.00     0.273 C 
HETATM    6  N10 UNL     1     -34.076  17.292  -4.350  1.00 20.00     0.099 N 
ENDROOT
BRANCH   6   7
HETATM    7  C9  UNL     1     -35.165  16.347  -4.585  1.00 20.00     0.287 C 
HETATM    8  C8  UNL     1     -36.202  16.906  -5.542  1.00 20.00     0.051 C 
BRANCH   7   9
HETATM    9  C1  UNL     1     -34.549  15.075  -5.143  1.00 20.00     0.155 C 
HETATM   10  C7  UNL     1     -34.042  15.138  -6.562  1.00 20.00     0.093 C 
HETATM   11  O11 UNL     1     -34.424  14.050  -4.472  1.00 20.00    -0.296 OA
ENDBRANCH   7   9
ENDBRANCH   6   7
TORSDOF 2
ENDMDL
MODEL 4
REMARK VINA RESULT:      -3.5     10.376     11.472
REMARK  2 active torsions:
REMARK  status: ('A' for Active; 'I' for Inactive)
REMARK    1  A    between atoms: C1_1  and  C9_9 
REMARK    2  A    between atoms: C9_9  and  N10_10 
ROOT
HETATM    1  C2  UNL     1     -41.291  15.496   9.946  1.00 20.00     0.003 C 
HETATM    2  C3  UNL     1     -40.123  15.137   9.033  1.00 20.00     0.030 C 
HETATM    3  C4  UNL     1     -42.553  14.744   9.535  1.00 20.00     0.030 C 
HETATM    4  C5  UNL     1     -40.499  15.302   7.558  1.00 20.00     0.273 C 
HETATM    5  C6  UNL     1     -42.844  14.923   8.044  1.00 20.00     0.273 C 
HETATM    6  N10 UNL     1     -41.718  14.583   7.165  1.00 20.00     0.099 N 
ENDROOT
BRANCH   6   7
HETATM    7  C9  UNL     1     -41.504  13.141   7.071  1.00 20.00     0.287 C 
HETATM    8  C8  UNL     1     -42.813  12.382   6.960  1.00 20.00     0.051 C 
BRANCH   7   9
HETATM    9  C1  UNL     1     -40.633  12.891   5.850  1.00 20.00     0.155 C 
HETATM   10  C7  UNL     1     -39.402  12.047   6.063  1.00 20.00     0.093 C 
HETATM   11  O11 UNL     1     -40.925  13.314   4.731  1.00 20.00    -0.296 OA
ENDBRANCH   7   9
ENDBRANCH   6   7
TORSDOF 2
ENDMDL
MODEL 5
REMARK VINA RESULT:      -3.4     12.030     13.511
REMARK  2 active torsions:
REMARK  status: ('A' for Active; 'I' for Inactive)
REMARK    1  A    between atoms: C1_1  and  C9_9 
REMARK    2  A    between atoms: C9_9  and  N10_10 
ROOT
HETATM    1  C2  UNL     1     -35.910  14.224  -5.360  1.00 20.00     0.003 C 
HETATM    2  C3  UNL     1     -36.098  15.705  -5.673  1.00 20.00     0.030 C 
HETATM    3  C4  UNL     1     -34.921  14.031  -4.215  1.00 20.00     0.030 C 
HETATM    4  C5  UNL     1     -34.752  16.404  -5.883  1.00 20.00     0.273 C 
HETATM    5  C6  UNL     1     -33.616  14.788  -4.476  1.00 20.00     0.273 C 
HETATM    6  N10 UNL     1     -33.798  16.212  -4.783  1.00 20.00     0.099 N 
ENDROOT
BRANCH   6   7
HETATM    7  C9  UNL     1     -34.151  16.993  -3.600  1.00 20.00     0.287 C 
HETATM    8  C8  UNL     1     -33.223  16.706  -2.435  1.00 20.00     0.051 C 
BRANCH   7   9
HETATM    9  C1  UNL     1     -34.086  18.461  -3.990  1.00 20.00     0.155 C 
HETATM   10  C7  UNL     1     -35.350  19.262  -3.808  1.00 20.00     0.093 C 
HETATM   11  O11 UNL     1     -33.052  18.993  -4.395  1.00 20.00    -0.296 OA
ENDBRANCH   7   9
ENDBRANCH   6   7
TORSDOF 2
ENDMDL
MODEL 6
REMARK VINA RESULT:      -3.4     12.428     13.734
REMARK  2 active torsions:
REMARK  status: ('A' for Active; 'I' for Inactive)
REMARK    1  A    between atoms: C1_1  and  C9_9 
REMARK    2  A    between atoms: C9_9  and  N10_10 
ROOT
HETATM    1  C2  UNL     1     -37.018  16.059  -6.097  1.00 20.00     0.003 C 
HETATM    2  C3  UNL     1     -36.795  17.105  -5.010  1.00 20.00     0.030 C 
HETATM    3  C4  UNL     1     -35.833  15.103  -6.184  1.00 20.00     0.030 C 
HETATM    4  C5  UNL     1     -35.440  17.799  -5.176  1.00 20.00     0.273 C 
HETATM    5  C6  UNL     1     -34.513  15.867  -6.311  1.00 20.00     0.273 C 
HETATM    6  N10 UNL     1     -34.301  16.878  -5.267  1.00 20.00     0.099 N 
ENDROOT
BRANCH   6   7
HETATM    7  C9  UNL     1     -33.967  16.280  -3.976  1.00 20.00     0.287 C 
HETATM    8  C8  UNL     1     -32.974  15.141  -4.120  1.00 20.00     0.051 C 
BRANCH   7   9
HETATM    9  C1  UNL     1     -33.396  17.383  -3.100  1.00 20.00     0.155 C 
HETATM   10  C7  UNL     1     -33.582  17.225  -1.612  1.00 20.00     0.093 C 
HETATM   11  O11 UNL     1     -32.776  18.341  -3.562  1.00 20.00    -0.296 OA
ENDBRANCH   7   9
ENDBRANCH   6   7
TORSDOF 2
ENDMDL
MODEL 7
REMARK VINA RESULT:      -3.3     12.807     14.394
REMARK  2 active torsions:
REMARK  status: ('A' for Active; 'I' for Inactive)
REMARK    1  A    between atoms: C1_1  and  C9_9 
REMARK    2  A    between atoms: C9_9  and  N10_10 
ROOT
HETATM    1  C2  UNL     1     -33.339  16.231  -3.111  1.00 20.00     0.003 C 
HETATM    2  C3  UNL     1     -33.829  17.550  -3.698  1.00 20.00     0.030 C 
HETATM    3  C4  UNL     1     -33.295  15.143  -4.179  1.00 20.00     0.030 C 
HETATM    4  C5  UNL     1     -35.145  17.366  -4.458  1.00 20.00     0.273 C 
HETATM    5  C6  UNL     1     -34.630  15.042  -4.921  1.00 20.00     0.273 C 
HETATM    6  N10 UNL     1     -35.105  16.313  -5.481  1.00 20.00     0.099 N 
ENDROOT
BRANCH   6   7
HETATM    7  C9  UNL     1     -34.345  16.717  -6.662  1.00 20.00     0.287 C 
HETATM    8  C8  UNL     1     -34.098  15.551  -7.601  1.00 20.00     0.051 C 
BRANCH   7   9
HETATM    9  C1  UNL     1     -35.139  17.810  -7.359  1.00 20.00     0.155 C 
HETATM   10  C7  UNL     1     -34.411  19.103  -7.627  1.00 20.00     0.093 C 
HETATM   11  O11 UNL     1     -36.302  17.649  -7.730  1.00 20.00    -0.296 OA
ENDBRANCH   7   9
ENDBRANCH   6   7
TORSDOF 2
ENDMDL
MODEL 8
REMARK VINA RESULT:      -3.3     12.589     13.972
REMARK  2 active torsions:
REMARK  status: ('A' for Active; 'I' for Inactive)
REMARK    1  A    between atoms: C1_1  and  C9_9 
REMARK    2  A    between atoms: C9_9  and  N10_10 
ROOT
HETATM    1  C2  UNL     1     -36.995  17.789  -4.933  1.00 20.00     0.003 C 
HETATM    2  C3  UNL     1     -36.686  18.572  -3.662  1.00 20.00     0.030 C 
HETATM    3  C4  UNL     1     -35.884  16.790  -5.240  1.00 20.00     0.030 C 
HETATM    4  C5  UNL     1     -35.286  19.190  -3.716  1.00 20.00     0.273 C 
HETATM    5  C6  UNL     1     -34.512  17.470  -5.240  1.00 20.00     0.273 C 
HETATM    6  N10 UNL     1     -34.218  18.230  -4.018  1.00 20.00     0.099 N 
ENDROOT
BRANCH   6   7
HETATM    7  C9  UNL     1     -33.917  17.359  -2.884  1.00 20.00     0.287 C 
HETATM    8  C8  UNL     1     -33.116  16.141  -3.303  1.00 20.00     0.051 C 
BRANCH   7   9
HETATM    9  C1  UNL     1     -33.145  18.187  -1.870  1.00 20.00     0.155 C 
HETATM   10  C7  UNL     1     -33.561  18.044  -0.428  1.00 20.00     0.093 C 
HETATM   11  O11 UNL     1     -32.200  18.910  -2.187  1.00 20.00    -0.296 OA
ENDBRANCH   7   9
ENDBRANCH   6   7
TORSDOF 2
ENDMDL
MODEL 9
REMARK VINA RESULT:      -3.3     12.571     14.297
REMARK  2 active torsions:
REMARK  status: ('A' for Active; 'I' for Inactive)
REMARK    1  A    between atoms: C1_1  and  C9_9 
REMARK    2  A    between atoms: C9_9  and  N10_10 
ROOT
HETATM    1  C2  UNL     1     -33.209  15.251  -3.793  1.00 20.00     0.003 C 
HETATM    2  C3  UNL     1     -34.179  14.764  -4.863  1.00 20.00     0.030 C 
HETATM    3  C4  UNL     1     -33.650  16.599  -3.231  1.00 20.00     0.030 C 
HETATM    4  C5  UNL     1     -34.418  15.838  -5.928  1.00 20.00     0.273 C 
HETATM    5  C6  UNL     1     -33.906  17.609  -4.353  1.00 20.00     0.273 C 
HETATM    6  N10 UNL     1     -34.836  17.137  -5.387  1.00 20.00     0.099 N 
ENDROOT
BRANCH   6   7
HETATM    7  C9  UNL     1     -36.221  17.124  -4.922  1.00 20.00     0.287 C 
HETATM    8  C8  UNL     1     -36.594  18.416  -4.219  1.00 20.00     0.051 C 
BRANCH   7   9
HETATM    9  C1  UNL     1     -37.105  16.899  -6.138  1.00 20.00     0.155 C 
HETATM   10  C7  UNL     1     -37.061  17.960  -7.208  1.00 20.00     0.093 C 
HETATM   11  O11 UNL     1     -37.794  15.888  -6.276  1.00 20.00    -0.296 OA
ENDBRANCH   7   9
ENDBRANCH   6   7
TORSDOF 2
ENDMDL
