MODEL 1
REMARK VINA RESULT:      -4.4      0.000      0.000
REMARK  2 active torsions:
REMARK  status: ('A' for Active; 'I' for Inactive)
REMARK    1  A    between atoms: C2_2  and  C4_4 
REMARK       I    between atoms: C2_2  and  N6_6 
REMARK    2  A    between atoms: C4_4  and  C5_5 
ROOT
HETATM    1  C1  UNL     1     -33.400   7.855   5.416  1.00 20.00     0.166 C 
HETATM    2  C2  UNL     1     -34.376   5.961   5.938  1.00 20.00     0.244 C 
HETATM    3  N6  UNL     1     -34.189   7.321   6.103  1.00 20.00    -0.199 NA
HETATM    4  O7  UNL     1     -34.237   5.096   6.802  1.00 20.00    -0.271 OA
HETATM    5  S8  UNL     1     -32.339   8.615   4.502  1.00 20.00    -0.055 SA
ENDROOT
BRANCH   2   6
HETATM    6  C4  UNL     1     -34.836   5.620   4.528  1.00 20.00     0.105 C 
BRANCH   6   7
HETATM    7  C5  UNL     1     -33.944   4.604   3.821  1.00 20.00     0.005 C 
HETATM    8  C3  UNL     1     -33.043   5.246   2.775  1.00 20.00     0.005 C 
ENDBRANCH   6   7
ENDBRANCH   2   6
TORSDOF 2
ENDMDL
MODEL 2
REMARK VINA RESULT:      -4.0      2.771      3.527
REMARK  2 active torsions:
REMARK  status: ('A' for Active; 'I' for Inactive)
REMARK    1  A    between atoms: C2_2  and  C4_4 
REMARK       I    between atoms: C2_2  and  N6_6 
REMARK    2  A    between atoms: C4_4  and  C5_5 
ROOT
HETATM    1  C1  UNL     1     -32.694   6.674   3.021  1.00 20.00     0.166 C 
HETATM    2  C2  UNL     1     -32.668   8.250   4.546  1.00 20.00     0.244 C 
HETATM    3  N6  UNL     1     -32.565   7.821   3.236  1.00 20.00    -0.199 NA
HETATM    4  O7  UNL     1     -31.810   8.859   5.184  1.00 20.00    -0.271 OA
HETATM    5  S8  UNL     1     -32.864   5.125   2.690  1.00 20.00    -0.055 SA
ENDROOT
BRANCH   2   6
HETATM    6  C4  UNL     1     -34.029   7.923   5.143  1.00 20.00     0.105 C 
BRANCH   6   7
HETATM    7  C5  UNL     1     -33.961   6.996   6.354  1.00 20.00     0.005 C 
HETATM    8  C3  UNL     1     -34.646   5.660   6.105  1.00 20.00     0.005 C 
ENDBRANCH   6   7
ENDBRANCH   2   6
TORSDOF 2
ENDMDL
MODEL 3
REMARK VINA RESULT:      -3.4     13.192     13.670
REMARK  2 active torsions:
REMARK  status: ('A' for Active; 'I' for Inactive)
REMARK    1  A    between atoms: C2_2  and  C4_4 
REMARK       I    between atoms: C2_2  and  N6_6 
REMARK    2  A    between atoms: C4_4  and  C5_5 
ROOT
HETATM    1  C1  UNL     1     -36.887  16.144  -5.468  1.00 20.00     0.166 C 
HETATM    2  C2  UNL     1     -35.859  14.235  -5.144  1.00 20.00     0.244 C 
HETATM    3  N6  UNL     1     -36.833  15.006  -5.749  1.00 20.00    -0.199 NA
HETATM    4  O7  UNL     1     -36.045  13.227  -4.463  1.00 20.00    -0.271 OA
HETATM    5  S8  UNL     1     -36.991  17.695  -5.113  1.00 20.00    -0.055 SA
ENDROOT
BRANCH   2   6
HETATM    6  C4  UNL     1     -34.460  14.748  -5.451  1.00 20.00     0.105 C 
BRANCH   6   7
HETATM    7  C5  UNL     1     -33.501  14.663  -4.266  1.00 20.00     0.005 C 
HETATM    8  C3  UNL     1     -33.486  15.938  -3.434  1.00 20.00     0.005 C 
ENDBRANCH   6   7
ENDBRANCH   2   6
TORSDOF 2
ENDMDL
MODEL 4
REMARK VINA RESULT:      -3.3     13.445     13.972
REMARK  2 active torsions:
REMARK  status: ('A' for Active; 'I' for Inactive)
REMARK    1  A    between atoms: C2_2  and  C4_4 
REMARK       I    between atoms: C2_2  and  N6_6 
REMARK    2  A    between atoms: C4_4  and  C5_5 
ROOT
HETATM    1  C1  UNL     1     -34.889  15.415  -6.795  1.00 20.00     0.166 C 
HETATM    2  C2  UNL     1     -34.190  14.817  -4.805  1.00 20.00     0.244 C 
HETATM    3  N6  UNL     1     -34.099  14.798  -6.184  1.00 20.00    -0.199 NA
HETATM    4  O7  UNL     1     -34.325  13.841  -4.069  1.00 20.00    -0.271 OA
HETATM    5  S8  UNL     1     -35.942  16.240  -7.661  1.00 20.00    -0.055 SA
ENDROOT
BRANCH   2   6
HETATM    6  C4  UNL     1     -34.054  16.227  -4.248  1.00 20.00     0.105 C 
BRANCH   6   7
HETATM    7  C5  UNL     1     -33.048  16.342  -3.106  1.00 20.00     0.005 C 
HETATM    8  C3  UNL     1     -33.614  17.079  -1.901  1.00 20.00     0.005 C 
ENDBRANCH   6   7
ENDBRANCH   2   6
TORSDOF 2
ENDMDL
MODEL 5
REMARK VINA RESULT:      -3.3      9.500     10.020
REMARK  2 active torsions:
REMARK  status: ('A' for Active; 'I' for Inactive)
REMARK    1  A    between atoms: C2_2  and  C4_4 
REMARK       I    between atoms: C2_2  and  N6_6 
REMARK    2  A    between atoms: C4_4  and  C5_5 
ROOT
HETATM    1  C1  UNL     1     -42.239  14.153   5.386  1.00 20.00     0.166 C 
HETATM    2  C2  UNL     1     -40.903  13.193   6.835  1.00 20.00     0.244 C 
HETATM    3  N6  UNL     1     -42.127  13.723   6.472  1.00 20.00    -0.199 NA
HETATM    4  O7  UNL     1     -40.200  13.557   7.777  1.00 20.00    -0.271 OA
HETATM    5  S8  UNL     1     -42.432  14.746   3.919  1.00 20.00    -0.055 SA
ENDROOT
BRANCH   2   6
HETATM    6  C4  UNL     1     -40.505  12.026   5.943  1.00 20.00     0.105 C 
BRANCH   6   7
HETATM    7  C5  UNL     1     -39.061  12.094   5.452  1.00 20.00     0.005 C 
HETATM    8  C3  UNL     1     -38.921  11.689   3.991  1.00 20.00     0.005 C 
ENDBRANCH   6   7
ENDBRANCH   2   6
TORSDOF 2
ENDMDL
MODEL 6
REMARK VINA RESULT:      -3.2      2.782      3.237
REMARK  2 active torsions:
REMARK  status: ('A' for Active; 'I' for Inactive)
REMARK    1  A    between atoms: C2_2  and  C4_4 
REMARK       I    between atoms: C2_2  and  N6_6 
REMARK    2  A    between atoms: C4_4  and  C5_5 
ROOT
HETATM    1  C1  UNL     1     -33.511   7.496   5.619  1.00 20.00     0.166 C 
HETATM    2  C2  UNL     1     -32.620   8.452   3.858  1.00 20.00     0.244 C 
HETATM    3  N6  UNL     1     -32.866   8.390   5.217  1.00 20.00    -0.199 NA
HETATM    4  O7  UNL     1     -32.911   9.381   3.106  1.00 20.00    -0.271 OA
HETATM    5  S8  UNL     1     -34.382   6.295   6.203  1.00 20.00    -0.055 SA
ENDROOT
BRANCH   2   6
HETATM    6  C4  UNL     1     -31.877   7.221   3.361  1.00 20.00     0.105 C 
BRANCH   6   7
HETATM    7  C5  UNL     1     -32.632   6.441   2.288  1.00 20.00     0.005 C 
HETATM    8  C3  UNL     1     -33.056   5.057   2.761  1.00 20.00     0.005 C 
ENDBRANCH   6   7
ENDBRANCH   2   6
TORSDOF 2
ENDMDL
MODEL 7
REMARK VINA RESULT:      -3.2      9.777     10.294
REMARK  2 active torsions:
REMARK  status: ('A' for Active; 'I' for Inactive)
REMARK    1  A    between atoms: C2_2  and  C4_4 
REMARK       I    between atoms: C2_2  and  N6_6 
REMARK    2  A    between atoms: C4_4  and  C5_5 
ROOT
HETATM    1  C1  UNL     1     -41.426  14.532   8.187  1.00 20.00     0.166 C 
HETATM    2  C2  UNL     1     -42.013  12.863   6.891  1.00 20.00     0.244 C 
HETATM    3  N6  UNL     1     -42.289  14.040   7.561  1.00 20.00    -0.199 NA
HETATM    4  O7  UNL     1     -42.600  11.790   7.031  1.00 20.00    -0.271 OA
HETATM    5  S8  UNL     1     -40.280  15.230   9.047  1.00 20.00    -0.055 SA
ENDROOT
BRANCH   2   6
HETATM    6  C4  UNL     1     -40.889  13.037   5.881  1.00 20.00     0.105 C 
BRANCH   6   7
HETATM    7  C5  UNL     1     -39.911  11.866   5.845  1.00 20.00     0.005 C 
HETATM    8  C3  UNL     1     -39.220  11.724   4.495  1.00 20.00     0.005 C 
ENDBRANCH   6   7
ENDBRANCH   2   6
TORSDOF 2
ENDMDL
MODEL 8
REMARK VINA RESULT:      -3.1     13.915     14.436
REMARK  2 active torsions:
REMARK  status: ('A' for Active; 'I' for Inactive)
REMARK    1  A    between atoms: C2_2  and  C4_4 
REMARK       I    between atoms: C2_2  and  N6_6 
REMARK    2  A    between atoms: C4_4  and  C5_5 
ROOT
HETATM    1  C1  UNL     1     -36.233  16.481  -5.844  1.00 20.00     0.166 C 
HETATM    2  C2  UNL     1     -34.355  15.410  -6.211  1.00 20.00     0.244 C 
HETATM    3  N6  UNL     1     -35.116  16.564  -6.195  1.00 20.00    -0.199 NA
HETATM    4  O7  UNL     1     -33.780  14.929  -7.186  1.00 20.00    -0.271 OA
HETATM    5  S8  UNL     1     -37.754  16.410  -5.372  1.00 20.00    -0.055 SA
ENDROOT
BRANCH   2   6
HETATM    6  C4  UNL     1     -34.252  14.781  -4.829  1.00 20.00     0.105 C 
BRANCH   6   7
HETATM    7  C5  UNL     1     -33.040  15.252  -4.029  1.00 20.00     0.005 C 
HETATM    8  C3  UNL     1     -33.399  16.307  -2.992  1.00 20.00     0.005 C 
ENDBRANCH   6   7
ENDBRANCH   2   6
TORSDOF 2
ENDMDL
MODEL 9
REMARK VINA RESULT:      -3.1      2.642      3.485
REMARK  2 active torsions:
REMARK  status: ('A' for Active; 'I' for Inactive)
REMARK    1  A    between atoms: C2_2  and  C4_4 
REMARK       I    between atoms: C2_2  and  N6_6 
REMARK    2  A    between atoms: C4_4  and  C5_5 
ROOT
HETATM    1  C1  UNL     1     -34.428   5.738   5.011  1.00 20.00     0.166 C 
HETATM    2  C2  UNL     1     -33.305   5.660   3.129  1.00 20.00     0.244 C 
HETATM    3  N6  UNL     1     -34.405   5.347   3.904  1.00 20.00    -0.199 NA
HETATM    4  O7  UNL     1     -32.554   4.861   2.573  1.00 20.00    -0.271 OA
HETATM    5  S8  UNL     1     -34.496   6.252   6.518  1.00 20.00    -0.055 SA
ENDROOT
BRANCH   2   6
HETATM    6  C4  UNL     1     -33.125   7.164   2.983  1.00 20.00     0.105 C 
BRANCH   6   7
HETATM    7  C5  UNL     1     -31.925   7.715   3.748  1.00 20.00     0.005 C 
HETATM    8  C3  UNL     1     -32.316   8.792   4.751  1.00 20.00     0.005 C 
ENDBRANCH   6   7
ENDBRANCH   2   6
TORSDOF 2
ENDMDL
