MODEL 1
REMARK VINA RESULT:      -4.7      0.000      0.000
REMARK  1 active torsions:
REMARK  status: ('A' for Active; 'I' for Inactive)
REMARK    1  A    between atoms: C11_11  and  N13_13 
ROOT
HETATM    1  C1  UNL     1     -31.699  18.566  -0.331  1.00 20.00     0.089 C 
HETATM    2  C11 UNL     1     -33.142  18.396  -0.483  1.00 20.00     0.395 C 
HETATM    3  N12 UNL     1     -30.553  18.702  -0.208  1.00 20.00    -0.195 NA
ENDROOT
BRANCH   2   4
HETATM    4  N13 UNL     1     -33.497  18.186  -1.883  1.00 20.00     0.101 N 
HETATM    5  C7  UNL     1     -34.897  18.508  -2.145  1.00 20.00     0.274 C 
HETATM    6  C6  UNL     1     -35.168  18.537  -3.655  1.00 20.00     0.035 C 
HETATM    7  C9  UNL     1     -34.382  17.467  -4.436  1.00 20.00    -0.007 C 
HETATM    8  C4  UNL     1     -35.169  16.976  -5.657  1.00 20.00     0.005 C 
HETATM    9  C10 UNL     1     -33.993  16.309  -3.504  1.00 20.00     0.018 C 
HETATM   10  C2  UNL     1     -34.422  15.871  -6.400  1.00 20.00     0.000 C 
HETATM   11  C3  UNL     1     -34.062  14.714  -5.471  1.00 20.00     0.000 C 
HETATM   12  C5  UNL     1     -33.261  15.193  -4.262  1.00 20.00     0.007 C 
HETATM   13  C8  UNL     1     -33.143  16.825  -2.322  1.00 20.00     0.278 C 
ENDBRANCH   2   4
TORSDOF 1
ENDMDL
MODEL 2
REMARK VINA RESULT:      -4.5      2.684      5.675
REMARK  1 active torsions:
REMARK  status: ('A' for Active; 'I' for Inactive)
REMARK    1  A    between atoms: C11_11  and  N13_13 
ROOT
HETATM    1  C1  UNL     1     -36.272  15.843  -7.557  1.00 20.00     0.089 C 
HETATM    2  C11 UNL     1     -34.828  15.617  -7.569  1.00 20.00     0.395 C 
HETATM    3  N12 UNL     1     -37.418  16.022  -7.551  1.00 20.00    -0.195 NA
ENDROOT
BRANCH   2   4
HETATM    4  N13 UNL     1     -34.248  15.887  -6.258  1.00 20.00     0.101 N 
HETATM    5  C7  UNL     1     -34.575  14.843  -5.291  1.00 20.00     0.274 C 
HETATM    6  C6  UNL     1     -33.740  15.011  -4.014  1.00 20.00     0.035 C 
HETATM    7  C9  UNL     1     -33.508  16.484  -3.628  1.00 20.00    -0.007 C 
HETATM    8  C4  UNL     1     -33.421  16.656  -2.107  1.00 20.00     0.005 C 
HETATM    9  C10 UNL     1     -34.601  17.372  -4.241  1.00 20.00     0.018 C 
HETATM   10  C2  UNL     1     -33.254  18.122  -1.715  1.00 20.00     0.000 C 
HETATM   11  C3  UNL     1     -34.359  18.991  -2.308  1.00 20.00     0.000 C 
HETATM   12  C5  UNL     1     -34.438  18.840  -3.826  1.00 20.00     0.007 C 
HETATM   13  C8  UNL     1     -34.618  17.230  -5.780  1.00 20.00     0.278 C 
ENDBRANCH   2   4
TORSDOF 1
ENDMDL
MODEL 3
REMARK VINA RESULT:      -4.4     11.618     12.850
REMARK  1 active torsions:
REMARK  status: ('A' for Active; 'I' for Inactive)
REMARK    1  A    between atoms: C11_11  and  N13_13 
ROOT
HETATM    1  C1  UNL     1     -32.679   8.781   0.247  1.00 20.00     0.089 C 
HETATM    2  C11 UNL     1     -31.833   8.178   1.276  1.00 20.00     0.395 C 
HETATM    3  N12 UNL     1     -33.348   9.260  -0.571  1.00 20.00    -0.195 NA
ENDROOT
BRANCH   2   4
HETATM    4  N13 UNL     1     -32.564   8.031   2.530  1.00 20.00     0.101 N 
HETATM    5  C7  UNL     1     -31.787   8.502   3.672  1.00 20.00     0.274 C 
HETATM    6  C6  UNL     1     -32.669   8.586   4.925  1.00 20.00     0.035 C 
HETATM    7  C9  UNL     1     -33.710   7.453   5.014  1.00 20.00    -0.007 C 
HETATM    8  C4  UNL     1     -33.994   7.069   6.471  1.00 20.00     0.005 C 
HETATM    9  C10 UNL     1     -33.252   6.245   4.184  1.00 20.00     0.018 C 
HETATM   10  C2  UNL     1     -34.977   5.906   6.564  1.00 20.00     0.000 C 
HETATM   11  C3  UNL     1     -34.501   4.702   5.756  1.00 20.00     0.000 C 
HETATM   12  C5  UNL     1     -34.234   5.073   4.299  1.00 20.00     0.007 C 
HETATM   13  C8  UNL     1     -33.041   6.649   2.707  1.00 20.00     0.278 C 
ENDBRANCH   2   4
TORSDOF 1
ENDMDL
MODEL 4
REMARK VINA RESULT:      -4.2      2.490      5.289
REMARK  1 active torsions:
REMARK  status: ('A' for Active; 'I' for Inactive)
REMARK    1  A    between atoms: C11_11  and  N13_13 
ROOT
HETATM    1  C1  UNL     1     -35.361  15.001  -7.147  1.00 20.00     0.089 C 
HETATM    2  C11 UNL     1     -34.240  15.323  -6.267  1.00 20.00     0.395 C 
HETATM    3  N12 UNL     1     -36.249  14.745  -7.848  1.00 20.00    -0.195 NA
ENDROOT
BRANCH   2   4
HETATM    4  N13 UNL     1     -34.663  16.208  -5.186  1.00 20.00     0.101 N 
HETATM    5  C7  UNL     1     -34.805  17.589  -5.637  1.00 20.00     0.274 C 
HETATM    6  C6  UNL     1     -35.502  18.436  -4.563  1.00 20.00     0.035 C 
HETATM    7  C9  UNL     1     -35.104  18.046  -3.127  1.00 20.00    -0.007 C 
HETATM    8  C4  UNL     1     -35.122  19.263  -2.194  1.00 20.00     0.005 C 
HETATM    9  C10 UNL     1     -33.738  17.345  -3.126  1.00 20.00     0.018 C 
HETATM   10  C2  UNL     1     -34.668  18.896  -0.783  1.00 20.00     0.000 C 
HETATM   11  C3  UNL     1     -33.299  18.223  -0.791  1.00 20.00     0.000 C 
HETATM   12  C5  UNL     1     -33.280  16.998  -1.704  1.00 20.00     0.007 C 
HETATM   13  C8  UNL     1     -33.773  16.086  -4.020  1.00 20.00     0.278 C 
ENDBRANCH   2   4
TORSDOF 1
ENDMDL
MODEL 5
REMARK VINA RESULT:      -4.1      1.077      2.299
REMARK  1 active torsions:
REMARK  status: ('A' for Active; 'I' for Inactive)
REMARK    1  A    between atoms: C11_11  and  N13_13 
ROOT
HETATM    1  C1  UNL     1     -32.665  18.832  -1.254  1.00 20.00     0.089 C 
HETATM    2  C11 UNL     1     -34.087  18.537  -1.420  1.00 20.00     0.395 C 
HETATM    3  N12 UNL     1     -31.537  19.069  -1.119  1.00 20.00    -0.195 NA
ENDROOT
BRANCH   2   4
HETATM    4  N13 UNL     1     -34.298  17.597  -2.516  1.00 20.00     0.101 N 
HETATM    5  C7  UNL     1     -33.192  16.652  -2.645  1.00 20.00     0.274 C 
HETATM    6  C6  UNL     1     -33.561  15.522  -3.615  1.00 20.00     0.035 C 
HETATM    7  C9  UNL     1     -34.417  15.996  -4.805  1.00 20.00    -0.007 C 
HETATM    8  C4  UNL     1     -34.123  15.175  -6.066  1.00 20.00     0.005 C 
HETATM    9  C10 UNL     1     -34.211  17.499  -5.042  1.00 20.00     0.018 C 
HETATM   10  C2  UNL     1     -34.922  15.680  -7.265  1.00 20.00     0.000 C 
HETATM   11  C3  UNL     1     -34.692  17.168  -7.506  1.00 20.00     0.000 C 
HETATM   12  C5  UNL     1     -35.001  17.995  -6.260  1.00 20.00     0.007 C 
HETATM   13  C8  UNL     1     -34.581  18.304  -3.776  1.00 20.00     0.278 C 
ENDBRANCH   2   4
TORSDOF 1
ENDMDL
MODEL 6
REMARK VINA RESULT:      -4.0      1.187      1.253
REMARK  1 active torsions:
REMARK  status: ('A' for Active; 'I' for Inactive)
REMARK    1  A    between atoms: C11_11  and  N13_13 
ROOT
HETATM    1  C1  UNL     1     -33.063  18.540  -0.222  1.00 20.00     0.089 C 
HETATM    2  C11 UNL     1     -32.263  18.952  -1.374  1.00 20.00     0.395 C 
HETATM    3  N12 UNL     1     -33.696  18.215   0.694  1.00 20.00    -0.195 NA
ENDROOT
BRANCH   2   4
HETATM    4  N13 UNL     1     -32.841  18.448  -2.616  1.00 20.00     0.101 N 
HETATM    5  C7  UNL     1     -34.133  19.063  -2.905  1.00 20.00     0.274 C 
HETATM    6  C6  UNL     1     -34.585  18.722  -4.331  1.00 20.00     0.035 C 
HETATM    7  C9  UNL     1     -34.209  17.291  -4.763  1.00 20.00    -0.007 C 
HETATM    8  C4  UNL     1     -35.248  16.708  -5.727  1.00 20.00     0.005 C 
HETATM    9  C10 UNL     1     -34.010  16.399  -3.529  1.00 20.00     0.018 C 
HETATM   10  C2  UNL     1     -34.914  15.268  -6.110  1.00 20.00     0.000 C 
HETATM   11  C3  UNL     1     -34.744  14.385  -4.877  1.00 20.00     0.000 C 
HETATM   12  C5  UNL     1     -33.695  14.950  -3.921  1.00 20.00     0.007 C 
HETATM   13  C8  UNL     1     -32.908  16.977  -2.612  1.00 20.00     0.278 C 
ENDBRANCH   2   4
TORSDOF 1
ENDMDL
MODEL 7
REMARK VINA RESULT:      -3.9      1.407      2.259
REMARK  1 active torsions:
REMARK  status: ('A' for Active; 'I' for Inactive)
REMARK    1  A    between atoms: C11_11  and  N13_13 
ROOT
HETATM    1  C1  UNL     1     -31.209  19.027   1.512  1.00 20.00     0.089 C 
HETATM    2  C11 UNL     1     -32.667  18.948   1.573  1.00 20.00     0.395 C 
HETATM    3  N12 UNL     1     -30.051  19.091   1.467  1.00 20.00    -0.195 NA
ENDROOT
BRANCH   2   4
HETATM    4  N13 UNL     1     -33.245  18.953   0.233  1.00 20.00     0.101 N 
HETATM    5  C7  UNL     1     -34.704  18.988   0.268  1.00 20.00     0.274 C 
HETATM    6  C6  UNL     1     -35.269  19.263  -1.132  1.00 20.00     0.035 C 
HETATM    7  C9  UNL     1     -34.462  18.589  -2.258  1.00 20.00    -0.007 C 
HETATM    8  C4  UNL     1     -35.366  18.191  -3.431  1.00 20.00     0.005 C 
HETATM    9  C10 UNL     1     -33.681  17.388  -1.705  1.00 20.00     0.018 C 
HETATM   10  C2  UNL     1     -34.583  17.467  -4.523  1.00 20.00     0.000 C 
HETATM   11  C3  UNL     1     -33.831  16.260  -3.968  1.00 20.00     0.000 C 
HETATM   12  C5  UNL     1     -32.914  16.653  -2.812  1.00 20.00     0.007 C 
HETATM   13  C8  UNL     1     -32.729  17.833  -0.572  1.00 20.00     0.278 C 
ENDBRANCH   2   4
TORSDOF 1
ENDMDL
MODEL 8
REMARK VINA RESULT:      -3.7      2.856      5.711
REMARK  1 active torsions:
REMARK  status: ('A' for Active; 'I' for Inactive)
REMARK    1  A    between atoms: C11_11  and  N13_13 
ROOT
HETATM    1  C1  UNL     1     -37.904  16.753  -6.828  1.00 20.00     0.089 C 
HETATM    2  C11 UNL     1     -36.572  17.044  -7.353  1.00 20.00     0.395 C 
HETATM    3  N12 UNL     1     -38.963  16.522  -6.413  1.00 20.00    -0.195 NA
ENDROOT
BRANCH   2   4
HETATM    4  N13 UNL     1     -35.567  16.963  -6.299  1.00 20.00     0.101 N 
HETATM    5  C7  UNL     1     -35.467  15.616  -5.744  1.00 20.00     0.274 C 
HETATM    6  C6  UNL     1     -34.232  15.497  -4.840  1.00 20.00     0.035 C 
HETATM    7  C9  UNL     1     -33.948  16.775  -4.027  1.00 20.00    -0.007 C 
HETATM    8  C4  UNL     1     -33.319  16.443  -2.668  1.00 20.00     0.005 C 
HETATM    9  C10 UNL     1     -35.231  17.604  -3.876  1.00 20.00     0.018 C 
HETATM   10  C2  UNL     1     -33.092  17.700  -1.833  1.00 20.00     0.000 C 
HETATM   11  C3  UNL     1     -34.379  18.504  -1.667  1.00 20.00     0.000 C 
HETATM   12  C5  UNL     1     -35.000  18.855  -3.017  1.00 20.00     0.007 C 
HETATM   13  C8  UNL     1     -35.802  17.981  -5.261  1.00 20.00     0.278 C 
ENDBRANCH   2   4
TORSDOF 1
ENDMDL
MODEL 9
REMARK VINA RESULT:      -3.7     11.579     13.263
REMARK  1 active torsions:
REMARK  status: ('A' for Active; 'I' for Inactive)
REMARK    1  A    between atoms: C11_11  and  N13_13 
ROOT
HETATM    1  C1  UNL     1     -39.398  11.753   4.499  1.00 20.00     0.089 C 
HETATM    2  C11 UNL     1     -39.776  11.667   5.908  1.00 20.00     0.395 C 
HETATM    3  N12 UNL     1     -39.096  11.820   3.381  1.00 20.00    -0.195 NA
ENDROOT
BRANCH   2   4
HETATM    4  N13 UNL     1     -40.690  12.745   6.269  1.00 20.00     0.101 N 
HETATM    5  C7  UNL     1     -41.155  13.481   5.097  1.00 20.00     0.274 C 
HETATM    6  C6  UNL     1     -42.307  14.422   5.476  1.00 20.00     0.035 C 
HETATM    7  C9  UNL     1     -42.142  15.058   6.868  1.00 20.00    -0.007 C 
HETATM    8  C4  UNL     1     -42.753  16.464   6.916  1.00 20.00     0.005 C 
HETATM    9  C10 UNL     1     -40.661  15.065   7.276  1.00 20.00     0.018 C 
HETATM   10  C2  UNL     1     -42.537  17.125   8.275  1.00 20.00     0.000 C 
HETATM   11  C3  UNL     1     -41.061  17.149   8.660  1.00 20.00     0.000 C 
HETATM   12  C5  UNL     1     -40.450  15.749   8.633  1.00 20.00     0.007 C 
HETATM   13  C8  UNL     1     -40.093  13.628   7.286  1.00 20.00     0.278 C 
ENDBRANCH   2   4
TORSDOF 1
ENDMDL
