MODEL 1
REMARK VINA RESULT:      -5.1      0.000      0.000
REMARK  0 active torsions:
REMARK  status: ('A' for Active; 'I' for Inactive)
ROOT
HETATM    1  C1  UNL     1     -34.641   5.386   6.173  1.00 20.00     0.028 C 
HETATM    2  C2  UNL     1     -34.013   4.837   3.821  1.00 20.00     0.033 C 
HETATM    3  C3  UNL     1     -32.477   6.560   3.007  1.00 20.00     0.046 C 
HETATM    4  C4  UNL     1     -34.420   6.665   6.851  1.00 20.00     0.112 C 
HETATM    5  C5  UNL     1     -34.329   5.713   4.921  1.00 20.00    -0.025 C 
HETATM    6  C6  UNL     1     -33.135   5.262   2.894  1.00 20.00     0.036 C 
HETATM    7  C7  UNL     1     -32.908   7.472   3.900  1.00 20.00     0.042 C 
HETATM    8  C8  UNL     1     -34.110   7.190   4.757  1.00 20.00     0.185 C 
HETATM    9  N9  UNL     1     -34.042   7.693   6.149  1.00 20.00    -0.286 NA
HETATM   10 CL10 UNL     1     -32.673   4.235   1.587  1.00 20.00    -0.084 Cl
HETATM   11 CL11 UNL     1     -32.169   9.021   4.027  1.00 20.00    -0.086 Cl
ENDROOT
TORSDOF 0
ENDMDL
MODEL 2
REMARK VINA RESULT:      -4.6      2.335      3.853
REMARK  0 active torsions:
REMARK  status: ('A' for Active; 'I' for Inactive)
ROOT
HETATM    1  C1  UNL     1     -32.751   5.228   2.657  1.00 20.00     0.028 C 
HETATM    2  C2  UNL     1     -32.555   7.552   3.544  1.00 20.00     0.033 C 
HETATM    3  C3  UNL     1     -33.391   7.577   5.844  1.00 20.00     0.046 C 
HETATM    4  C4  UNL     1     -33.525   4.138   3.254  1.00 20.00     0.112 C 
HETATM    5  C5  UNL     1     -33.168   6.257   3.391  1.00 20.00    -0.025 C 
HETATM    6  C6  UNL     1     -32.684   8.188   4.722  1.00 20.00     0.036 C 
HETATM    7  C7  UNL     1     -34.143   6.475   5.662  1.00 20.00     0.042 C 
HETATM    8  C8  UNL     1     -34.314   5.888   4.289  1.00 20.00     0.185 C 
HETATM    9  N9  UNL     1     -34.352   4.408   4.222  1.00 20.00    -0.286 NA
HETATM   10 CL10 UNL     1     -31.922   9.715   4.984  1.00 20.00    -0.084 Cl
HETATM   11 CL11 UNL     1     -35.011   5.757   6.963  1.00 20.00    -0.086 Cl
ENDROOT
TORSDOF 0
ENDMDL
MODEL 3
REMARK VINA RESULT:      -4.4      1.672      2.007
REMARK  0 active torsions:
REMARK  status: ('A' for Active; 'I' for Inactive)
ROOT
HETATM    1  C1  UNL     1     -33.963   4.435   4.594  1.00 20.00     0.028 C 
HETATM    2  C2  UNL     1     -33.171   5.990   2.811  1.00 20.00     0.033 C 
HETATM    3  C3  UNL     1     -32.730   8.173   3.826  1.00 20.00     0.046 C 
HETATM    4  C4  UNL     1     -34.412   4.814   5.936  1.00 20.00     0.112 C 
HETATM    5  C5  UNL     1     -33.874   5.630   4.016  1.00 20.00    -0.025 C 
HETATM    6  C6  UNL     1     -32.641   7.223   2.721  1.00 20.00     0.036 C 
HETATM    7  C7  UNL     1     -33.552   7.939   4.866  1.00 20.00     0.042 C 
HETATM    8  C8  UNL     1     -34.436   6.723   4.881  1.00 20.00     0.185 C 
HETATM    9  N9  UNL     1     -34.615   6.072   6.199  1.00 20.00    -0.286 NA
HETATM   10 CL10 UNL     1     -31.737   7.691   1.327  1.00 20.00    -0.084 Cl
HETATM   11 CL11 UNL     1     -33.699   9.060   6.163  1.00 20.00    -0.086 Cl
ENDROOT
TORSDOF 0
ENDMDL
MODEL 4
REMARK VINA RESULT:      -4.2     12.642     13.851
REMARK  0 active torsions:
REMARK  status: ('A' for Active; 'I' for Inactive)
ROOT
HETATM    1  C1  UNL     1     -33.561  15.054  -4.062  1.00 20.00     0.028 C 
HETATM    2  C2  UNL     1     -33.319  16.648  -2.158  1.00 20.00     0.033 C 
HETATM    3  C3  UNL     1     -34.948  18.453  -2.445  1.00 20.00     0.046 C 
HETATM    4  C4  UNL     1     -34.293  15.299  -5.306  1.00 20.00     0.112 C 
HETATM    5  C5  UNL     1     -33.573  16.272  -3.525  1.00 20.00    -0.025 C 
HETATM    6  C6  UNL     1     -33.971  17.712  -1.653  1.00 20.00     0.036 C 
HETATM    7  C7  UNL     1     -35.045  18.254  -3.773  1.00 20.00     0.042 C 
HETATM    8  C8  UNL     1     -34.111  17.306  -4.473  1.00 20.00     0.185 C 
HETATM    9  N9  UNL     1     -34.707  16.505  -5.567  1.00 20.00    -0.286 NA
HETATM   10 CL10 UNL     1     -33.753  18.173  -0.004  1.00 20.00    -0.084 Cl
HETATM   11 CL11 UNL     1     -36.165  19.140  -4.733  1.00 20.00    -0.086 Cl
ENDROOT
TORSDOF 0
ENDMDL
MODEL 5
REMARK VINA RESULT:      -4.0      9.946     11.230
REMARK  0 active torsions:
REMARK  status: ('A' for Active; 'I' for Inactive)
ROOT
HETATM    1  C1  UNL     1     -40.019  12.320   4.829  1.00 20.00     0.028 C 
HETATM    2  C2  UNL     1     -41.826  14.040   4.869  1.00 20.00     0.033 C 
HETATM    3  C3  UNL     1     -41.543  15.416   6.874  1.00 20.00     0.046 C 
HETATM    4  C4  UNL     1     -39.145  11.959   5.947  1.00 20.00     0.112 C 
HETATM    5  C5  UNL     1     -40.904  13.098   5.449  1.00 20.00    -0.025 C 
HETATM    6  C6  UNL     1     -42.143  15.144   5.571  1.00 20.00     0.036 C 
HETATM    7  C7  UNL     1     -40.850  14.460   7.522  1.00 20.00     0.042 C 
HETATM    8  C8  UNL     1     -40.730  13.079   6.942  1.00 20.00     0.185 C 
HETATM    9  N9  UNL     1     -39.423  12.410   7.135  1.00 20.00    -0.286 NA
HETATM   10 CL10 UNL     1     -43.195  16.338   4.903  1.00 20.00    -0.084 Cl
HETATM   11 CL11 UNL     1     -40.163  14.747   9.074  1.00 20.00    -0.086 Cl
ENDROOT
TORSDOF 0
ENDMDL
MODEL 6
REMARK VINA RESULT:      -4.0      2.336      3.697
REMARK  0 active torsions:
REMARK  status: ('A' for Active; 'I' for Inactive)
ROOT
HETATM    1  C1  UNL     1     -32.471   8.628   4.969  1.00 20.00     0.028 C 
HETATM    2  C2  UNL     1     -34.118   7.022   5.934  1.00 20.00     0.033 C 
HETATM    3  C3  UNL     1     -34.004   4.935   4.661  1.00 20.00     0.046 C 
HETATM    4  C4  UNL     1     -31.792   8.499   3.677  1.00 20.00     0.112 C 
HETATM    5  C5  UNL     1     -33.366   7.647   4.877  1.00 20.00    -0.025 C 
HETATM    6  C6  UNL     1     -34.438   5.721   5.812  1.00 20.00     0.036 C 
HETATM    7  C7  UNL     1     -33.489   5.539   3.573  1.00 20.00     0.042 C 
HETATM    8  C8  UNL     1     -33.403   7.038   3.503  1.00 20.00     0.185 C 
HETATM    9  N9  UNL     1     -32.195   7.585   2.843  1.00 20.00    -0.286 NA
HETATM   10 CL10 UNL     1     -35.286   4.903   7.073  1.00 20.00    -0.084 Cl
HETATM   11 CL11 UNL     1     -33.003   4.637   2.192  1.00 20.00    -0.086 Cl
ENDROOT
TORSDOF 0
ENDMDL
MODEL 7
REMARK VINA RESULT:      -3.9      1.791      2.776
REMARK  0 active torsions:
REMARK  status: ('A' for Active; 'I' for Inactive)
ROOT
HETATM    1  C1  UNL     1     -32.662   8.743   3.735  1.00 20.00     0.028 C 
HETATM    2  C2  UNL     1     -32.431   6.457   2.762  1.00 20.00     0.033 C 
HETATM    3  C3  UNL     1     -33.993   4.963   3.912  1.00 20.00     0.046 C 
HETATM    4  C4  UNL     1     -33.346   9.086   4.984  1.00 20.00     0.112 C 
HETATM    5  C5  UNL     1     -32.653   7.414   3.816  1.00 20.00    -0.025 C 
HETATM    6  C6  UNL     1     -33.066   5.272   2.827  1.00 20.00     0.036 C 
HETATM    7  C7  UNL     1     -34.054   5.747   5.005  1.00 20.00     0.042 C 
HETATM    8  C8  UNL     1     -33.128   6.922   5.154  1.00 20.00     0.185 C 
HETATM    9  N9  UNL     1     -33.713   8.127   5.785  1.00 20.00    -0.286 NA
HETATM   10 CL10 UNL     1     -32.886   4.109   1.564  1.00 20.00    -0.084 Cl
HETATM   11 CL11 UNL     1     -35.114   5.384   6.311  1.00 20.00    -0.086 Cl
ENDROOT
TORSDOF 0
ENDMDL
MODEL 8
REMARK VINA RESULT:      -3.9      1.395      3.166
REMARK  0 active torsions:
REMARK  status: ('A' for Active; 'I' for Inactive)
ROOT
HETATM    1  C1  UNL     1     -34.879   6.246   6.380  1.00 20.00     0.028 C 
HETATM    2  C2  UNL     1     -33.228   7.940   5.587  1.00 20.00     0.033 C 
HETATM    3  C3  UNL     1     -32.631   7.417   3.271  1.00 20.00     0.046 C 
HETATM    4  C4  UNL     1     -35.194   4.974   5.725  1.00 20.00     0.112 C 
HETATM    5  C5  UNL     1     -33.815   6.628   5.677  1.00 20.00    -0.025 C 
HETATM    6  C6  UNL     1     -32.643   8.304   4.431  1.00 20.00     0.036 C 
HETATM    7  C7  UNL     1     -32.981   6.123   3.395  1.00 20.00     0.042 C 
HETATM    8  C8  UNL     1     -33.336   5.554   4.741  1.00 20.00     0.185 C 
HETATM    9  N9  UNL     1     -34.436   4.562   4.751  1.00 20.00    -0.286 NA
HETATM   10 CL10 UNL     1     -31.976   9.885   4.244  1.00 20.00    -0.084 Cl
HETATM   11 CL11 UNL     1     -32.942   5.050   2.050  1.00 20.00    -0.086 Cl
ENDROOT
TORSDOF 0
ENDMDL
MODEL 9
REMARK VINA RESULT:      -3.8     12.767     14.289
REMARK  0 active torsions:
REMARK  status: ('A' for Active; 'I' for Inactive)
ROOT
HETATM    1  C1  UNL     1     -34.965  19.263  -4.902  1.00 20.00     0.028 C 
HETATM    2  C2  UNL     1     -34.727  18.639  -2.499  1.00 20.00     0.033 C 
HETATM    3  C3  UNL     1     -33.367  16.609  -2.355  1.00 20.00     0.046 C 
HETATM    4  C4  UNL     1     -34.649  18.412  -6.052  1.00 20.00     0.112 C 
HETATM    5  C5  UNL     1     -34.868  18.382  -3.909  1.00 20.00    -0.025 C 
HETATM    6  C6  UNL     1     -34.020  17.768  -1.755  1.00 20.00     0.036 C 
HETATM    7  C7  UNL     1     -33.655  16.237  -3.617  1.00 20.00     0.042 C 
HETATM    8  C8  UNL     1     -34.696  16.976  -4.411  1.00 20.00     0.185 C 
HETATM    9  N9  UNL     1     -34.404  17.149  -5.852  1.00 20.00    -0.286 NA
HETATM   10 CL10 UNL     1     -33.768  18.054  -0.072  1.00 20.00    -0.084 Cl
HETATM   11 CL11 UNL     1     -32.924  14.854  -4.333  1.00 20.00    -0.086 Cl
ENDROOT
TORSDOF 0
ENDMDL
