MODEL 1
REMARK VINA RESULT:      -4.4      0.000      0.000
REMARK  3 active torsions:
REMARK  status: ('A' for Active; 'I' for Inactive)
REMARK    1  A    between atoms: C1_1  and  C6_6 
REMARK    2  A    between atoms: C5_5  and  C7_7 
REMARK    3  A    between atoms: C6_6  and  C7_7 
ROOT
HETATM    1  C2  UNL     1     -34.385   4.832   6.253  1.00 20.00     0.033 C 
HETATM    2  C3  UNL     1     -33.889   4.400   4.888  1.00 20.00     0.168 C 
HETATM    3  C4  UNL     1     -35.245   6.277   4.616  1.00 20.00     0.172 C 
HETATM    4  C5  UNL     1     -34.730   6.293   6.047  1.00 20.00     0.012 C 
HETATM    5  O9  UNL     1     -34.528   5.246   3.922  1.00 20.00    -0.391 OA
ENDROOT
BRANCH   4   6
HETATM    6  C7  UNL     1     -33.507   7.195   6.199  1.00 20.00     0.013 C 
BRANCH   6   7
HETATM    7  C6  UNL     1     -33.485   8.295   5.142  1.00 20.00     0.070 C 
BRANCH   7   8
HETATM    8  C1  UNL     1     -32.243   8.256   4.285  1.00 20.00     0.231 C 
HETATM    9  O8  UNL     1     -32.047   7.462   3.373  1.00 20.00    -0.307 OA
ENDBRANCH   7   8
ENDBRANCH   6   7
ENDBRANCH   4   6
TORSDOF 3
ENDMDL
MODEL 2
REMARK VINA RESULT:      -4.2      0.937      3.460
REMARK  3 active torsions:
REMARK  status: ('A' for Active; 'I' for Inactive)
REMARK    1  A    between atoms: C1_1  and  C6_6 
REMARK    2  A    between atoms: C5_5  and  C7_7 
REMARK    3  A    between atoms: C6_6  and  C7_7 
ROOT
HETATM    1  C2  UNL     1     -33.913   7.672   3.883  1.00 20.00     0.033 C 
HETATM    2  C3  UNL     1     -32.552   7.238   3.376  1.00 20.00     0.168 C 
HETATM    3  C4  UNL     1     -32.239   8.873   5.008  1.00 20.00     0.172 C 
HETATM    4  C5  UNL     1     -33.602   8.244   5.251  1.00 20.00     0.012 C 
HETATM    5  O9  UNL     1     -31.579   8.076   4.014  1.00 20.00    -0.391 OA
ENDROOT
BRANCH   4   6
HETATM    6  C7  UNL     1     -33.542   7.158   6.323  1.00 20.00     0.013 C 
BRANCH   6   7
HETATM    7  C6  UNL     1     -34.752   6.233   6.255  1.00 20.00     0.070 C 
BRANCH   7   8
HETATM    8  C1  UNL     1     -34.387   4.821   5.866  1.00 20.00     0.231 C 
HETATM    9  O8  UNL     1     -34.475   4.363   4.732  1.00 20.00    -0.307 OA
ENDBRANCH   7   8
ENDBRANCH   6   7
ENDBRANCH   4   6
TORSDOF 3
ENDMDL
MODEL 3
REMARK VINA RESULT:      -4.0      1.181      1.494
REMARK  3 active torsions:
REMARK  status: ('A' for Active; 'I' for Inactive)
REMARK    1  A    between atoms: C1_1  and  C6_6 
REMARK    2  A    between atoms: C5_5  and  C7_7 
REMARK    3  A    between atoms: C6_6  and  C7_7 
ROOT
HETATM    1  C2  UNL     1     -34.586   6.424   6.600  1.00 20.00     0.033 C 
HETATM    2  C3  UNL     1     -34.296   4.962   6.325  1.00 20.00     0.168 C 
HETATM    3  C4  UNL     1     -34.916   5.977   4.320  1.00 20.00     0.172 C 
HETATM    4  C5  UNL     1     -34.403   7.071   5.243  1.00 20.00     0.012 C 
HETATM    5  O9  UNL     1     -34.617   4.722   4.947  1.00 20.00    -0.391 OA
ENDROOT
BRANCH   4   6
HETATM    6  C7  UNL     1     -32.939   7.407   4.963  1.00 20.00     0.013 C 
BRANCH   6   7
HETATM    7  C6  UNL     1     -32.791   8.279   3.721  1.00 20.00     0.070 C 
BRANCH   7   8
HETATM    8  C1  UNL     1     -32.119   7.558   2.578  1.00 20.00     0.231 C 
HETATM    9  O8  UNL     1     -32.046   7.981   1.430  1.00 20.00    -0.307 OA
ENDBRANCH   7   8
ENDBRANCH   6   7
ENDBRANCH   4   6
TORSDOF 3
ENDMDL
MODEL 4
REMARK VINA RESULT:      -4.0      1.108      3.762
REMARK  3 active torsions:
REMARK  status: ('A' for Active; 'I' for Inactive)
REMARK    1  A    between atoms: C1_1  and  C6_6 
REMARK    2  A    between atoms: C5_5  and  C7_7 
REMARK    3  A    between atoms: C6_6  and  C7_7 
ROOT
HETATM    1  C2  UNL     1     -32.278   8.948   4.648  1.00 20.00     0.033 C 
HETATM    2  C3  UNL     1     -32.605   9.301   3.210  1.00 20.00     0.168 C 
HETATM    3  C4  UNL     1     -32.386   6.985   3.365  1.00 20.00     0.172 C 
HETATM    4  C5  UNL     1     -32.722   7.504   4.754  1.00 20.00     0.012 C 
HETATM    5  O9  UNL     1     -32.551   8.083   2.455  1.00 20.00    -0.391 OA
ENDROOT
BRANCH   4   6
HETATM    6  C7  UNL     1     -34.214   7.385   5.058  1.00 20.00     0.013 C 
BRANCH   6   7
HETATM    7  C6  UNL     1     -34.471   6.513   6.282  1.00 20.00     0.070 C 
BRANCH   7   8
HETATM    8  C1  UNL     1     -34.480   5.039   5.957  1.00 20.00     0.231 C 
HETATM    9  O8  UNL     1     -34.761   4.566   4.862  1.00 20.00    -0.307 OA
ENDBRANCH   7   8
ENDBRANCH   6   7
ENDBRANCH   4   6
TORSDOF 3
ENDMDL
MODEL 5
REMARK VINA RESULT:      -3.9      1.393      1.828
REMARK  3 active torsions:
REMARK  status: ('A' for Active; 'I' for Inactive)
REMARK    1  A    between atoms: C1_1  and  C6_6 
REMARK    2  A    between atoms: C5_5  and  C7_7 
REMARK    3  A    between atoms: C6_6  and  C7_7 
ROOT
HETATM    1  C2  UNL     1     -34.123   6.752   6.211  1.00 20.00     0.033 C 
HETATM    2  C3  UNL     1     -34.289   5.265   6.452  1.00 20.00     0.168 C 
HETATM    3  C4  UNL     1     -35.274   5.792   4.405  1.00 20.00     0.172 C 
HETATM    4  C5  UNL     1     -34.246   6.871   4.706  1.00 20.00     0.012 C 
HETATM    5  O9  UNL     1     -35.089   4.752   5.377  1.00 20.00    -0.391 OA
ENDROOT
BRANCH   4   6
HETATM    6  C7  UNL     1     -32.919   6.601   4.000  1.00 20.00     0.013 C 
BRANCH   6   7
HETATM    7  C6  UNL     1     -32.472   7.799   3.168  1.00 20.00     0.070 C 
BRANCH   7   8
HETATM    8  C1  UNL     1     -32.510   9.094   3.942  1.00 20.00     0.231 C 
HETATM    9  O8  UNL     1     -32.006   9.265   5.046  1.00 20.00    -0.307 OA
ENDBRANCH   7   8
ENDBRANCH   6   7
ENDBRANCH   4   6
TORSDOF 3
ENDMDL
MODEL 6
REMARK VINA RESULT:      -3.5      8.834      9.590
REMARK  3 active torsions:
REMARK  status: ('A' for Active; 'I' for Inactive)
REMARK    1  A    between atoms: C1_1  and  C6_6 
REMARK    2  A    between atoms: C5_5  and  C7_7 
REMARK    3  A    between atoms: C6_6  and  C7_7 
ROOT
HETATM    1  C2  UNL     1     -40.748  14.291   6.719  1.00 20.00     0.033 C 
HETATM    2  C3  UNL     1     -41.267  14.054   8.123  1.00 20.00     0.168 C 
HETATM    3  C4  UNL     1     -42.156  12.413   6.727  1.00 20.00     0.172 C 
HETATM    4  C5  UNL     1     -40.886  12.929   6.069  1.00 20.00     0.012 C 
HETATM    5  O9  UNL     1     -42.201  12.968   8.049  1.00 20.00    -0.391 OA
ENDROOT
BRANCH   4   6
HETATM    6  C7  UNL     1     -39.688  12.030   6.367  1.00 20.00     0.013 C 
BRANCH   6   7
HETATM    7  C6  UNL     1     -38.640  12.106   5.261  1.00 20.00     0.070 C 
BRANCH   7   8
HETATM    8  C1  UNL     1     -39.105  11.469   3.973  1.00 20.00     0.231 C 
HETATM    9  O8  UNL     1     -39.167  12.042   2.892  1.00 20.00    -0.307 OA
ENDBRANCH   7   8
ENDBRANCH   6   7
ENDBRANCH   4   6
TORSDOF 3
ENDMDL
MODEL 7
REMARK VINA RESULT:      -3.4     12.333     13.265
REMARK  3 active torsions:
REMARK  status: ('A' for Active; 'I' for Inactive)
REMARK    1  A    between atoms: C1_1  and  C6_6 
REMARK    2  A    between atoms: C5_5  and  C7_7 
REMARK    3  A    between atoms: C6_6  and  C7_7 
ROOT
HETATM    1  C2  UNL     1     -32.226  18.222  -0.898  1.00 20.00     0.033 C 
HETATM    2  C3  UNL     1     -33.268  18.302   0.200  1.00 20.00     0.168 C 
HETATM    3  C4  UNL     1     -34.288  18.857  -1.822  1.00 20.00     0.172 C 
HETATM    4  C5  UNL     1     -33.060  18.022  -2.147  1.00 20.00     0.012 C 
HETATM    5  O9  UNL     1     -34.474  18.796  -0.400  1.00 20.00    -0.391 OA
ENDROOT
BRANCH   4   6
HETATM    6  C7  UNL     1     -33.415  16.553  -2.368  1.00 20.00     0.013 C 
BRANCH   6   7
HETATM    7  C6  UNL     1     -33.649  16.248  -3.844  1.00 20.00     0.070 C 
BRANCH   7   8
HETATM    8  C1  UNL     1     -33.444  14.790  -4.178  1.00 20.00     0.231 C 
HETATM    9  O8  UNL     1     -34.293  13.916  -4.046  1.00 20.00    -0.307 OA
ENDBRANCH   7   8
ENDBRANCH   6   7
ENDBRANCH   4   6
TORSDOF 3
ENDMDL
MODEL 8
REMARK VINA RESULT:      -3.4     12.930     13.667
REMARK  3 active torsions:
REMARK  status: ('A' for Active; 'I' for Inactive)
REMARK    1  A    between atoms: C1_1  and  C6_6 
REMARK    2  A    between atoms: C5_5  and  C7_7 
REMARK    3  A    between atoms: C6_6  and  C7_7 
ROOT
HETATM    1  C2  UNL     1     -33.578  18.330  -3.949  1.00 20.00     0.033 C 
HETATM    2  C3  UNL     1     -34.694  17.506  -4.558  1.00 20.00     0.168 C 
HETATM    3  C4  UNL     1     -33.246  16.064  -3.436  1.00 20.00     0.172 C 
HETATM    4  C5  UNL     1     -33.072  17.446  -2.827  1.00 20.00     0.012 C 
HETATM    5  O9  UNL     1     -34.384  16.128  -4.307  1.00 20.00    -0.391 OA
ENDROOT
BRANCH   4   6
HETATM    6  C7  UNL     1     -33.898  17.612  -1.553  1.00 20.00     0.013 C 
BRANCH   6   7
HETATM    7  C6  UNL     1     -33.033  18.052  -0.377  1.00 20.00     0.070 C 
BRANCH   7   8
HETATM    8  C1  UNL     1     -31.849  18.888  -0.803  1.00 20.00     0.231 C 
HETATM    9  O8  UNL     1     -30.685  18.657  -0.498  1.00 20.00    -0.307 OA
ENDBRANCH   7   8
ENDBRANCH   6   7
ENDBRANCH   4   6
TORSDOF 3
ENDMDL
MODEL 9
REMARK VINA RESULT:      -3.3      1.700      2.654
REMARK  3 active torsions:
REMARK  status: ('A' for Active; 'I' for Inactive)
REMARK    1  A    between atoms: C1_1  and  C6_6 
REMARK    2  A    between atoms: C5_5  and  C7_7 
REMARK    3  A    between atoms: C6_6  and  C7_7 
ROOT
HETATM    1  C2  UNL     1     -34.769   6.877   4.682  1.00 20.00     0.033 C 
HETATM    2  C3  UNL     1     -33.861   7.261   5.833  1.00 20.00     0.168 C 
HETATM    3  C4  UNL     1     -34.630   5.091   6.198  1.00 20.00     0.172 C 
HETATM    4  C5  UNL     1     -34.730   5.363   4.705  1.00 20.00     0.012 C 
HETATM    5  O9  UNL     1     -33.899   6.181   6.776  1.00 20.00    -0.391 OA
ENDROOT
BRANCH   4   6
HETATM    6  C7  UNL     1     -33.525   4.811   3.947  1.00 20.00     0.013 C 
BRANCH   6   7
HETATM    7  C6  UNL     1     -33.298   5.554   2.634  1.00 20.00     0.070 C 
BRANCH   7   8
HETATM    8  C1  UNL     1     -32.155   6.537   2.710  1.00 20.00     0.231 C 
HETATM    9  O8  UNL     1     -32.220   7.712   2.368  1.00 20.00    -0.307 OA
ENDBRANCH   7   8
ENDBRANCH   6   7
ENDBRANCH   4   6
TORSDOF 3
ENDMDL
