MODEL 1
REMARK VINA RESULT:      -5.5      0.000      0.000
REMARK  1 active torsions:
REMARK  status: ('A' for Active; 'I' for Inactive)
REMARK    1  A    between atoms: C4_4  and  C5_5 
ROOT
HETATM    1  C1  UNL     1     -32.055   8.530   4.110  1.00 20.00     0.135 A 
HETATM    2  C2  UNL     1     -32.218   7.449   3.272  1.00 20.00     0.136 A 
HETATM    3  C3  UNL     1     -33.684   7.707   5.488  1.00 20.00     0.152 A 
HETATM    4  C4  UNL     1     -33.847   6.627   4.650  1.00 20.00     0.157 A 
HETATM    5  N6  UNL     1     -32.784   8.679   5.233  1.00 20.00    -0.269 NA
HETATM    6  N7  UNL     1     -33.117   6.479   3.527  1.00 20.00    -0.254 NA
ENDROOT
BRANCH   4   7
HETATM    7  C5  UNL     1     -34.851   5.573   4.963  1.00 20.00     0.435 C 
HETATM    8  F8  UNL     1     -34.483   4.323   4.549  1.00 20.00    -0.165 F 
HETATM    9  F9  UNL     1     -35.113   5.441   6.298  1.00 20.00    -0.165 F 
HETATM   10  F10 UNL     1     -36.062   5.807   4.376  1.00 20.00    -0.165 F 
ENDBRANCH   4   7
TORSDOF 1
ENDMDL
MODEL 2
REMARK VINA RESULT:      -5.4      0.834      1.930
REMARK  1 active torsions:
REMARK  status: ('A' for Active; 'I' for Inactive)
REMARK    1  A    between atoms: C4_4  and  C5_5 
ROOT
HETATM    1  C1  UNL     1     -31.954   8.337   3.880  1.00 20.00     0.135 A 
HETATM    2  C2  UNL     1     -32.688   8.502   5.034  1.00 20.00     0.136 A 
HETATM    3  C3  UNL     1     -33.098   6.410   3.427  1.00 20.00     0.152 A 
HETATM    4  C4  UNL     1     -33.832   6.575   4.580  1.00 20.00     0.157 A 
HETATM    5  N6  UNL     1     -32.145   7.288   3.056  1.00 20.00    -0.269 NA
HETATM    6  N7  UNL     1     -33.640   7.623   5.404  1.00 20.00    -0.254 NA
ENDROOT
BRANCH   4   7
HETATM    7  C5  UNL     1     -34.877   5.583   4.960  1.00 20.00     0.435 C 
HETATM    8  F8  UNL     1     -35.118   5.525   6.304  1.00 20.00    -0.165 F 
HETATM    9  F9  UNL     1     -36.097   5.826   4.392  1.00 20.00    -0.165 F 
HETATM   10  F10 UNL     1     -34.552   4.308   4.593  1.00 20.00    -0.165 F 
ENDBRANCH   4   7
TORSDOF 1
ENDMDL
MODEL 3
REMARK VINA RESULT:      -5.4      0.854      1.507
REMARK  1 active torsions:
REMARK  status: ('A' for Active; 'I' for Inactive)
REMARK    1  A    between atoms: C4_4  and  C5_5 
ROOT
HETATM    1  C1  UNL     1     -32.081   8.513   4.067  1.00 20.00     0.135 A 
HETATM    2  C2  UNL     1     -32.876   8.611   5.189  1.00 20.00     0.136 A 
HETATM    3  C3  UNL     1     -33.069   6.519   3.543  1.00 20.00     0.152 A 
HETATM    4  C4  UNL     1     -33.862   6.617   4.663  1.00 20.00     0.157 A 
HETATM    5  N6  UNL     1     -32.163   7.465   3.224  1.00 20.00    -0.269 NA
HETATM    6  N7  UNL     1     -33.780   7.665   5.506  1.00 20.00    -0.254 NA
ENDROOT
BRANCH   4   7
HETATM    7  C5  UNL     1     -34.852   5.551   4.985  1.00 20.00     0.435 C 
HETATM    8  F8  UNL     1     -34.479   4.307   4.556  1.00 20.00    -0.165 F 
HETATM    9  F9  UNL     1     -35.091   5.408   6.322  1.00 20.00    -0.165 F 
HETATM   10  F10 UNL     1     -36.074   5.779   4.419  1.00 20.00    -0.165 F 
ENDBRANCH   4   7
TORSDOF 1
ENDMDL
MODEL 4
REMARK VINA RESULT:      -5.3      2.882      3.697
REMARK  1 active torsions:
REMARK  status: ('A' for Active; 'I' for Inactive)
REMARK    1  A    between atoms: C4_4  and  C5_5 
ROOT
HETATM    1  C1  UNL     1     -34.896   5.334   5.788  1.00 20.00     0.135 A 
HETATM    2  C2  UNL     1     -34.462   5.279   4.481  1.00 20.00     0.136 A 
HETATM    3  C3  UNL     1     -33.768   7.301   6.079  1.00 20.00     0.152 A 
HETATM    4  C4  UNL     1     -33.334   7.246   4.774  1.00 20.00     0.157 A 
HETATM    5  N6  UNL     1     -34.557   6.346   6.610  1.00 20.00    -0.269 NA
HETATM    6  N7  UNL     1     -33.672   6.234   3.952  1.00 20.00    -0.254 NA
ENDROOT
BRANCH   4   7
HETATM    7  C5  UNL     1     -32.462   8.319   4.222  1.00 20.00     0.435 C 
HETATM    8  F8  UNL     1     -32.979   8.932   3.115  1.00 20.00    -0.165 F 
HETATM    9  F9  UNL     1     -32.212   9.333   5.103  1.00 20.00    -0.165 F 
HETATM   10  F10 UNL     1     -31.234   7.858   3.840  1.00 20.00    -0.165 F 
ENDBRANCH   4   7
TORSDOF 1
ENDMDL
MODEL 5
REMARK VINA RESULT:      -5.3      2.869      3.689
REMARK  1 active torsions:
REMARK  status: ('A' for Active; 'I' for Inactive)
REMARK    1  A    between atoms: C4_4  and  C5_5 
ROOT
HETATM    1  C1  UNL     1     -34.914   5.342   5.816  1.00 20.00     0.135 A 
HETATM    2  C2  UNL     1     -34.496   5.264   4.506  1.00 20.00     0.136 A 
HETATM    3  C3  UNL     1     -33.756   7.296   6.069  1.00 20.00     0.152 A 
HETATM    4  C4  UNL     1     -33.338   7.218   4.760  1.00 20.00     0.157 A 
HETATM    5  N6  UNL     1     -34.552   6.359   6.621  1.00 20.00    -0.269 NA
HETATM    6  N7  UNL     1     -33.700   6.201   3.955  1.00 20.00    -0.254 NA
ENDROOT
BRANCH   4   7
HETATM    7  C5  UNL     1     -32.457   8.272   4.184  1.00 20.00     0.435 C 
HETATM    8  F8  UNL     1     -31.234   7.810   3.785  1.00 20.00    -0.165 F 
HETATM    9  F9  UNL     1     -32.982   8.883   3.080  1.00 20.00    -0.165 F 
HETATM   10  F10 UNL     1     -32.194   9.280   5.067  1.00 20.00    -0.165 F 
ENDBRANCH   4   7
TORSDOF 1
ENDMDL
MODEL 6
REMARK VINA RESULT:      -5.3      2.785      3.893
REMARK  1 active torsions:
REMARK  status: ('A' for Active; 'I' for Inactive)
REMARK    1  A    between atoms: C4_4  and  C5_5 
ROOT
HETATM    1  C1  UNL     1     -34.822   5.287   5.935  1.00 20.00     0.135 A 
HETATM    2  C2  UNL     1     -34.306   6.484   6.383  1.00 20.00     0.136 A 
HETATM    3  C3  UNL     1     -33.820   5.615   3.906  1.00 20.00     0.152 A 
HETATM    4  C4  UNL     1     -33.305   6.811   4.354  1.00 20.00     0.157 A 
HETATM    5  N6  UNL     1     -34.589   4.831   4.689  1.00 20.00    -0.269 NA
HETATM    6  N7  UNL     1     -33.539   7.266   5.600  1.00 20.00    -0.254 NA
ENDROOT
BRANCH   4   7
HETATM    7  C5  UNL     1     -32.460   7.651   3.460  1.00 20.00     0.435 C 
HETATM    8  F8  UNL     1     -32.318   7.142   2.200  1.00 20.00    -0.165 F 
HETATM    9  F9  UNL     1     -32.942   8.917   3.279  1.00 20.00    -0.165 F 
HETATM   10  F10 UNL     1     -31.189   7.810   3.933  1.00 20.00    -0.165 F 
ENDBRANCH   4   7
TORSDOF 1
ENDMDL
MODEL 7
REMARK VINA RESULT:      -5.1      1.036      1.122
REMARK  1 active torsions:
REMARK  status: ('A' for Active; 'I' for Inactive)
REMARK    1  A    between atoms: C4_4  and  C5_5 
ROOT
HETATM    1  C1  UNL     1     -32.031   7.925   3.141  1.00 20.00     0.135 A 
HETATM    2  C2  UNL     1     -32.568   6.689   2.854  1.00 20.00     0.136 A 
HETATM    3  C3  UNL     1     -33.095   7.917   5.165  1.00 20.00     0.152 A 
HETATM    4  C4  UNL     1     -33.632   6.683   4.878  1.00 20.00     0.157 A 
HETATM    5  N6  UNL     1     -32.285   8.561   4.301  1.00 20.00    -0.269 NA
HETATM    6  N7  UNL     1     -33.378   6.046   3.718  1.00 20.00    -0.254 NA
ENDROOT
BRANCH   4   7
HETATM    7  C5  UNL     1     -34.525   6.001   5.856  1.00 20.00     0.435 C 
HETATM    8  F8  UNL     1     -33.975   4.879   6.412  1.00 20.00    -0.165 F 
HETATM    9  F9  UNL     1     -34.878   6.785   6.917  1.00 20.00    -0.165 F 
HETATM   10  F10 UNL     1     -35.702   5.590   5.298  1.00 20.00    -0.165 F 
ENDBRANCH   4   7
TORSDOF 1
ENDMDL
MODEL 8
REMARK VINA RESULT:      -4.2      2.410      3.174
REMARK  1 active torsions:
REMARK  status: ('A' for Active; 'I' for Inactive)
REMARK    1  A    between atoms: C4_4  and  C5_5 
ROOT
HETATM    1  C1  UNL     1     -34.487   6.579   6.502  1.00 20.00     0.135 A 
HETATM    2  C2  UNL     1     -34.738   5.353   5.925  1.00 20.00     0.136 A 
HETATM    3  C3  UNL     1     -33.322   7.217   4.642  1.00 20.00     0.152 A 
HETATM    4  C4  UNL     1     -33.572   5.992   4.065  1.00 20.00     0.157 A 
HETATM    5  N6  UNL     1     -33.775   7.533   5.871  1.00 20.00    -0.269 NA
HETATM    6  N7  UNL     1     -34.284   5.038   4.696  1.00 20.00    -0.254 NA
ENDROOT
BRANCH   4   7
HETATM    7  C5  UNL     1     -33.054   5.678   2.704  1.00 20.00     0.435 C 
HETATM    8  F8  UNL     1     -32.217   4.597   2.671  1.00 20.00    -0.165 F 
HETATM    9  F9  UNL     1     -34.035   5.394   1.795  1.00 20.00    -0.165 F 
HETATM   10  F10 UNL     1     -32.340   6.707   2.161  1.00 20.00    -0.165 F 
ENDBRANCH   4   7
TORSDOF 1
ENDMDL
MODEL 9
REMARK VINA RESULT:      -4.2      8.337      9.146
REMARK  1 active torsions:
REMARK  status: ('A' for Active; 'I' for Inactive)
REMARK    1  A    between atoms: C4_4  and  C5_5 
ROOT
HETATM    1  C1  UNL     1     -41.807  13.971   6.573  1.00 20.00     0.135 A 
HETATM    2  C2  UNL     1     -41.859  14.021   5.197  1.00 20.00     0.136 A 
HETATM    3  C3  UNL     1     -40.052  12.511   6.454  1.00 20.00     0.152 A 
HETATM    4  C4  UNL     1     -40.104  12.560   5.079  1.00 20.00     0.157 A 
HETATM    5  N6  UNL     1     -40.903  13.216   7.226  1.00 20.00    -0.269 NA
HETATM    6  N7  UNL     1     -41.008  13.316   4.426  1.00 20.00    -0.254 NA
ENDROOT
BRANCH   4   7
HETATM    7  C5  UNL     1     -39.148  11.768   4.257  1.00 20.00     0.435 C 
HETATM    8  F8  UNL     1     -39.095  12.156   2.948  1.00 20.00    -0.165 F 
HETATM    9  F9  UNL     1     -37.856  11.835   4.699  1.00 20.00    -0.165 F 
HETATM   10  F10 UNL     1     -39.454  10.437   4.229  1.00 20.00    -0.165 F 
ENDBRANCH   4   7
TORSDOF 1
ENDMDL
