MODEL 1
REMARK VINA RESULT:      -4.2      0.000      0.000
REMARK  1 active torsions:
REMARK  status: ('A' for Active; 'I' for Inactive)
REMARK    1  A    between atoms: C2_2  and  C6_6 
REMARK       I    between atoms: C2_2  and  N7_7 
ROOT
HETATM    1  C1  UNL     1     -32.333   7.918   2.204  1.00 20.00     0.167 C 
HETATM    2  C2  UNL     1     -32.669   7.728   4.358  1.00 20.00     0.273 C 
HETATM    3  N7  UNL     1     -32.180   7.254   3.160  1.00 20.00    -0.197 NA
HETATM    4  O8  UNL     1     -32.086   8.429   5.181  1.00 20.00    -0.268 OA
HETATM    5  S10 UNL     1     -32.524   8.790   0.885  1.00 20.00    -0.055 SA
ENDROOT
BRANCH   2   6
HETATM    6  C6  UNL     1     -34.079   7.310   4.640  1.00 20.00     0.215 C 
HETATM    7  C4  UNL     1     -34.362   7.184   6.124  1.00 20.00     0.044 C 
HETATM    8  C3  UNL     1     -34.042   5.734   6.398  1.00 20.00     0.029 C 
HETATM    9  C5  UNL     1     -34.483   5.069   5.114  1.00 20.00     0.168 C 
HETATM   10  O9  UNL     1     -34.237   6.011   4.062  1.00 20.00    -0.376 OA
ENDBRANCH   2   6
TORSDOF 1
ENDMDL
MODEL 2
REMARK VINA RESULT:      -3.7     11.711     12.764
REMARK  1 active torsions:
REMARK  status: ('A' for Active; 'I' for Inactive)
REMARK    1  A    between atoms: C2_2  and  C6_6 
REMARK       I    between atoms: C2_2  and  N7_7 
ROOT
HETATM    1  C1  UNL     1     -33.249  16.514  -2.718  1.00 20.00     0.167 C 
HETATM    2  C2  UNL     1     -33.815  15.098  -4.288  1.00 20.00     0.273 C 
HETATM    3  N7  UNL     1     -32.870  15.781  -3.553  1.00 20.00    -0.197 NA
HETATM    4  O8  UNL     1     -34.307  14.001  -4.041  1.00 20.00    -0.268 OA
HETATM    5  S10 UNL     1     -33.727  17.518  -1.577  1.00 20.00    -0.055 SA
ENDROOT
BRANCH   2   6
HETATM    6  C6  UNL     1     -34.256  15.824  -5.521  1.00 20.00     0.215 C 
HETATM    7  C4  UNL     1     -35.536  16.609  -5.307  1.00 20.00     0.044 C 
HETATM    8  C3  UNL     1     -36.601  15.613  -5.700  1.00 20.00     0.029 C 
HETATM    9  C5  UNL     1     -35.926  14.859  -6.823  1.00 20.00     0.168 C 
HETATM   10  O9  UNL     1     -34.529  14.820  -6.504  1.00 20.00    -0.376 OA
ENDBRANCH   2   6
TORSDOF 1
ENDMDL
MODEL 3
REMARK VINA RESULT:      -3.6     11.824     13.174
REMARK  1 active torsions:
REMARK  status: ('A' for Active; 'I' for Inactive)
REMARK    1  A    between atoms: C2_2  and  C6_6 
REMARK       I    between atoms: C2_2  and  N7_7 
ROOT
HETATM    1  C1  UNL     1     -33.340  16.683  -2.747  1.00 20.00     0.167 C 
HETATM    2  C2  UNL     1     -34.017  15.255  -4.261  1.00 20.00     0.273 C 
HETATM    3  N7  UNL     1     -33.111  16.176  -3.780  1.00 20.00    -0.197 NA
HETATM    4  O8  UNL     1     -34.028  14.043  -4.066  1.00 20.00    -0.268 OA
HETATM    5  S10 UNL     1     -33.617  17.392  -1.347  1.00 20.00    -0.055 SA
ENDROOT
BRANCH   2   6
HETATM    6  C6  UNL     1     -35.091  15.857  -5.113  1.00 20.00     0.215 C 
HETATM    7  C4  UNL     1     -35.527  14.935  -6.235  1.00 20.00     0.044 C 
HETATM    8  C3  UNL     1     -34.617  15.343  -7.368  1.00 20.00     0.029 C 
HETATM    9  C5  UNL     1     -34.472  16.830  -7.133  1.00 20.00     0.168 C 
HETATM   10  O9  UNL     1     -34.524  17.024  -5.714  1.00 20.00    -0.376 OA
ENDBRANCH   2   6
TORSDOF 1
ENDMDL
MODEL 4
REMARK VINA RESULT:      -3.4     10.466     11.231
REMARK  1 active torsions:
REMARK  status: ('A' for Active; 'I' for Inactive)
REMARK    1  A    between atoms: C2_2  and  C6_6 
REMARK       I    between atoms: C2_2  and  N7_7 
ROOT
HETATM    1  C1  UNL     1     -42.623  13.843   9.154  1.00 20.00     0.167 C 
HETATM    2  C2  UNL     1     -42.233  13.016   7.166  1.00 20.00     0.273 C 
HETATM    3  N7  UNL     1     -42.253  12.913   8.540  1.00 20.00    -0.197 NA
HETATM    4  O8  UNL     1     -43.134  12.734   6.380  1.00 20.00    -0.268 OA
HETATM    5  S10 UNL     1     -43.118  15.085  10.020  1.00 20.00    -0.055 SA
ENDROOT
BRANCH   2   6
HETATM    6  C6  UNL     1     -40.939  13.535   6.620  1.00 20.00     0.215 C 
HETATM    7  C4  UNL     1     -40.751  13.200   5.153  1.00 20.00     0.044 C 
HETATM    8  C3  UNL     1     -40.018  11.881   5.209  1.00 20.00     0.029 C 
HETATM    9  C5  UNL     1     -39.154  12.055   6.437  1.00 20.00     0.168 C 
HETATM   10  O9  UNL     1     -39.900  12.873   7.347  1.00 20.00    -0.376 OA
ENDBRANCH   2   6
TORSDOF 1
ENDMDL
MODEL 5
REMARK VINA RESULT:      -3.3     11.858     13.509
REMARK  1 active torsions:
REMARK  status: ('A' for Active; 'I' for Inactive)
REMARK    1  A    between atoms: C2_2  and  C6_6 
REMARK       I    between atoms: C2_2  and  N7_7 
ROOT
HETATM    1  C1  UNL     1     -33.519  15.599  -3.635  1.00 20.00     0.167 C 
HETATM    2  C2  UNL     1     -34.702  14.652  -5.214  1.00 20.00     0.273 C 
HETATM    3  N7  UNL     1     -33.622  14.680  -4.358  1.00 20.00    -0.197 NA
HETATM    4  O8  UNL     1     -35.811  14.167  -5.006  1.00 20.00    -0.268 OA
HETATM    5  S10 UNL     1     -33.345  16.831  -2.640  1.00 20.00    -0.055 SA
ENDROOT
BRANCH   2   6
HETATM    6  C6  UNL     1     -34.438  15.303  -6.536  1.00 20.00     0.215 C 
HETATM    7  C4  UNL     1     -34.692  16.798  -6.509  1.00 20.00     0.044 C 
HETATM    8  C3  UNL     1     -36.140  16.892  -6.927  1.00 20.00     0.029 C 
HETATM    9  C5  UNL     1     -36.255  15.756  -7.917  1.00 20.00     0.168 C 
HETATM   10  O9  UNL     1     -35.366  14.728  -7.461  1.00 20.00    -0.376 OA
ENDBRANCH   2   6
TORSDOF 1
ENDMDL
MODEL 6
REMARK VINA RESULT:      -3.3     10.064     10.637
REMARK  1 active torsions:
REMARK  status: ('A' for Active; 'I' for Inactive)
REMARK    1  A    between atoms: C2_2  and  C6_6 
REMARK       I    between atoms: C2_2  and  N7_7 
ROOT
HETATM    1  C1  UNL     1     -39.583  12.192   5.760  1.00 20.00     0.167 C 
HETATM    2  C2  UNL     1     -40.753  13.657   6.888  1.00 20.00     0.273 C 
HETATM    3  N7  UNL     1     -39.993  12.510   6.813  1.00 20.00    -0.197 NA
HETATM    4  O8  UNL     1     -40.362  14.804   7.083  1.00 20.00    -0.268 OA
HETATM    5  S10 UNL     1     -39.012  11.727   4.347  1.00 20.00    -0.055 SA
ENDROOT
BRANCH   2   6
HETATM    6  C6  UNL     1     -42.220  13.420   6.704  1.00 20.00     0.215 C 
HETATM    7  C4  UNL     1     -43.068  14.520   7.312  1.00 20.00     0.044 C 
HETATM    8  C3  UNL     1     -43.319  14.006   8.709  1.00 20.00     0.029 C 
HETATM    9  C5  UNL     1     -43.416  12.515   8.482  1.00 20.00     0.168 C 
HETATM   10  O9  UNL     1     -42.524  12.209   7.403  1.00 20.00    -0.376 OA
ENDBRANCH   2   6
TORSDOF 1
ENDMDL
MODEL 7
REMARK VINA RESULT:      -3.3     15.171     15.847
REMARK  1 active torsions:
REMARK  status: ('A' for Active; 'I' for Inactive)
REMARK    1  A    between atoms: C2_2  and  C6_6 
REMARK       I    between atoms: C2_2  and  N7_7 
ROOT
HETATM    1  C1  UNL     1     -22.223  18.416   8.791  1.00 20.00     0.167 C 
HETATM    2  C2  UNL     1     -24.073  18.894   9.857  1.00 20.00     0.273 C 
HETATM    3  N7  UNL     1     -22.887  19.263   9.258  1.00 20.00    -0.197 NA
HETATM    4  O8  UNL     1     -25.179  18.799   9.334  1.00 20.00    -0.268 OA
HETATM    5  S10 UNL     1     -21.293  17.294   8.146  1.00 20.00    -0.055 SA
ENDROOT
BRANCH   2   6
HETATM    6  C6  UNL     1     -23.938  18.585  11.316  1.00 20.00     0.215 C 
HETATM    7  C4  UNL     1     -23.403  17.189  11.567  1.00 20.00     0.044 C 
HETATM    8  C3  UNL     1     -24.665  16.367  11.669  1.00 20.00     0.029 C 
HETATM    9  C5  UNL     1     -25.618  17.336  12.331  1.00 20.00     0.168 C 
HETATM   10  O9  UNL     1     -25.258  18.643  11.864  1.00 20.00    -0.376 OA
ENDBRANCH   2   6
TORSDOF 1
ENDMDL
MODEL 8
REMARK VINA RESULT:      -3.3     12.560     13.300
REMARK  1 active torsions:
REMARK  status: ('A' for Active; 'I' for Inactive)
REMARK    1  A    between atoms: C2_2  and  C6_6 
REMARK       I    between atoms: C2_2  and  N7_7 
ROOT
HETATM    1  C1  UNL     1     -35.214  16.222  -5.583  1.00 20.00     0.167 C 
HETATM    2  C2  UNL     1     -34.629  17.843  -4.235  1.00 20.00     0.273 C 
HETATM    3  N7  UNL     1     -34.780  17.308  -5.496  1.00 20.00    -0.197 NA
HETATM    4  O8  UNL     1     -35.448  18.497  -3.596  1.00 20.00    -0.268 OA
HETATM    5  S10 UNL     1     -35.800  14.748  -5.740  1.00 20.00    -0.055 SA
ENDROOT
BRANCH   2   6
HETATM    6  C6  UNL     1     -33.293  17.564  -3.619  1.00 20.00     0.215 C 
HETATM    7  C4  UNL     1     -33.382  16.602  -2.450  1.00 20.00     0.044 C 
HETATM    8  C3  UNL     1     -33.556  17.531  -1.273  1.00 20.00     0.029 C 
HETATM    9  C5  UNL     1     -32.716  18.718  -1.683  1.00 20.00     0.168 C 
HETATM   10  O9  UNL     1     -32.815  18.812  -3.110  1.00 20.00    -0.376 OA
ENDBRANCH   2   6
TORSDOF 1
ENDMDL
MODEL 9
REMARK VINA RESULT:      -3.3     12.151     12.922
REMARK  1 active torsions:
REMARK  status: ('A' for Active; 'I' for Inactive)
REMARK    1  A    between atoms: C2_2  and  C6_6 
REMARK       I    between atoms: C2_2  and  N7_7 
ROOT
HETATM    1  C1  UNL     1     -34.639  15.979  -6.308  1.00 20.00     0.167 C 
HETATM    2  C2  UNL     1     -34.064  15.913  -4.197  1.00 20.00     0.273 C 
HETATM    3  N7  UNL     1     -35.011  16.007  -5.195  1.00 20.00    -0.197 NA
HETATM    4  O8  UNL     1     -33.638  14.894  -3.661  1.00 20.00    -0.268 OA
HETATM    5  S10 UNL     1     -34.173  15.946  -7.831  1.00 20.00    -0.055 SA
ENDROOT
BRANCH   2   6
HETATM    6  C6  UNL     1     -33.525  17.238  -3.754  1.00 20.00     0.215 C 
HETATM    7  C4  UNL     1     -32.784  17.151  -2.433  1.00 20.00     0.044 C 
HETATM    8  C3  UNL     1     -33.874  17.433  -1.427  1.00 20.00     0.029 C 
HETATM    9  C5  UNL     1     -34.731  18.435  -2.165  1.00 20.00     0.168 C 
HETATM   10  O9  UNL     1     -34.658  18.088  -3.554  1.00 20.00    -0.376 OA
ENDBRANCH   2   6
TORSDOF 1
ENDMDL
