MODEL 1
REMARK VINA RESULT:      -3.9      0.000      0.000
REMARK  3 active torsions:
REMARK  status: ('A' for Active; 'I' for Inactive)
REMARK    1  A    between atoms: C4_4  and  C7_7 
REMARK    2  A    between atoms: C6_6  and  N9_9 
REMARK    3  A    between atoms: C7_7  and  N9_9 
ROOT
HETATM    1  C1  UNL     1     -34.650   5.594   5.592  1.00 20.00     0.089 C 
HETATM    2  C6  UNL     1     -34.256   6.786   6.342  1.00 20.00     0.393 C 
HETATM    3  N8  UNL     1     -34.966   4.647   5.000  1.00 20.00    -0.195 NA
ENDROOT
BRANCH   2   4
HETATM    4  N9  UNL     1     -32.935   7.228   5.952  1.00 20.00     0.100 N 
HETATM    5  H21 UNL     1     -32.563   7.873   6.636  1.00 20.00     0.317 HD
BRANCH   4   6
HETATM    6  C7  UNL     1     -33.001   7.936   4.650  1.00 20.00     0.221 C 
HETATM    7  C5  UNL     1     -32.533   9.371   4.845  1.00 20.00     0.043 C 
BRANCH   6   8
HETATM    8  C4  UNL     1     -32.141   7.196   3.636  1.00 20.00     0.018 A 
HETATM    9  C2  UNL     1     -32.772   6.240   2.661  1.00 20.00     0.007 A 
HETATM   10  C3  UNL     1     -32.217   7.551   2.177  1.00 20.00     0.007 A 
ENDBRANCH   6   8
ENDBRANCH   4   6
ENDBRANCH   2   4
TORSDOF 3
ENDMDL
MODEL 2
REMARK VINA RESULT:      -3.8      2.373      4.030
REMARK  3 active torsions:
REMARK  status: ('A' for Active; 'I' for Inactive)
REMARK    1  A    between atoms: C4_4  and  C7_7 
REMARK    2  A    between atoms: C6_6  and  N9_9 
REMARK    3  A    between atoms: C7_7  and  N9_9 
ROOT
HETATM    1  C1  UNL     1     -32.555   8.885   1.507  1.00 20.00     0.089 C 
HETATM    2  C6  UNL     1     -32.560   8.698   2.957  1.00 20.00     0.393 C 
HETATM    3  N8  UNL     1     -32.551   9.036   0.356  1.00 20.00    -0.195 NA
ENDROOT
BRANCH   2   4
HETATM    4  N9  UNL     1     -32.614   7.293   3.297  1.00 20.00     0.100 N 
HETATM    5  H21 UNL     1     -33.282   6.813   2.708  1.00 20.00     0.317 HD
BRANCH   4   6
HETATM    6  C7  UNL     1     -33.051   7.129   4.705  1.00 20.00     0.221 C 
HETATM    7  C5  UNL     1     -33.148   8.502   5.355  1.00 20.00     0.043 C 
BRANCH   6   8
HETATM    8  C4  UNL     1     -34.386   6.398   4.730  1.00 20.00     0.018 A 
HETATM    9  C2  UNL     1     -34.427   4.895   4.729  1.00 20.00     0.007 A 
HETATM   10  C3  UNL     1     -34.819   5.656   5.965  1.00 20.00     0.007 A 
ENDBRANCH   6   8
ENDBRANCH   4   6
ENDBRANCH   2   4
TORSDOF 3
ENDMDL
MODEL 3
REMARK VINA RESULT:      -3.8      1.924      3.517
REMARK  3 active torsions:
REMARK  status: ('A' for Active; 'I' for Inactive)
REMARK    1  A    between atoms: C4_4  and  C7_7 
REMARK    2  A    between atoms: C6_6  and  N9_9 
REMARK    3  A    between atoms: C7_7  and  N9_9 
ROOT
HETATM    1  C1  UNL     1     -32.249   8.244   2.749  1.00 20.00     0.089 C 
HETATM    2  C6  UNL     1     -32.327   8.592   4.167  1.00 20.00     0.393 C 
HETATM    3  N8  UNL     1     -32.183   7.969   1.623  1.00 20.00    -0.195 NA
ENDROOT
BRANCH   2   4
HETATM    4  N9  UNL     1     -33.639   8.296   4.700  1.00 20.00     0.100 N 
HETATM    5  H21 UNL     1     -33.886   8.962   5.419  1.00 20.00     0.317 HD
BRANCH   4   6
HETATM    6  C7  UNL     1     -33.644   6.945   5.313  1.00 20.00     0.221 C 
HETATM    7  C5  UNL     1     -34.220   7.043   6.718  1.00 20.00     0.043 C 
BRANCH   6   8
HETATM    8  C4  UNL     1     -34.455   6.002   4.436  1.00 20.00     0.018 A 
HETATM    9  C2  UNL     1     -33.760   5.008   3.547  1.00 20.00     0.007 A 
HETATM   10  C3  UNL     1     -34.516   4.534   4.757  1.00 20.00     0.007 A 
ENDBRANCH   6   8
ENDBRANCH   4   6
ENDBRANCH   2   4
TORSDOF 3
ENDMDL
MODEL 4
REMARK VINA RESULT:      -3.7     12.413     13.603
REMARK  3 active torsions:
REMARK  status: ('A' for Active; 'I' for Inactive)
REMARK    1  A    between atoms: C4_4  and  C7_7 
REMARK    2  A    between atoms: C6_6  and  N9_9 
REMARK    3  A    between atoms: C7_7  and  N9_9 
ROOT
HETATM    1  C1  UNL     1     -35.745  15.403  -6.889  1.00 20.00     0.089 C 
HETATM    2  C6  UNL     1     -35.318  16.648  -6.253  1.00 20.00     0.393 C 
HETATM    3  N8  UNL     1     -36.088  14.415  -7.394  1.00 20.00    -0.195 NA
ENDROOT
BRANCH   2   4
HETATM    4  N9  UNL     1     -33.977  16.524  -5.724  1.00 20.00     0.100 N 
HETATM    5  H21 UNL     1     -33.446  15.853  -6.262  1.00 20.00     0.317 HD
BRANCH   4   6
HETATM    6  C7  UNL     1     -34.029  16.041  -4.322  1.00 20.00     0.221 C 
HETATM    7  C5  UNL     1     -33.301  14.707  -4.233  1.00 20.00     0.043 C 
BRANCH   6   8
HETATM    8  C4  UNL     1     -33.403  17.086  -3.411  1.00 20.00     0.018 A 
HETATM    9  C2  UNL     1     -34.274  17.976  -2.568  1.00 20.00     0.007 A 
HETATM   10  C3  UNL     1     -33.439  16.909  -1.918  1.00 20.00     0.007 A 
ENDBRANCH   6   8
ENDBRANCH   4   6
ENDBRANCH   2   4
TORSDOF 3
ENDMDL
MODEL 5
REMARK VINA RESULT:      -3.7     11.730     12.782
REMARK  3 active torsions:
REMARK  status: ('A' for Active; 'I' for Inactive)
REMARK    1  A    between atoms: C4_4  and  C7_7 
REMARK    2  A    between atoms: C6_6  and  N9_9 
REMARK    3  A    between atoms: C7_7  and  N9_9 
ROOT
HETATM    1  C1  UNL     1     -31.702  18.529  -0.854  1.00 20.00     0.089 C 
HETATM    2  C6  UNL     1     -32.961  18.375  -1.582  1.00 20.00     0.393 C 
HETATM    3  N8  UNL     1     -30.703  18.654  -0.277  1.00 20.00    -0.195 NA
ENDROOT
BRANCH   2   4
HETATM    4  N9  UNL     1     -33.227  16.981  -1.866  1.00 20.00     0.100 N 
HETATM    5  H21 UNL     1     -32.366  16.450  -1.859  1.00 20.00     0.317 HD
BRANCH   4   6
HETATM    6  C7  UNL     1     -33.832  16.845  -3.214  1.00 20.00     0.221 C 
HETATM    7  C5  UNL     1     -33.525  18.099  -4.021  1.00 20.00     0.043 C 
BRANCH   6   8
HETATM    8  C4  UNL     1     -33.279  15.596  -3.884  1.00 20.00     0.018 A 
HETATM    9  C2  UNL     1     -34.150  14.382  -4.059  1.00 20.00     0.007 A 
HETATM   10  C3  UNL     1     -33.753  15.200  -5.255  1.00 20.00     0.007 A 
ENDBRANCH   6   8
ENDBRANCH   4   6
ENDBRANCH   2   4
TORSDOF 3
ENDMDL
MODEL 6
REMARK VINA RESULT:      -3.6     11.680     12.695
REMARK  3 active torsions:
REMARK  status: ('A' for Active; 'I' for Inactive)
REMARK    1  A    between atoms: C4_4  and  C7_7 
REMARK    2  A    between atoms: C6_6  and  N9_9 
REMARK    3  A    between atoms: C7_7  and  N9_9 
ROOT
HETATM    1  C1  UNL     1     -34.125  14.560  -4.155  1.00 20.00     0.089 C 
HETATM    2  C6  UNL     1     -33.104  15.554  -3.828  1.00 20.00     0.393 C 
HETATM    3  N8  UNL     1     -34.934  13.769  -4.412  1.00 20.00    -0.195 NA
ENDROOT
BRANCH   2   4
HETATM    4  N9  UNL     1     -33.418  16.833  -4.426  1.00 20.00     0.100 N 
HETATM    5  H21 UNL     1     -32.659  17.142  -5.019  1.00 20.00     0.317 HD
BRANCH   4   6
HETATM    6  C7  UNL     1     -33.609  17.854  -3.366  1.00 20.00     0.221 C 
HETATM    7  C5  UNL     1     -35.075  18.261  -3.332  1.00 20.00     0.043 C 
BRANCH   6   8
HETATM    8  C4  UNL     1     -33.152  17.280  -2.033  1.00 20.00     0.018 A 
HETATM    9  C2  UNL     1     -32.309  18.107  -1.101  1.00 20.00     0.007 A 
HETATM   10  C3  UNL     1     -33.736  17.795  -0.747  1.00 20.00     0.007 A 
ENDBRANCH   6   8
ENDBRANCH   4   6
ENDBRANCH   2   4
TORSDOF 3
ENDMDL
MODEL 7
REMARK VINA RESULT:      -3.6      2.343      4.264
REMARK  3 active torsions:
REMARK  status: ('A' for Active; 'I' for Inactive)
REMARK    1  A    between atoms: C4_4  and  C7_7 
REMARK    2  A    between atoms: C6_6  and  N9_9 
REMARK    3  A    between atoms: C7_7  and  N9_9 
ROOT
HETATM    1  C1  UNL     1     -32.219   7.988   1.714  1.00 20.00     0.089 C 
HETATM    2  C6  UNL     1     -32.068   7.255   2.970  1.00 20.00     0.393 C 
HETATM    3  N8  UNL     1     -32.337   8.573   0.719  1.00 20.00    -0.195 NA
ENDROOT
BRANCH   2   4
HETATM    4  N9  UNL     1     -32.903   6.074   2.982  1.00 20.00     0.100 N 
HETATM    5  H21 UNL     1     -33.379   5.969   2.095  1.00 20.00     0.317 HD
BRANCH   4   6
HETATM    6  C7  UNL     1     -33.936   6.194   4.040  1.00 20.00     0.221 C 
HETATM    7  C5  UNL     1     -34.340   4.799   4.496  1.00 20.00     0.043 C 
BRANCH   6   8
HETATM    8  C4  UNL     1     -33.380   7.024   5.187  1.00 20.00     0.018 A 
HETATM    9  C2  UNL     1     -34.086   8.276   5.629  1.00 20.00     0.007 A 
HETATM   10  C3  UNL     1     -34.093   7.059   6.511  1.00 20.00     0.007 A 
ENDBRANCH   6   8
ENDBRANCH   4   6
ENDBRANCH   2   4
TORSDOF 3
ENDMDL
MODEL 8
REMARK VINA RESULT:      -3.6      1.531      3.244
REMARK  3 active torsions:
REMARK  status: ('A' for Active; 'I' for Inactive)
REMARK    1  A    between atoms: C4_4  and  C7_7 
REMARK    2  A    between atoms: C6_6  and  N9_9 
REMARK    3  A    between atoms: C7_7  and  N9_9 
ROOT
HETATM    1  C1  UNL     1     -32.590   5.910   2.527  1.00 20.00     0.089 C 
HETATM    2  C6  UNL     1     -32.136   7.298   2.451  1.00 20.00     0.393 C 
HETATM    3  N8  UNL     1     -32.948   4.808   2.585  1.00 20.00    -0.195 NA
ENDROOT
BRANCH   2   4
HETATM    4  N9  UNL     1     -32.993   8.165   3.230  1.00 20.00     0.100 N 
HETATM    5  H21 UNL     1     -32.756   9.134   3.068  1.00 20.00     0.317 HD
BRANCH   4   6
HETATM    6  C7  UNL     1     -32.809   7.891   4.677  1.00 20.00     0.221 C 
HETATM    7  C5  UNL     1     -32.181   9.111   5.335  1.00 20.00     0.043 C 
BRANCH   6   8
HETATM    8  C4  UNL     1     -34.157   7.549   5.295  1.00 20.00     0.018 A 
HETATM    9  C2  UNL     1     -34.590   6.114   5.423  1.00 20.00     0.007 A 
HETATM   10  C3  UNL     1     -34.227   6.903   6.650  1.00 20.00     0.007 A 
ENDBRANCH   6   8
ENDBRANCH   4   6
ENDBRANCH   2   4
TORSDOF 3
ENDMDL
MODEL 9
REMARK VINA RESULT:      -3.6      9.766     10.394
REMARK  3 active torsions:
REMARK  status: ('A' for Active; 'I' for Inactive)
REMARK    1  A    between atoms: C4_4  and  C7_7 
REMARK    2  A    between atoms: C6_6  and  N9_9 
REMARK    3  A    between atoms: C7_7  and  N9_9 
ROOT
HETATM    1  C1  UNL     1     -42.479  14.430   4.287  1.00 20.00     0.089 C 
HETATM    2  C6  UNL     1     -42.933  14.230   5.663  1.00 20.00     0.393 C 
HETATM    3  N8  UNL     1     -42.121  14.591   3.195  1.00 20.00    -0.195 NA
ENDROOT
BRANCH   2   4
HETATM    4  N9  UNL     1     -42.217  13.139   6.289  1.00 20.00     0.100 N 
HETATM    5  H21 UNL     1     -42.476  13.061   7.264  1.00 20.00     0.317 HD
BRANCH   4   6
HETATM    6  C7  UNL     1     -40.756  13.390   6.226  1.00 20.00     0.221 C 
HETATM    7  C5  UNL     1     -40.298  13.971   7.557  1.00 20.00     0.043 C 
BRANCH   6   8
HETATM    8  C4  UNL     1     -40.041  12.086   5.905  1.00 20.00     0.018 A 
HETATM    9  C2  UNL     1     -39.490  11.844   4.526  1.00 20.00     0.007 A 
HETATM   10  C3  UNL     1     -38.554  12.074   5.680  1.00 20.00     0.007 A 
ENDBRANCH   6   8
ENDBRANCH   4   6
ENDBRANCH   2   4
TORSDOF 3
ENDMDL
