MODEL 1
REMARK VINA RESULT:      -4.0      0.000      0.000
REMARK  3 active torsions:
REMARK  status: ('A' for Active; 'I' for Inactive)
REMARK    1  A    between atoms: C4_4  and  C7_7 
REMARK    2  A    between atoms: C6_6  and  N9_9 
REMARK    3  A    between atoms: C7_7  and  N9_9 
ROOT
HETATM    1  C1  UNL     1     -33.493   4.890   3.254  1.00 20.00     0.089 C 
HETATM    2  C6  UNL     1     -34.433   4.838   4.371  1.00 20.00     0.393 C 
HETATM    3  N8  UNL     1     -32.746   4.929   2.366  1.00 20.00    -0.195 NA
ENDROOT
BRANCH   2   4
HETATM    4  N9  UNL     1     -34.895   6.164   4.720  1.00 20.00     0.100 N 
HETATM    5  H21 UNL     1     -35.696   6.108   5.335  1.00 20.00     0.317 HD
BRANCH   4   6
HETATM    6  C7  UNL     1     -33.824   6.901   5.434  1.00 20.00     0.221 C 
HETATM    7  C5  UNL     1     -34.235   7.076   6.889  1.00 20.00     0.043 C 
BRANCH   6   8
HETATM    8  C4  UNL     1     -33.598   8.241   4.748  1.00 20.00     0.018 A 
HETATM    9  C2  UNL     1     -32.287   8.962   4.906  1.00 20.00     0.007 A 
HETATM   10  C3  UNL     1     -32.651   8.344   3.584  1.00 20.00     0.007 A 
ENDBRANCH   6   8
ENDBRANCH   4   6
ENDBRANCH   2   4
TORSDOF 3
ENDMDL
MODEL 2
REMARK VINA RESULT:      -3.9      9.026     10.402
REMARK  3 active torsions:
REMARK  status: ('A' for Active; 'I' for Inactive)
REMARK    1  A    between atoms: C4_4  and  C7_7 
REMARK    2  A    between atoms: C6_6  and  N9_9 
REMARK    3  A    between atoms: C7_7  and  N9_9 
ROOT
HETATM    1  C1  UNL     1     -40.384  15.018   9.028  1.00 20.00     0.089 C 
HETATM    2  C6  UNL     1     -40.903  14.683   7.703  1.00 20.00     0.393 C 
HETATM    3  N8  UNL     1     -39.976  15.286  10.081  1.00 20.00    -0.195 NA
ENDROOT
BRANCH   2   4
HETATM    4  N9  UNL     1     -39.946  13.889   6.961  1.00 20.00     0.100 N 
HETATM    5  H21 UNL     1     -39.422  13.292   7.587  1.00 20.00     0.317 HD
BRANCH   4   6
HETATM    6  C7  UNL     1     -40.655  13.020   5.991  1.00 20.00     0.221 C 
HETATM    7  C5  UNL     1     -41.988  12.597   6.593  1.00 20.00     0.043 C 
BRANCH   6   8
HETATM    8  C4  UNL     1     -39.778  11.820   5.664  1.00 20.00     0.018 A 
HETATM    9  C2  UNL     1     -39.215  11.648   4.280  1.00 20.00     0.007 A 
HETATM   10  C3  UNL     1     -38.306  12.003   5.423  1.00 20.00     0.007 A 
ENDBRANCH   6   8
ENDBRANCH   4   6
ENDBRANCH   2   4
TORSDOF 3
ENDMDL
MODEL 3
REMARK VINA RESULT:      -3.8      2.257      3.736
REMARK  3 active torsions:
REMARK  status: ('A' for Active; 'I' for Inactive)
REMARK    1  A    between atoms: C4_4  and  C7_7 
REMARK    2  A    between atoms: C6_6  and  N9_9 
REMARK    3  A    between atoms: C7_7  and  N9_9 
ROOT
HETATM    1  C1  UNL     1     -32.441   8.706   1.479  1.00 20.00     0.089 C 
HETATM    2  C6  UNL     1     -32.046   7.646   2.405  1.00 20.00     0.393 C 
HETATM    3  N8  UNL     1     -32.751   9.547   0.742  1.00 20.00    -0.195 NA
ENDROOT
BRANCH   2   4
HETATM    4  N9  UNL     1     -32.816   7.717   3.628  1.00 20.00     0.100 N 
HETATM    5  H21 UNL     1     -33.695   8.190   3.465  1.00 20.00     0.317 HD
BRANCH   4   6
HETATM    6  C7  UNL     1     -33.119   6.349   4.116  1.00 20.00     0.221 C 
HETATM    7  C5  UNL     1     -33.299   5.429   2.917  1.00 20.00     0.043 C 
BRANCH   6   8
HETATM    8  C4  UNL     1     -34.368   6.395   4.983  1.00 20.00     0.018 A 
HETATM    9  C2  UNL     1     -34.520   5.449   6.144  1.00 20.00     0.007 A 
HETATM   10  C3  UNL     1     -34.292   6.914   6.392  1.00 20.00     0.007 A 
ENDBRANCH   6   8
ENDBRANCH   4   6
ENDBRANCH   2   4
TORSDOF 3
ENDMDL
MODEL 4
REMARK VINA RESULT:      -3.8     12.315     13.085
REMARK  3 active torsions:
REMARK  status: ('A' for Active; 'I' for Inactive)
REMARK    1  A    between atoms: C4_4  and  C7_7 
REMARK    2  A    between atoms: C6_6  and  N9_9 
REMARK    3  A    between atoms: C7_7  and  N9_9 
ROOT
HETATM    1  C1  UNL     1     -35.550  15.352  -6.382  1.00 20.00     0.089 C 
HETATM    2  C6  UNL     1     -34.978  16.508  -5.695  1.00 20.00     0.393 C 
HETATM    3  N8  UNL     1     -36.005  14.435  -6.929  1.00 20.00    -0.195 NA
ENDROOT
BRANCH   2   4
HETATM    4  N9  UNL     1     -34.921  16.284  -4.267  1.00 20.00     0.100 N 
HETATM    5  H21 UNL     1     -35.285  15.368  -4.039  1.00 20.00     0.317 HD
BRANCH   4   6
HETATM    6  C7  UNL     1     -33.515  16.343  -3.800  1.00 20.00     0.221 C 
HETATM    7  C5  UNL     1     -32.838  15.016  -4.112  1.00 20.00     0.043 C 
BRANCH   6   8
HETATM    8  C4  UNL     1     -33.496  16.649  -2.309  1.00 20.00     0.018 A 
HETATM    9  C2  UNL     1     -32.676  17.794  -1.781  1.00 20.00     0.007 A 
HETATM   10  C3  UNL     1     -34.177  17.881  -1.782  1.00 20.00     0.007 A 
ENDBRANCH   6   8
ENDBRANCH   4   6
ENDBRANCH   2   4
TORSDOF 3
ENDMDL
MODEL 5
REMARK VINA RESULT:      -3.7      1.851      3.343
REMARK  3 active torsions:
REMARK  status: ('A' for Active; 'I' for Inactive)
REMARK    1  A    between atoms: C4_4  and  C7_7 
REMARK    2  A    between atoms: C6_6  and  N9_9 
REMARK    3  A    between atoms: C7_7  and  N9_9 
ROOT
HETATM    1  C1  UNL     1     -32.114   8.096   1.720  1.00 20.00     0.089 C 
HETATM    2  C6  UNL     1     -31.968   7.657   3.107  1.00 20.00     0.393 C 
HETATM    3  N8  UNL     1     -32.226   8.446   0.620  1.00 20.00    -0.195 NA
ENDROOT
BRANCH   2   4
HETATM    4  N9  UNL     1     -33.106   6.864   3.519  1.00 20.00     0.100 N 
HETATM    5  H21 UNL     1     -32.825   5.909   3.695  1.00 20.00     0.317 HD
BRANCH   4   6
HETATM    6  C7  UNL     1     -33.674   7.410   4.776  1.00 20.00     0.221 C 
HETATM    7  C5  UNL     1     -32.818   8.582   5.234  1.00 20.00     0.043 C 
BRANCH   6   8
HETATM    8  C4  UNL     1     -33.723   6.305   5.822  1.00 20.00     0.018 A 
HETATM    9  C2  UNL     1     -35.012   5.989   6.531  1.00 20.00     0.007 A 
HETATM   10  C3  UNL     1     -34.447   5.020   5.531  1.00 20.00     0.007 A 
ENDBRANCH   6   8
ENDBRANCH   4   6
ENDBRANCH   2   4
TORSDOF 3
ENDMDL
MODEL 6
REMARK VINA RESULT:      -3.5      1.752      3.982
REMARK  3 active torsions:
REMARK  status: ('A' for Active; 'I' for Inactive)
REMARK    1  A    between atoms: C4_4  and  C7_7 
REMARK    2  A    between atoms: C6_6  and  N9_9 
REMARK    3  A    between atoms: C7_7  and  N9_9 
ROOT
HETATM    1  C1  UNL     1     -32.284   8.446   4.446  1.00 20.00     0.089 C 
HETATM    2  C6  UNL     1     -32.107   7.560   3.297  1.00 20.00     0.393 C 
HETATM    3  N8  UNL     1     -32.422   9.150   5.358  1.00 20.00    -0.195 NA
ENDROOT
BRANCH   2   4
HETATM    4  N9  UNL     1     -33.307   6.788   3.051  1.00 20.00     0.100 N 
HETATM    5  H21 UNL     1     -33.498   6.741   2.058  1.00 20.00     0.317 HD
BRANCH   4   6
HETATM    6  C7  UNL     1     -33.127   5.402   3.546  1.00 20.00     0.221 C 
HETATM    7  C5  UNL     1     -32.872   4.485   2.358  1.00 20.00     0.043 C 
BRANCH   6   8
HETATM    8  C4  UNL     1     -34.367   4.985   4.323  1.00 20.00     0.018 A 
HETATM    9  C2  UNL     1     -34.420   5.160   5.816  1.00 20.00     0.007 A 
HETATM   10  C3  UNL     1     -35.267   6.028   4.927  1.00 20.00     0.007 A 
ENDBRANCH   6   8
ENDBRANCH   4   6
ENDBRANCH   2   4
TORSDOF 3
ENDMDL
MODEL 7
REMARK VINA RESULT:      -3.5     15.500     16.842
REMARK  3 active torsions:
REMARK  status: ('A' for Active; 'I' for Inactive)
REMARK    1  A    between atoms: C4_4  and  C7_7 
REMARK    2  A    between atoms: C6_6  and  N9_9 
REMARK    3  A    between atoms: C7_7  and  N9_9 
ROOT
HETATM    1  C1  UNL     1     -24.699  17.037  11.982  1.00 20.00     0.089 C 
HETATM    2  C6  UNL     1     -24.719  18.483  12.193  1.00 20.00     0.393 C 
HETATM    3  N8  UNL     1     -24.686  15.888  11.818  1.00 20.00    -0.195 NA
ENDROOT
BRANCH   2   4
HETATM    4  N9  UNL     1     -23.707  19.135  11.390  1.00 20.00     0.100 N 
HETATM    5  H21 UNL     1     -23.388  19.981  11.844  1.00 20.00     0.317 HD
BRANCH   4   6
HETATM    6  C7  UNL     1     -22.537  18.239  11.226  1.00 20.00     0.221 C 
HETATM    7  C5  UNL     1     -21.533  18.533  12.332  1.00 20.00     0.043 C 
BRANCH   6   8
HETATM    8  C4  UNL     1     -21.933  18.455   9.845  1.00 20.00     0.018 A 
HETATM    9  C2  UNL     1     -22.052  17.390   8.790  1.00 20.00     0.007 A 
HETATM   10  C3  UNL     1     -22.825  18.672   8.655  1.00 20.00     0.007 A 
ENDBRANCH   6   8
ENDBRANCH   4   6
ENDBRANCH   2   4
TORSDOF 3
ENDMDL
MODEL 8
REMARK VINA RESULT:      -3.5      1.605      2.683
REMARK  3 active torsions:
REMARK  status: ('A' for Active; 'I' for Inactive)
REMARK    1  A    between atoms: C4_4  and  C7_7 
REMARK    2  A    between atoms: C6_6  and  N9_9 
REMARK    3  A    between atoms: C7_7  and  N9_9 
ROOT
HETATM    1  C1  UNL     1     -34.549   5.531   5.710  1.00 20.00     0.089 C 
HETATM    2  C6  UNL     1     -34.083   6.707   6.442  1.00 20.00     0.393 C 
HETATM    3  N8  UNL     1     -34.919   4.595   5.131  1.00 20.00    -0.195 NA
ENDROOT
BRANCH   2   4
HETATM    4  N9  UNL     1     -34.032   7.866   5.578  1.00 20.00     0.100 N 
HETATM    5  H21 UNL     1     -34.061   8.716   6.125  1.00 20.00     0.317 HD
BRANCH   4   6
HETATM    6  C7  UNL     1     -32.766   7.866   4.806  1.00 20.00     0.221 C 
HETATM    7  C5  UNL     1     -32.101   9.228   4.951  1.00 20.00     0.043 C 
BRANCH   6   8
HETATM    8  C4  UNL     1     -33.069   7.540   3.350  1.00 20.00     0.018 A 
HETATM    9  C2  UNL     1     -31.949   7.402   2.355  1.00 20.00     0.007 A 
HETATM   10  C3  UNL     1     -32.722   6.188   2.790  1.00 20.00     0.007 A 
ENDBRANCH   6   8
ENDBRANCH   4   6
ENDBRANCH   2   4
TORSDOF 3
ENDMDL
MODEL 9
REMARK VINA RESULT:      -3.5     11.943     13.188
REMARK  3 active torsions:
REMARK  status: ('A' for Active; 'I' for Inactive)
REMARK    1  A    between atoms: C4_4  and  C7_7 
REMARK    2  A    between atoms: C6_6  and  N9_9 
REMARK    3  A    between atoms: C7_7  and  N9_9 
ROOT
HETATM    1  C1  UNL     1     -32.180  18.210  -1.016  1.00 20.00     0.089 C 
HETATM    2  C6  UNL     1     -33.533  17.816  -1.404  1.00 20.00     0.393 C 
HETATM    3  N8  UNL     1     -31.108  18.525  -0.706  1.00 20.00    -0.195 NA
ENDROOT
BRANCH   2   4
HETATM    4  N9  UNL     1     -33.507  16.630  -2.233  1.00 20.00     0.100 N 
HETATM    5  H21 UNL     1     -34.236  15.987  -1.952  1.00 20.00     0.317 HD
BRANCH   4   6
HETATM    6  C7  UNL     1     -33.747  16.998  -3.650  1.00 20.00     0.221 C 
HETATM    7  C5  UNL     1     -34.599  18.259  -3.692  1.00 20.00     0.043 C 
BRANCH   6   8
HETATM    8  C4  UNL     1     -34.425  15.835  -4.359  1.00 20.00     0.018 A 
HETATM    9  C2  UNL     1     -33.716  15.106  -5.467  1.00 20.00     0.007 A 
HETATM   10  C3  UNL     1     -33.937  14.429  -4.143  1.00 20.00     0.007 A 
ENDBRANCH   6   8
ENDBRANCH   4   6
ENDBRANCH   2   4
TORSDOF 3
ENDMDL
