MODEL 1
REMARK VINA RESULT:      -5.0      0.000      0.000
REMARK  1 active torsions:
REMARK  status: ('A' for Active; 'I' for Inactive)
REMARK    1  A    between atoms: C7_7  and  O9_9 
ROOT
HETATM    1  C1  UNL     1     -32.568   7.497   3.018  1.00 20.00     0.097 C 
HETATM    2  C2  UNL     1     -33.247   7.556   5.306  1.00 20.00    -0.006 C 
HETATM    3  C3  UNL     1     -33.323   6.960   4.103  1.00 20.00     0.047 C 
HETATM    4  C4  UNL     1     -33.998   7.088   6.518  1.00 20.00     0.028 C 
HETATM    5  C5  UNL     1     -34.632   5.707   6.349  1.00 20.00     0.007 C 
HETATM    6  C6  UNL     1     -35.261   5.557   4.965  1.00 20.00     0.037 C 
HETATM    7  C7  UNL     1     -34.221   5.768   3.858  1.00 20.00     0.161 C 
HETATM    8  N8  UNL     1     -31.955   7.934   2.135  1.00 20.00    -0.192 NA
ENDROOT
BRANCH   7   9
HETATM    9  O9  UNL     1     -33.420   4.589   3.764  1.00 20.00    -0.390 OA
HETATM   10  H18 UNL     1     -33.875   3.908   4.281  1.00 20.00     0.210 HD
ENDBRANCH   7   9
TORSDOF 1
ENDMDL
MODEL 2
REMARK VINA RESULT:      -4.8      1.522      2.259
REMARK  1 active torsions:
REMARK  status: ('A' for Active; 'I' for Inactive)
REMARK    1  A    between atoms: C7_7  and  O9_9 
ROOT
HETATM    1  C1  UNL     1     -32.515   7.353   2.871  1.00 20.00     0.097 C 
HETATM    2  C2  UNL     1     -33.881   5.659   3.855  1.00 20.00    -0.006 C 
HETATM    3  C3  UNL     1     -33.212   6.817   3.996  1.00 20.00     0.047 C 
HETATM    4  C4  UNL     1     -34.643   4.996   4.965  1.00 20.00     0.028 C 
HETATM    5  C5  UNL     1     -34.838   5.889   6.191  1.00 20.00     0.007 C 
HETATM    6  C6  UNL     1     -33.565   6.670   6.509  1.00 20.00     0.037 C 
HETATM    7  C7  UNL     1     -33.137   7.540   5.321  1.00 20.00     0.161 C 
HETATM    8  N8  UNL     1     -31.949   7.788   1.957  1.00 20.00    -0.192 NA
ENDROOT
BRANCH   7   9
HETATM    9  O9  UNL     1     -33.986   8.688   5.278  1.00 20.00    -0.390 OA
HETATM   10  H18 UNL     1     -34.010   9.044   6.179  1.00 20.00     0.210 HD
ENDBRANCH   7   9
TORSDOF 1
ENDMDL
MODEL 3
REMARK VINA RESULT:      -4.5     15.757     16.168
REMARK  1 active torsions:
REMARK  status: ('A' for Active; 'I' for Inactive)
REMARK    1  A    between atoms: C7_7  and  O9_9 
ROOT
HETATM    1  C1  UNL     1     -22.595  17.244   9.223  1.00 20.00     0.097 C 
HETATM    2  C2  UNL     1     -24.374  18.724   9.812  1.00 20.00    -0.006 C 
HETATM    3  C3  UNL     1     -23.633  17.644  10.118  1.00 20.00     0.047 C 
HETATM    4  C4  UNL     1     -25.494  19.236  10.670  1.00 20.00     0.028 C 
HETATM    5  C5  UNL     1     -25.538  18.603  12.061  1.00 20.00     0.007 C 
HETATM    6  C6  UNL     1     -25.265  17.102  11.990  1.00 20.00     0.037 C 
HETATM    7  C7  UNL     1     -23.900  16.817  11.354  1.00 20.00     0.161 C 
HETATM    8  N8  UNL     1     -21.752  16.918   8.496  1.00 20.00    -0.192 NA
ENDROOT
BRANCH   7   9
HETATM    9  O9  UNL     1     -22.888  17.085  12.326  1.00 20.00    -0.390 OA
HETATM   10  H18 UNL     1     -23.345  17.198  13.172  1.00 20.00     0.210 HD
ENDBRANCH   7   9
TORSDOF 1
ENDMDL
MODEL 4
REMARK VINA RESULT:      -4.2      2.578      3.950
REMARK  1 active torsions:
REMARK  status: ('A' for Active; 'I' for Inactive)
REMARK    1  A    between atoms: C7_7  and  O9_9 
ROOT
HETATM    1  C1  UNL     1     -34.499   6.181   5.823  1.00 20.00     0.097 C 
HETATM    2  C2  UNL     1     -33.511   5.684   3.707  1.00 20.00    -0.006 C 
HETATM    3  C3  UNL     1     -33.754   6.585   4.674  1.00 20.00     0.047 C 
HETATM    4  C4  UNL     1     -32.747   5.992   2.453  1.00 20.00     0.028 C 
HETATM    5  C5  UNL     1     -32.018   7.335   2.496  1.00 20.00     0.007 C 
HETATM    6  C6  UNL     1     -32.891   8.414   3.133  1.00 20.00     0.037 C 
HETATM    7  C7  UNL     1     -33.302   8.023   4.558  1.00 20.00     0.161 C 
HETATM    8  N8  UNL     1     -35.105   5.853   6.756  1.00 20.00    -0.192 NA
ENDROOT
BRANCH   7   9
HETATM    9  O9  UNL     1     -32.185   8.236   5.421  1.00 20.00    -0.390 OA
HETATM   10  H18 UNL     1     -32.522   8.715   6.192  1.00 20.00     0.210 HD
ENDBRANCH   7   9
TORSDOF 1
ENDMDL
MODEL 5
REMARK VINA RESULT:      -4.2     12.558     13.562
REMARK  1 active torsions:
REMARK  status: ('A' for Active; 'I' for Inactive)
REMARK    1  A    between atoms: C7_7  and  O9_9 
ROOT
HETATM    1  C1  UNL     1     -35.424  15.052  -6.120  1.00 20.00     0.097 C 
HETATM    2  C2  UNL     1     -35.072  17.192  -5.123  1.00 20.00    -0.006 C 
HETATM    3  C3  UNL     1     -34.764  15.884  -5.167  1.00 20.00     0.047 C 
HETATM    4  C4  UNL     1     -34.450  18.163  -4.163  1.00 20.00     0.028 C 
HETATM    5  C5  UNL     1     -33.228  17.604  -3.434  1.00 20.00     0.007 C 
HETATM    6  C6  UNL     1     -33.459  16.158  -3.002  1.00 20.00     0.037 C 
HETATM    7  C7  UNL     1     -33.774  15.264  -4.208  1.00 20.00     0.161 C 
HETATM    8  N8  UNL     1     -35.962  14.375  -6.894  1.00 20.00    -0.192 NA
ENDROOT
BRANCH   7   9
HETATM    9  O9  UNL     1     -32.553  14.998  -4.899  1.00 20.00    -0.390 OA
HETATM   10  H18 UNL     1     -32.257  14.124  -4.604  1.00 20.00     0.210 HD
ENDBRANCH   7   9
TORSDOF 1
ENDMDL
MODEL 6
REMARK VINA RESULT:      -4.1     15.465     15.907
REMARK  1 active torsions:
REMARK  status: ('A' for Active; 'I' for Inactive)
REMARK    1  A    between atoms: C7_7  and  O9_9 
ROOT
HETATM    1  C1  UNL     1     -22.820  17.189   9.399  1.00 20.00     0.097 C 
HETATM    2  C2  UNL     1     -24.120  16.417  11.246  1.00 20.00    -0.006 C 
HETATM    3  C3  UNL     1     -23.827  17.408  10.387  1.00 20.00     0.047 C 
HETATM    4  C4  UNL     1     -25.154  16.531  12.329  1.00 20.00     0.028 C 
HETATM    5  C5  UNL     1     -26.049  17.763  12.192  1.00 20.00     0.007 C 
HETATM    6  C6  UNL     1     -25.235  18.991  11.792  1.00 20.00     0.037 C 
HETATM    7  C7  UNL     1     -24.498  18.759  10.467  1.00 20.00     0.161 C 
HETATM    8  N8  UNL     1     -22.000  17.011   8.598  1.00 20.00    -0.192 NA
ENDROOT
BRANCH   7   9
HETATM    9  O9  UNL     1     -25.443  18.879   9.402  1.00 20.00    -0.390 OA
HETATM   10  H18 UNL     1     -24.983  19.326   8.677  1.00 20.00     0.210 HD
ENDBRANCH   7   9
TORSDOF 1
ENDMDL
MODEL 7
REMARK VINA RESULT:      -4.0     12.820     13.732
REMARK  1 active torsions:
REMARK  status: ('A' for Active; 'I' for Inactive)
REMARK    1  A    between atoms: C7_7  and  O9_9 
ROOT
HETATM    1  C1  UNL     1     -35.563  14.944  -6.625  1.00 20.00     0.097 C 
HETATM    2  C2  UNL     1     -33.837  14.838  -4.979  1.00 20.00    -0.006 C 
HETATM    3  C3  UNL     1     -34.825  15.542  -5.560  1.00 20.00     0.047 C 
HETATM    4  C4  UNL     1     -32.989  15.363  -3.857  1.00 20.00     0.028 C 
HETATM    5  C5  UNL     1     -33.528  16.651  -3.234  1.00 20.00     0.007 C 
HETATM    6  C6  UNL     1     -34.036  17.610  -4.309  1.00 20.00     0.037 C 
HETATM    7  C7  UNL     1     -35.142  16.961  -5.150  1.00 20.00     0.161 C 
HETATM    8  N8  UNL     1     -36.162  14.457  -7.491  1.00 20.00    -0.192 NA
ENDROOT
BRANCH   7   9
HETATM    9  O9  UNL     1     -36.349  16.972  -4.388  1.00 20.00    -0.390 OA
HETATM   10  H18 UNL     1     -36.820  17.782  -4.632  1.00 20.00     0.210 HD
ENDBRANCH   7   9
TORSDOF 1
ENDMDL
MODEL 8
REMARK VINA RESULT:      -3.9      1.801      2.456
REMARK  1 active torsions:
REMARK  status: ('A' for Active; 'I' for Inactive)
REMARK    1  A    between atoms: C7_7  and  O9_9 
ROOT
HETATM    1  C1  UNL     1     -33.215   5.364   2.849  1.00 20.00     0.097 C 
HETATM    2  C2  UNL     1     -34.357   4.934   4.901  1.00 20.00    -0.006 C 
HETATM    3  C3  UNL     1     -33.619   5.775   4.155  1.00 20.00     0.047 C 
HETATM    4  C4  UNL     1     -34.835   5.251   6.288  1.00 20.00     0.028 C 
HETATM    5  C5  UNL     1     -34.660   6.720   6.674  1.00 20.00     0.007 C 
HETATM    6  C6  UNL     1     -33.312   7.257   6.198  1.00 20.00     0.037 C 
HETATM    7  C7  UNL     1     -33.167   7.119   4.677  1.00 20.00     0.161 C 
HETATM    8  N8  UNL     1     -32.886   5.030   1.788  1.00 20.00    -0.192 NA
ENDROOT
BRANCH   7   9
HETATM    9  O9  UNL     1     -33.941   8.148   4.058  1.00 20.00    -0.390 OA
HETATM   10  H18 UNL     1     -33.454   8.417   3.266  1.00 20.00     0.210 HD
ENDBRANCH   7   9
TORSDOF 1
ENDMDL
MODEL 9
REMARK VINA RESULT:      -3.9      2.455      3.737
REMARK  1 active torsions:
REMARK  status: ('A' for Active; 'I' for Inactive)
REMARK    1  A    between atoms: C7_7  and  O9_9 
ROOT
HETATM    1  C1  UNL     1     -34.761   5.486   4.793  1.00 20.00     0.097 C 
HETATM    2  C2  UNL     1     -33.114   6.443   3.355  1.00 20.00    -0.006 C 
HETATM    3  C3  UNL     1     -33.817   6.515   4.499  1.00 20.00     0.047 C 
HETATM    4  C4  UNL     1     -32.099   7.467   2.935  1.00 20.00     0.028 C 
HETATM    5  C5  UNL     1     -31.721   8.445   4.048  1.00 20.00     0.007 C 
HETATM    6  C6  UNL     1     -32.953   8.882   4.837  1.00 20.00     0.037 C 
HETATM    7  C7  UNL     1     -33.671   7.676   5.455  1.00 20.00     0.161 C 
HETATM    8  N8  UNL     1     -35.529   4.650   5.032  1.00 20.00    -0.192 NA
ENDROOT
BRANCH   7   9
HETATM    9  O9  UNL     1     -32.929   7.251   6.600  1.00 20.00    -0.390 OA
HETATM   10  H18 UNL     1     -32.744   6.309   6.472  1.00 20.00     0.210 HD
ENDBRANCH   7   9
TORSDOF 1
ENDMDL
