MODEL 1
REMARK VINA RESULT:      -4.3      0.000      0.000
REMARK  1 active torsions:
REMARK  status: ('A' for Active; 'I' for Inactive)
REMARK    1  A    between atoms: C7_7  and  N8_8 
ROOT
HETATM    1  C1  UNL     1     -32.112   8.059   1.765  1.00 20.00     0.013 C 
HETATM    2  C2  UNL     1     -32.336   8.262   2.927  1.00 20.00    -0.087 C 
HETATM    3  C7  UNL     1     -32.609   8.515   4.344  1.00 20.00     0.365 C 
ENDROOT
BRANCH   3   4
HETATM    4  N8  UNL     1     -32.997   7.285   5.019  1.00 20.00     0.106 N 
HETATM    5  C5  UNL     1     -33.682   6.351   4.124  1.00 20.00     0.351 C 
HETATM    6  C3  UNL     1     -34.462   5.519   5.108  1.00 20.00     0.156 C 
HETATM    7  C4  UNL     1     -34.448   6.140   6.474  1.00 20.00     0.110 C 
HETATM    8  O9  UNL     1     -35.032   4.473   4.831  1.00 20.00    -0.296 OA
HETATM    9  C6  UNL     1     -33.907   7.523   6.143  1.00 20.00     0.281 C 
ENDBRANCH   3   4
TORSDOF 1
ENDMDL
MODEL 2
REMARK VINA RESULT:      -4.2     12.407     13.232
REMARK  1 active torsions:
REMARK  status: ('A' for Active; 'I' for Inactive)
REMARK    1  A    between atoms: C7_7  and  N8_8 
ROOT
HETATM    1  C1  UNL     1     -33.533  17.292  -1.492  1.00 20.00     0.013 C 
HETATM    2  C2  UNL     1     -33.378  16.658  -2.499  1.00 20.00    -0.087 C 
HETATM    3  C7  UNL     1     -33.185  15.882  -3.727  1.00 20.00     0.365 C 
ENDROOT
BRANCH   3   4
HETATM    4  N8  UNL     1     -34.461  15.623  -4.377  1.00 20.00     0.106 N 
HETATM    5  C5  UNL     1     -34.338  14.677  -5.487  1.00 20.00     0.351 C 
HETATM    6  C3  UNL     1     -35.551  15.030  -6.309  1.00 20.00     0.156 C 
HETATM    7  C4  UNL     1     -36.172  16.312  -5.838  1.00 20.00     0.110 C 
HETATM    8  O9  UNL     1     -35.976  14.357  -7.239  1.00 20.00    -0.296 OA
HETATM    9  C6  UNL     1     -35.066  16.837  -4.932  1.00 20.00     0.281 C 
ENDBRANCH   3   4
TORSDOF 1
ENDMDL
MODEL 3
REMARK VINA RESULT:      -4.1      1.052      1.689
REMARK  1 active torsions:
REMARK  status: ('A' for Active; 'I' for Inactive)
REMARK    1  A    between atoms: C7_7  and  N8_8 
ROOT
HETATM    1  C1  UNL     1     -32.203   8.360   1.086  1.00 20.00     0.013 C 
HETATM    2  C2  UNL     1     -32.202   8.176   2.273  1.00 20.00    -0.087 C 
HETATM    3  C7  UNL     1     -32.199   7.956   3.721  1.00 20.00     0.365 C 
ENDROOT
BRANCH   3   4
HETATM    4  N8  UNL     1     -33.404   7.254   4.137  1.00 20.00     0.106 N 
HETATM    5  C5  UNL     1     -33.530   7.177   5.593  1.00 20.00     0.351 C 
HETATM    6  C3  UNL     1     -34.431   5.980   5.748  1.00 20.00     0.156 C 
HETATM    7  C4  UNL     1     -34.572   5.236   4.452  1.00 20.00     0.110 C 
HETATM    8  O9  UNL     1     -34.977   5.656   6.793  1.00 20.00    -0.296 OA
HETATM    9  C6  UNL     1     -33.451   5.874   3.644  1.00 20.00     0.281 C 
ENDBRANCH   3   4
TORSDOF 1
ENDMDL
MODEL 4
REMARK VINA RESULT:      -4.0      1.826      3.798
REMARK  1 active torsions:
REMARK  status: ('A' for Active; 'I' for Inactive)
REMARK    1  A    between atoms: C7_7  and  N8_8 
ROOT
HETATM    1  C1  UNL     1     -34.760   4.898   6.292  1.00 20.00     0.013 C 
HETATM    2  C2  UNL     1     -34.373   6.034   6.331  1.00 20.00    -0.087 C 
HETATM    3  C7  UNL     1     -33.898   7.419   6.384  1.00 20.00     0.365 C 
ENDROOT
BRANCH   3   4
HETATM    4  N8  UNL     1     -33.624   7.919   5.045  1.00 20.00     0.106 N 
HETATM    5  C5  UNL     1     -33.235   6.852   4.121  1.00 20.00     0.351 C 
HETATM    6  C3  UNL     1     -32.469   7.627   3.081  1.00 20.00     0.156 C 
HETATM    7  C4  UNL     1     -32.187   9.025   3.546  1.00 20.00     0.110 C 
HETATM    8  O9  UNL     1     -32.123   7.176   1.998  1.00 20.00    -0.296 OA
HETATM    9  C6  UNL     1     -32.536   8.901   5.022  1.00 20.00     0.281 C 
ENDBRANCH   3   4
TORSDOF 1
ENDMDL
MODEL 5
REMARK VINA RESULT:      -3.9      2.180      4.031
REMARK  1 active torsions:
REMARK  status: ('A' for Active; 'I' for Inactive)
REMARK    1  A    between atoms: C7_7  and  N8_8 
ROOT
HETATM    1  C1  UNL     1     -34.790   5.438   6.698  1.00 20.00     0.013 C 
HETATM    2  C2  UNL     1     -34.292   6.415   6.209  1.00 20.00    -0.087 C 
HETATM    3  C7  UNL     1     -33.685   7.610   5.618  1.00 20.00     0.365 C 
ENDROOT
BRANCH   3   4
HETATM    4  N8  UNL     1     -32.845   7.251   4.484  1.00 20.00     0.106 N 
HETATM    5  C5  UNL     1     -32.698   8.352   3.530  1.00 20.00     0.351 C 
HETATM    6  C3  UNL     1     -32.348   7.604   2.270  1.00 20.00     0.156 C 
HETATM    7  C4  UNL     1     -32.574   6.129   2.434  1.00 20.00     0.110 C 
HETATM    8  O9  UNL     1     -31.933   8.129   1.246  1.00 20.00    -0.296 OA
HETATM    9  C6  UNL     1     -33.378   6.115   3.726  1.00 20.00     0.281 C 
ENDBRANCH   3   4
TORSDOF 1
ENDMDL
MODEL 6
REMARK VINA RESULT:      -3.7      2.314      3.154
REMARK  1 active torsions:
REMARK  status: ('A' for Active; 'I' for Inactive)
REMARK    1  A    between atoms: C7_7  and  N8_8 
ROOT
HETATM    1  C1  UNL     1     -32.875   4.686   2.297  1.00 20.00     0.013 C 
HETATM    2  C2  UNL     1     -33.592   4.887   3.239  1.00 20.00    -0.087 C 
HETATM    3  C7  UNL     1     -34.467   5.127   4.390  1.00 20.00     0.365 C 
ENDROOT
BRANCH   3   4
HETATM    4  N8  UNL     1     -34.369   6.511   4.829  1.00 20.00     0.106 N 
HETATM    5  C5  UNL     1     -33.238   7.211   4.217  1.00 20.00     0.351 C 
HETATM    6  C3  UNL     1     -33.002   8.316   5.214  1.00 20.00     0.156 C 
HETATM    7  C4  UNL     1     -33.773   8.080   6.479  1.00 20.00     0.110 C 
HETATM    8  O9  UNL     1     -32.276   9.281   5.017  1.00 20.00    -0.296 OA
HETATM    9  C6  UNL     1     -34.193   6.630   6.280  1.00 20.00     0.281 C 
ENDBRANCH   3   4
TORSDOF 1
ENDMDL
MODEL 7
REMARK VINA RESULT:      -3.7     12.681     13.872
REMARK  1 active torsions:
REMARK  status: ('A' for Active; 'I' for Inactive)
REMARK    1  A    between atoms: C7_7  and  N8_8 
ROOT
HETATM    1  C1  UNL     1     -33.336  16.773  -2.348  1.00 20.00     0.013 C 
HETATM    2  C2  UNL     1     -33.456  16.014  -3.270  1.00 20.00    -0.087 C 
HETATM    3  C7  UNL     1     -33.601  15.084  -4.393  1.00 20.00     0.365 C 
ENDROOT
BRANCH   3   4
HETATM    4  N8  UNL     1     -34.292  15.722  -5.503  1.00 20.00     0.106 N 
HETATM    5  C5  UNL     1     -35.742  15.531  -5.440  1.00 20.00     0.351 C 
HETATM    6  C3  UNL     1     -36.127  15.720  -6.885  1.00 20.00     0.156 C 
HETATM    7  C4  UNL     1     -34.916  15.730  -7.771  1.00 20.00     0.110 C 
HETATM    8  O9  UNL     1     -37.276  15.851  -7.283  1.00 20.00    -0.296 OA
HETATM    9  C6  UNL     1     -33.862  15.206  -6.806  1.00 20.00     0.281 C 
ENDBRANCH   3   4
TORSDOF 1
ENDMDL
MODEL 8
REMARK VINA RESULT:      -3.7     15.298     16.061
REMARK  1 active torsions:
REMARK  status: ('A' for Active; 'I' for Inactive)
REMARK    1  A    between atoms: C7_7  and  N8_8 
ROOT
HETATM    1  C1  UNL     1     -23.735  19.255   7.626  1.00 20.00     0.013 C 
HETATM    2  C2  UNL     1     -22.987  18.539   8.233  1.00 20.00    -0.087 C 
HETATM    3  C7  UNL     1     -22.070  17.666   8.971  1.00 20.00     0.365 C 
ENDROOT
BRANCH   3   4
HETATM    4  N8  UNL     1     -22.550  17.448  10.328  1.00 20.00     0.106 N 
HETATM    5  C5  UNL     1     -23.899  16.883  10.358  1.00 20.00     0.351 C 
HETATM    6  C3  UNL     1     -24.364  17.304  11.728  1.00 20.00     0.156 C 
HETATM    7  C4  UNL     1     -23.430  18.311  12.332  1.00 20.00     0.110 C 
HETATM    8  O9  UNL     1     -25.371  16.879  12.277  1.00 20.00    -0.296 OA
HETATM    9  C6  UNL     1     -22.602  18.687  11.111  1.00 20.00     0.281 C 
ENDBRANCH   3   4
TORSDOF 1
ENDMDL
MODEL 9
REMARK VINA RESULT:      -3.6     12.361     13.149
REMARK  1 active torsions:
REMARK  status: ('A' for Active; 'I' for Inactive)
REMARK    1  A    between atoms: C7_7  and  N8_8 
ROOT
HETATM    1  C1  UNL     1     -33.552  17.749  -0.717  1.00 20.00     0.013 C 
HETATM    2  C2  UNL     1     -33.974  17.836  -1.838  1.00 20.00    -0.087 C 
HETATM    3  C7  UNL     1     -34.489  17.946  -3.205  1.00 20.00     0.365 C 
ENDROOT
BRANCH   3   4
HETATM    4  N8  UNL     1     -33.844  16.976  -4.077  1.00 20.00     0.106 N 
HETATM    5  C5  UNL     1     -34.606  16.736  -5.303  1.00 20.00     0.351 C 
HETATM    6  C3  UNL     1     -34.108  15.369  -5.697  1.00 20.00     0.156 C 
HETATM    7  C4  UNL     1     -33.316  14.741  -4.587  1.00 20.00     0.110 C 
HETATM    8  O9  UNL     1     -34.319  14.842  -6.780  1.00 20.00    -0.296 OA
HETATM    9  C6  UNL     1     -33.670  15.670  -3.435  1.00 20.00     0.281 C 
ENDBRANCH   3   4
TORSDOF 1
ENDMDL
