MODEL 1
REMARK VINA RESULT:      -3.4      0.000      0.000
REMARK  2 active torsions:
REMARK  status: ('A' for Active; 'I' for Inactive)
REMARK    1  A    between atoms: C3_3  and  C8_8 
REMARK    2  A    between atoms: C8_8  and  N10_10 
ROOT
HETATM    1  C1  UNL     1     -35.504  14.186  -4.697  1.00 20.00     0.100 C 
HETATM    2  C8  UNL     1     -35.026  15.557  -4.943  1.00 20.00     0.356 C 
HETATM    3  N9  UNL     1     -35.887  13.107  -4.502  1.00 20.00    -0.195 NA
ENDROOT
BRANCH   2   4
HETATM    4  C3  UNL     1     -33.845  15.862  -4.028  1.00 20.00    -0.041 C 
HETATM    5  C2  UNL     1     -33.949  16.852  -3.117  1.00 20.00    -0.025 C 
HETATM    6  C4  UNL     1     -32.912  17.338  -2.157  1.00 20.00     0.036 C 
HETATM    7  C5  UNL     1     -32.610  15.013  -4.206  1.00 20.00     0.046 C 
ENDBRANCH   2   4
BRANCH   2   8
HETATM    8  N10 UNL     1     -34.691  15.731  -6.358  1.00 20.00     0.102 N 
HETATM    9  C6  UNL     1     -34.528  17.149  -6.673  1.00 20.00     0.311 C 
HETATM   10  C7  UNL     1     -35.725  15.134  -7.203  1.00 20.00     0.311 C 
ENDBRANCH   2   8
TORSDOF 2
ENDMDL
MODEL 2
REMARK VINA RESULT:      -3.4      3.532      5.513
REMARK  2 active torsions:
REMARK  status: ('A' for Active; 'I' for Inactive)
REMARK    1  A    between atoms: C3_3  and  C8_8 
REMARK    2  A    between atoms: C8_8  and  N10_10 
ROOT
HETATM    1  C1  UNL     1     -32.140  18.651  -1.275  1.00 20.00     0.100 C 
HETATM    2  C8  UNL     1     -33.456  18.785  -1.923  1.00 20.00     0.356 C 
HETATM    3  N9  UNL     1     -31.102  18.551  -0.764  1.00 20.00    -0.195 NA
ENDROOT
BRANCH   2   4
HETATM    4  C3  UNL     1     -33.573  17.777  -3.061  1.00 20.00    -0.041 C 
HETATM    5  C2  UNL     1     -33.410  16.462  -2.803  1.00 20.00    -0.025 C 
HETATM    6  C4  UNL     1     -33.444  15.319  -3.764  1.00 20.00     0.036 C 
HETATM    7  C5  UNL     1     -33.871  18.330  -4.432  1.00 20.00     0.046 C 
ENDBRANCH   2   4
BRANCH   2   8
HETATM    8  N10 UNL     1     -34.526  18.634  -0.935  1.00 20.00     0.102 N 
HETATM    9  C6  UNL     1     -35.755  19.263  -1.415  1.00 20.00     0.311 C 
HETATM   10  C7  UNL     1     -34.121  19.212   0.346  1.00 20.00     0.311 C 
ENDBRANCH   2   8
TORSDOF 2
ENDMDL
MODEL 3
REMARK VINA RESULT:      -3.4     12.337     13.466
REMARK  2 active torsions:
REMARK  status: ('A' for Active; 'I' for Inactive)
REMARK    1  A    between atoms: C3_3  and  C8_8 
REMARK    2  A    between atoms: C8_8  and  N10_10 
ROOT
HETATM    1  C1  UNL     1     -40.584  13.928   7.885  1.00 20.00     0.100 C 
HETATM    2  C8  UNL     1     -40.810  13.798   6.435  1.00 20.00     0.356 C 
HETATM    3  N9  UNL     1     -40.405  14.036   9.028  1.00 20.00    -0.195 NA
ENDROOT
BRANCH   2   4
HETATM    4  C3  UNL     1     -39.849  12.767   5.856  1.00 20.00    -0.041 C 
HETATM    5  C2  UNL     1     -39.865  12.515   4.530  1.00 20.00    -0.025 C 
HETATM    6  C4  UNL     1     -39.044  11.527   3.766  1.00 20.00     0.036 C 
HETATM    7  C5  UNL     1     -38.920  12.080   6.827  1.00 20.00     0.046 C 
ENDBRANCH   2   4
BRANCH   2   8
HETATM    8  N10 UNL     1     -42.211  13.462   6.170  1.00 20.00     0.102 N 
HETATM    9  C6  UNL     1     -43.071  14.612   6.447  1.00 20.00     0.311 C 
HETATM   10  C7  UNL     1     -42.620  12.311   6.971  1.00 20.00     0.311 C 
ENDBRANCH   2   8
TORSDOF 2
ENDMDL
MODEL 4
REMARK VINA RESULT:      -3.4      1.537      2.091
REMARK  2 active torsions:
REMARK  status: ('A' for Active; 'I' for Inactive)
REMARK    1  A    between atoms: C3_3  and  C8_8 
REMARK    2  A    between atoms: C8_8  and  N10_10 
ROOT
HETATM    1  C1  UNL     1     -34.214  15.321  -6.574  1.00 20.00     0.100 C 
HETATM    2  C8  UNL     1     -34.873  15.593  -5.284  1.00 20.00     0.356 C 
HETATM    3  N9  UNL     1     -33.699  15.101  -7.591  1.00 20.00    -0.195 NA
ENDROOT
BRANCH   2   4
HETATM    4  C3  UNL     1     -33.819  15.782  -4.200  1.00 20.00    -0.041 C 
HETATM    5  C2  UNL     1     -33.967  16.772  -3.294  1.00 20.00    -0.025 C 
HETATM    6  C4  UNL     1     -33.046  17.155  -2.182  1.00 20.00     0.036 C 
HETATM    7  C5  UNL     1     -32.651  14.827  -4.211  1.00 20.00     0.046 C 
ENDBRANCH   2   4
BRANCH   2   8
HETATM    8  N10 UNL     1     -35.761  16.751  -5.404  1.00 20.00     0.102 N 
HETATM    9  C6  UNL     1     -37.130  16.317  -5.678  1.00 20.00     0.311 C 
HETATM   10  C7  UNL     1     -35.288  17.650  -6.455  1.00 20.00     0.311 C 
ENDBRANCH   2   8
TORSDOF 2
ENDMDL
MODEL 5
REMARK VINA RESULT:      -3.3      1.352      2.039
REMARK  2 active torsions:
REMARK  status: ('A' for Active; 'I' for Inactive)
REMARK    1  A    between atoms: C3_3  and  C8_8 
REMARK    2  A    between atoms: C8_8  and  N10_10 
ROOT
HETATM    1  C1  UNL     1     -35.878  17.195  -5.173  1.00 20.00     0.100 C 
HETATM    2  C8  UNL     1     -34.618  16.493  -5.473  1.00 20.00     0.356 C 
HETATM    3  N9  UNL     1     -36.871  17.752  -4.940  1.00 20.00    -0.195 NA
ENDROOT
BRANCH   2   4
HETATM    4  C3  UNL     1     -33.838  16.264  -4.184  1.00 20.00    -0.041 C 
HETATM    5  C2  UNL     1     -33.976  17.133  -3.161  1.00 20.00    -0.025 C 
HETATM    6  C4  UNL     1     -33.285  17.121  -1.836  1.00 20.00     0.036 C 
HETATM    7  C5  UNL     1     -32.941  15.052  -4.137  1.00 20.00     0.046 C 
ENDBRANCH   2   4
BRANCH   2   8
HETATM    8  N10 UNL     1     -34.892  15.243  -6.186  1.00 20.00     0.102 N 
HETATM    9  C6  UNL     1     -35.195  15.514  -7.591  1.00 20.00     0.311 C 
HETATM   10  C7  UNL     1     -35.997  14.527  -5.553  1.00 20.00     0.311 C 
ENDBRANCH   2   8
TORSDOF 2
ENDMDL
MODEL 6
REMARK VINA RESULT:      -3.3     12.773     13.929
REMARK  2 active torsions:
REMARK  status: ('A' for Active; 'I' for Inactive)
REMARK    1  A    between atoms: C3_3  and  C8_8 
REMARK    2  A    between atoms: C8_8  and  N10_10 
ROOT
HETATM    1  C1  UNL     1     -42.411  12.756   7.702  1.00 20.00     0.100 C 
HETATM    2  C8  UNL     1     -41.280  13.595   7.270  1.00 20.00     0.356 C 
HETATM    3  N9  UNL     1     -43.300  12.093   8.048  1.00 20.00    -0.195 NA
ENDROOT
BRANCH   2   4
HETATM    4  C3  UNL     1     -40.839  13.182   5.870  1.00 20.00    -0.041 C 
HETATM    5  C2  UNL     1     -39.843  12.283   5.726  1.00 20.00    -0.025 C 
HETATM    6  C4  UNL     1     -39.235  11.771   4.461  1.00 20.00     0.036 C 
HETATM    7  C5  UNL     1     -41.564  13.821   4.712  1.00 20.00     0.046 C 
ENDBRANCH   2   4
BRANCH   2   8
HETATM    8  N10 UNL     1     -41.644  15.012   7.342  1.00 20.00     0.102 N 
HETATM    9  C6  UNL     1     -40.456  15.832   7.571  1.00 20.00     0.311 C 
HETATM   10  C7  UNL     1     -42.630  15.232   8.398  1.00 20.00     0.311 C 
ENDBRANCH   2   8
TORSDOF 2
ENDMDL
MODEL 7
REMARK VINA RESULT:      -3.2     13.140     14.367
REMARK  2 active torsions:
REMARK  status: ('A' for Active; 'I' for Inactive)
REMARK    1  A    between atoms: C3_3  and  C8_8 
REMARK    2  A    between atoms: C8_8  and  N10_10 
ROOT
HETATM    1  C1  UNL     1     -40.817  14.656   8.041  1.00 20.00     0.100 C 
HETATM    2  C8  UNL     1     -41.801  13.931   7.218  1.00 20.00     0.356 C 
HETATM    3  N9  UNL     1     -40.044  15.231   8.690  1.00 20.00    -0.195 NA
ENDROOT
BRANCH   2   4
HETATM    4  C3  UNL     1     -41.122  13.383   5.969  1.00 20.00    -0.041 C 
HETATM    5  C2  UNL     1     -40.136  12.469   6.095  1.00 20.00    -0.025 C 
HETATM    6  C4  UNL     1     -39.319  11.835   5.017  1.00 20.00     0.036 C 
HETATM    7  C5  UNL     1     -41.609  13.911   4.642  1.00 20.00     0.046 C 
ENDBRANCH   2   4
BRANCH   2   8
HETATM    8  N10 UNL     1     -42.444  12.879   8.008  1.00 20.00     0.102 N 
HETATM    9  C6  UNL     1     -43.416  12.152   7.193  1.00 20.00     0.311 C 
HETATM   10  C7  UNL     1     -43.091  13.451   9.188  1.00 20.00     0.311 C 
ENDBRANCH   2   8
TORSDOF 2
ENDMDL
MODEL 8
REMARK VINA RESULT:      -3.2     11.213     12.510
REMARK  2 active torsions:
REMARK  status: ('A' for Active; 'I' for Inactive)
REMARK    1  A    between atoms: C3_3  and  C8_8 
REMARK    2  A    between atoms: C8_8  and  N10_10 
ROOT
HETATM    1  C1  UNL     1     -32.966   5.792   3.225  1.00 20.00     0.100 C 
HETATM    2  C8  UNL     1     -33.043   6.768   4.325  1.00 20.00     0.356 C 
HETATM    3  N9  UNL     1     -32.903   5.018   2.360  1.00 20.00    -0.195 NA
ENDROOT
BRANCH   2   4
HETATM    4  C3  UNL     1     -32.738   8.164   3.795  1.00 20.00    -0.041 C 
HETATM    5  C2  UNL     1     -32.996   8.455   2.503  1.00 20.00    -0.025 C 
HETATM    6  C4  UNL     1     -32.742   9.734   1.773  1.00 20.00     0.036 C 
HETATM    7  C5  UNL     1     -32.153   9.152   4.775  1.00 20.00     0.046 C 
ENDBRANCH   2   4
BRANCH   2   8
HETATM    8  N10 UNL     1     -34.352   6.695   4.978  1.00 20.00     0.102 N 
HETATM    9  C6  UNL     1     -34.214   6.898   6.419  1.00 20.00     0.311 C 
HETATM   10  C7  UNL     1     -34.988   5.409   4.700  1.00 20.00     0.311 C 
ENDBRANCH   2   8
TORSDOF 2
ENDMDL
MODEL 9
REMARK VINA RESULT:      -3.2     12.104     13.333
REMARK  2 active torsions:
REMARK  status: ('A' for Active; 'I' for Inactive)
REMARK    1  A    between atoms: C3_3  and  C8_8 
REMARK    2  A    between atoms: C8_8  and  N10_10 
ROOT
HETATM    1  C1  UNL     1     -41.901  14.016   5.576  1.00 20.00     0.100 C 
HETATM    2  C8  UNL     1     -41.250  13.153   6.577  1.00 20.00     0.356 C 
HETATM    3  N9  UNL     1     -42.419  14.694   4.788  1.00 20.00    -0.195 NA
ENDROOT
BRANCH   2   4
HETATM    4  C3  UNL     1     -40.021  12.493   5.965  1.00 20.00    -0.041 C 
HETATM    5  C2  UNL     1     -39.966  12.299   4.630  1.00 20.00    -0.025 C 
HETATM    6  C4  UNL     1     -38.885  11.644   3.834  1.00 20.00     0.036 C 
HETATM    7  C5  UNL     1     -38.920  12.092   6.915  1.00 20.00     0.046 C 
ENDBRANCH   2   4
BRANCH   2   8
HETATM    8  N10 UNL     1     -40.926  13.926   7.778  1.00 20.00     0.102 N 
HETATM    9  C6  UNL     1     -42.089  14.007   8.661  1.00 20.00     0.311 C 
HETATM   10  C7  UNL     1     -40.466  15.265   7.414  1.00 20.00     0.311 C 
ENDBRANCH   2   8
TORSDOF 2
ENDMDL
