MODEL 1
REMARK VINA RESULT:      -5.2      0.000      0.000
REMARK  3 active torsions:
REMARK  status: ('A' for Active; 'I' for Inactive)
REMARK    1  A    between atoms: C3_3  and  C6_6 
REMARK    2  A    between atoms: C3_3  and  O11_11 
REMARK    3  A    between atoms: C8_8  and  O11_11 
ROOT
HETATM    1  C1  UNL     1     -34.417   6.012   6.452  1.00 20.00    -0.025 C 
HETATM    2  C2  UNL     1     -34.719   5.077   5.542  1.00 20.00    -0.005 C 
HETATM    3  C4  UNL     1     -33.678   7.259   6.069  1.00 20.00     0.069 C 
HETATM    4  C5  UNL     1     -34.309   5.211   4.105  1.00 20.00     0.196 C 
HETATM    5  C6  UNL     1     -33.682   7.450   4.554  1.00 20.00     0.224 C 
HETATM    6  O10 UNL     1     -33.323   6.231   3.908  1.00 20.00    -0.372 OA
ENDROOT
BRANCH   5   7
HETATM    7  C3  UNL     1     -32.638   8.431   4.132  1.00 20.00     0.288 C 
HETATM    8  O9  UNL     1     -32.076   9.203   4.897  1.00 20.00    -0.262 OA
BRANCH   7   9
HETATM    9  O11 UNL     1     -32.425   8.322   2.791  1.00 20.00    -0.320 OA
BRANCH   9  10
HETATM   10  C8  UNL     1     -32.884   9.424   2.003  1.00 20.00     0.174 C 
HETATM   11  C7  UNL     1     -32.621   9.131   0.542  1.00 20.00     0.034 C 
ENDBRANCH   9  10
ENDBRANCH   7   9
ENDBRANCH   5   7
TORSDOF 3
ENDMDL
MODEL 2
REMARK VINA RESULT:      -4.6      0.873      1.517
REMARK  3 active torsions:
REMARK  status: ('A' for Active; 'I' for Inactive)
REMARK    1  A    between atoms: C3_3  and  C6_6 
REMARK    2  A    between atoms: C3_3  and  O11_11 
REMARK    3  A    between atoms: C8_8  and  O11_11 
ROOT
HETATM    1  C1  UNL     1     -34.462   5.121   4.518  1.00 20.00    -0.025 C 
HETATM    2  C2  UNL     1     -34.785   5.290   5.808  1.00 20.00    -0.005 C 
HETATM    3  C4  UNL     1     -33.649   6.143   3.782  1.00 20.00     0.069 C 
HETATM    4  C5  UNL     1     -34.382   6.518   6.569  1.00 20.00     0.196 C 
HETATM    5  C6  UNL     1     -32.981   7.113   4.755  1.00 20.00     0.224 C 
HETATM    6  O10 UNL     1     -33.931   7.573   5.712  1.00 20.00    -0.372 OA
ENDROOT
BRANCH   5   7
HETATM    7  C3  UNL     1     -32.515   8.344   4.052  1.00 20.00     0.288 C 
HETATM    8  O9  UNL     1     -32.201   9.380   4.622  1.00 20.00    -0.262 OA
BRANCH   7   9
HETATM    9  O11 UNL     1     -32.499   8.124   2.707  1.00 20.00    -0.320 OA
BRANCH   9  10
HETATM   10  C8  UNL     1     -32.806   9.261   1.894  1.00 20.00     0.174 C 
HETATM   11  C7  UNL     1     -32.544   8.916   0.444  1.00 20.00     0.034 C 
ENDBRANCH   9  10
ENDBRANCH   7   9
ENDBRANCH   5   7
TORSDOF 3
ENDMDL
MODEL 3
REMARK VINA RESULT:      -4.3      1.204      1.936
REMARK  3 active torsions:
REMARK  status: ('A' for Active; 'I' for Inactive)
REMARK    1  A    between atoms: C3_3  and  C6_6 
REMARK    2  A    between atoms: C3_3  and  O11_11 
REMARK    3  A    between atoms: C8_8  and  O11_11 
ROOT
HETATM    1  C1  UNL     1     -33.919   7.282   6.413  1.00 20.00    -0.025 C 
HETATM    2  C2  UNL     1     -34.718   6.222   6.594  1.00 20.00    -0.005 C 
HETATM    3  C4  UNL     1     -33.180   7.486   5.124  1.00 20.00     0.069 C 
HETATM    4  C5  UNL     1     -34.889   5.172   5.537  1.00 20.00     0.196 C 
HETATM    5  C6  UNL     1     -33.746   6.591   4.024  1.00 20.00     0.224 C 
HETATM    6  O10 UNL     1     -33.895   5.259   4.509  1.00 20.00    -0.372 OA
ENDROOT
BRANCH   5   7
HETATM    7  C3  UNL     1     -32.795   6.479   2.879  1.00 20.00     0.288 C 
HETATM    8  O9  UNL     1     -32.631   5.460   2.222  1.00 20.00    -0.262 OA
BRANCH   7   9
HETATM    9  O11 UNL     1     -32.160   7.671   2.695  1.00 20.00    -0.320 OA
BRANCH   9  10
HETATM   10  C8  UNL     1     -32.132   8.153   1.348  1.00 20.00     0.174 C 
HETATM   11  C7  UNL     1     -32.825   9.497   1.290  1.00 20.00     0.034 C 
ENDBRANCH   9  10
ENDBRANCH   7   9
ENDBRANCH   5   7
TORSDOF 3
ENDMDL
MODEL 4
REMARK VINA RESULT:      -4.1     11.514     12.343
REMARK  3 active torsions:
REMARK  status: ('A' for Active; 'I' for Inactive)
REMARK    1  A    between atoms: C3_3  and  C6_6 
REMARK    2  A    between atoms: C3_3  and  O11_11 
REMARK    3  A    between atoms: C8_8  and  O11_11 
ROOT
HETATM    1  C1  UNL     1     -33.616  18.188   0.453  1.00 20.00    -0.025 C 
HETATM    2  C2  UNL     1     -32.359  18.530   0.767  1.00 20.00    -0.005 C 
HETATM    3  C4  UNL     1     -34.026  17.957  -0.970  1.00 20.00     0.069 C 
HETATM    4  C5  UNL     1     -31.309  18.732  -0.285  1.00 20.00     0.196 C 
HETATM    5  C6  UNL     1     -32.802  17.801  -1.870  1.00 20.00     0.224 C 
HETATM    6  O10 UNL     1     -31.864  18.840  -1.602  1.00 20.00    -0.372 OA
ENDROOT
BRANCH   5   7
HETATM    7  C3  UNL     1     -33.166  17.974  -3.308  1.00 20.00     0.288 C 
HETATM    8  O9  UNL     1     -32.872  18.956  -3.975  1.00 20.00    -0.262 OA
BRANCH   7   9
HETATM    9  O11 UNL     1     -33.861  16.883  -3.737  1.00 20.00    -0.320 OA
BRANCH   9  10
HETATM   10  C8  UNL     1     -33.110  15.668  -3.820  1.00 20.00     0.174 C 
HETATM   11  C7  UNL     1     -34.040  14.538  -4.208  1.00 20.00     0.034 C 
ENDBRANCH   9  10
ENDBRANCH   7   9
ENDBRANCH   5   7
TORSDOF 3
ENDMDL
MODEL 5
REMARK VINA RESULT:      -3.8     11.150     12.680
REMARK  3 active torsions:
REMARK  status: ('A' for Active; 'I' for Inactive)
REMARK    1  A    between atoms: C3_3  and  C6_6 
REMARK    2  A    between atoms: C3_3  and  O11_11 
REMARK    3  A    between atoms: C8_8  and  O11_11 
ROOT
HETATM    1  C1  UNL     1     -33.185  17.732  -1.759  1.00 20.00    -0.025 C 
HETATM    2  C2  UNL     1     -33.028  18.794  -2.560  1.00 20.00    -0.005 C 
HETATM    3  C4  UNL     1     -33.517  16.381  -2.318  1.00 20.00     0.069 C 
HETATM    4  C5  UNL     1     -33.208  18.697  -4.046  1.00 20.00     0.196 C 
HETATM    5  C6  UNL     1     -33.275  16.340  -3.825  1.00 20.00     0.224 C 
HETATM    6  O10 UNL     1     -33.859  17.485  -4.443  1.00 20.00    -0.372 OA
ENDROOT
BRANCH   5   7
HETATM    7  C3  UNL     1     -33.965  15.172  -4.449  1.00 20.00     0.288 C 
HETATM    8  O9  UNL     1     -34.120  14.092  -3.895  1.00 20.00    -0.262 OA
BRANCH   7   9
HETATM    9  O11 UNL     1     -34.380  15.504  -5.704  1.00 20.00    -0.320 OA
BRANCH   9  10
HETATM   10  C8  UNL     1     -35.610  14.907  -6.124  1.00 20.00     0.174 C 
HETATM   11  C7  UNL     1     -36.764  15.751  -5.626  1.00 20.00     0.034 C 
ENDBRANCH   9  10
ENDBRANCH   7   9
ENDBRANCH   5   7
TORSDOF 3
ENDMDL
MODEL 6
REMARK VINA RESULT:      -3.8      9.988     10.718
REMARK  3 active torsions:
REMARK  status: ('A' for Active; 'I' for Inactive)
REMARK    1  A    between atoms: C3_3  and  C6_6 
REMARK    2  A    between atoms: C3_3  and  O11_11 
REMARK    3  A    between atoms: C8_8  and  O11_11 
ROOT
HETATM    1  C1  UNL     1     -40.633  16.359   8.285  1.00 20.00    -0.025 C 
HETATM    2  C2  UNL     1     -40.490  15.966   9.558  1.00 20.00    -0.005 C 
HETATM    3  C4  UNL     1     -40.892  15.368   7.191  1.00 20.00     0.069 C 
HETATM    4  C5  UNL     1     -40.548  14.519   9.950  1.00 20.00     0.196 C 
HETATM    5  C6  UNL     1     -41.321  14.020   7.767  1.00 20.00     0.224 C 
HETATM    6  O10 UNL     1     -40.443  13.640   8.824  1.00 20.00    -0.372 OA
ENDROOT
BRANCH   5   7
HETATM    7  C3  UNL     1     -41.193  12.935   6.750  1.00 20.00     0.288 C 
HETATM    8  O9  UNL     1     -41.949  11.976   6.673  1.00 20.00    -0.262 OA
BRANCH   7   9
HETATM    9  O11 UNL     1     -40.122  13.186   5.947  1.00 20.00    -0.320 OA
BRANCH   9  10
HETATM   10  C8  UNL     1     -39.201  12.102   5.792  1.00 20.00     0.174 C 
HETATM   11  C7  UNL     1     -39.116  11.732   4.327  1.00 20.00     0.034 C 
ENDBRANCH   9  10
ENDBRANCH   7   9
ENDBRANCH   5   7
TORSDOF 3
ENDMDL
MODEL 7
REMARK VINA RESULT:      -3.7     10.106     10.780
REMARK  3 active torsions:
REMARK  status: ('A' for Active; 'I' for Inactive)
REMARK    1  A    between atoms: C3_3  and  C6_6 
REMARK    2  A    between atoms: C3_3  and  O11_11 
REMARK    3  A    between atoms: C8_8  and  O11_11 
ROOT
HETATM    1  C1  UNL     1     -40.998  13.181   4.920  1.00 20.00    -0.025 C 
HETATM    2  C2  UNL     1     -39.986  12.303   4.899  1.00 20.00    -0.005 C 
HETATM    3  C4  UNL     1     -41.313  13.974   6.153  1.00 20.00     0.069 C 
HETATM    4  C5  UNL     1     -39.141  12.042   6.111  1.00 20.00     0.196 C 
HETATM    5  C6  UNL     1     -40.158  13.912   7.150  1.00 20.00     0.224 C 
HETATM    6  O10 UNL     1     -39.725  12.563   7.311  1.00 20.00    -0.372 OA
ENDROOT
BRANCH   5   7
HETATM    7  C3  UNL     1     -40.599  14.339   8.511  1.00 20.00     0.288 C 
HETATM    8  O9  UNL     1     -41.350  13.687   9.223  1.00 20.00    -0.262 OA
BRANCH   7   9
HETATM    9  O11 UNL     1     -40.037  15.542   8.816  1.00 20.00    -0.320 OA
BRANCH   9  10
HETATM   10  C8  UNL     1     -40.946  16.645   8.887  1.00 20.00     0.174 C 
HETATM   11  C7  UNL     1     -40.772  17.508   7.656  1.00 20.00     0.034 C 
ENDBRANCH   9  10
ENDBRANCH   7   9
ENDBRANCH   5   7
TORSDOF 3
ENDMDL
MODEL 8
REMARK VINA RESULT:      -3.7     11.643     12.774
REMARK  3 active torsions:
REMARK  status: ('A' for Active; 'I' for Inactive)
REMARK    1  A    between atoms: C3_3  and  C6_6 
REMARK    2  A    between atoms: C3_3  and  O11_11 
REMARK    3  A    between atoms: C8_8  and  O11_11 
ROOT
HETATM    1  C1  UNL     1     -33.941  14.785  -4.417  1.00 20.00    -0.025 C 
HETATM    2  C2  UNL     1     -34.761  15.192  -5.395  1.00 20.00    -0.005 C 
HETATM    3  C4  UNL     1     -33.276  15.768  -3.502  1.00 20.00     0.069 C 
HETATM    4  C5  UNL     1     -35.029  16.646  -5.647  1.00 20.00     0.196 C 
HETATM    5  C6  UNL     1     -33.936  17.142  -3.606  1.00 20.00     0.224 C 
HETATM    6  O10 UNL     1     -34.098  17.502  -4.975  1.00 20.00    -0.372 OA
ENDROOT
BRANCH   5   7
HETATM    7  C3  UNL     1     -33.060  18.204  -3.029  1.00 20.00     0.288 C 
HETATM    8  O9  UNL     1     -32.809  19.263  -3.589  1.00 20.00    -0.262 OA
BRANCH   7   9
HETATM    9  O11 UNL     1     -32.603  17.807  -1.809  1.00 20.00    -0.320 OA
BRANCH   9  10
HETATM   10  C8  UNL     1     -32.396  18.855  -0.857  1.00 20.00     0.174 C 
HETATM   11  C7  UNL     1     -31.168  18.538  -0.031  1.00 20.00     0.034 C 
ENDBRANCH   9  10
ENDBRANCH   7   9
ENDBRANCH   5   7
TORSDOF 3
ENDMDL
MODEL 9
REMARK VINA RESULT:      -3.7     11.661     12.901
REMARK  3 active torsions:
REMARK  status: ('A' for Active; 'I' for Inactive)
REMARK    1  A    between atoms: C3_3  and  C6_6 
REMARK    2  A    between atoms: C3_3  and  O11_11 
REMARK    3  A    between atoms: C8_8  and  O11_11 
ROOT
HETATM    1  C1  UNL     1     -33.375  16.876  -1.969  1.00 20.00    -0.025 C 
HETATM    2  C2  UNL     1     -34.105  17.927  -1.572  1.00 20.00    -0.005 C 
HETATM    3  C4  UNL     1     -33.441  16.374  -3.379  1.00 20.00     0.069 C 
HETATM    4  C5  UNL     1     -35.046  18.633  -2.502  1.00 20.00     0.196 C 
HETATM    5  C6  UNL     1     -34.105  17.402  -4.293  1.00 20.00     0.224 C 
HETATM    6  O10 UNL     1     -35.306  17.882  -3.694  1.00 20.00    -0.372 OA
ENDROOT
BRANCH   5   7
HETATM    7  C3  UNL     1     -34.538  16.779  -5.579  1.00 20.00     0.288 C 
HETATM    8  O9  UNL     1     -34.921  17.414  -6.552  1.00 20.00    -0.262 OA
BRANCH   7   9
HETATM    9  O11 UNL     1     -34.438  15.423  -5.485  1.00 20.00    -0.320 OA
BRANCH   9  10
HETATM   10  C8  UNL     1     -35.626  14.694  -5.809  1.00 20.00     0.174 C 
HETATM   11  C7  UNL     1     -35.947  13.744  -4.676  1.00 20.00     0.034 C 
ENDBRANCH   9  10
ENDBRANCH   7   9
ENDBRANCH   5   7
TORSDOF 3
ENDMDL
