MODEL 1
REMARK VINA RESULT:      -5.4      0.000      0.000
REMARK  0 active torsions:
REMARK  status: ('A' for Active; 'I' for Inactive)
ROOT
HETATM    1  C1  UNL     1     -32.696   7.472   3.722  1.00 20.00     0.047 C 
HETATM    2  C2  UNL     1     -32.519   6.573   2.749  1.00 20.00    -0.023 C 
HETATM    3  C3  UNL     1     -33.580   7.170   4.878  1.00 20.00     0.157 C 
HETATM    4  C4  UNL     1     -33.118   5.200   2.745  1.00 20.00     0.028 C 
HETATM    5  C5  UNL     1     -33.592   4.774   4.132  1.00 20.00     0.021 C 
HETATM    6  C6  UNL     1     -34.393   5.869   4.862  1.00 20.00     0.017 C 
HETATM    7  C7  UNL     1     -34.658   5.410   6.305  1.00 20.00     0.023 C 
HETATM    8  C8  UNL     1     -35.735   6.146   4.169  1.00 20.00     0.023 C 
HETATM    9  O9  UNL     1     -33.677   8.001   5.782  1.00 20.00    -0.292 OA
ENDROOT
TORSDOF 0
ENDMDL
MODEL 2
REMARK VINA RESULT:      -4.9      1.615      3.144
REMARK  0 active torsions:
REMARK  status: ('A' for Active; 'I' for Inactive)
ROOT
HETATM    1  C1  UNL     1     -34.020   5.171   4.089  1.00 20.00     0.047 C 
HETATM    2  C2  UNL     1     -34.699   5.014   5.230  1.00 20.00    -0.023 C 
HETATM    3  C3  UNL     1     -33.247   6.415   3.834  1.00 20.00     0.157 C 
HETATM    4  C4  UNL     1     -34.709   6.005   6.353  1.00 20.00     0.028 C 
HETATM    5  C5  UNL     1     -33.552   6.997   6.257  1.00 20.00     0.021 C 
HETATM    6  C6  UNL     1     -33.360   7.568   4.839  1.00 20.00     0.017 C 
HETATM    7  C7  UNL     1     -32.069   8.403   4.813  1.00 20.00     0.023 C 
HETATM    8  C8  UNL     1     -34.540   8.459   4.424  1.00 20.00     0.023 C 
HETATM    9  O9  UNL     1     -32.591   6.502   2.797  1.00 20.00    -0.292 OA
ENDROOT
TORSDOF 0
ENDMDL
MODEL 3
REMARK VINA RESULT:      -4.7      1.396      2.399
REMARK  0 active torsions:
REMARK  status: ('A' for Active; 'I' for Inactive)
ROOT
HETATM    1  C1  UNL     1     -33.752   7.429   6.419  1.00 20.00     0.047 C 
HETATM    2  C2  UNL     1     -33.372   8.338   5.516  1.00 20.00    -0.023 C 
HETATM    3  C3  UNL     1     -34.164   6.066   5.992  1.00 20.00     0.157 C 
HETATM    4  C4  UNL     1     -33.267   8.078   4.045  1.00 20.00     0.028 C 
HETATM    5  C5  UNL     1     -33.223   6.586   3.725  1.00 20.00     0.021 C 
HETATM    6  C6  UNL     1     -34.281   5.770   4.491  1.00 20.00     0.017 C 
HETATM    7  C7  UNL     1     -34.030   4.275   4.240  1.00 20.00     0.023 C 
HETATM    8  C8  UNL     1     -35.705   6.122   4.037  1.00 20.00     0.023 C 
HETATM    9  O9  UNL     1     -34.457   5.238   6.855  1.00 20.00    -0.292 OA
ENDROOT
TORSDOF 0
ENDMDL
MODEL 4
REMARK VINA RESULT:      -4.6      1.672      2.729
REMARK  0 active torsions:
REMARK  status: ('A' for Active; 'I' for Inactive)
ROOT
HETATM    1  C1  UNL     1     -32.178   7.224   3.429  1.00 20.00     0.047 C 
HETATM    2  C2  UNL     1     -32.113   8.349   4.149  1.00 20.00    -0.023 C 
HETATM    3  C3  UNL     1     -33.255   6.230   3.675  1.00 20.00     0.157 C 
HETATM    4  C4  UNL     1     -33.109   8.742   5.195  1.00 20.00     0.028 C 
HETATM    5  C5  UNL     1     -34.416   7.963   5.070  1.00 20.00     0.021 C 
HETATM    6  C6  UNL     1     -34.202   6.451   4.860  1.00 20.00     0.017 C 
HETATM    7  C7  UNL     1     -35.561   5.796   4.564  1.00 20.00     0.023 C 
HETATM    8  C8  UNL     1     -33.587   5.790   6.102  1.00 20.00     0.023 C 
HETATM    9  O9  UNL     1     -33.314   5.231   2.958  1.00 20.00    -0.292 OA
ENDROOT
TORSDOF 0
ENDMDL
MODEL 5
REMARK VINA RESULT:      -4.1     15.902     17.168
REMARK  0 active torsions:
REMARK  status: ('A' for Active; 'I' for Inactive)
ROOT
HETATM    1  C1  UNL     1     -22.775  18.755   9.521  1.00 20.00     0.047 C 
HETATM    2  C2  UNL     1     -21.779  18.582  10.397  1.00 20.00    -0.023 C 
HETATM    3  C3  UNL     1     -24.192  18.688   9.965  1.00 20.00     0.157 C 
HETATM    4  C4  UNL     1     -21.972  18.370  11.866  1.00 20.00     0.028 C 
HETATM    5  C5  UNL     1     -23.364  18.788  12.332  1.00 20.00     0.021 C 
HETATM    6  C6  UNL     1     -24.490  18.276  11.412  1.00 20.00     0.017 C 
HETATM    7  C7  UNL     1     -25.819  18.902  11.863  1.00 20.00     0.023 C 
HETATM    8  C8  UNL     1     -24.613  16.747  11.466  1.00 20.00     0.023 C 
HETATM    9  O9  UNL     1     -25.081  18.904   9.142  1.00 20.00    -0.292 OA
ENDROOT
TORSDOF 0
ENDMDL
MODEL 6
REMARK VINA RESULT:      -3.7     15.540     16.988
REMARK  0 active torsions:
REMARK  status: ('A' for Active; 'I' for Inactive)
ROOT
HETATM    1  C1  UNL     1     -24.063  16.216  10.795  1.00 20.00     0.047 C 
HETATM    2  C2  UNL     1     -24.655  16.747  11.870  1.00 20.00    -0.023 C 
HETATM    3  C3  UNL     1     -23.189  17.047   9.926  1.00 20.00     0.157 C 
HETATM    4  C4  UNL     1     -24.466  18.158  12.331  1.00 20.00     0.028 C 
HETATM    5  C5  UNL     1     -23.224  18.803  11.719  1.00 20.00     0.021 C 
HETATM    6  C6  UNL     1     -23.095  18.553  10.205  1.00 20.00     0.017 C 
HETATM    7  C7  UNL     1     -21.732  19.080   9.731  1.00 20.00     0.023 C 
HETATM    8  C8  UNL     1     -24.208  19.262   9.418  1.00 20.00     0.023 C 
HETATM    9  O9  UNL     1     -22.618  16.513   8.976  1.00 20.00    -0.292 OA
ENDROOT
TORSDOF 0
ENDMDL
MODEL 7
REMARK VINA RESULT:      -3.5     12.445     13.592
REMARK  0 active torsions:
REMARK  status: ('A' for Active; 'I' for Inactive)
ROOT
HETATM    1  C1  UNL     1     -34.526  17.533  -4.180  1.00 20.00     0.047 C 
HETATM    2  C2  UNL     1     -33.414  17.061  -3.608  1.00 20.00    -0.023 C 
HETATM    3  C3  UNL     1     -35.374  16.652  -5.026  1.00 20.00     0.157 C 
HETATM    4  C4  UNL     1     -32.951  15.640  -3.702  1.00 20.00     0.028 C 
HETATM    5  C5  UNL     1     -34.067  14.698  -4.147  1.00 20.00     0.021 C 
HETATM    6  C6  UNL     1     -34.874  15.237  -5.343  1.00 20.00     0.017 C 
HETATM    7  C7  UNL     1     -36.075  14.309  -5.587  1.00 20.00     0.023 C 
HETATM    8  C8  UNL     1     -34.022  15.299  -6.619  1.00 20.00     0.023 C 
HETATM    9  O9  UNL     1     -36.418  17.106  -5.493  1.00 20.00    -0.292 OA
ENDROOT
TORSDOF 0
ENDMDL
MODEL 8
REMARK VINA RESULT:      -3.5      9.990     11.233
REMARK  0 active torsions:
REMARK  status: ('A' for Active; 'I' for Inactive)
ROOT
HETATM    1  C1  UNL     1     -41.321  15.335   7.546  1.00 20.00     0.047 C 
HETATM    2  C2  UNL     1     -42.146  15.812   6.608  1.00 20.00    -0.023 C 
HETATM    3  C3  UNL     1     -40.792  13.949   7.455  1.00 20.00     0.157 C 
HETATM    4  C4  UNL     1     -42.562  15.056   5.385  1.00 20.00     0.028 C 
HETATM    5  C5  UNL     1     -41.640  13.875   5.094  1.00 20.00     0.021 C 
HETATM    6  C6  UNL     1     -41.321  13.033   6.344  1.00 20.00     0.017 C 
HETATM    7  C7  UNL     1     -40.250  11.993   5.979  1.00 20.00     0.023 C 
HETATM    8  C8  UNL     1     -42.567  12.305   6.869  1.00 20.00     0.023 C 
HETATM    9  O9  UNL     1     -39.993  13.563   8.307  1.00 20.00    -0.292 OA
ENDROOT
TORSDOF 0
ENDMDL
MODEL 9
REMARK VINA RESULT:      -3.5      8.948     10.100
REMARK  0 active torsions:
REMARK  status: ('A' for Active; 'I' for Inactive)
ROOT
HETATM    1  C1  UNL     1     -39.918  12.480   4.383  1.00 20.00     0.047 C 
HETATM    2  C2  UNL     1     -39.122  11.893   5.283  1.00 20.00    -0.023 C 
HETATM    3  C3  UNL     1     -41.014  13.384   4.819  1.00 20.00     0.157 C 
HETATM    4  C4  UNL     1     -39.205  12.119   6.761  1.00 20.00     0.028 C 
HETATM    5  C5  UNL     1     -39.987  13.383   7.109  1.00 20.00     0.021 C 
HETATM    6  C6  UNL     1     -41.303  13.518   6.320  1.00 20.00     0.017 C 
HETATM    7  C7  UNL     1     -41.912  14.900   6.606  1.00 20.00     0.023 C 
HETATM    8  C8  UNL     1     -42.314  12.432   6.717  1.00 20.00     0.023 C 
HETATM    9  O9  UNL     1     -41.693  13.948   3.962  1.00 20.00    -0.292 OA
ENDROOT
TORSDOF 0
ENDMDL
