MODEL 1
REMARK VINA RESULT:      -5.2      0.000      0.000
REMARK  1 active torsions:
REMARK  status: ('A' for Active; 'I' for Inactive)
REMARK    1  A    between atoms: C1_1  and  C3_3 
ROOT
HETATM    1  C1  UNL     1     -33.704   6.835   4.534  1.00 20.00     0.035 C 
HETATM    2  C2  UNL     1     -32.905   6.560   3.503  1.00 20.00     0.053 C 
HETATM    3  C4  UNL     1     -33.313   8.127   5.132  1.00 20.00     0.073 C 
HETATM    4  C5  UNL     1     -32.359   8.649   4.065  1.00 20.00     0.180 C 
HETATM    5  C6  UNL     1     -32.877   5.374   2.608  1.00 20.00     0.077 C 
HETATM    6  O8  UNL     1     -31.938   7.535   3.253  1.00 20.00    -0.355 OA
ENDROOT
BRANCH   1   7
HETATM    7  C3  UNL     1     -34.796   6.024   5.046  1.00 20.00     0.250 C 
HETATM    8  O7  UNL     1     -35.819   5.874   4.360  1.00 20.00    -0.274 OA
HETATM    9 CL9  UNL     1     -34.587   5.298   6.631  1.00 20.00    -0.039 Cl
ENDBRANCH   1   7
TORSDOF 1
ENDMDL
MODEL 2
REMARK VINA RESULT:      -4.9      2.178      3.346
REMARK  1 active torsions:
REMARK  status: ('A' for Active; 'I' for Inactive)
REMARK    1  A    between atoms: C1_1  and  C3_3 
ROOT
HETATM    1  C1  UNL     1     -33.570   6.755   4.699  1.00 20.00     0.035 C 
HETATM    2  C2  UNL     1     -33.768   5.594   4.077  1.00 20.00     0.053 C 
HETATM    3  C4  UNL     1     -34.324   6.772   5.968  1.00 20.00     0.073 C 
HETATM    4  C5  UNL     1     -34.721   5.305   6.074  1.00 20.00     0.180 C 
HETATM    5  C6  UNL     1     -33.255   5.113   2.767  1.00 20.00     0.077 C 
HETATM    6  O8  UNL     1     -34.602   4.711   4.765  1.00 20.00    -0.355 OA
ENDROOT
BRANCH   1   7
HETATM    7  C3  UNL     1     -32.765   7.876   4.243  1.00 20.00     0.250 C 
HETATM    8  O7  UNL     1     -32.509   8.803   5.028  1.00 20.00    -0.274 OA
HETATM    9 CL9  UNL     1     -32.196   7.840   2.582  1.00 20.00    -0.039 Cl
ENDBRANCH   1   7
TORSDOF 1
ENDMDL
MODEL 3
REMARK VINA RESULT:      -4.5      2.129      2.693
REMARK  1 active torsions:
REMARK  status: ('A' for Active; 'I' for Inactive)
REMARK    1  A    between atoms: C1_1  and  C3_3 
ROOT
HETATM    1  C1  UNL     1     -33.360   6.654   4.265  1.00 20.00     0.035 C 
HETATM    2  C2  UNL     1     -33.704   7.206   5.428  1.00 20.00     0.053 C 
HETATM    3  C4  UNL     1     -32.603   7.631   3.457  1.00 20.00     0.073 C 
HETATM    4  C5  UNL     1     -32.335   8.706   4.503  1.00 20.00     0.180 C 
HETATM    5  C6  UNL     1     -34.491   6.643   6.556  1.00 20.00     0.077 C 
HETATM    6  O8  UNL     1     -33.268   8.523   5.587  1.00 20.00    -0.355 OA
ENDROOT
BRANCH   1   7
HETATM    7  C3  UNL     1     -33.666   5.312   3.799  1.00 20.00     0.250 C 
HETATM    8  O7  UNL     1     -34.457   4.607   4.447  1.00 20.00    -0.274 OA
HETATM    9 CL9  UNL     1     -32.883   4.770   2.325  1.00 20.00    -0.039 Cl
ENDBRANCH   1   7
TORSDOF 1
ENDMDL
MODEL 4
REMARK VINA RESULT:      -4.4      2.360      3.539
REMARK  1 active torsions:
REMARK  status: ('A' for Active; 'I' for Inactive)
REMARK    1  A    between atoms: C1_1  and  C3_3 
ROOT
HETATM    1  C1  UNL     1     -33.531   6.228   4.299  1.00 20.00     0.035 C 
HETATM    2  C2  UNL     1     -33.434   7.264   5.131  1.00 20.00     0.053 C 
HETATM    3  C4  UNL     1     -34.374   5.180   4.908  1.00 20.00     0.073 C 
HETATM    4  C5  UNL     1     -34.965   5.949   6.084  1.00 20.00     0.180 C 
HETATM    5  C6  UNL     1     -32.680   8.537   4.987  1.00 20.00     0.077 C 
HETATM    6  O8  UNL     1     -34.139   7.106   6.326  1.00 20.00    -0.355 OA
ENDROOT
BRANCH   1   7
HETATM    7  C3  UNL     1     -32.914   6.085   2.991  1.00 20.00     0.250 C 
HETATM    8  O7  UNL     1     -32.857   4.963   2.462  1.00 20.00    -0.274 OA
HETATM    9 CL9  UNL     1     -32.280   7.537   2.233  1.00 20.00    -0.039 Cl
ENDBRANCH   1   7
TORSDOF 1
ENDMDL
MODEL 5
REMARK VINA RESULT:      -4.3      1.107      2.179
REMARK  1 active torsions:
REMARK  status: ('A' for Active; 'I' for Inactive)
REMARK    1  A    between atoms: C1_1  and  C3_3 
ROOT
HETATM    1  C1  UNL     1     -33.503   6.276   4.116  1.00 20.00     0.035 C 
HETATM    2  C2  UNL     1     -33.252   7.556   4.387  1.00 20.00     0.053 C 
HETATM    3  C4  UNL     1     -32.941   5.929   2.796  1.00 20.00     0.073 C 
HETATM    4  C5  UNL     1     -32.081   7.159   2.529  1.00 20.00     0.180 C 
HETATM    5  C6  UNL     1     -33.635   8.375   5.566  1.00 20.00     0.077 C 
HETATM    6  O8  UNL     1     -32.537   8.222   3.389  1.00 20.00    -0.355 OA
ENDROOT
BRANCH   1   7
HETATM    7  C3  UNL     1     -34.225   5.323   4.943  1.00 20.00     0.250 C 
HETATM    8  O7  UNL     1     -34.427   4.176   4.516  1.00 20.00    -0.274 OA
HETATM    9 CL9  UNL     1     -34.769   5.871   6.520  1.00 20.00    -0.039 Cl
ENDBRANCH   1   7
TORSDOF 1
ENDMDL
MODEL 6
REMARK VINA RESULT:      -4.3      1.354      2.355
REMARK  1 active torsions:
REMARK  status: ('A' for Active; 'I' for Inactive)
REMARK    1  A    between atoms: C1_1  and  C3_3 
ROOT
HETATM    1  C1  UNL     1     -33.592   6.573   4.608  1.00 20.00     0.035 C 
HETATM    2  C2  UNL     1     -32.778   7.458   4.034  1.00 20.00     0.053 C 
HETATM    3  C4  UNL     1     -33.840   5.453   3.678  1.00 20.00     0.073 C 
HETATM    4  C5  UNL     1     -32.782   5.735   2.618  1.00 20.00     0.180 C 
HETATM    5  C6  UNL     1     -32.264   8.755   4.549  1.00 20.00     0.077 C 
HETATM    6  O8  UNL     1     -32.373   7.111   2.745  1.00 20.00    -0.355 OA
ENDROOT
BRANCH   1   7
HETATM    7  C3  UNL     1     -34.187   6.648   5.932  1.00 20.00     0.250 C 
HETATM    8  O7  UNL     1     -34.244   7.742   6.514  1.00 20.00    -0.274 OA
HETATM    9 CL9  UNL     1     -34.797   5.156   6.629  1.00 20.00    -0.039 Cl
ENDBRANCH   1   7
TORSDOF 1
ENDMDL
MODEL 7
REMARK VINA RESULT:      -4.2      1.989      2.214
REMARK  1 active torsions:
REMARK  status: ('A' for Active; 'I' for Inactive)
REMARK    1  A    between atoms: C1_1  and  C3_3 
ROOT
HETATM    1  C1  UNL     1     -33.618   6.653   4.682  1.00 20.00     0.035 C 
HETATM    2  C2  UNL     1     -32.885   7.629   4.149  1.00 20.00     0.053 C 
HETATM    3  C4  UNL     1     -34.086   7.059   6.022  1.00 20.00     0.073 C 
HETATM    4  C5  UNL     1     -33.732   8.542   6.001  1.00 20.00     0.180 C 
HETATM    5  C6  UNL     1     -32.175   7.686   2.845  1.00 20.00     0.077 C 
HETATM    6  O8  UNL     1     -32.755   8.757   4.962  1.00 20.00    -0.355 OA
ENDROOT
BRANCH   1   7
HETATM    7  C3  UNL     1     -33.932   5.362   4.093  1.00 20.00     0.250 C 
HETATM    8  O7  UNL     1     -34.766   4.626   4.644  1.00 20.00    -0.274 OA
HETATM    9 CL9  UNL     1     -33.094   4.923   2.614  1.00 20.00    -0.039 Cl
ENDBRANCH   1   7
TORSDOF 1
ENDMDL
MODEL 8
REMARK VINA RESULT:      -4.1      1.883      3.085
REMARK  1 active torsions:
REMARK  status: ('A' for Active; 'I' for Inactive)
REMARK    1  A    between atoms: C1_1  and  C3_3 
ROOT
HETATM    1  C1  UNL     1     -33.306   6.998   4.335  1.00 20.00     0.035 C 
HETATM    2  C2  UNL     1     -34.129   6.236   5.053  1.00 20.00     0.053 C 
HETATM    3  C4  UNL     1     -33.069   8.274   5.040  1.00 20.00     0.073 C 
HETATM    4  C5  UNL     1     -33.664   7.949   6.405  1.00 20.00     0.180 C 
HETATM    5  C6  UNL     1     -34.686   4.890   4.757  1.00 20.00     0.077 C 
HETATM    6  O8  UNL     1     -34.539   6.813   6.257  1.00 20.00    -0.355 OA
ENDROOT
BRANCH   1   7
HETATM    7  C3  UNL     1     -32.714   6.687   3.044  1.00 20.00     0.250 C 
HETATM    8  O7  UNL     1     -32.179   7.592   2.385  1.00 20.00    -0.274 OA
HETATM    9 CL9  UNL     1     -32.797   5.020   2.498  1.00 20.00    -0.039 Cl
ENDBRANCH   1   7
TORSDOF 1
ENDMDL
MODEL 9
REMARK VINA RESULT:      -4.0      2.293      3.212
REMARK  1 active torsions:
REMARK  status: ('A' for Active; 'I' for Inactive)
REMARK    1  A    between atoms: C1_1  and  C3_3 
ROOT
HETATM    1  C1  UNL     1     -33.350   6.762   4.368  1.00 20.00     0.035 C 
HETATM    2  C2  UNL     1     -33.997   5.635   4.662  1.00 20.00     0.053 C 
HETATM    3  C4  UNL     1     -32.568   6.575   3.129  1.00 20.00     0.073 C 
HETATM    4  C5  UNL     1     -33.140   5.251   2.638  1.00 20.00     0.180 C 
HETATM    5  C6  UNL     1     -34.880   5.315   5.814  1.00 20.00     0.077 C 
HETATM    6  O8  UNL     1     -33.787   4.599   3.750  1.00 20.00    -0.355 OA
ENDROOT
BRANCH   1   7
HETATM    7  C3  UNL     1     -33.358   8.007   5.117  1.00 20.00     0.250 C 
HETATM    8  O7  UNL     1     -34.210   8.180   6.002  1.00 20.00    -0.274 OA
HETATM    9 CL9  UNL     1     -32.138   9.202   4.711  1.00 20.00    -0.039 Cl
ENDBRANCH   1   7
TORSDOF 1
ENDMDL
