MODEL 1
REMARK VINA RESULT:      -4.7      0.000      0.000
REMARK  2 active torsions:
REMARK  status: ('A' for Active; 'I' for Inactive)
REMARK    1  A    between atoms: C4_4  and  C6_6 
REMARK    2  A    between atoms: C5_5  and  C7_7 
ROOT
HETATM    1  C1  UNL     1     -34.296   6.812   6.475  1.00 20.00     0.007 C 
HETATM    2  C2  UNL     1     -34.165   5.271   6.368  1.00 20.00     0.007 C 
HETATM    3  C3  UNL     1     -35.358   6.082   4.486  1.00 20.00     0.014 C 
HETATM    4  C4  UNL     1     -34.490   7.243   5.004  1.00 20.00     0.017 C 
HETATM    5  C5  UNL     1     -34.301   5.022   4.848  1.00 20.00     0.017 C 
ENDROOT
BRANCH   4   6
HETATM    6  C6  UNL     1     -33.161   7.033   4.296  1.00 20.00     0.155 A 
HETATM    7  C7  UNL     1     -32.928   8.317   3.570  1.00 20.00     0.155 A 
HETATM    8  O8  UNL     1     -32.073   7.897   4.638  1.00 20.00    -0.375 OA
ENDBRANCH   4   6
TORSDOF 2
ENDMDL
MODEL 2
REMARK VINA RESULT:      -3.7      1.378      1.884
REMARK  2 active torsions:
REMARK  status: ('A' for Active; 'I' for Inactive)
REMARK    1  A    between atoms: C4_4  and  C6_6 
REMARK    2  A    between atoms: C5_5  and  C7_7 
ROOT
HETATM    1  C1  UNL     1     -34.425   7.544   5.061  1.00 20.00     0.007 C 
HETATM    2  C2  UNL     1     -33.986   7.036   6.459  1.00 20.00     0.007 C 
HETATM    3  C3  UNL     1     -35.194   5.321   5.354  1.00 20.00     0.014 C 
HETATM    4  C4  UNL     1     -34.608   6.234   4.262  1.00 20.00     0.017 C 
HETATM    5  C5  UNL     1     -33.974   5.501   6.276  1.00 20.00     0.017 C 
ENDROOT
BRANCH   4   6
HETATM    6  C6  UNL     1     -33.221   5.656   4.027  1.00 20.00     0.155 A 
HETATM    7  C7  UNL     1     -33.228   5.270   2.585  1.00 20.00     0.155 A 
HETATM    8  O8  UNL     1     -32.374   6.307   3.076  1.00 20.00    -0.375 OA
ENDBRANCH   4   6
TORSDOF 2
ENDMDL
MODEL 3
REMARK VINA RESULT:      -3.6     15.543     16.471
REMARK  2 active torsions:
REMARK  status: ('A' for Active; 'I' for Inactive)
REMARK    1  A    between atoms: C4_4  and  C6_6 
REMARK    2  A    between atoms: C5_5  and  C7_7 
ROOT
HETATM    1  C1  UNL     1     -22.360  18.498  11.317  1.00 20.00     0.007 C 
HETATM    2  C2  UNL     1     -23.280  17.425  11.956  1.00 20.00     0.007 C 
HETATM    3  C3  UNL     1     -24.468  18.540  10.233  1.00 20.00     0.014 C 
HETATM    4  C4  UNL     1     -22.969  18.676   9.908  1.00 20.00     0.017 C 
HETATM    5  C5  UNL     1     -24.295  17.130  10.828  1.00 20.00     0.017 C 
ENDROOT
BRANCH   4   6
HETATM    6  C6  UNL     1     -22.663  17.411   9.124  1.00 20.00     0.155 A 
HETATM    7  C7  UNL     1     -21.834  17.885   7.976  1.00 20.00     0.155 A 
HETATM    8  O8  UNL     1     -21.293  17.023   8.980  1.00 20.00    -0.375 OA
ENDBRANCH   4   6
TORSDOF 2
ENDMDL
MODEL 4
REMARK VINA RESULT:      -3.4     15.221     16.384
REMARK  2 active torsions:
REMARK  status: ('A' for Active; 'I' for Inactive)
REMARK    1  A    between atoms: C4_4  and  C6_6 
REMARK    2  A    between atoms: C5_5  and  C7_7 
ROOT
HETATM    1  C1  UNL     1     -24.257  16.636  10.925  1.00 20.00     0.007 C 
HETATM    2  C2  UNL     1     -25.208  17.232  11.995  1.00 20.00     0.007 C 
HETATM    3  C3  UNL     1     -23.053  18.185  12.254  1.00 20.00     0.014 C 
HETATM    4  C4  UNL     1     -23.168  17.724  10.789  1.00 20.00     0.017 C 
HETATM    5  C5  UNL     1     -24.538  18.584  12.332  1.00 20.00     0.017 C 
ENDROOT
BRANCH   4   6
HETATM    6  C6  UNL     1     -23.808  18.915  10.094  1.00 20.00     0.155 A 
HETATM    7  C7  UNL     1     -22.852  19.255   8.999  1.00 20.00     0.155 A 
HETATM    8  O8  UNL     1     -24.170  18.775   8.717  1.00 20.00    -0.375 OA
ENDBRANCH   4   6
TORSDOF 2
ENDMDL
MODEL 5
REMARK VINA RESULT:      -3.3     12.696     13.550
REMARK  2 active torsions:
REMARK  status: ('A' for Active; 'I' for Inactive)
REMARK    1  A    between atoms: C4_4  and  C6_6 
REMARK    2  A    between atoms: C5_5  and  C7_7 
ROOT
HETATM    1  C1  UNL     1     -33.109  16.974  -2.190  1.00 20.00     0.007 C 
HETATM    2  C2  UNL     1     -33.472  17.935  -3.352  1.00 20.00     0.007 C 
HETATM    3  C3  UNL     1     -34.496  18.705  -1.357  1.00 20.00     0.014 C 
HETATM    4  C4  UNL     1     -33.273  17.868  -0.941  1.00 20.00     0.017 C 
HETATM    5  C5  UNL     1     -33.797  19.254  -2.614  1.00 20.00     0.017 C 
ENDROOT
BRANCH   4   6
HETATM    6  C6  UNL     1     -32.135  18.876  -0.958  1.00 20.00     0.155 A 
HETATM    7  C7  UNL     1     -31.580  18.823   0.427  1.00 20.00     0.155 A 
HETATM    8  O8  UNL     1     -30.810  18.399  -0.701  1.00 20.00    -0.375 OA
ENDBRANCH   4   6
TORSDOF 2
ENDMDL
MODEL 6
REMARK VINA RESULT:      -3.3     15.980     17.099
REMARK  2 active torsions:
REMARK  status: ('A' for Active; 'I' for Inactive)
REMARK    1  A    between atoms: C4_4  and  C6_6 
REMARK    2  A    between atoms: C5_5  and  C7_7 
ROOT
HETATM    1  C1  UNL     1     -22.794  16.940   9.373  1.00 20.00     0.007 C 
HETATM    2  C2  UNL     1     -21.428  17.514   8.912  1.00 20.00     0.007 C 
HETATM    3  C3  UNL     1     -23.028  19.263   8.960  1.00 20.00     0.014 C 
HETATM    4  C4  UNL     1     -23.512  18.183   9.945  1.00 20.00     0.017 C 
HETATM    5  C5  UNL     1     -21.544  19.010   9.283  1.00 20.00     0.017 C 
ENDROOT
BRANCH   4   6
HETATM    6  C6  UNL     1     -22.808  18.550  11.242  1.00 20.00     0.155 A 
HETATM    7  C7  UNL     1     -23.903  18.574  12.257  1.00 20.00     0.155 A 
HETATM    8  O8  UNL     1     -22.850  17.608  12.319  1.00 20.00    -0.375 OA
ENDBRANCH   4   6
TORSDOF 2
ENDMDL
MODEL 7
REMARK VINA RESULT:      -3.2      1.714      3.240
REMARK  2 active torsions:
REMARK  status: ('A' for Active; 'I' for Inactive)
REMARK    1  A    between atoms: C4_4  and  C6_6 
REMARK    2  A    between atoms: C5_5  and  C7_7 
ROOT
HETATM    1  C1  UNL     1     -33.163   6.577   3.464  1.00 20.00     0.007 C 
HETATM    2  C2  UNL     1     -31.962   7.525   3.714  1.00 20.00     0.007 C 
HETATM    3  C3  UNL     1     -33.943   8.557   4.508  1.00 20.00     0.014 C 
HETATM    4  C4  UNL     1     -34.190   7.038   4.524  1.00 20.00     0.017 C 
HETATM    5  C5  UNL     1     -32.458   8.404   4.885  1.00 20.00     0.017 C 
ENDROOT
BRANCH   4   6
HETATM    6  C6  UNL     1     -33.656   6.608   5.881  1.00 20.00     0.155 A 
HETATM    7  C7  UNL     1     -34.849   6.049   6.581  1.00 20.00     0.155 A 
HETATM    8  O8  UNL     1     -33.737   5.223   6.228  1.00 20.00    -0.375 OA
ENDBRANCH   4   6
TORSDOF 2
ENDMDL
MODEL 8
REMARK VINA RESULT:      -3.2      9.129      9.810
REMARK  2 active torsions:
REMARK  status: ('A' for Active; 'I' for Inactive)
REMARK    1  A    between atoms: C4_4  and  C6_6 
REMARK    2  A    between atoms: C5_5  and  C7_7 
ROOT
HETATM    1  C1  UNL     1     -40.770  14.211   7.410  1.00 20.00     0.007 C 
HETATM    2  C2  UNL     1     -42.096  13.648   7.985  1.00 20.00     0.007 C 
HETATM    3  C3  UNL     1     -42.267  13.780   5.623  1.00 20.00     0.014 C 
HETATM    4  C4  UNL     1     -40.769  13.673   5.962  1.00 20.00     0.017 C 
HETATM    5  C5  UNL     1     -42.680  12.862   6.789  1.00 20.00     0.017 C 
ENDROOT
BRANCH   4   6
HETATM    6  C6  UNL     1     -40.532  12.174   6.040  1.00 20.00     0.155 A 
HETATM    7  C7  UNL     1     -39.324  11.951   5.192  1.00 20.00     0.155 A 
HETATM    8  O8  UNL     1     -39.298  11.717   6.602  1.00 20.00    -0.375 OA
ENDBRANCH   4   6
TORSDOF 2
ENDMDL
MODEL 9
REMARK VINA RESULT:      -3.1      8.564      9.933
REMARK  2 active torsions:
REMARK  status: ('A' for Active; 'I' for Inactive)
REMARK    1  A    between atoms: C4_4  and  C6_6 
REMARK    2  A    between atoms: C5_5  and  C7_7 
ROOT
HETATM    1  C1  UNL     1     -40.866   5.843  -0.427  1.00 20.00     0.007 C 
HETATM    2  C2  UNL     1     -40.541   7.139   0.361  1.00 20.00     0.007 C 
HETATM    3  C3  UNL     1     -42.779   7.244  -0.417  1.00 20.00     0.014 C 
HETATM    4  C4  UNL     1     -42.405   5.753  -0.319  1.00 20.00     0.017 C 
HETATM    5  C5  UNL     1     -41.938   7.621   0.817  1.00 20.00     0.017 C 
ENDROOT
BRANCH   4   6
HETATM    6  C6  UNL     1     -42.734   5.402   1.123  1.00 20.00     0.155 A 
HETATM    7  C7  UNL     1     -43.412   4.076   1.029  1.00 20.00     0.155 A 
HETATM    8  O8  UNL     1     -42.146   4.222   1.678  1.00 20.00    -0.375 OA
ENDBRANCH   4   6
TORSDOF 2
ENDMDL
