MODEL 1
REMARK VINA RESULT:      -3.4      0.000      0.000
REMARK  3 active torsions:
REMARK  status: ('A' for Active; 'I' for Inactive)
REMARK    1  A    between atoms: C6_6  and  N8_8 
REMARK    2  A    between atoms: C6_6  and  O9_9 
REMARK    3  A    between atoms: C7_7  and  O9_9 
ROOT
HETATM    1  O9  UNL     1     -33.621   6.709   4.662  1.00 20.00    -0.352 OA
ENDROOT
BRANCH   1   2
HETATM    2  C6  UNL     1     -32.890   6.507   3.447  1.00 20.00     0.440 C 
BRANCH   2   3
HETATM    3  N8  UNL     1     -32.021   7.649   3.127  1.00 20.00     0.102 N 
HETATM    4  C4  UNL     1     -32.278   8.758   4.046  1.00 20.00     0.312 C 
HETATM    5  C5  UNL     1     -32.218   8.088   1.744  1.00 20.00     0.312 C 
ENDBRANCH   2   3
ENDBRANCH   1   2
BRANCH   1   6
HETATM    6  C7  UNL     1     -34.517   5.637   4.924  1.00 20.00     0.052 C 
HETATM    7  C1  UNL     1     -35.870   5.971   4.296  1.00 20.00     0.045 C 
HETATM    8  C2  UNL     1     -33.927   4.379   4.292  1.00 20.00     0.045 C 
HETATM    9  C3  UNL     1     -34.645   5.470   6.437  1.00 20.00     0.045 C 
ENDBRANCH   1   6
TORSDOF 3
ENDMDL
MODEL 2
REMARK VINA RESULT:      -3.3      0.478      1.536
REMARK  3 active torsions:
REMARK  status: ('A' for Active; 'I' for Inactive)
REMARK    1  A    between atoms: C6_6  and  N8_8 
REMARK    2  A    between atoms: C6_6  and  O9_9 
REMARK    3  A    between atoms: C7_7  and  O9_9 
ROOT
HETATM    1  O9  UNL     1     -33.687   6.801   4.858  1.00 20.00    -0.352 OA
ENDROOT
BRANCH   1   2
HETATM    2  C6  UNL     1     -32.922   6.825   3.648  1.00 20.00     0.440 C 
BRANCH   2   3
HETATM    3  N8  UNL     1     -32.138   8.061   3.512  1.00 20.00     0.102 N 
HETATM    4  C4  UNL     1     -32.276   8.885   4.713  1.00 20.00     0.312 C 
HETATM    5  C5  UNL     1     -32.553   8.820   2.331  1.00 20.00     0.312 C 
ENDBRANCH   2   3
ENDBRANCH   1   2
BRANCH   1   6
HETATM    6  C7  UNL     1     -34.529   5.658   4.929  1.00 20.00     0.052 C 
HETATM    7  C1  UNL     1     -34.735   5.297   6.400  1.00 20.00     0.045 C 
HETATM    8  C2  UNL     1     -35.858   6.023   4.274  1.00 20.00     0.045 C 
HETATM    9  C3  UNL     1     -33.855   4.511   4.177  1.00 20.00     0.045 C 
ENDBRANCH   1   6
TORSDOF 3
ENDMDL
MODEL 3
REMARK VINA RESULT:      -3.3      0.402      1.498
REMARK  3 active torsions:
REMARK  status: ('A' for Active; 'I' for Inactive)
REMARK    1  A    between atoms: C6_6  and  N8_8 
REMARK    2  A    between atoms: C6_6  and  O9_9 
REMARK    3  A    between atoms: C7_7  and  O9_9 
ROOT
HETATM    1  O9  UNL     1     -33.660   6.771   4.849  1.00 20.00    -0.352 OA
ENDROOT
BRANCH   1   2
HETATM    2  C6  UNL     1     -32.905   6.757   3.633  1.00 20.00     0.440 C 
BRANCH   2   3
HETATM    3  N8  UNL     1     -32.106   7.979   3.462  1.00 20.00     0.102 N 
HETATM    4  C4  UNL     1     -32.252   8.850   4.629  1.00 20.00     0.312 C 
HETATM    5  C5  UNL     1     -32.498   8.698   2.247  1.00 20.00     0.312 C 
ENDBRANCH   2   3
ENDBRANCH   1   2
BRANCH   1   6
HETATM    6  C7  UNL     1     -34.529   5.651   4.945  1.00 20.00     0.052 C 
HETATM    7  C1  UNL     1     -33.874   4.466   4.235  1.00 20.00     0.045 C 
HETATM    8  C2  UNL     1     -34.727   5.346   6.427  1.00 20.00     0.045 C 
HETATM    9  C3  UNL     1     -35.860   6.011   4.287  1.00 20.00     0.045 C 
ENDBRANCH   1   6
TORSDOF 3
ENDMDL
MODEL 4
REMARK VINA RESULT:      -3.1     11.936     12.813
REMARK  3 active torsions:
REMARK  status: ('A' for Active; 'I' for Inactive)
REMARK    1  A    between atoms: C6_6  and  N8_8 
REMARK    2  A    between atoms: C6_6  and  O9_9 
REMARK    3  A    between atoms: C7_7  and  O9_9 
ROOT
HETATM    1  O9  UNL     1     -33.616  16.745  -1.637  1.00 20.00    -0.352 OA
ENDROOT
BRANCH   1   2
HETATM    2  C6  UNL     1     -33.130  16.695  -2.984  1.00 20.00     0.440 C 
BRANCH   2   3
HETATM    3  N8  UNL     1     -34.001  15.896  -3.858  1.00 20.00     0.102 N 
HETATM    4  C4  UNL     1     -33.270  14.746  -4.391  1.00 20.00     0.312 C 
HETATM    5  C5  UNL     1     -34.531  16.708  -4.956  1.00 20.00     0.312 C 
ENDBRANCH   2   3
ENDBRANCH   1   2
BRANCH   1   6
HETATM    6  C7  UNL     1     -33.593  18.068  -1.117  1.00 20.00     0.052 C 
HETATM    7  C1  UNL     1     -34.676  18.885  -1.821  1.00 20.00     0.045 C 
HETATM    8  C2  UNL     1     -33.876  17.978   0.381  1.00 20.00     0.045 C 
HETATM    9  C3  UNL     1     -32.210  18.666  -1.368  1.00 20.00     0.045 C 
ENDBRANCH   1   6
TORSDOF 3
ENDMDL
MODEL 5
REMARK VINA RESULT:      -3.1      1.779      4.071
REMARK  3 active torsions:
REMARK  status: ('A' for Active; 'I' for Inactive)
REMARK    1  A    between atoms: C6_6  and  N8_8 
REMARK    2  A    between atoms: C6_6  and  O9_9 
REMARK    3  A    between atoms: C7_7  and  O9_9 
ROOT
HETATM    1  O9  UNL     1     -34.010   7.994   4.293  1.00 20.00    -0.352 OA
ENDROOT
BRANCH   1   2
HETATM    2  C6  UNL     1     -33.872   7.405   5.591  1.00 20.00     0.440 C 
BRANCH   2   3
HETATM    3  N8  UNL     1     -34.793   6.275   5.787  1.00 20.00     0.102 N 
HETATM    4  C4  UNL     1     -34.120   5.189   6.502  1.00 20.00     0.312 C 
HETATM    5  C5  UNL     1     -35.308   5.788   4.506  1.00 20.00     0.312 C 
ENDBRANCH   2   3
ENDBRANCH   1   2
BRANCH   1   6
HETATM    6  C7  UNL     1     -32.750   8.344   3.735  1.00 20.00     0.052 C 
HETATM    7  C1  UNL     1     -32.969   9.437   2.690  1.00 20.00     0.045 C 
HETATM    8  C2  UNL     1     -31.869   8.854   4.872  1.00 20.00     0.045 C 
HETATM    9  C3  UNL     1     -32.138   7.097   3.099  1.00 20.00     0.045 C 
ENDBRANCH   1   6
TORSDOF 3
ENDMDL
MODEL 6
REMARK VINA RESULT:      -2.9     12.100     13.432
REMARK  3 active torsions:
REMARK  status: ('A' for Active; 'I' for Inactive)
REMARK    1  A    between atoms: C6_6  and  N8_8 
REMARK    2  A    between atoms: C6_6  and  O9_9 
REMARK    3  A    between atoms: C7_7  and  O9_9 
ROOT
HETATM    1  O9  UNL     1     -33.388  17.051  -3.842  1.00 20.00    -0.352 OA
ENDROOT
BRANCH   1   2
HETATM    2  C6  UNL     1     -34.480  16.842  -4.744  1.00 20.00     0.440 C 
BRANCH   2   3
HETATM    3  N8  UNL     1     -34.600  15.435  -5.152  1.00 20.00     0.102 N 
HETATM    4  C4  UNL     1     -33.814  14.579  -4.264  1.00 20.00     0.312 C 
HETATM    5  C5  UNL     1     -34.168  15.251  -6.539  1.00 20.00     0.312 C 
ENDBRANCH   2   3
ENDBRANCH   1   2
BRANCH   1   6
HETATM    6  C7  UNL     1     -33.722  17.972  -2.812  1.00 20.00     0.052 C 
HETATM    7  C1  UNL     1     -32.759  19.156  -2.888  1.00 20.00     0.045 C 
HETATM    8  C2  UNL     1     -35.158  18.430  -3.052  1.00 20.00     0.045 C 
HETATM    9  C3  UNL     1     -33.603  17.259  -1.466  1.00 20.00     0.045 C 
ENDBRANCH   1   6
TORSDOF 3
ENDMDL
MODEL 7
REMARK VINA RESULT:      -2.9     12.063     13.100
REMARK  3 active torsions:
REMARK  status: ('A' for Active; 'I' for Inactive)
REMARK    1  A    between atoms: C6_6  and  N8_8 
REMARK    2  A    between atoms: C6_6  and  O9_9 
REMARK    3  A    between atoms: C7_7  and  O9_9 
ROOT
HETATM    1  O9  UNL     1     -34.678  16.615  -4.754  1.00 20.00    -0.352 OA
ENDROOT
BRANCH   1   2
HETATM    2  C6  UNL     1     -33.552  16.814  -3.892  1.00 20.00     0.440 C 
BRANCH   2   3
HETATM    3  N8  UNL     1     -33.809  17.842  -2.873  1.00 20.00     0.102 N 
HETATM    4  C4  UNL     1     -33.618  17.288  -1.532  1.00 20.00     0.312 C 
HETATM    5  C5  UNL     1     -35.163  18.385  -3.003  1.00 20.00     0.312 C 
ENDBRANCH   2   3
ENDBRANCH   1   2
BRANCH   1   6
HETATM    6  C7  UNL     1     -34.729  15.287  -5.259  1.00 20.00     0.052 C 
HETATM    7  C1  UNL     1     -33.990  15.248  -6.596  1.00 20.00     0.045 C 
HETATM    8  C2  UNL     1     -34.045  14.380  -4.240  1.00 20.00     0.045 C 
HETATM    9  C3  UNL     1     -36.194  14.890  -5.435  1.00 20.00     0.045 C 
ENDBRANCH   1   6
TORSDOF 3
ENDMDL
MODEL 8
REMARK VINA RESULT:      -2.9     12.069     13.075
REMARK  3 active torsions:
REMARK  status: ('A' for Active; 'I' for Inactive)
REMARK    1  A    between atoms: C6_6  and  N8_8 
REMARK    2  A    between atoms: C6_6  and  O9_9 
REMARK    3  A    between atoms: C7_7  and  O9_9 
ROOT
HETATM    1  O9  UNL     1     -34.518  16.671  -4.810  1.00 20.00    -0.352 OA
ENDROOT
BRANCH   1   2
HETATM    2  C6  UNL     1     -33.493  16.757  -3.814  1.00 20.00     0.440 C 
BRANCH   2   3
HETATM    3  N8  UNL     1     -33.761  17.819  -2.833  1.00 20.00     0.102 N 
HETATM    4  C4  UNL     1     -33.625  17.301  -1.471  1.00 20.00     0.312 C 
HETATM    5  C5  UNL     1     -35.099  18.385  -3.023  1.00 20.00     0.312 C 
ENDBRANCH   2   3
ENDBRANCH   1   2
BRANCH   1   6
HETATM    6  C7  UNL     1     -34.692  15.339  -5.275  1.00 20.00     0.052 C 
HETATM    7  C1  UNL     1     -36.187  15.083  -5.464  1.00 20.00     0.045 C 
HETATM    8  C2  UNL     1     -33.953  15.215  -6.604  1.00 20.00     0.045 C 
HETATM    9  C3  UNL     1     -34.102  14.382  -4.240  1.00 20.00     0.045 C 
ENDBRANCH   1   6
TORSDOF 3
ENDMDL
MODEL 9
REMARK VINA RESULT:      -2.9     12.496     13.480
REMARK  3 active torsions:
REMARK  status: ('A' for Active; 'I' for Inactive)
REMARK    1  A    between atoms: C6_6  and  N8_8 
REMARK    2  A    between atoms: C6_6  and  O9_9 
REMARK    3  A    between atoms: C7_7  and  O9_9 
ROOT
HETATM    1  O9  UNL     1     -34.566  16.905  -4.388  1.00 20.00    -0.352 OA
ENDROOT
BRANCH   1   2
HETATM    2  C6  UNL     1     -33.937  15.619  -4.386  1.00 20.00     0.440 C 
BRANCH   2   3
HETATM    3  N8  UNL     1     -34.408  14.770  -5.490  1.00 20.00     0.102 N 
HETATM    4  C4  UNL     1     -34.170  15.428  -6.775  1.00 20.00     0.312 C 
HETATM    5  C5  UNL     1     -35.831  14.457  -5.342  1.00 20.00     0.312 C 
ENDBRANCH   2   3
ENDBRANCH   1   2
BRANCH   1   6
HETATM    6  C7  UNL     1     -34.088  17.729  -3.333  1.00 20.00     0.052 C 
HETATM    7  C1  UNL     1     -35.275  18.470  -2.719  1.00 20.00     0.045 C 
HETATM    8  C2  UNL     1     -33.430  16.818  -2.299  1.00 20.00     0.045 C 
HETATM    9  C3  UNL     1     -33.070  18.713  -3.907  1.00 20.00     0.045 C 
ENDBRANCH   1   6
TORSDOF 3
ENDMDL
