MODEL 1
REMARK VINA RESULT:      -4.1      0.000      0.000
REMARK  3 active torsions:
REMARK  status: ('A' for Active; 'I' for Inactive)
REMARK    1  A    between atoms: C6_6  and  C7_7 
REMARK    2  A    between atoms: C7_7  and  C8_8 
REMARK    3  A    between atoms: C7_7  and  O9_9 
ROOT
HETATM    1  C1  UNL     1     -33.288  16.822  -2.447  1.00 20.00     0.012 C 
HETATM    2  C2  UNL     1     -33.401  15.944  -3.258  1.00 20.00    -0.115 C 
HETATM    3  C6  UNL     1     -33.539  14.863  -4.251  1.00 20.00     0.125 C 
ENDROOT
BRANCH   3   4
HETATM    4  C7  UNL     1     -34.000  15.413  -5.611  1.00 20.00     0.136 C 
BRANCH   4   5
HETATM    5  C8  UNL     1     -35.539  15.339  -5.871  1.00 20.00    -0.025 C 
HETATM    6  C3  UNL     1     -36.123  14.121  -5.121  1.00 20.00     0.017 C 
HETATM    7  C4  UNL     1     -36.274  16.599  -5.378  1.00 20.00     0.017 C 
HETATM    8  C5  UNL     1     -35.827  15.155  -7.373  1.00 20.00     0.017 C 
ENDBRANCH   4   5
BRANCH   4   9
HETATM    9  O9  UNL     1     -33.297  14.712  -6.643  1.00 20.00    -0.394 OA
HETATM   10  H23 UNL     1     -33.734  14.947  -7.474  1.00 20.00     0.210 HD
ENDBRANCH   4   9
ENDBRANCH   3   4
TORSDOF 3
ENDMDL
MODEL 2
REMARK VINA RESULT:      -4.1      0.082      1.439
REMARK  3 active torsions:
REMARK  status: ('A' for Active; 'I' for Inactive)
REMARK    1  A    between atoms: C6_6  and  C7_7 
REMARK    2  A    between atoms: C7_7  and  C8_8 
REMARK    3  A    between atoms: C7_7  and  O9_9 
ROOT
HETATM    1  C1  UNL     1     -33.351  16.746  -2.473  1.00 20.00     0.012 C 
HETATM    2  C2  UNL     1     -33.400  15.891  -3.316  1.00 20.00    -0.115 C 
HETATM    3  C6  UNL     1     -33.458  14.840  -4.347  1.00 20.00     0.125 C 
ENDROOT
BRANCH   3   4
HETATM    4  C7  UNL     1     -33.988  15.398  -5.679  1.00 20.00     0.136 C 
BRANCH   4   5
HETATM    5  C8  UNL     1     -35.534  15.286  -5.879  1.00 20.00    -0.025 C 
HETATM    6  C3  UNL     1     -35.841  15.100  -7.381  1.00 20.00     0.017 C 
HETATM    7  C4  UNL     1     -36.133  14.087  -5.119  1.00 20.00     0.017 C 
HETATM    8  C5  UNL     1     -36.237  16.572  -5.405  1.00 20.00     0.017 C 
ENDBRANCH   4   5
BRANCH   4   9
HETATM    9  O9  UNL     1     -33.309  14.730  -6.750  1.00 20.00    -0.394 OA
HETATM   10  H23 UNL     1     -33.831  13.941  -6.948  1.00 20.00     0.210 HD
ENDBRANCH   4   9
ENDBRANCH   3   4
TORSDOF 3
ENDMDL
MODEL 3
REMARK VINA RESULT:      -3.9     12.475     13.418
REMARK  3 active torsions:
REMARK  status: ('A' for Active; 'I' for Inactive)
REMARK    1  A    between atoms: C6_6  and  C7_7 
REMARK    2  A    between atoms: C7_7  and  C8_8 
REMARK    3  A    between atoms: C7_7  and  O9_9 
ROOT
HETATM    1  C1  UNL     1     -32.014   7.961   2.119  1.00 20.00     0.012 C 
HETATM    2  C2  UNL     1     -32.646   8.035   3.138  1.00 20.00    -0.115 C 
HETATM    3  C6  UNL     1     -33.421   8.130   4.388  1.00 20.00     0.125 C 
ENDROOT
BRANCH   3   4
HETATM    4  C7  UNL     1     -33.270   6.854   5.233  1.00 20.00     0.136 C 
BRANCH   4   5
HETATM    5  C8  UNL     1     -34.376   5.774   5.011  1.00 20.00    -0.025 C 
HETATM    6  C3  UNL     1     -34.788   5.177   6.375  1.00 20.00     0.017 C 
HETATM    7  C4  UNL     1     -35.637   6.360   4.349  1.00 20.00     0.017 C 
HETATM    8  C5  UNL     1     -33.845   4.626   4.131  1.00 20.00     0.017 C 
ENDBRANCH   4   5
BRANCH   4   9
HETATM    9  O9  UNL     1     -33.228   7.231   6.615  1.00 20.00    -0.394 OA
HETATM   10  H23 UNL     1     -33.343   6.414   7.120  1.00 20.00     0.210 HD
ENDBRANCH   4   9
ENDBRANCH   3   4
TORSDOF 3
ENDMDL
MODEL 4
REMARK VINA RESULT:      -3.8     12.491     13.511
REMARK  3 active torsions:
REMARK  status: ('A' for Active; 'I' for Inactive)
REMARK    1  A    between atoms: C6_6  and  C7_7 
REMARK    2  A    between atoms: C7_7  and  C8_8 
REMARK    3  A    between atoms: C7_7  and  O9_9 
ROOT
HETATM    1  C1  UNL     1     -32.009   7.964   2.124  1.00 20.00     0.012 C 
HETATM    2  C2  UNL     1     -32.654   8.024   3.135  1.00 20.00    -0.115 C 
HETATM    3  C6  UNL     1     -33.447   8.100   4.376  1.00 20.00     0.125 C 
ENDROOT
BRANCH   3   4
HETATM    4  C7  UNL     1     -33.260   6.837   5.233  1.00 20.00     0.136 C 
BRANCH   4   5
HETATM    5  C8  UNL     1     -34.341   5.728   5.026  1.00 20.00    -0.025 C 
HETATM    6  C3  UNL     1     -35.597   6.355   4.381  1.00 20.00     0.017 C 
HETATM    7  C4  UNL     1     -33.847   4.597   4.105  1.00 20.00     0.017 C 
HETATM    8  C5  UNL     1     -34.757   5.117   6.378  1.00 20.00     0.017 C 
ENDBRANCH   4   5
BRANCH   4   9
HETATM    9  O9  UNL     1     -33.220   7.229   6.610  1.00 20.00    -0.394 OA
HETATM   10  H23 UNL     1     -32.652   8.011   6.650  1.00 20.00     0.210 HD
ENDBRANCH   4   9
ENDBRANCH   3   4
TORSDOF 3
ENDMDL
MODEL 5
REMARK VINA RESULT:      -3.8     12.488     13.454
REMARK  3 active torsions:
REMARK  status: ('A' for Active; 'I' for Inactive)
REMARK    1  A    between atoms: C6_6  and  C7_7 
REMARK    2  A    between atoms: C7_7  and  C8_8 
REMARK    3  A    between atoms: C7_7  and  O9_9 
ROOT
HETATM    1  C1  UNL     1     -32.047   7.954   2.070  1.00 20.00     0.012 C 
HETATM    2  C2  UNL     1     -32.672   8.014   3.094  1.00 20.00    -0.115 C 
HETATM    3  C6  UNL     1     -33.439   8.091   4.351  1.00 20.00     0.125 C 
ENDROOT
BRANCH   3   4
HETATM    4  C7  UNL     1     -33.244   6.822   5.199  1.00 20.00     0.136 C 
BRANCH   4   5
HETATM    5  C8  UNL     1     -34.371   5.750   5.060  1.00 20.00    -0.025 C 
HETATM    6  C3  UNL     1     -33.849   4.569   4.211  1.00 20.00     0.017 C 
HETATM    7  C4  UNL     1     -34.817   5.193   6.425  1.00 20.00     0.017 C 
HETATM    8  C5  UNL     1     -35.600   6.343   4.344  1.00 20.00     0.017 C 
ENDBRANCH   4   5
BRANCH   4   9
HETATM    9  O9  UNL     1     -33.110   7.214   6.571  1.00 20.00    -0.394 OA
HETATM   10  H23 UNL     1     -33.698   6.633   7.074  1.00 20.00     0.210 HD
ENDBRANCH   4   9
ENDBRANCH   3   4
TORSDOF 3
ENDMDL
MODEL 6
REMARK VINA RESULT:      -3.7      1.520      1.747
REMARK  3 active torsions:
REMARK  status: ('A' for Active; 'I' for Inactive)
REMARK    1  A    between atoms: C6_6  and  C7_7 
REMARK    2  A    between atoms: C7_7  and  C8_8 
REMARK    3  A    between atoms: C7_7  and  O9_9 
ROOT
HETATM    1  C1  UNL     1     -33.623  17.459  -1.080  1.00 20.00     0.012 C 
HETATM    2  C2  UNL     1     -33.458  16.888  -2.123  1.00 20.00    -0.115 C 
HETATM    3  C6  UNL     1     -33.253  16.185  -3.403  1.00 20.00     0.125 C 
ENDROOT
BRANCH   3   4
HETATM    4  C7  UNL     1     -34.303  16.609  -4.444  1.00 20.00     0.136 C 
BRANCH   4   5
HETATM    5  C8  UNL     1     -34.912  15.443  -5.286  1.00 20.00    -0.025 C 
HETATM    6  C3  UNL     1     -34.874  14.141  -4.456  1.00 20.00     0.017 C 
HETATM    7  C4  UNL     1     -36.377  15.713  -5.680  1.00 20.00     0.017 C 
HETATM    8  C5  UNL     1     -34.091  15.214  -6.570  1.00 20.00     0.017 C 
ENDBRANCH   4   5
BRANCH   4   9
HETATM    9  O9  UNL     1     -33.708  17.580  -5.314  1.00 20.00    -0.394 OA
HETATM   10  H23 UNL     1     -34.030  18.442  -5.014  1.00 20.00     0.210 HD
ENDBRANCH   4   9
ENDBRANCH   3   4
TORSDOF 3
ENDMDL
MODEL 7
REMARK VINA RESULT:      -3.7      1.528      2.192
REMARK  3 active torsions:
REMARK  status: ('A' for Active; 'I' for Inactive)
REMARK    1  A    between atoms: C6_6  and  C7_7 
REMARK    2  A    between atoms: C7_7  and  C8_8 
REMARK    3  A    between atoms: C7_7  and  O9_9 
ROOT
HETATM    1  C1  UNL     1     -33.680  17.519  -1.036  1.00 20.00     0.012 C 
HETATM    2  C2  UNL     1     -33.499  16.922  -2.062  1.00 20.00    -0.115 C 
HETATM    3  C6  UNL     1     -33.274  16.186  -3.320  1.00 20.00     0.125 C 
ENDROOT
BRANCH   3   4
HETATM    4  C7  UNL     1     -34.285  16.609  -4.399  1.00 20.00     0.136 C 
BRANCH   4   5
HETATM    5  C8  UNL     1     -34.873  15.441  -5.253  1.00 20.00    -0.025 C 
HETATM    6  C3  UNL     1     -36.342  15.759  -5.608  1.00 20.00     0.017 C 
HETATM    7  C4  UNL     1     -34.099  15.236  -6.570  1.00 20.00     0.017 C 
HETATM    8  C5  UNL     1     -34.851  14.122  -4.457  1.00 20.00     0.017 C 
ENDBRANCH   4   5
BRANCH   4   9
HETATM    9  O9  UNL     1     -33.655  17.570  -5.255  1.00 20.00    -0.394 OA
HETATM   10  H23 UNL     1     -32.702  17.428  -5.162  1.00 20.00     0.210 HD
ENDBRANCH   4   9
ENDBRANCH   3   4
TORSDOF 3
ENDMDL
MODEL 8
REMARK VINA RESULT:      -3.7     11.789     12.856
REMARK  3 active torsions:
REMARK  status: ('A' for Active; 'I' for Inactive)
REMARK    1  A    between atoms: C6_6  and  C7_7 
REMARK    2  A    between atoms: C7_7  and  C8_8 
REMARK    3  A    between atoms: C7_7  and  O9_9 
ROOT
HETATM    1  C1  UNL     1     -32.147   8.533   0.926  1.00 20.00     0.012 C 
HETATM    2  C2  UNL     1     -32.238   7.965   1.980  1.00 20.00    -0.115 C 
HETATM    3  C6  UNL     1     -32.347   7.269   3.275  1.00 20.00     0.125 C 
ENDROOT
BRANCH   3   4
HETATM    4  C7  UNL     1     -33.437   6.185   3.233  1.00 20.00     0.136 C 
BRANCH   4   5
HETATM    5  C8  UNL     1     -34.231   5.989   4.564  1.00 20.00    -0.025 C 
HETATM    6  C3  UNL     1     -35.743   6.141   4.283  1.00 20.00     0.017 C 
HETATM    7  C4  UNL     1     -34.000   4.596   5.180  1.00 20.00     0.017 C 
HETATM    8  C5  UNL     1     -33.830   7.058   5.599  1.00 20.00     0.017 C 
ENDBRANCH   4   5
BRANCH   4   9
HETATM    9  O9  UNL     1     -32.828   4.949   2.842  1.00 20.00    -0.394 OA
HETATM   10  H23 UNL     1     -31.904   5.005   3.121  1.00 20.00     0.210 HD
ENDBRANCH   4   9
ENDBRANCH   3   4
TORSDOF 3
ENDMDL
MODEL 9
REMARK VINA RESULT:      -3.7     12.676     13.478
REMARK  3 active torsions:
REMARK  status: ('A' for Active; 'I' for Inactive)
REMARK    1  A    between atoms: C6_6  and  C7_7 
REMARK    2  A    between atoms: C7_7  and  C8_8 
REMARK    3  A    between atoms: C7_7  and  O9_9 
ROOT
HETATM    1  C1  UNL     1     -38.954  11.672   3.937  1.00 20.00     0.012 C 
HETATM    2  C2  UNL     1     -39.445  11.916   5.005  1.00 20.00    -0.115 C 
HETATM    3  C6  UNL     1     -40.044  12.215   6.319  1.00 20.00     0.125 C 
ENDROOT
BRANCH   3   4
HETATM    4  C7  UNL     1     -41.538  12.556   6.183  1.00 20.00     0.136 C 
BRANCH   4   5
HETATM    5  C8  UNL     1     -41.899  14.060   6.404  1.00 20.00    -0.025 C 
HETATM    6  C3  UNL     1     -43.150  14.155   7.305  1.00 20.00     0.017 C 
HETATM    7  C4  UNL     1     -40.759  14.837   7.090  1.00 20.00     0.017 C 
HETATM    8  C5  UNL     1     -42.226  14.743   5.063  1.00 20.00     0.017 C 
ENDBRANCH   4   5
BRANCH   4   9
HETATM    9  O9  UNL     1     -42.272  11.737   7.102  1.00 20.00    -0.394 OA
HETATM   10  H23 UNL     1     -42.478  12.303   7.859  1.00 20.00     0.210 HD
ENDBRANCH   4   9
ENDBRANCH   3   4
TORSDOF 3
ENDMDL
