MODEL 1
REMARK VINA RESULT:      -4.9      0.000      0.000
REMARK  4 active torsions:
REMARK  status: ('A' for Active; 'I' for Inactive)
REMARK    1  A    between atoms: C4_4  and  C5_5 
REMARK    2  A    between atoms: C5_5  and  C6_6 
REMARK    3  A    between atoms: C6_6  and  C7_7 
REMARK    4  A    between atoms: C7_7  and  O8_8 
ROOT
HETATM    1  C1  UNL     1     -34.074   4.383   4.134  1.00 20.00     0.012 C 
HETATM    2  C2  UNL     1     -34.399   5.011   5.104  1.00 20.00    -0.117 C 
HETATM    3  C4  UNL     1     -34.799   5.777   6.293  1.00 20.00     0.093 C 
ENDROOT
BRANCH   3   4
HETATM    4  C5  UNL     1     -33.983   7.064   6.420  1.00 20.00     0.014 C 
BRANCH   4   5
HETATM    5  C6  UNL     1     -33.897   7.799   5.081  1.00 20.00     0.032 C 
BRANCH   5   6
HETATM    6  C7  UNL     1     -32.463   7.988   4.577  1.00 20.00     0.114 C 
HETATM    7  C3  UNL     1     -32.259   7.521   3.141  1.00 20.00     0.039 C 
BRANCH   6   8
HETATM    8  O8  UNL     1     -32.165   9.383   4.648  1.00 20.00    -0.396 OA
HETATM    9  H20 UNL     1     -32.624   9.720   5.432  1.00 20.00     0.210 HD
ENDBRANCH   6   8
ENDBRANCH   5   6
ENDBRANCH   4   5
ENDBRANCH   3   4
TORSDOF 4
ENDMDL
MODEL 2
REMARK VINA RESULT:      -4.8      1.482      3.094
REMARK  4 active torsions:
REMARK  status: ('A' for Active; 'I' for Inactive)
REMARK    1  A    between atoms: C4_4  and  C5_5 
REMARK    2  A    between atoms: C5_5  and  C6_6 
REMARK    3  A    between atoms: C6_6  and  C7_7 
REMARK    4  A    between atoms: C7_7  and  O8_8 
ROOT
HETATM    1  C1  UNL     1     -32.951   5.172   2.645  1.00 20.00     0.012 C 
HETATM    2  C2  UNL     1     -32.610   6.302   2.861  1.00 20.00    -0.117 C 
HETATM    3  C4  UNL     1     -32.191   7.687   3.121  1.00 20.00     0.093 C 
ENDROOT
BRANCH   3   4
HETATM    4  C5  UNL     1     -32.535   8.107   4.551  1.00 20.00     0.014 C 
BRANCH   4   5
HETATM    5  C6  UNL     1     -34.000   7.814   4.876  1.00 20.00     0.032 C 
BRANCH   5   6
HETATM    6  C7  UNL     1     -34.192   6.998   6.159  1.00 20.00     0.114 C 
HETATM    7  C3  UNL     1     -34.734   5.597   5.910  1.00 20.00     0.039 C 
BRANCH   6   8
HETATM    8  O8  UNL     1     -32.915   6.887   6.789  1.00 20.00    -0.396 OA
HETATM    9  H20 UNL     1     -32.263   7.195   6.142  1.00 20.00     0.210 HD
ENDBRANCH   6   8
ENDBRANCH   5   6
ENDBRANCH   4   5
ENDBRANCH   3   4
TORSDOF 4
ENDMDL
MODEL 3
REMARK VINA RESULT:      -4.8      2.081      3.618
REMARK  4 active torsions:
REMARK  status: ('A' for Active; 'I' for Inactive)
REMARK    1  A    between atoms: C4_4  and  C5_5 
REMARK    2  A    between atoms: C5_5  and  C6_6 
REMARK    3  A    between atoms: C6_6  and  C7_7 
REMARK    4  A    between atoms: C7_7  and  O8_8 
ROOT
HETATM    1  C1  UNL     1     -32.117   7.286   2.531  1.00 20.00     0.012 C 
HETATM    2  C2  UNL     1     -32.275   7.898   3.550  1.00 20.00    -0.117 C 
HETATM    3  C4  UNL     1     -32.466   8.649   4.799  1.00 20.00     0.093 C 
ENDROOT
BRANCH   3   4
HETATM    4  C5  UNL     1     -33.773   8.253   5.487  1.00 20.00     0.014 C 
BRANCH   4   5
HETATM    5  C6  UNL     1     -33.700   6.826   6.035  1.00 20.00     0.032 C 
BRANCH   5   6
HETATM    6  C7  UNL     1     -34.792   5.903   5.486  1.00 20.00     0.114 C 
HETATM    7  C3  UNL     1     -34.295   4.956   4.401  1.00 20.00     0.039 C 
BRANCH   6   8
HETATM    8  O8  UNL     1     -35.283   5.125   6.578  1.00 20.00    -0.396 OA
HETATM    9  H20 UNL     1     -35.178   5.672   7.371  1.00 20.00     0.210 HD
ENDBRANCH   6   8
ENDBRANCH   5   6
ENDBRANCH   4   5
ENDBRANCH   3   4
TORSDOF 4
ENDMDL
MODEL 4
REMARK VINA RESULT:      -4.8      2.246      3.395
REMARK  4 active torsions:
REMARK  status: ('A' for Active; 'I' for Inactive)
REMARK    1  A    between atoms: C4_4  and  C5_5 
REMARK    2  A    between atoms: C5_5  and  C6_6 
REMARK    3  A    between atoms: C6_6  and  C7_7 
REMARK    4  A    between atoms: C7_7  and  O8_8 
ROOT
HETATM    1  C1  UNL     1     -32.515   8.476   4.727  1.00 20.00     0.012 C 
HETATM    2  C2  UNL     1     -33.215   7.924   5.530  1.00 20.00    -0.117 C 
HETATM    3  C4  UNL     1     -34.072   7.250   6.517  1.00 20.00     0.093 C 
ENDROOT
BRANCH   3   4
HETATM    4  C5  UNL     1     -34.534   5.886   6.005  1.00 20.00     0.014 C 
BRANCH   4   5
HETATM    5  C6  UNL     1     -34.895   5.945   4.520  1.00 20.00     0.032 C 
BRANCH   5   6
HETATM    6  C7  UNL     1     -34.243   4.838   3.686  1.00 20.00     0.114 C 
HETATM    7  C3  UNL     1     -33.031   5.310   2.894  1.00 20.00     0.039 C 
BRANCH   6   8
HETATM    8  O8  UNL     1     -33.826   3.813   4.588  1.00 20.00    -0.396 OA
HETATM    9  H20 UNL     1     -32.882   3.959   4.751  1.00 20.00     0.210 HD
ENDBRANCH   6   8
ENDBRANCH   5   6
ENDBRANCH   4   5
ENDBRANCH   3   4
TORSDOF 4
ENDMDL
MODEL 5
REMARK VINA RESULT:      -4.6      1.663      2.283
REMARK  4 active torsions:
REMARK  status: ('A' for Active; 'I' for Inactive)
REMARK    1  A    between atoms: C4_4  and  C5_5 
REMARK    2  A    between atoms: C5_5  and  C6_6 
REMARK    3  A    between atoms: C6_6  and  C7_7 
REMARK    4  A    between atoms: C7_7  and  O8_8 
ROOT
HETATM    1  C1  UNL     1     -34.486   5.322   6.324  1.00 20.00     0.012 C 
HETATM    2  C2  UNL     1     -34.280   6.481   6.094  1.00 20.00    -0.117 C 
HETATM    3  C4  UNL     1     -34.030   7.903   5.813  1.00 20.00     0.093 C 
ENDROOT
BRANCH   3   4
HETATM    4  C5  UNL     1     -32.661   8.104   5.162  1.00 20.00     0.014 C 
BRANCH   4   5
HETATM    5  C6  UNL     1     -32.795   8.357   3.659  1.00 20.00     0.032 C 
BRANCH   5   6
HETATM    6  C7  UNL     1     -32.103   7.297   2.796  1.00 20.00     0.114 C 
HETATM    7  C3  UNL     1     -32.820   5.954   2.796  1.00 20.00     0.039 C 
BRANCH   6   8
HETATM    8  O8  UNL     1     -32.066   7.793   1.458  1.00 20.00    -0.396 OA
HETATM    9  H20 UNL     1     -32.690   8.534   1.424  1.00 20.00     0.210 HD
ENDBRANCH   6   8
ENDBRANCH   5   6
ENDBRANCH   4   5
ENDBRANCH   3   4
TORSDOF 4
ENDMDL
MODEL 6
REMARK VINA RESULT:      -4.5      2.305      4.202
REMARK  4 active torsions:
REMARK  status: ('A' for Active; 'I' for Inactive)
REMARK    1  A    between atoms: C4_4  and  C5_5 
REMARK    2  A    between atoms: C5_5  and  C6_6 
REMARK    3  A    between atoms: C6_6  and  C7_7 
REMARK    4  A    between atoms: C7_7  and  O8_8 
ROOT
HETATM    1  C1  UNL     1     -32.268   8.970   4.843  1.00 20.00     0.012 C 
HETATM    2  C2  UNL     1     -32.246   8.213   3.912  1.00 20.00    -0.117 C 
HETATM    3  C4  UNL     1     -32.217   7.288   2.771  1.00 20.00     0.093 C 
ENDROOT
BRANCH   3   4
HETATM    4  C5  UNL     1     -32.837   5.939   3.138  1.00 20.00     0.014 C 
BRANCH   4   5
HETATM    5  C6  UNL     1     -34.174   6.122   3.858  1.00 20.00     0.032 C 
BRANCH   5   6
HETATM    6  C7  UNL     1     -34.254   5.382   5.198  1.00 20.00     0.114 C 
HETATM    7  C3  UNL     1     -34.361   6.314   6.398  1.00 20.00     0.039 C 
BRANCH   6   8
HETATM    8  O8  UNL     1     -35.416   4.554   5.160  1.00 20.00    -0.396 OA
HETATM    9  H20 UNL     1     -36.143   5.086   5.516  1.00 20.00     0.210 HD
ENDBRANCH   6   8
ENDBRANCH   5   6
ENDBRANCH   4   5
ENDBRANCH   3   4
TORSDOF 4
ENDMDL
MODEL 7
REMARK VINA RESULT:      -4.4      2.138      3.747
REMARK  4 active torsions:
REMARK  status: ('A' for Active; 'I' for Inactive)
REMARK    1  A    between atoms: C4_4  and  C5_5 
REMARK    2  A    between atoms: C5_5  and  C6_6 
REMARK    3  A    between atoms: C6_6  and  C7_7 
REMARK    4  A    between atoms: C7_7  and  O8_8 
ROOT
HETATM    1  C1  UNL     1     -32.184   7.419   2.251  1.00 20.00     0.012 C 
HETATM    2  C2  UNL     1     -32.229   7.962   3.320  1.00 20.00    -0.117 C 
HETATM    3  C4  UNL     1     -32.283   8.631   4.628  1.00 20.00     0.093 C 
ENDROOT
BRANCH   3   4
HETATM    4  C5  UNL     1     -33.199   7.879   5.594  1.00 20.00     0.014 C 
BRANCH   4   5
HETATM    5  C6  UNL     1     -34.413   7.298   4.868  1.00 20.00     0.032 C 
BRANCH   5   6
HETATM    6  C7  UNL     1     -34.565   5.784   5.042  1.00 20.00     0.114 C 
HETATM    7  C3  UNL     1     -34.436   5.324   6.488  1.00 20.00     0.039 C 
BRANCH   6   8
HETATM    8  O8  UNL     1     -35.862   5.426   4.564  1.00 20.00    -0.396 OA
HETATM    9  H20 UNL     1     -36.454   6.152   4.812  1.00 20.00     0.210 HD
ENDBRANCH   6   8
ENDBRANCH   5   6
ENDBRANCH   4   5
ENDBRANCH   3   4
TORSDOF 4
ENDMDL
MODEL 8
REMARK VINA RESULT:      -4.3      2.225      3.878
REMARK  4 active torsions:
REMARK  status: ('A' for Active; 'I' for Inactive)
REMARK    1  A    between atoms: C4_4  and  C5_5 
REMARK    2  A    between atoms: C5_5  and  C6_6 
REMARK    3  A    between atoms: C6_6  and  C7_7 
REMARK    4  A    between atoms: C7_7  and  O8_8 
ROOT
HETATM    1  C1  UNL     1     -32.155   7.791   3.344  1.00 20.00     0.012 C 
HETATM    2  C2  UNL     1     -32.520   6.702   2.996  1.00 20.00    -0.117 C 
HETATM    3  C4  UNL     1     -32.966   5.369   2.567  1.00 20.00     0.093 C 
ENDROOT
BRANCH   3   4
HETATM    4  C5  UNL     1     -33.706   4.646   3.693  1.00 20.00     0.014 C 
BRANCH   4   5
HETATM    5  C6  UNL     1     -34.622   5.603   4.457  1.00 20.00     0.032 C 
BRANCH   5   6
HETATM    6  C7  UNL     1     -34.274   5.729   5.943  1.00 20.00     0.114 C 
HETATM    7  C3  UNL     1     -34.142   7.172   6.414  1.00 20.00     0.039 C 
BRANCH   6   8
HETATM    8  O8  UNL     1     -35.322   5.103   6.683  1.00 20.00    -0.396 OA
HETATM    9  H20 UNL     1     -34.947   4.291   7.054  1.00 20.00     0.210 HD
ENDBRANCH   6   8
ENDBRANCH   5   6
ENDBRANCH   4   5
ENDBRANCH   3   4
TORSDOF 4
ENDMDL
MODEL 9
REMARK VINA RESULT:      -4.3      1.310      1.814
REMARK  4 active torsions:
REMARK  status: ('A' for Active; 'I' for Inactive)
REMARK    1  A    between atoms: C4_4  and  C5_5 
REMARK    2  A    between atoms: C5_5  and  C6_6 
REMARK    3  A    between atoms: C6_6  and  C7_7 
REMARK    4  A    between atoms: C7_7  and  O8_8 
ROOT
HETATM    1  C1  UNL     1     -32.973   5.280   2.657  1.00 20.00     0.012 C 
HETATM    2  C2  UNL     1     -33.614   5.040   3.642  1.00 20.00    -0.117 C 
HETATM    3  C4  UNL     1     -34.399   4.742   4.849  1.00 20.00     0.093 C 
ENDROOT
BRANCH   3   4
HETATM    4  C5  UNL     1     -34.847   6.027   5.547  1.00 20.00     0.014 C 
BRANCH   4   5
HETATM    5  C6  UNL     1     -33.645   6.847   6.020  1.00 20.00     0.032 C 
BRANCH   5   6
HETATM    6  C7  UNL     1     -33.507   8.197   5.309  1.00 20.00     0.114 C 
HETATM    7  C3  UNL     1     -32.151   8.395   4.642  1.00 20.00     0.039 C 
BRANCH   6   8
HETATM    8  O8  UNL     1     -34.520   8.258   4.305  1.00 20.00    -0.396 OA
HETATM    9  H20 UNL     1     -34.580   9.186   4.033  1.00 20.00     0.210 HD
ENDBRANCH   6   8
ENDBRANCH   5   6
ENDBRANCH   4   5
ENDBRANCH   3   4
TORSDOF 4
ENDMDL
