MODEL 1
REMARK VINA RESULT:      -4.6      0.000      0.000
REMARK  1 active torsions:
REMARK  status: ('A' for Active; 'I' for Inactive)
REMARK    1  A    between atoms: C5_5  and  C10_10 
ROOT
HETATM    1  C1  UNL     1     -33.770   7.421   4.950  1.00 20.00     0.166 C 
HETATM    2  C2  UNL     1     -32.399   7.601   4.341  1.00 20.00     0.086 C 
HETATM    3  C3  UNL     1     -33.248   5.850   2.662  1.00 20.00     0.009 C 
HETATM    4  C4  UNL     1     -33.566   5.115   3.962  1.00 20.00     0.052 C 
HETATM    5  C5  UNL     1     -32.363   7.091   2.895  1.00 20.00    -0.004 C 
HETATM    6  C6  UNL     1     -34.365   6.022   4.904  1.00 20.00     0.159 C 
HETATM    7  C7  UNL     1     -34.433   5.436   6.307  1.00 20.00     0.060 C 
HETATM    8  O11 UNL     1     -34.365   8.358   5.480  1.00 20.00    -0.294 OA
HETATM    9  F12 UNL     1     -35.642   6.096   4.425  1.00 20.00    -0.235 F 
ENDROOT
BRANCH   5  10
HETATM   10  C10 UNL     1     -32.734   8.199   1.906  1.00 20.00    -0.018 C 
HETATM   11  C8  UNL     1     -32.657   9.568   2.579  1.00 20.00     0.010 C 
HETATM   12  C9  UNL     1     -31.826   8.151   0.680  1.00 20.00     0.010 C 
ENDBRANCH   5  10
TORSDOF 1
ENDMDL
MODEL 2
REMARK VINA RESULT:      -4.2     11.712     12.738
REMARK  1 active torsions:
REMARK  status: ('A' for Active; 'I' for Inactive)
REMARK    1  A    between atoms: C5_5  and  C10_10 
ROOT
HETATM    1  C1  UNL     1     -34.081  15.191  -4.340  1.00 20.00     0.166 C 
HETATM    2  C2  UNL     1     -32.880  15.968  -3.853  1.00 20.00     0.086 C 
HETATM    3  C3  UNL     1     -34.383  17.998  -4.325  1.00 20.00     0.009 C 
HETATM    4  C4  UNL     1     -34.509  17.285  -5.669  1.00 20.00     0.052 C 
HETATM    5  C5  UNL     1     -33.269  17.395  -3.446  1.00 20.00    -0.004 C 
HETATM    6  C6  UNL     1     -34.899  15.819  -5.458  1.00 20.00     0.159 C 
HETATM    7  C7  UNL     1     -34.738  15.015  -6.741  1.00 20.00     0.060 C 
HETATM    8  O11 UNL     1     -34.368  14.091  -3.870  1.00 20.00    -0.294 OA
HETATM    9  F12 UNL     1     -36.222  15.786  -5.114  1.00 20.00    -0.235 F 
ENDROOT
BRANCH   5  10
HETATM   10  C10 UNL     1     -33.666  17.461  -1.969  1.00 20.00    -0.018 C 
HETATM   11  C8  UNL     1     -32.477  17.889  -1.112  1.00 20.00     0.010 C 
HETATM   12  C9  UNL     1     -34.842  18.413  -1.772  1.00 20.00     0.010 C 
ENDBRANCH   5  10
TORSDOF 1
ENDMDL
MODEL 3
REMARK VINA RESULT:      -4.2     10.028     11.034
REMARK  1 active torsions:
REMARK  status: ('A' for Active; 'I' for Inactive)
REMARK    1  A    between atoms: C5_5  and  C10_10 
ROOT
HETATM    1  C1  UNL     1     -42.573  13.004   7.713  1.00 20.00     0.166 C 
HETATM    2  C2  UNL     1     -42.400  13.001   6.213  1.00 20.00     0.086 C 
HETATM    3  C3  UNL     1     -40.281  14.348   6.758  1.00 20.00     0.009 C 
HETATM    4  C4  UNL     1     -41.300  15.168   7.545  1.00 20.00     0.052 C 
HETATM    5  C5  UNL     1     -40.954  13.327   5.819  1.00 20.00    -0.004 C 
HETATM    6  C6  UNL     1     -42.129  14.256   8.454  1.00 20.00     0.159 C 
HETATM    7  C7  UNL     1     -43.339  14.989   9.017  1.00 20.00     0.060 C 
HETATM    8  O11 UNL     1     -43.072  12.048   8.304  1.00 20.00    -0.294 OA
HETATM    9  F12 UNL     1     -41.340  13.893   9.509  1.00 20.00    -0.235 F 
ENDROOT
BRANCH   5  10
HETATM   10  C10 UNL     1     -40.106  12.057   5.724  1.00 20.00    -0.018 C 
HETATM   11  C8  UNL     1     -39.504  11.916   4.327  1.00 20.00     0.010 C 
HETATM   12  C9  UNL     1     -39.008  12.064   6.784  1.00 20.00     0.010 C 
ENDBRANCH   5  10
TORSDOF 1
ENDMDL
MODEL 4
REMARK VINA RESULT:      -4.1     11.726     13.657
REMARK  1 active torsions:
REMARK  status: ('A' for Active; 'I' for Inactive)
REMARK    1  A    between atoms: C5_5  and  C10_10 
ROOT
HETATM    1  C1  UNL     1     -35.815  15.471  -6.548  1.00 20.00     0.166 C 
HETATM    2  C2  UNL     1     -34.415  15.989  -6.321  1.00 20.00     0.086 C 
HETATM    3  C3  UNL     1     -35.588  17.541  -4.641  1.00 20.00     0.009 C 
HETATM    4  C4  UNL     1     -36.459  17.806  -5.866  1.00 20.00     0.052 C 
HETATM    5  C5  UNL     1     -34.312  16.749  -4.992  1.00 20.00    -0.004 C 
HETATM    6  C6  UNL     1     -36.946  16.485  -6.470  1.00 20.00     0.159 C 
HETATM    7  C7  UNL     1     -37.554  16.699  -7.849  1.00 20.00     0.060 C 
HETATM    8  O11 UNL     1     -36.027  14.287  -6.809  1.00 20.00    -0.294 OA
HETATM    9  F12 UNL     1     -37.929  15.995  -5.657  1.00 20.00    -0.235 F 
ENDROOT
BRANCH   5  10
HETATM   10  C10 UNL     1     -33.941  15.808  -3.843  1.00 20.00    -0.018 C 
HETATM   11  C8  UNL     1     -32.970  14.731  -4.323  1.00 20.00     0.010 C 
HETATM   12  C9  UNL     1     -33.342  16.592  -2.679  1.00 20.00     0.010 C 
ENDBRANCH   5  10
TORSDOF 1
ENDMDL
MODEL 5
REMARK VINA RESULT:      -4.0     11.712     12.600
REMARK  1 active torsions:
REMARK  status: ('A' for Active; 'I' for Inactive)
REMARK    1  A    between atoms: C5_5  and  C10_10 
ROOT
HETATM    1  C1  UNL     1     -34.522  17.792  -3.292  1.00 20.00     0.166 C 
HETATM    2  C2  UNL     1     -34.488  17.696  -4.799  1.00 20.00     0.086 C 
HETATM    3  C3  UNL     1     -33.651  15.313  -4.324  1.00 20.00     0.009 C 
HETATM    4  C4  UNL     1     -32.673  16.093  -3.449  1.00 20.00     0.052 C 
HETATM    5  C5  UNL     1     -34.458  16.233  -5.262  1.00 20.00    -0.004 C 
HETATM    6  C6  UNL     1     -33.432  17.055  -2.530  1.00 20.00     0.159 C 
HETATM    7  C7  UNL     1     -32.488  18.051  -1.872  1.00 20.00     0.060 C 
HETATM    8  O11 UNL     1     -35.379  18.457  -2.711  1.00 20.00    -0.294 OA
HETATM    9  F12 UNL     1     -34.007  16.313  -1.536  1.00 20.00    -0.235 F 
ENDROOT
BRANCH   5  10
HETATM   10  C10 UNL     1     -35.873  15.683  -5.453  1.00 20.00    -0.018 C 
HETATM   11  C8  UNL     1     -36.330  15.868  -6.899  1.00 20.00     0.010 C 
HETATM   12  C9  UNL     1     -35.936  14.211  -5.054  1.00 20.00     0.010 C 
ENDBRANCH   5  10
TORSDOF 1
ENDMDL
MODEL 6
REMARK VINA RESULT:      -3.9      1.814      4.108
REMARK  1 active torsions:
REMARK  status: ('A' for Active; 'I' for Inactive)
REMARK    1  A    between atoms: C5_5  and  C10_10 
ROOT
HETATM    1  C1  UNL     1     -32.833   8.241   3.854  1.00 20.00     0.166 C 
HETATM    2  C2  UNL     1     -34.231   7.841   4.266  1.00 20.00     0.086 C 
HETATM    3  C3  UNL     1     -33.389   5.476   3.719  1.00 20.00     0.009 C 
HETATM    4  C4  UNL     1     -32.999   6.178   2.421  1.00 20.00     0.052 C 
HETATM    5  C5  UNL     1     -34.304   6.346   4.603  1.00 20.00    -0.004 C 
HETATM    6  C6  UNL     1     -32.196   7.447   2.723  1.00 20.00     0.159 C 
HETATM    7  C7  UNL     1     -32.057   8.320   1.484  1.00 20.00     0.060 C 
HETATM    8  O11 UNL     1     -32.249   9.180   4.392  1.00 20.00    -0.294 OA
HETATM    9  F12 UNL     1     -30.940   7.064   3.101  1.00 20.00    -0.235 F 
ENDROOT
BRANCH   5  10
HETATM   10  C10 UNL     1     -34.006   6.096   6.083  1.00 20.00    -0.018 C 
HETATM   11  C8  UNL     1     -34.202   7.375   6.895  1.00 20.00     0.010 C 
HETATM   12  C9  UNL     1     -34.886   4.974   6.626  1.00 20.00     0.010 C 
ENDBRANCH   5  10
TORSDOF 1
ENDMDL
MODEL 7
REMARK VINA RESULT:      -3.9      9.933     10.829
REMARK  1 active torsions:
REMARK  status: ('A' for Active; 'I' for Inactive)
REMARK    1  A    between atoms: C5_5  and  C10_10 
ROOT
HETATM    1  C1  UNL     1     -41.428  13.860   7.523  1.00 20.00     0.166 C 
HETATM    2  C2  UNL     1     -41.454  12.530   6.806  1.00 20.00     0.086 C 
HETATM    3  C3  UNL     1     -41.487  14.007   4.704  1.00 20.00     0.009 C 
HETATM    4  C4  UNL     1     -42.647  14.643   5.465  1.00 20.00     0.052 C 
HETATM    5  C5  UNL     1     -41.028  12.680   5.340  1.00 20.00    -0.004 C 
HETATM    6  C6  UNL     1     -42.217  14.997   6.892  1.00 20.00     0.159 C 
HETATM    7  C7  UNL     1     -43.417  15.347   7.760  1.00 20.00     0.060 C 
HETATM    8  O11 UNL     1     -40.816  14.007   8.580  1.00 20.00    -0.294 OA
HETATM    9  F12 UNL     1     -41.421  16.106   6.822  1.00 20.00    -0.235 F 
ENDROOT
BRANCH   5  10
HETATM   10  C10 UNL     1     -39.514  12.514   5.184  1.00 20.00    -0.018 C 
HETATM   11  C8  UNL     1     -38.908  11.896   6.443  1.00 20.00     0.010 C 
HETATM   12  C9  UNL     1     -39.191  11.664   3.959  1.00 20.00     0.010 C 
ENDBRANCH   5  10
TORSDOF 1
ENDMDL
MODEL 8
REMARK VINA RESULT:      -3.7     10.737     11.870
REMARK  1 active torsions:
REMARK  status: ('A' for Active; 'I' for Inactive)
REMARK    1  A    between atoms: C5_5  and  C10_10 
ROOT
HETATM    1  C1  UNL     1     -40.476  13.844   7.255  1.00 20.00     0.166 C 
HETATM    2  C2  UNL     1     -40.488  15.351   7.161  1.00 20.00     0.086 C 
HETATM    3  C3  UNL     1     -42.767  14.960   6.040  1.00 20.00     0.009 C 
HETATM    4  C4  UNL     1     -41.916  14.013   5.198  1.00 20.00     0.052 C 
HETATM    5  C5  UNL     1     -41.908  15.882   6.929  1.00 20.00    -0.004 C 
HETATM    6  C6  UNL     1     -41.108  13.077   6.103  1.00 20.00     0.159 C 
HETATM    7  C7  UNL     1     -40.036  12.337   5.316  1.00 20.00     0.060 C 
HETATM    8  O11 UNL     1     -39.957  13.264   8.208  1.00 20.00    -0.294 OA
HETATM    9  F12 UNL     1     -41.968  12.143   6.608  1.00 20.00    -0.235 F 
ENDROOT
BRANCH   5  10
HETATM   10  C10 UNL     1     -42.623  16.154   8.255  1.00 20.00    -0.018 C 
HETATM   11  C8  UNL     1     -43.417  14.927   8.698  1.00 20.00     0.010 C 
HETATM   12  C9  UNL     1     -41.620  16.562   9.331  1.00 20.00     0.010 C 
ENDBRANCH   5  10
TORSDOF 1
ENDMDL
MODEL 9
REMARK VINA RESULT:      -3.7     13.705     15.080
REMARK  1 active torsions:
REMARK  status: ('A' for Active; 'I' for Inactive)
REMARK    1  A    between atoms: C5_5  and  C10_10 
ROOT
HETATM    1  C1  UNL     1     -24.525  -3.820  10.432  1.00 20.00     0.166 C 
HETATM    2  C2  UNL     1     -25.887  -3.872  11.083  1.00 20.00     0.086 C 
HETATM    3  C3  UNL     1     -25.333  -1.449  11.737  1.00 20.00     0.009 C 
HETATM    4  C4  UNL     1     -24.066  -2.134  12.243  1.00 20.00     0.052 C 
HETATM    5  C5  UNL     1     -26.429  -2.463  11.351  1.00 20.00    -0.004 C 
HETATM    6  C6  UNL     1     -23.454  -3.004  11.141  1.00 20.00     0.159 C 
HETATM    7  C7  UNL     1     -22.378  -3.926  11.698  1.00 20.00     0.060 C 
HETATM    8  O11 UNL     1     -24.288  -4.429   9.390  1.00 20.00    -0.294 OA
HETATM    9  F12 UNL     1     -22.857  -2.171  10.237  1.00 20.00    -0.235 F 
ENDROOT
BRANCH   5  10
HETATM   10  C10 UNL     1     -27.235  -1.942  10.158  1.00 20.00    -0.018 C 
HETATM   11  C8  UNL     1     -28.454  -2.827   9.906  1.00 20.00     0.010 C 
HETATM   12  C9  UNL     1     -27.660  -0.494  10.388  1.00 20.00     0.010 C 
ENDBRANCH   5  10
TORSDOF 1
ENDMDL
