MODEL 1
REMARK VINA RESULT:      -4.1      0.000      0.000
REMARK  0 active torsions:
REMARK  status: ('A' for Active; 'I' for Inactive)
ROOT
HETATM    1  C1  UNL     1     -33.807   6.897   4.937  1.00 20.00    -0.064 C 
HETATM    2  C2  UNL     1     -33.505   8.122   4.494  1.00 20.00     0.016 C 
HETATM    3  C3  UNL     1     -34.003   6.507   6.360  1.00 20.00     0.061 C 
HETATM    4  C4  UNL     1     -34.084   5.709   4.080  1.00 20.00     0.201 C 
HETATM    5  C5  UNL     1     -34.922   5.316   6.193  1.00 20.00     0.172 C 
HETATM    6  O6  UNL     1     -34.495   4.669   4.986  1.00 20.00    -0.387 OA
ENDROOT
TORSDOF 0
ENDMDL
MODEL 2
REMARK VINA RESULT:      -4.0      0.912      1.666
REMARK  0 active torsions:
REMARK  status: ('A' for Active; 'I' for Inactive)
ROOT
HETATM    1  C1  UNL     1     -33.800   7.115   5.034  1.00 20.00    -0.064 C 
HETATM    2  C2  UNL     1     -33.036   8.126   4.609  1.00 20.00     0.016 C 
HETATM    3  C3  UNL     1     -34.364   6.030   4.186  1.00 20.00     0.061 C 
HETATM    4  C4  UNL     1     -34.162   6.840   6.454  1.00 20.00     0.201 C 
HETATM    5  C5  UNL     1     -34.509   4.927   5.212  1.00 20.00     0.172 C 
HETATM    6  O6  UNL     1     -34.868   5.585   6.435  1.00 20.00    -0.387 OA
ENDROOT
TORSDOF 0
ENDMDL
MODEL 3
REMARK VINA RESULT:      -4.0      1.368      2.084
REMARK  0 active torsions:
REMARK  status: ('A' for Active; 'I' for Inactive)
ROOT
HETATM    1  C1  UNL     1     -33.779   5.908   4.076  1.00 20.00    -0.064 C 
HETATM    2  C2  UNL     1     -33.189   5.523   2.940  1.00 20.00     0.016 C 
HETATM    3  C3  UNL     1     -34.736   5.101   4.879  1.00 20.00     0.061 C 
HETATM    4  C4  UNL     1     -33.524   7.190   4.793  1.00 20.00     0.201 C 
HETATM    5  C5  UNL     1     -34.520   5.704   6.251  1.00 20.00     0.172 C 
HETATM    6  O6  UNL     1     -34.271   7.098   6.021  1.00 20.00    -0.387 OA
ENDROOT
TORSDOF 0
ENDMDL
MODEL 4
REMARK VINA RESULT:      -3.9      1.592      2.644
REMARK  0 active torsions:
REMARK  status: ('A' for Active; 'I' for Inactive)
ROOT
HETATM    1  C1  UNL     1     -34.057   6.578   5.255  1.00 20.00    -0.064 C 
HETATM    2  C2  UNL     1     -34.721   5.810   6.125  1.00 20.00     0.016 C 
HETATM    3  C3  UNL     1     -33.683   8.004   5.458  1.00 20.00     0.061 C 
HETATM    4  C4  UNL     1     -33.494   6.123   3.951  1.00 20.00     0.201 C 
HETATM    5  C5  UNL     1     -32.469   8.099   4.557  1.00 20.00     0.172 C 
HETATM    6  O6  UNL     1     -32.754   7.247   3.439  1.00 20.00    -0.387 OA
ENDROOT
TORSDOF 0
ENDMDL
MODEL 5
REMARK VINA RESULT:      -3.7      1.990      3.160
REMARK  0 active torsions:
REMARK  status: ('A' for Active; 'I' for Inactive)
ROOT
HETATM    1  C1  UNL     1     -33.981   6.469   4.553  1.00 20.00    -0.064 C 
HETATM    2  C2  UNL     1     -35.120   5.789   4.716  1.00 20.00     0.016 C 
HETATM    3  C3  UNL     1     -33.000   6.277   3.451  1.00 20.00     0.061 C 
HETATM    4  C4  UNL     1     -33.520   7.604   5.404  1.00 20.00     0.201 C 
HETATM    5  C5  UNL     1     -32.367   7.652   3.405  1.00 20.00     0.172 C 
HETATM    6  O6  UNL     1     -32.327   8.100   4.768  1.00 20.00    -0.387 OA
ENDROOT
TORSDOF 0
ENDMDL
MODEL 6
REMARK VINA RESULT:      -3.6      1.388      2.399
REMARK  0 active torsions:
REMARK  status: ('A' for Active; 'I' for Inactive)
ROOT
HETATM    1  C1  UNL     1     -32.969   7.540   4.229  1.00 20.00    -0.064 C 
HETATM    2  C2  UNL     1     -32.448   8.610   4.838  1.00 20.00     0.016 C 
HETATM    3  C3  UNL     1     -32.531   6.982   2.921  1.00 20.00     0.061 C 
HETATM    4  C4  UNL     1     -34.032   6.656   4.787  1.00 20.00     0.201 C 
HETATM    5  C5  UNL     1     -32.947   5.536   3.086  1.00 20.00     0.172 C 
HETATM    6  O6  UNL     1     -34.162   5.572   3.848  1.00 20.00    -0.387 OA
ENDROOT
TORSDOF 0
ENDMDL
MODEL 7
REMARK VINA RESULT:      -3.4      1.864      3.139
REMARK  0 active torsions:
REMARK  status: ('A' for Active; 'I' for Inactive)
ROOT
HETATM    1  C1  UNL     1     -32.995   6.342   3.497  1.00 20.00    -0.064 C 
HETATM    2  C2  UNL     1     -33.032   5.303   2.657  1.00 20.00     0.016 C 
HETATM    3  C3  UNL     1     -32.093   7.521   3.388  1.00 20.00     0.061 C 
HETATM    4  C4  UNL     1     -33.909   6.553   4.656  1.00 20.00     0.201 C 
HETATM    5  C5  UNL     1     -32.916   8.564   4.113  1.00 20.00     0.172 C 
HETATM    6  O6  UNL     1     -33.583   7.859   5.170  1.00 20.00    -0.387 OA
ENDROOT
TORSDOF 0
ENDMDL
MODEL 8
REMARK VINA RESULT:      -3.3      8.243      8.743
REMARK  0 active torsions:
REMARK  status: ('A' for Active; 'I' for Inactive)
ROOT
HETATM    1  C1  UNL     1     -39.552  12.177   4.971  1.00 20.00    -0.064 C 
HETATM    2  C2  UNL     1     -38.993  11.634   3.885  1.00 20.00     0.016 C 
HETATM    3  C3  UNL     1     -40.774  13.027   4.993  1.00 20.00     0.061 C 
HETATM    4  C4  UNL     1     -39.100  11.965   6.376  1.00 20.00     0.201 C 
HETATM    5  C5  UNL     1     -41.263  12.767   6.401  1.00 20.00     0.172 C 
HETATM    6  O6  UNL     1     -40.079  12.627   7.199  1.00 20.00    -0.387 OA
ENDROOT
TORSDOF 0
ENDMDL
MODEL 9
REMARK VINA RESULT:      -3.0     16.146     17.170
REMARK  0 active torsions:
REMARK  status: ('A' for Active; 'I' for Inactive)
ROOT
HETATM    1  C1  UNL     1     -23.670  17.041  11.473  1.00 20.00    -0.064 C 
HETATM    2  C2  UNL     1     -24.591  16.196  11.946  1.00 20.00     0.016 C 
HETATM    3  C3  UNL     1     -23.344  17.263  10.038  1.00 20.00     0.061 C 
HETATM    4  C4  UNL     1     -22.853  17.981  12.294  1.00 20.00     0.201 C 
HETATM    5  C5  UNL     1     -22.808  18.678  10.094  1.00 20.00     0.172 C 
HETATM    6  O6  UNL     1     -22.115  18.775  11.346  1.00 20.00    -0.387 OA
ENDROOT
TORSDOF 0
ENDMDL
