MODEL 1
REMARK VINA RESULT:      -4.2      0.000      0.000
REMARK  0 active torsions:
REMARK  status: ('A' for Active; 'I' for Inactive)
ROOT
HETATM    1  C1  UNL     1     -33.837   6.722   6.917  1.00 20.00     0.003 C 
HETATM    2  C2  UNL     1     -34.535   5.425   6.517  1.00 20.00     0.001 C 
HETATM    3  C3  UNL     1     -33.951   7.778   5.823  1.00 20.00     0.041 C 
HETATM    4  C4  UNL     1     -34.002   4.893   5.184  1.00 20.00     0.012 C 
HETATM    5  C5  UNL     1     -32.093   7.734   4.013  1.00 20.00     0.207 A 
HETATM    6  C6  UNL     1     -33.441   7.236   4.509  1.00 20.00     0.089 A 
HETATM    7  C7  UNL     1     -34.076   5.925   4.027  1.00 20.00    -0.014 C 
HETATM    8  C8  UNL     1     -33.358   5.312   2.808  1.00 20.00     0.018 C 
HETATM    9  C9  UNL     1     -35.545   6.166   3.617  1.00 20.00     0.018 C 
HETATM   10  O10 UNL     1     -33.326   8.244   3.490  1.00 20.00    -0.374 OA
ENDROOT
TORSDOF 0
ENDMDL
MODEL 2
REMARK VINA RESULT:      -3.8      8.944      9.583
REMARK  0 active torsions:
REMARK  status: ('A' for Active; 'I' for Inactive)
ROOT
HETATM    1  C1  UNL     1     -43.417   6.883   2.178  1.00 20.00     0.003 C 
HETATM    2  C2  UNL     1     -43.258   5.373   2.024  1.00 20.00     0.001 C 
HETATM    3  C3  UNL     1     -43.414   7.585   0.825  1.00 20.00     0.041 C 
HETATM    4  C4  UNL     1     -41.999   5.023   1.228  1.00 20.00     0.012 C 
HETATM    5  C5  UNL     1     -41.084   8.264  -0.090  1.00 20.00     0.207 A 
HETATM    6  C6  UNL     1     -42.178   7.217   0.040  1.00 20.00     0.089 A 
HETATM    7  C7  UNL     1     -41.925   5.717  -0.159  1.00 20.00    -0.014 C 
HETATM    8  C8  UNL     1     -40.541   5.406  -0.764  1.00 20.00     0.018 C 
HETATM    9  C9  UNL     1     -42.984   5.122  -1.112  1.00 20.00     0.018 C 
HETATM   10  O10 UNL     1     -42.011   8.004  -1.151  1.00 20.00    -0.374 OA
ENDROOT
TORSDOF 0
ENDMDL
MODEL 3
REMARK VINA RESULT:      -3.8      8.038      9.562
REMARK  0 active torsions:
REMARK  status: ('A' for Active; 'I' for Inactive)
ROOT
HETATM    1  C1  UNL     1     -43.271   5.007   1.800  1.00 20.00     0.003 C 
HETATM    2  C2  UNL     1     -43.417   6.443   2.298  1.00 20.00     0.001 C 
HETATM    3  C3  UNL     1     -41.916   4.781   1.139  1.00 20.00     0.041 C 
HETATM    4  C4  UNL     1     -43.182   7.451   1.171  1.00 20.00     0.012 C 
HETATM    5  C5  UNL     1     -41.792   5.315  -1.396  1.00 20.00     0.207 A 
HETATM    6  C6  UNL     1     -41.686   5.793   0.043  1.00 20.00     0.089 A 
HETATM    7  C7  UNL     1     -41.822   7.267   0.445  1.00 20.00    -0.014 C 
HETATM    8  C8  UNL     1     -41.801   8.233  -0.758  1.00 20.00     0.018 C 
HETATM    9  C9  UNL     1     -40.659   7.674   1.375  1.00 20.00     0.018 C 
HETATM   10  O10 UNL     1     -40.525   5.506  -0.755  1.00 20.00    -0.374 OA
ENDROOT
TORSDOF 0
ENDMDL
MODEL 4
REMARK VINA RESULT:      -3.7      1.372      2.509
REMARK  0 active torsions:
REMARK  status: ('A' for Active; 'I' for Inactive)
ROOT
HETATM    1  C1  UNL     1     -32.349   8.377   4.394  1.00 20.00     0.003 C 
HETATM    2  C2  UNL     1     -33.374   8.361   5.525  1.00 20.00     0.001 C 
HETATM    3  C3  UNL     1     -32.854   7.618   3.172  1.00 20.00     0.041 C 
HETATM    4  C4  UNL     1     -33.775   6.931   5.894  1.00 20.00     0.012 C 
HETATM    5  C5  UNL     1     -32.354   5.073   3.135  1.00 20.00     0.207 A 
HETATM    6  C6  UNL     1     -33.266   6.216   3.551  1.00 20.00     0.089 A 
HETATM    7  C7  UNL     1     -34.288   6.096   4.689  1.00 20.00    -0.014 C 
HETATM    8  C8  UNL     1     -34.491   4.648   5.178  1.00 20.00     0.018 C 
HETATM    9  C9  UNL     1     -35.664   6.618   4.224  1.00 20.00     0.018 C 
HETATM   10  O10 UNL     1     -33.552   5.385   2.414  1.00 20.00    -0.374 OA
ENDROOT
TORSDOF 0
ENDMDL
MODEL 5
REMARK VINA RESULT:      -3.7     12.775     14.072
REMARK  0 active torsions:
REMARK  status: ('A' for Active; 'I' for Inactive)
ROOT
HETATM    1  C1  UNL     1     -33.296  15.653  -3.672  1.00 20.00     0.003 C 
HETATM    2  C2  UNL     1     -33.525  17.159  -3.754  1.00 20.00     0.001 C 
HETATM    3  C3  UNL     1     -33.622  14.966  -4.993  1.00 20.00     0.041 C 
HETATM    4  C4  UNL     1     -34.951  17.484  -4.204  1.00 20.00     0.012 C 
HETATM    5  C5  UNL     1     -36.091  14.234  -5.308  1.00 20.00     0.207 A 
HETATM    6  C6  UNL     1     -35.024  15.309  -5.437  1.00 20.00     0.089 A 
HETATM    7  C7  UNL     1     -35.353  16.803  -5.540  1.00 20.00    -0.014 C 
HETATM    8  C8  UNL     1     -36.852  17.084  -5.774  1.00 20.00     0.018 C 
HETATM    9  C9  UNL     1     -34.582  17.437  -6.718  1.00 20.00     0.018 C 
HETATM   10  O10 UNL     1     -35.466  14.530  -6.562  1.00 20.00    -0.374 OA
ENDROOT
TORSDOF 0
ENDMDL
MODEL 6
REMARK VINA RESULT:      -3.6      1.416      3.232
REMARK  0 active torsions:
REMARK  status: ('A' for Active; 'I' for Inactive)
ROOT
HETATM    1  C1  UNL     1     -33.587   4.985   3.471  1.00 20.00     0.003 C 
HETATM    2  C2  UNL     1     -32.919   5.957   2.503  1.00 20.00     0.001 C 
HETATM    3  C3  UNL     1     -34.510   5.711   4.443  1.00 20.00     0.041 C 
HETATM    4  C4  UNL     1     -32.168   7.062   3.251  1.00 20.00     0.012 C 
HETATM    5  C5  UNL     1     -33.398   6.584   6.618  1.00 20.00     0.207 A 
HETATM    6  C6  UNL     1     -33.765   6.811   5.160  1.00 20.00     0.089 A 
HETATM    7  C7  UNL     1     -33.049   7.834   4.270  1.00 20.00    -0.014 C 
HETATM    8  C8  UNL     1     -32.126   8.788   5.055  1.00 20.00     0.018 C 
HETATM    9  C9  UNL     1     -34.084   8.708   3.529  1.00 20.00     0.018 C 
HETATM   10  O10 UNL     1     -34.517   7.393   6.238  1.00 20.00    -0.374 OA
ENDROOT
TORSDOF 0
ENDMDL
MODEL 7
REMARK VINA RESULT:      -3.4      1.479      3.551
REMARK  0 active torsions:
REMARK  status: ('A' for Active; 'I' for Inactive)
ROOT
HETATM    1  C1  UNL     1     -32.518   5.946   2.639  1.00 20.00     0.003 C 
HETATM    2  C2  UNL     1     -32.136   7.386   2.972  1.00 20.00     0.001 C 
HETATM    3  C3  UNL     1     -33.947   5.636   3.069  1.00 20.00     0.041 C 
HETATM    4  C4  UNL     1     -32.339   7.688   4.458  1.00 20.00     0.012 C 
HETATM    5  C5  UNL     1     -34.236   4.793   5.506  1.00 20.00     0.207 A 
HETATM    6  C6  UNL     1     -34.142   5.956   4.532  1.00 20.00     0.089 A 
HETATM    7  C7  UNL     1     -33.773   7.380   4.967  1.00 20.00    -0.014 C 
HETATM    8  C8  UNL     1     -33.777   7.572   6.497  1.00 20.00     0.018 C 
HETATM    9  C9  UNL     1     -34.779   8.393   4.378  1.00 20.00     0.018 C 
HETATM   10  O10 UNL     1     -35.400   5.491   5.049  1.00 20.00    -0.374 OA
ENDROOT
TORSDOF 0
ENDMDL
MODEL 8
REMARK VINA RESULT:      -3.4     13.114     14.221
REMARK  0 active torsions:
REMARK  status: ('A' for Active; 'I' for Inactive)
ROOT
HETATM    1  C1  UNL     1     -33.432  16.577  -3.508  1.00 20.00     0.003 C 
HETATM    2  C2  UNL     1     -33.594  15.112  -3.906  1.00 20.00     0.001 C 
HETATM    3  C3  UNL     1     -34.591  17.425  -4.018  1.00 20.00     0.041 C 
HETATM    4  C4  UNL     1     -33.761  14.960  -5.420  1.00 20.00     0.012 C 
HETATM    5  C5  UNL     1     -34.317  18.395  -6.408  1.00 20.00     0.207 A 
HETATM    6  C6  UNL     1     -34.760  17.252  -5.508  1.00 20.00     0.089 A 
HETATM    7  C7  UNL     1     -34.919  15.810  -6.007  1.00 20.00    -0.014 C 
HETATM    8  C8  UNL     1     -34.857  15.685  -7.543  1.00 20.00     0.018 C 
HETATM    9  C9  UNL     1     -36.282  15.241  -5.559  1.00 20.00     0.018 C 
HETATM   10  O10 UNL     1     -35.695  18.180  -6.082  1.00 20.00    -0.374 OA
ENDROOT
TORSDOF 0
ENDMDL
MODEL 9
REMARK VINA RESULT:      -3.4     12.673     13.994
REMARK  0 active torsions:
REMARK  status: ('A' for Active; 'I' for Inactive)
ROOT
HETATM    1  C1  UNL     1     -33.497  16.641  -2.305  1.00 20.00     0.003 C 
HETATM    2  C2  UNL     1     -34.082  18.049  -2.381  1.00 20.00     0.001 C 
HETATM    3  C3  UNL     1     -33.119  16.118  -3.686  1.00 20.00     0.041 C 
HETATM    4  C4  UNL     1     -35.278  18.105  -3.335  1.00 20.00     0.012 C 
HETATM    5  C5  UNL     1     -35.003  14.899  -4.986  1.00 20.00     0.207 A 
HETATM    6  C6  UNL     1     -34.300  16.196  -4.623  1.00 20.00     0.089 A 
HETATM    7  C7  UNL     1     -34.965  17.572  -4.759  1.00 20.00    -0.014 C 
HETATM    8  C8  UNL     1     -36.291  17.535  -5.545  1.00 20.00     0.018 C 
HETATM    9  C9  UNL     1     -34.023  18.546  -5.500  1.00 20.00     0.018 C 
HETATM   10  O10 UNL     1     -34.072  15.527  -5.875  1.00 20.00    -0.374 OA
ENDROOT
TORSDOF 0
ENDMDL
