MODEL 1
REMARK VINA RESULT:      -4.9      0.000      0.000
REMARK  0 active torsions:
REMARK  status: ('A' for Active; 'I' for Inactive)
ROOT
HETATM    1  C1  UNL     1     -32.636   8.563   2.929  1.00 20.00     0.071 C 
HETATM    2  C2  UNL     1     -33.297   6.365   3.852  1.00 20.00     0.152 C 
HETATM    3  C3  UNL     1     -33.570   8.276   5.212  1.00 20.00     0.028 C 
HETATM    4  C4  UNL     1     -34.009   7.048   6.003  1.00 20.00     0.018 C 
HETATM    5  C5  UNL     1     -32.663   7.714   4.119  1.00 20.00     0.163 C 
HETATM    6  C6  UNL     1     -34.286   5.969   4.941  1.00 20.00     0.015 C 
HETATM    7  C7  UNL     1     -35.709   6.060   4.389  1.00 20.00     0.023 C 
HETATM    8  C8  UNL     1     -33.994   4.572   5.476  1.00 20.00     0.023 C 
HETATM    9  N9  UNL     1     -32.615   9.236   1.984  1.00 20.00    -0.196 NA
HETATM   10  O10 UNL     1     -33.041   5.670   2.875  1.00 20.00    -0.296 OA
ENDROOT
TORSDOF 0
ENDMDL
MODEL 2
REMARK VINA RESULT:      -4.0     12.416     13.424
REMARK  0 active torsions:
REMARK  status: ('A' for Active; 'I' for Inactive)
ROOT
HETATM    1  C1  UNL     1     -34.144  15.308  -6.053  1.00 20.00     0.071 C 
HETATM    2  C2  UNL     1     -34.813  17.122  -4.509  1.00 20.00     0.152 C 
HETATM    3  C3  UNL     1     -33.149  15.604  -3.797  1.00 20.00     0.028 C 
HETATM    4  C4  UNL     1     -33.413  16.601  -2.673  1.00 20.00     0.018 C 
HETATM    5  C5  UNL     1     -34.406  15.671  -4.661  1.00 20.00     0.163 C 
HETATM    6  C6  UNL     1     -34.084  17.804  -3.358  1.00 20.00     0.015 C 
HETATM    7  C7  UNL     1     -33.059  18.789  -3.921  1.00 20.00     0.023 C 
HETATM    8  C8  UNL     1     -35.061  18.507  -2.421  1.00 20.00     0.023 C 
HETATM    9  N9  UNL     1     -33.936  15.021  -7.157  1.00 20.00    -0.196 NA
HETATM   10  O10 UNL     1     -35.634  17.682  -5.226  1.00 20.00    -0.296 OA
ENDROOT
TORSDOF 0
ENDMDL
MODEL 3
REMARK VINA RESULT:      -3.8     11.981     13.264
REMARK  0 active torsions:
REMARK  status: ('A' for Active; 'I' for Inactive)
ROOT
HETATM    1  C1  UNL     1     -33.513  16.845  -2.297  1.00 20.00     0.071 C 
HETATM    2  C2  UNL     1     -34.154  17.162  -4.666  1.00 20.00     0.152 C 
HETATM    3  C3  UNL     1     -33.662  14.974  -3.924  1.00 20.00     0.028 C 
HETATM    4  C4  UNL     1     -33.994  14.921  -5.412  1.00 20.00     0.018 C 
HETATM    5  C5  UNL     1     -33.270  16.429  -3.678  1.00 20.00     0.163 C 
HETATM    6  C6  UNL     1     -34.770  16.220  -5.692  1.00 20.00     0.015 C 
HETATM    7  C7  UNL     1     -36.265  16.068  -5.406  1.00 20.00     0.023 C 
HETATM    8  C8  UNL     1     -34.533  16.716  -7.115  1.00 20.00     0.023 C 
HETATM    9  N9  UNL     1     -33.707  17.175  -1.202  1.00 20.00    -0.196 NA
HETATM   10  O10 UNL     1     -34.348  18.372  -4.644  1.00 20.00    -0.296 OA
ENDROOT
TORSDOF 0
ENDMDL
MODEL 4
REMARK VINA RESULT:      -3.5     11.891     12.797
REMARK  0 active torsions:
REMARK  status: ('A' for Active; 'I' for Inactive)
ROOT
HETATM    1  C1  UNL     1     -31.583  18.597   1.308  1.00 20.00     0.071 C 
HETATM    2  C2  UNL     1     -33.596  18.358  -0.111  1.00 20.00     0.152 C 
HETATM    3  C3  UNL     1     -31.643  19.263  -1.084  1.00 20.00     0.028 C 
HETATM    4  C4  UNL     1     -32.749  19.247  -2.135  1.00 20.00     0.018 C 
HETATM    5  C5  UNL     1     -32.389  19.200   0.247  1.00 20.00     0.163 C 
HETATM    6  C6  UNL     1     -33.773  18.221  -1.618  1.00 20.00     0.015 C 
HETATM    7  C7  UNL     1     -33.420  16.795  -2.042  1.00 20.00     0.023 C 
HETATM    8  C8  UNL     1     -35.191  18.584  -2.046  1.00 20.00     0.023 C 
HETATM    9  N9  UNL     1     -30.944  18.117   2.149  1.00 20.00    -0.196 NA
HETATM   10  O10 UNL     1     -34.345  17.848   0.715  1.00 20.00    -0.296 OA
ENDROOT
TORSDOF 0
ENDMDL
MODEL 5
REMARK VINA RESULT:      -3.4     12.385     13.740
REMARK  0 active torsions:
REMARK  status: ('A' for Active; 'I' for Inactive)
ROOT
HETATM    1  C1  UNL     1     -28.041  -0.678  11.860  1.00 20.00     0.071 C 
HETATM    2  C2  UNL     1     -26.562  -2.126  10.504  1.00 20.00     0.152 C 
HETATM    3  C3  UNL     1     -25.619  -0.963  12.332  1.00 20.00     0.028 C 
HETATM    4  C4  UNL     1     -24.516  -1.755  11.636  1.00 20.00     0.018 C 
HETATM    5  C5  UNL     1     -26.710  -0.829  11.272  1.00 20.00     0.163 C 
HETATM    6  C6  UNL     1     -25.253  -2.836  10.826  1.00 20.00     0.015 C 
HETATM    7  C7  UNL     1     -25.546  -4.081  11.666  1.00 20.00     0.023 C 
HETATM    8  C8  UNL     1     -24.491  -3.199   9.557  1.00 20.00     0.023 C 
HETATM    9  N9  UNL     1     -29.096  -0.559  12.326  1.00 20.00    -0.196 NA
HETATM   10  O10 UNL     1     -27.395  -2.553   9.714  1.00 20.00    -0.296 OA
ENDROOT
TORSDOF 0
ENDMDL
MODEL 6
REMARK VINA RESULT:      -3.3     12.784     14.099
REMARK  0 active torsions:
REMARK  status: ('A' for Active; 'I' for Inactive)
ROOT
HETATM    1  C1  UNL     1     -37.967  15.882  -5.303  1.00 20.00     0.071 C 
HETATM    2  C2  UNL     1     -35.916  15.350  -6.581  1.00 20.00     0.152 C 
HETATM    3  C3  UNL     1     -35.943  17.322  -5.281  1.00 20.00     0.028 C 
HETATM    4  C4  UNL     1     -34.599  17.227  -5.997  1.00 20.00     0.018 C 
HETATM    5  C5  UNL     1     -36.868  16.425  -6.102  1.00 20.00     0.163 C 
HETATM    6  C6  UNL     1     -34.458  15.745  -6.385  1.00 20.00     0.015 C 
HETATM    7  C7  UNL     1     -33.856  14.911  -5.253  1.00 20.00     0.023 C 
HETATM    8  C8  UNL     1     -33.659  15.579  -7.673  1.00 20.00     0.023 C 
HETATM    9  N9  UNL     1     -38.837  15.451  -4.670  1.00 20.00    -0.196 NA
HETATM   10  O10 UNL     1     -36.276  14.287  -7.074  1.00 20.00    -0.296 OA
ENDROOT
TORSDOF 0
ENDMDL
MODEL 7
REMARK VINA RESULT:      -3.3     12.129     14.139
REMARK  0 active torsions:
REMARK  status: ('A' for Active; 'I' for Inactive)
ROOT
HETATM    1  C1  UNL     1     -35.930  13.943  -5.092  1.00 20.00     0.071 C 
HETATM    2  C2  UNL     1     -34.765  15.725  -6.352  1.00 20.00     0.152 C 
HETATM    3  C3  UNL     1     -36.947  16.160  -5.558  1.00 20.00     0.028 C 
HETATM    4  C4  UNL     1     -36.454  17.383  -6.325  1.00 20.00     0.018 C 
HETATM    5  C5  UNL     1     -36.075  15.017  -6.073  1.00 20.00     0.163 C 
HETATM    6  C6  UNL     1     -34.923  17.241  -6.360  1.00 20.00     0.015 C 
HETATM    7  C7  UNL     1     -34.264  17.825  -5.109  1.00 20.00     0.023 C 
HETATM    8  C8  UNL     1     -34.333  17.854  -7.625  1.00 20.00     0.023 C 
HETATM    9  N9  UNL     1     -35.815  13.091  -4.313  1.00 20.00    -0.196 NA
HETATM   10  O10 UNL     1     -33.703  15.147  -6.551  1.00 20.00    -0.296 OA
ENDROOT
TORSDOF 0
ENDMDL
MODEL 8
REMARK VINA RESULT:      -3.3     11.607     13.159
REMARK  0 active torsions:
REMARK  status: ('A' for Active; 'I' for Inactive)
ROOT
HETATM    1  C1  UNL     1     -29.175  -4.194  10.176  1.00 20.00     0.071 C 
HETATM    2  C2  UNL     1     -28.562  -2.082  11.309  1.00 20.00     0.152 C 
HETATM    3  C3  UNL     1     -26.854  -3.312  10.236  1.00 20.00     0.028 C 
HETATM    4  C4  UNL     1     -26.233  -2.079  10.886  1.00 20.00     0.018 C 
HETATM    5  C5  UNL     1     -28.170  -3.509  10.987  1.00 20.00     0.163 C 
HETATM    6  C6  UNL     1     -27.408  -1.109  11.102  1.00 20.00     0.015 C 
HETATM    7  C7  UNL     1     -27.682  -0.255   9.863  1.00 20.00     0.023 C 
HETATM    8  C8  UNL     1     -27.190  -0.234  12.332  1.00 20.00     0.023 C 
HETATM    9  N9  UNL     1     -29.973  -4.737   9.533  1.00 20.00    -0.196 NA
HETATM   10  O10 UNL     1     -29.677  -1.748  11.695  1.00 20.00    -0.296 OA
ENDROOT
TORSDOF 0
ENDMDL
MODEL 9
REMARK VINA RESULT:      -3.2     11.688     13.373
REMARK  0 active torsions:
REMARK  status: ('A' for Active; 'I' for Inactive)
ROOT
HETATM    1  C1  UNL     1     -34.656  14.410  -4.519  1.00 20.00     0.071 C 
HETATM    2  C2  UNL     1     -33.785  16.600  -3.768  1.00 20.00     0.152 C 
HETATM    3  C3  UNL     1     -34.897  16.493  -5.850  1.00 20.00     0.028 C 
HETATM    4  C4  UNL     1     -34.426  17.926  -5.622  1.00 20.00     0.018 C 
HETATM    5  C5  UNL     1     -34.010  15.656  -4.930  1.00 20.00     0.163 C 
HETATM    6  C6  UNL     1     -34.189  18.030  -4.105  1.00 20.00     0.015 C 
HETATM    7  C7  UNL     1     -35.470  18.385  -3.348  1.00 20.00     0.023 C 
HETATM    8  C8  UNL     1     -33.071  19.015  -3.781  1.00 20.00     0.023 C 
HETATM    9  N9  UNL     1     -35.168  13.422  -4.192  1.00 20.00    -0.196 NA
HETATM   10  O10 UNL     1     -33.328  16.256  -2.684  1.00 20.00    -0.296 OA
ENDROOT
TORSDOF 0
ENDMDL
