MODEL 1
REMARK VINA RESULT:      -4.7      0.000      0.000
REMARK  1 active torsions:
REMARK  status: ('A' for Active; 'I' for Inactive)
REMARK    1  A    between atoms: C6_6  and  C8_8 
ROOT
HETATM    1  C1  UNL     1     -33.290   6.258   3.768  1.00 20.00     0.144 C 
HETATM    2  C2  UNL     1     -32.023   7.078   3.892  1.00 20.00     0.079 C 
HETATM    3  C3  UNL     1     -32.340   8.563   3.977  1.00 20.00     0.007 C 
HETATM    4  C4  UNL     1     -33.346   8.862   5.083  1.00 20.00     0.002 C 
HETATM    5  C5  UNL     1     -34.634   8.066   4.875  1.00 20.00     0.026 C 
HETATM    6  C6  UNL     1     -34.412   6.543   4.777  1.00 20.00     0.114 C 
HETATM    7  C7  UNL     1     -35.721   5.883   4.309  1.00 20.00     0.033 C 
HETATM    8  O9  UNL     1     -33.363   5.346   2.943  1.00 20.00    -0.297 OA
ENDROOT
BRANCH   6   9
HETATM    9  C8  UNL     1     -34.017   5.942   6.133  1.00 20.00     0.401 C 
HETATM   10  F10 UNL     1     -35.041   6.051   6.988  1.00 20.00    -0.170 F 
HETATM   11  F11 UNL     1     -33.707   4.649   5.977  1.00 20.00    -0.170 F 
HETATM   12  F12 UNL     1     -32.958   6.595   6.624  1.00 20.00    -0.170 F 
ENDBRANCH   6   9
TORSDOF 1
ENDMDL
MODEL 2
REMARK VINA RESULT:      -4.3      8.466      9.695
REMARK  1 active torsions:
REMARK  status: ('A' for Active; 'I' for Inactive)
REMARK    1  A    between atoms: C6_6  and  C8_8 
ROOT
HETATM    1  C1  UNL     1     -41.122   5.790  -0.423  1.00 20.00     0.144 C 
HETATM    2  C2  UNL     1     -40.497   7.030   0.182  1.00 20.00     0.079 C 
HETATM    3  C3  UNL     1     -41.382   8.248  -0.032  1.00 20.00     0.007 C 
HETATM    4  C4  UNL     1     -42.804   8.005   0.461  1.00 20.00     0.002 C 
HETATM    5  C5  UNL     1     -43.417   6.788  -0.231  1.00 20.00     0.026 C 
HETATM    6  C6  UNL     1     -42.587   5.498  -0.066  1.00 20.00     0.114 C 
HETATM    7  C7  UNL     1     -43.153   4.424  -1.011  1.00 20.00     0.033 C 
HETATM    8  O9  UNL     1     -40.441   5.015  -1.096  1.00 20.00    -0.297 OA
ENDROOT
BRANCH   6   9
HETATM    9  C8  UNL     1     -42.646   4.967   1.373  1.00 20.00     0.401 C 
HETATM   10  F10 UNL     1     -43.417   3.874   1.416  1.00 20.00    -0.170 F 
HETATM   11  F11 UNL     1     -41.413   4.655   1.787  1.00 20.00    -0.170 F 
HETATM   12  F12 UNL     1     -43.160   5.904   2.177  1.00 20.00    -0.170 F 
ENDBRANCH   6   9
TORSDOF 1
ENDMDL
MODEL 3
REMARK VINA RESULT:      -4.1     13.360     14.258
REMARK  1 active torsions:
REMARK  status: ('A' for Active; 'I' for Inactive)
REMARK    1  A    between atoms: C6_6  and  C8_8 
ROOT
HETATM    1  C1  UNL     1     -35.274  16.847  -4.789  1.00 20.00     0.144 C 
HETATM    2  C2  UNL     1     -34.023  17.539  -4.289  1.00 20.00     0.079 C 
HETATM    3  C3  UNL     1     -33.231  16.633  -3.360  1.00 20.00     0.007 C 
HETATM    4  C4  UNL     1     -32.939  15.283  -4.004  1.00 20.00     0.002 C 
HETATM    5  C5  UNL     1     -34.235  14.591  -4.426  1.00 20.00     0.026 C 
HETATM    6  C6  UNL     1     -35.108  15.437  -5.375  1.00 20.00     0.114 C 
HETATM    7  C7  UNL     1     -36.483  14.761  -5.514  1.00 20.00     0.033 C 
HETATM    8  O9  UNL     1     -36.353  17.441  -4.798  1.00 20.00    -0.297 OA
ENDROOT
BRANCH   6   9
HETATM    9  C8  UNL     1     -34.477  15.556  -6.769  1.00 20.00     0.401 C 
HETATM   10  F10 UNL     1     -35.344  15.125  -7.693  1.00 20.00    -0.170 F 
HETATM   11  F11 UNL     1     -34.168  16.835  -7.014  1.00 20.00    -0.170 F 
HETATM   12  F12 UNL     1     -33.365  14.814  -6.825  1.00 20.00    -0.170 F 
ENDBRANCH   6   9
TORSDOF 1
ENDMDL
MODEL 4
REMARK VINA RESULT:      -4.0     13.384     14.278
REMARK  1 active torsions:
REMARK  status: ('A' for Active; 'I' for Inactive)
REMARK    1  A    between atoms: C6_6  and  C8_8 
ROOT
HETATM    1  C1  UNL     1     -34.840  16.774  -5.095  1.00 20.00     0.144 C 
HETATM    2  C2  UNL     1     -35.346  17.592  -6.265  1.00 20.00     0.079 C 
HETATM    3  C3  UNL     1     -34.475  17.388  -7.494  1.00 20.00     0.007 C 
HETATM    4  C4  UNL     1     -34.318  15.910  -7.834  1.00 20.00     0.002 C 
HETATM    5  C5  UNL     1     -33.737  15.140  -6.649  1.00 20.00     0.026 C 
HETATM    6  C6  UNL     1     -34.557  15.286  -5.351  1.00 20.00     0.114 C 
HETATM    7  C7  UNL     1     -33.745  14.697  -4.185  1.00 20.00     0.033 C 
HETATM    8  O9  UNL     1     -34.749  17.278  -3.975  1.00 20.00    -0.297 OA
ENDROOT
BRANCH   6   9
HETATM    9  C8  UNL     1     -35.896  14.541  -5.443  1.00 20.00     0.401 C 
HETATM   10  F10 UNL     1     -36.045  14.033  -6.672  1.00 20.00    -0.170 F 
HETATM   11  F11 UNL     1     -35.918  13.547  -4.547  1.00 20.00    -0.170 F 
HETATM   12  F12 UNL     1     -36.901  15.387  -5.190  1.00 20.00    -0.170 F 
ENDBRANCH   6   9
TORSDOF 1
ENDMDL
MODEL 5
REMARK VINA RESULT:      -4.0     13.474     14.361
REMARK  1 active torsions:
REMARK  status: ('A' for Active; 'I' for Inactive)
REMARK    1  A    between atoms: C6_6  and  C8_8 
ROOT
HETATM    1  C1  UNL     1     -34.078  15.377  -5.991  1.00 20.00     0.144 C 
HETATM    2  C2  UNL     1     -33.741  14.730  -4.663  1.00 20.00     0.079 C 
HETATM    3  C3  UNL     1     -33.164  15.746  -3.690  1.00 20.00     0.007 C 
HETATM    4  C4  UNL     1     -34.072  16.961  -3.539  1.00 20.00     0.002 C 
HETATM    5  C5  UNL     1     -34.324  17.622  -4.894  1.00 20.00     0.026 C 
HETATM    6  C6  UNL     1     -34.913  16.665  -5.950  1.00 20.00     0.114 C 
HETATM    7  C7  UNL     1     -34.873  17.361  -7.322  1.00 20.00     0.033 C 
HETATM    8  O9  UNL     1     -33.761  14.830  -7.048  1.00 20.00    -0.297 OA
ENDROOT
BRANCH   6   9
HETATM    9  C8  UNL     1     -36.368  16.297  -5.630  1.00 20.00     0.401 C 
HETATM   10  F10 UNL     1     -36.847  17.129  -4.698  1.00 20.00    -0.170 F 
HETATM   11  F11 UNL     1     -37.112  16.398  -6.738  1.00 20.00    -0.170 F 
HETATM   12  F12 UNL     1     -36.424  15.041  -5.172  1.00 20.00    -0.170 F 
ENDBRANCH   6   9
TORSDOF 1
ENDMDL
MODEL 6
REMARK VINA RESULT:      -3.9     13.294     14.077
REMARK  1 active torsions:
REMARK  status: ('A' for Active; 'I' for Inactive)
REMARK    1  A    between atoms: C6_6  and  C8_8 
ROOT
HETATM    1  C1  UNL     1     -35.415  15.206  -6.993  1.00 20.00     0.144 C 
HETATM    2  C2  UNL     1     -34.335  15.999  -7.700  1.00 20.00     0.079 C 
HETATM    3  C3  UNL     1     -34.474  17.486  -7.415  1.00 20.00     0.007 C 
HETATM    4  C4  UNL     1     -34.530  17.771  -5.919  1.00 20.00     0.002 C 
HETATM    5  C5  UNL     1     -35.680  17.006  -5.264  1.00 20.00     0.026 C 
HETATM    6  C6  UNL     1     -35.622  15.483  -5.497  1.00 20.00     0.114 C 
HETATM    7  C7  UNL     1     -36.949  14.862  -5.027  1.00 20.00     0.033 C 
HETATM    8  O9  UNL     1     -36.028  14.320  -7.591  1.00 20.00    -0.297 OA
ENDROOT
BRANCH   6   9
HETATM    9  C8  UNL     1     -34.472  14.834  -4.714  1.00 20.00     0.401 C 
HETATM   10  F10 UNL     1     -34.034  15.682  -3.775  1.00 20.00    -0.170 F 
HETATM   11  F11 UNL     1     -34.905  13.711  -4.128  1.00 20.00    -0.170 F 
HETATM   12  F12 UNL     1     -33.469  14.540  -5.548  1.00 20.00    -0.170 F 
ENDBRANCH   6   9
TORSDOF 1
ENDMDL
MODEL 7
REMARK VINA RESULT:      -3.9     12.646     13.537
REMARK  1 active torsions:
REMARK  status: ('A' for Active; 'I' for Inactive)
REMARK    1  A    between atoms: C6_6  and  C8_8 
ROOT
HETATM    1  C1  UNL     1     -33.397  15.331  -4.378  1.00 20.00     0.144 C 
HETATM    2  C2  UNL     1     -33.739  15.975  -3.051  1.00 20.00     0.079 C 
HETATM    3  C3  UNL     1     -34.019  17.460  -3.220  1.00 20.00     0.007 C 
HETATM    4  C4  UNL     1     -35.076  17.716  -4.289  1.00 20.00     0.002 C 
HETATM    5  C5  UNL     1     -34.653  17.110  -5.626  1.00 20.00     0.026 C 
HETATM    6  C6  UNL     1     -34.348  15.600  -5.553  1.00 20.00     0.114 C 
HETATM    7  C7  UNL     1     -33.687  15.166  -6.874  1.00 20.00     0.033 C 
HETATM    8  O9  UNL     1     -32.442  14.557  -4.466  1.00 20.00    -0.297 OA
ENDROOT
BRANCH   6   9
HETATM    9  C8  UNL     1     -35.625  14.774  -5.350  1.00 20.00     0.401 C 
HETATM   10  F10 UNL     1     -36.643  15.589  -5.046  1.00 20.00    -0.170 F 
HETATM   11  F11 UNL     1     -35.913  14.108  -6.474  1.00 20.00    -0.170 F 
HETATM   12  F12 UNL     1     -35.444  13.902  -4.352  1.00 20.00    -0.170 F 
ENDBRANCH   6   9
TORSDOF 1
ENDMDL
MODEL 8
REMARK VINA RESULT:      -3.9      8.815     10.237
REMARK  1 active torsions:
REMARK  status: ('A' for Active; 'I' for Inactive)
REMARK    1  A    between atoms: C6_6  and  C8_8 
ROOT
HETATM    1  C1  UNL     1     -42.856   6.393   1.391  1.00 20.00     0.144 C 
HETATM    2  C2  UNL     1     -42.768   4.943   1.820  1.00 20.00     0.079 C 
HETATM    3  C3  UNL     1     -43.417   4.029   0.793  1.00 20.00     0.007 C 
HETATM    4  C4  UNL     1     -42.858   4.265  -0.605  1.00 20.00     0.002 C 
HETATM    5  C5  UNL     1     -43.035   5.724  -1.021  1.00 20.00     0.026 C 
HETATM    6  C6  UNL     1     -42.404   6.730  -0.037  1.00 20.00     0.114 C 
HETATM    7  C7  UNL     1     -42.869   8.147  -0.415  1.00 20.00     0.033 C 
HETATM    8  O9  UNL     1     -43.194   7.261   2.197  1.00 20.00    -0.297 OA
ENDROOT
BRANCH   6   9
HETATM    9  C8  UNL     1     -40.870   6.687  -0.090  1.00 20.00     0.401 C 
HETATM   10  F10 UNL     1     -40.415   7.732  -0.792  1.00 20.00    -0.170 F 
HETATM   11  F11 UNL     1     -40.377   6.740   1.152  1.00 20.00    -0.170 F 
HETATM   12  F12 UNL     1     -40.472   5.553  -0.677  1.00 20.00    -0.170 F 
ENDBRANCH   6   9
TORSDOF 1
ENDMDL
MODEL 9
REMARK VINA RESULT:      -3.7     10.011     11.247
REMARK  1 active torsions:
REMARK  status: ('A' for Active; 'I' for Inactive)
REMARK    1  A    between atoms: C6_6  and  C8_8 
ROOT
HETATM    1  C1  UNL     1     -41.699  14.916   7.007  1.00 20.00     0.144 C 
HETATM    2  C2  UNL     1     -41.632  14.402   8.430  1.00 20.00     0.079 C 
HETATM    3  C3  UNL     1     -42.871  13.592   8.777  1.00 20.00     0.007 C 
HETATM    4  C4  UNL     1     -43.122  12.483   7.762  1.00 20.00     0.002 C 
HETATM    5  C5  UNL     1     -43.255  13.057   6.353  1.00 20.00     0.026 C 
HETATM    6  C6  UNL     1     -42.040  13.897   5.909  1.00 20.00     0.114 C 
HETATM    7  C7  UNL     1     -42.397  14.630   4.604  1.00 20.00     0.033 C 
HETATM    8  O9  UNL     1     -41.404  16.084   6.752  1.00 20.00    -0.297 OA
ENDROOT
BRANCH   6   9
HETATM    9  C8  UNL     1     -40.807  13.018   5.656  1.00 20.00     0.401 C 
HETATM   10  F10 UNL     1     -40.575  12.939   4.340  1.00 20.00    -0.170 F 
HETATM   11  F11 UNL     1     -39.742  13.554   6.262  1.00 20.00    -0.170 F 
HETATM   12  F12 UNL     1     -41.023  11.790   6.141  1.00 20.00    -0.170 F 
ENDBRANCH   6   9
TORSDOF 1
ENDMDL
