MODEL 1
REMARK VINA RESULT:      -4.0      0.000      0.000
REMARK  1 active torsions:
REMARK  status: ('A' for Active; 'I' for Inactive)
REMARK    1  A    between atoms: C3_3  and  C8_8 
ROOT
HETATM    1  C1  UNL     1     -33.086  18.710   0.649  1.00 20.00     0.302 C 
HETATM    2  C2  UNL     1     -32.618  19.262  -1.874  1.00 20.00     0.209 C 
HETATM    3  C3  UNL     1     -31.643  18.510   0.186  1.00 20.00     0.149 C 
HETATM    4  C4  UNL     1     -33.718  18.206  -1.663  1.00 20.00     0.171 C 
HETATM    5  C5  UNL     1     -33.291  16.861  -2.280  1.00 20.00     0.051 C 
HETATM    6  C6  UNL     1     -35.012  18.675  -2.345  1.00 20.00     0.051 C 
HETATM    7  N9  UNL     1     -34.022  18.013  -0.232  1.00 20.00     0.097 N 
HETATM    8  O10 UNL     1     -31.423  18.946  -1.160  1.00 20.00    -0.382 OA
HETATM    9  H27 UNL     1     -33.982  17.016  -0.019  1.00 20.00     0.317 HD
ENDROOT
BRANCH   3  10
HETATM   10  C8  UNL     1     -30.667  19.262   1.080  1.00 20.00     0.029 C 
HETATM   11  C7  UNL     1     -30.366  18.507   2.336  1.00 20.00     0.007 C 
ENDBRANCH   3  10
TORSDOF 1
ENDMDL
MODEL 2
REMARK VINA RESULT:      -3.9      4.199      5.638
REMARK  1 active torsions:
REMARK  status: ('A' for Active; 'I' for Inactive)
REMARK    1  A    between atoms: C3_3  and  C8_8 
ROOT
HETATM    1  C1  UNL     1     -33.474  14.956  -4.538  1.00 20.00     0.302 C 
HETATM    2  C2  UNL     1     -35.598  16.329  -5.241  1.00 20.00     0.209 C 
HETATM    3  C3  UNL     1     -33.533  16.394  -4.019  1.00 20.00     0.149 C 
HETATM    4  C4  UNL     1     -34.800  15.766  -6.432  1.00 20.00     0.171 C 
HETATM    5  C5  UNL     1     -34.249  16.916  -7.295  1.00 20.00     0.051 C 
HETATM    6  C6  UNL     1     -35.723  14.896  -7.297  1.00 20.00     0.051 C 
HETATM    7  N9  UNL     1     -33.683  14.911  -5.985  1.00 20.00     0.097 N 
HETATM    8  O10 UNL     1     -34.769  17.048  -4.328  1.00 20.00    -0.382 OA
HETATM    9  H27 UNL     1     -32.827  15.223  -6.444  1.00 20.00     0.317 HD
ENDROOT
BRANCH   3  10
HETATM   10  C8  UNL     1     -33.349  16.443  -2.509  1.00 20.00     0.029 C 
HETATM   11  C7  UNL     1     -33.896  17.706  -1.922  1.00 20.00     0.007 C 
ENDBRANCH   3  10
TORSDOF 1
ENDMDL
MODEL 3
REMARK VINA RESULT:      -3.7     11.392     12.373
REMARK  1 active torsions:
REMARK  status: ('A' for Active; 'I' for Inactive)
REMARK    1  A    between atoms: C3_3  and  C8_8 
ROOT
HETATM    1  C1  UNL     1     -41.464  13.633   5.515  1.00 20.00     0.302 C 
HETATM    2  C2  UNL     1     -41.433  13.949   8.122  1.00 20.00     0.209 C 
HETATM    3  C3  UNL     1     -40.165  13.229   6.215  1.00 20.00     0.149 C 
HETATM    4  C4  UNL     1     -41.746  15.241   7.343  1.00 20.00     0.171 C 
HETATM    5  C5  UNL     1     -40.649  16.293   7.591  1.00 20.00     0.051 C 
HETATM    6  C6  UNL     1     -43.093  15.807   7.817  1.00 20.00     0.051 C 
HETATM    7  N9  UNL     1     -41.863  14.989   5.893  1.00 20.00     0.097 N 
HETATM    8  O10 UNL     1     -40.253  13.304   7.642  1.00 20.00    -0.382 OA
HETATM    9  H27 UNL     1     -41.266  15.650   5.396  1.00 20.00     0.317 HD
ENDROOT
BRANCH   3  10
HETATM   10  C8  UNL     1     -39.763  11.806   5.851  1.00 20.00     0.029 C 
HETATM   11  C7  UNL     1     -39.215  11.719   4.462  1.00 20.00     0.007 C 
ENDBRANCH   3  10
TORSDOF 1
ENDMDL
MODEL 4
REMARK VINA RESULT:      -3.7      3.857      5.209
REMARK  1 active torsions:
REMARK  status: ('A' for Active; 'I' for Inactive)
REMARK    1  A    between atoms: C3_3  and  C8_8 
ROOT
HETATM    1  C1  UNL     1     -34.789  17.106  -4.232  1.00 20.00     0.302 C 
HETATM    2  C2  UNL     1     -33.749  14.983  -5.374  1.00 20.00     0.209 C 
HETATM    3  C3  UNL     1     -33.991  16.183  -3.310  1.00 20.00     0.149 C 
HETATM    4  C4  UNL     1     -35.276  15.093  -5.542  1.00 20.00     0.171 C 
HETATM    5  C5  UNL     1     -35.975  13.905  -4.855  1.00 20.00     0.051 C 
HETATM    6  C6  UNL     1     -35.626  15.079  -7.037  1.00 20.00     0.051 C 
HETATM    7  N9  UNL     1     -35.796  16.356  -4.982  1.00 20.00     0.097 N 
HETATM    8  O10 UNL     1     -33.345  15.115  -4.011  1.00 20.00    -0.382 OA
HETATM    9  H27 UNL     1     -36.571  16.142  -4.353  1.00 20.00     0.317 HD
ENDROOT
BRANCH   3  10
HETATM   10  C8  UNL     1     -32.918  16.954  -2.553  1.00 20.00     0.029 C 
HETATM   11  C7  UNL     1     -33.442  17.528  -1.275  1.00 20.00     0.007 C 
ENDBRANCH   3  10
TORSDOF 1
ENDMDL
MODEL 5
REMARK VINA RESULT:      -3.6      2.738      5.220
REMARK  1 active torsions:
REMARK  status: ('A' for Active; 'I' for Inactive)
REMARK    1  A    between atoms: C3_3  and  C8_8 
ROOT
HETATM    1  C1  UNL     1     -33.652  16.009  -3.660  1.00 20.00     0.302 C 
HETATM    2  C2  UNL     1     -33.084  18.569  -3.526  1.00 20.00     0.209 C 
HETATM    3  C3  UNL     1     -34.517  16.923  -4.527  1.00 20.00     0.149 C 
HETATM    4  C4  UNL     1     -33.418  17.935  -2.163  1.00 20.00     0.171 C 
HETATM    5  C5  UNL     1     -34.684  18.580  -1.570  1.00 20.00     0.051 C 
HETATM    6  C6  UNL     1     -32.246  18.161  -1.196  1.00 20.00     0.051 C 
HETATM    7  N9  UNL     1     -33.618  16.476  -2.274  1.00 20.00     0.097 N 
HETATM    8  O10 UNL     1     -34.080  18.287  -4.510  1.00 20.00    -0.382 OA
HETATM    9  H27 UNL     1     -34.505  16.232  -1.831  1.00 20.00     0.317 HD
ENDROOT
BRANCH   3  10
HETATM   10  C8  UNL     1     -34.527  16.460  -5.978  1.00 20.00     0.029 C 
HETATM   11  C7  UNL     1     -34.035  15.055  -6.117  1.00 20.00     0.007 C 
ENDBRANCH   3  10
TORSDOF 1
ENDMDL
MODEL 6
REMARK VINA RESULT:      -3.5     13.571     14.515
REMARK  1 active torsions:
REMARK  status: ('A' for Active; 'I' for Inactive)
REMARK    1  A    between atoms: C3_3  and  C8_8 
ROOT
HETATM    1  C1  UNL     1     -23.629  16.384  10.212  1.00 20.00     0.302 C 
HETATM    2  C2  UNL     1     -23.813  18.967   9.774  1.00 20.00     0.209 C 
HETATM    3  C3  UNL     1     -23.828  17.253  11.455  1.00 20.00     0.149 C 
HETATM    4  C4  UNL     1     -22.515  18.336   9.236  1.00 20.00     0.171 C 
HETATM    5  C5  UNL     1     -21.293  18.938   9.954  1.00 20.00     0.051 C 
HETATM    6  C6  UNL     1     -22.397  18.622   7.732  1.00 20.00     0.051 C 
HETATM    7  N9  UNL     1     -22.510  16.870   9.406  1.00 20.00     0.097 N 
HETATM    8  O10 UNL     1     -24.048  18.633  11.142  1.00 20.00    -0.382 OA
HETATM    9  H27 UNL     1     -21.640  16.596   9.865  1.00 20.00     0.317 HD
ENDROOT
BRANCH   3  10
HETATM   10  C8  UNL     1     -25.014  16.772  12.280  1.00 20.00     0.029 C 
HETATM   11  C7  UNL     1     -26.107  17.792  12.331  1.00 20.00     0.007 C 
ENDBRANCH   3  10
TORSDOF 1
ENDMDL
MODEL 7
REMARK VINA RESULT:      -3.4     11.460     12.235
REMARK  1 active torsions:
REMARK  status: ('A' for Active; 'I' for Inactive)
REMARK    1  A    between atoms: C3_3  and  C8_8 
ROOT
HETATM    1  C1  UNL     1     -40.014  13.559   7.109  1.00 20.00     0.302 C 
HETATM    2  C2  UNL     1     -41.750  14.018   5.193  1.00 20.00     0.209 C 
HETATM    3  C3  UNL     1     -40.140  12.459   6.054  1.00 20.00     0.149 C 
HETATM    4  C4  UNL     1     -42.357  14.070   6.607  1.00 20.00     0.171 C 
HETATM    5  C5  UNL     1     -43.417  12.965   6.773  1.00 20.00     0.051 C 
HETATM    6  C6  UNL     1     -43.026  15.436   6.823  1.00 20.00     0.051 C 
HETATM    7  N9  UNL     1     -41.325  13.919   7.651  1.00 20.00     0.097 N 
HETATM    8  O10 UNL     1     -41.004  12.821   4.971  1.00 20.00    -0.382 OA
HETATM    9  H27 UNL     1     -41.617  13.186   8.298  1.00 20.00     0.317 HD
ENDROOT
BRANCH   3  10
HETATM   10  C8  UNL     1     -38.782  12.105   5.462  1.00 20.00     0.029 C 
HETATM   11  C7  UNL     1     -38.895  11.656   4.040  1.00 20.00     0.007 C 
ENDBRANCH   3  10
TORSDOF 1
ENDMDL
MODEL 8
REMARK VINA RESULT:      -3.4     11.676     12.590
REMARK  1 active torsions:
REMARK  status: ('A' for Active; 'I' for Inactive)
REMARK    1  A    between atoms: C3_3  and  C8_8 
ROOT
HETATM    1  C1  UNL     1     -41.972  12.397   6.623  1.00 20.00     0.302 C 
HETATM    2  C2  UNL     1     -40.771  14.523   7.587  1.00 20.00     0.209 C 
HETATM    3  C3  UNL     1     -40.720  12.847   5.869  1.00 20.00     0.149 C 
HETATM    4  C4  UNL     1     -42.249  14.755   7.226  1.00 20.00     0.171 C 
HETATM    5  C5  UNL     1     -42.366  15.806   6.106  1.00 20.00     0.051 C 
HETATM    6  C6  UNL     1     -43.002  15.265   8.464  1.00 20.00     0.051 C 
HETATM    7  N9  UNL     1     -42.909  13.507   6.796  1.00 20.00     0.097 N 
HETATM    8  O10 UNL     1     -40.040  13.931   6.514  1.00 20.00    -0.382 OA
HETATM    9  H27 UNL     1     -43.377  13.673   5.904  1.00 20.00     0.317 HD
ENDROOT
BRANCH   3  10
HETATM   10  C8  UNL     1     -39.726  11.704   5.717  1.00 20.00     0.029 C 
HETATM   11  C7  UNL     1     -39.134  11.660   4.344  1.00 20.00     0.007 C 
ENDBRANCH   3  10
TORSDOF 1
ENDMDL
MODEL 9
REMARK VINA RESULT:      -3.3      2.416      3.318
REMARK  1 active torsions:
REMARK  status: ('A' for Active; 'I' for Inactive)
REMARK    1  A    between atoms: C3_3  and  C8_8 
ROOT
HETATM    1  C1  UNL     1     -33.179  16.753  -2.738  1.00 20.00     0.302 C 
HETATM    2  C2  UNL     1     -35.176  18.386  -3.229  1.00 20.00     0.209 C 
HETATM    3  C3  UNL     1     -33.034  18.164  -2.167  1.00 20.00     0.149 C 
HETATM    4  C4  UNL     1     -34.536  17.788  -4.496  1.00 20.00     0.171 C 
HETATM    5  C5  UNL     1     -33.918  18.904  -5.359  1.00 20.00     0.051 C 
HETATM    6  C6  UNL     1     -35.613  17.065  -5.318  1.00 20.00     0.051 C 
HETATM    7  N9  UNL     1     -33.496  16.793  -4.165  1.00 20.00     0.097 N 
HETATM    8  O10 UNL     1     -34.206  18.966  -2.358  1.00 20.00    -0.382 OA
HETATM    9  H27 UNL     1     -32.645  17.026  -4.677  1.00 20.00     0.317 HD
ENDROOT
BRANCH   3  10
HETATM   10  C8  UNL     1     -32.738  18.127  -0.674  1.00 20.00     0.029 C 
HETATM   11  C7  UNL     1     -31.332  18.542  -0.375  1.00 20.00     0.007 C 
ENDBRANCH   3  10
TORSDOF 1
ENDMDL
