MODEL 1
REMARK VINA RESULT:      -5.1      0.000      0.000
REMARK  3 active torsions:
REMARK  status: ('A' for Active; 'I' for Inactive)
REMARK    1  A    between atoms: C3_3  and  C6_6 
REMARK    2  A    between atoms: C3_3  and  C7_7 
REMARK    3  A    between atoms: C5_5  and  C7_7 
ROOT
HETATM    1  C1  UNL     1     -32.486   8.386   4.572  1.00 20.00     0.012 C 
HETATM    2  C2  UNL     1     -33.199   7.896   5.404  1.00 20.00    -0.117 C 
HETATM    3  C5  UNL     1     -34.070   7.297   6.426  1.00 20.00     0.100 C 
ENDROOT
BRANCH   3   4
HETATM    4  C7  UNL     1     -34.284   5.803   6.189  1.00 20.00     0.090 C 
BRANCH   4   5
HETATM    5  C3  UNL     1     -34.770   5.466   4.784  1.00 20.00     0.127 C 
HETATM    6  O8  UNL     1     -35.790   5.959   4.304  1.00 20.00    -0.298 OA
BRANCH   5   7
HETATM    7  C6  UNL     1     -33.896   4.496   4.007  1.00 20.00     0.074 C 
HETATM    8  C4  UNL     1     -33.172   5.159   2.848  1.00 20.00     0.013 C 
ENDBRANCH   5   7
ENDBRANCH   4   5
ENDBRANCH   3   4
TORSDOF 3
ENDMDL
MODEL 2
REMARK VINA RESULT:      -4.9      0.783      2.714
REMARK  3 active torsions:
REMARK  status: ('A' for Active; 'I' for Inactive)
REMARK    1  A    between atoms: C3_3  and  C6_6 
REMARK    2  A    between atoms: C3_3  and  C7_7 
REMARK    3  A    between atoms: C5_5  and  C7_7 
ROOT
HETATM    1  C1  UNL     1     -32.165   7.608   3.345  1.00 20.00     0.012 C 
HETATM    2  C2  UNL     1     -32.641   6.533   3.104  1.00 20.00    -0.117 C 
HETATM    3  C5  UNL     1     -33.225   5.217   2.805  1.00 20.00     0.100 C 
ENDROOT
BRANCH   3   4
HETATM    4  C7  UNL     1     -33.821   4.562   4.049  1.00 20.00     0.090 C 
BRANCH   4   5
HETATM    5  C3  UNL     1     -34.837   5.434   4.778  1.00 20.00     0.127 C 
HETATM    6  O8  UNL     1     -35.841   5.878   4.223  1.00 20.00    -0.298 OA
BRANCH   5   7
HETATM    7  C6  UNL     1     -34.539   5.696   6.244  1.00 20.00     0.074 C 
HETATM    8  C4  UNL     1     -34.047   7.110   6.499  1.00 20.00     0.013 C 
ENDBRANCH   5   7
ENDBRANCH   4   5
ENDBRANCH   3   4
TORSDOF 3
ENDMDL
MODEL 3
REMARK VINA RESULT:      -4.7      1.469      3.249
REMARK  3 active torsions:
REMARK  status: ('A' for Active; 'I' for Inactive)
REMARK    1  A    between atoms: C3_3  and  C6_6 
REMARK    2  A    between atoms: C3_3  and  C7_7 
REMARK    3  A    between atoms: C5_5  and  C7_7 
ROOT
HETATM    1  C1  UNL     1     -32.879   5.167   2.480  1.00 20.00     0.012 C 
HETATM    2  C2  UNL     1     -33.573   4.993   3.443  1.00 20.00    -0.117 C 
HETATM    3  C5  UNL     1     -34.425   4.775   4.622  1.00 20.00     0.100 C 
ENDROOT
BRANCH   3   4
HETATM    4  C7  UNL     1     -34.987   6.087   5.168  1.00 20.00     0.090 C 
BRANCH   4   5
HETATM    5  C3  UNL     1     -33.926   7.028   5.725  1.00 20.00     0.127 C 
HETATM    6  O8  UNL     1     -33.297   6.777   6.752  1.00 20.00    -0.298 OA
BRANCH   5   7
HETATM    7  C6  UNL     1     -33.678   8.287   4.911  1.00 20.00     0.074 C 
HETATM    8  C4  UNL     1     -32.251   8.384   4.402  1.00 20.00     0.013 C 
ENDBRANCH   5   7
ENDBRANCH   4   5
ENDBRANCH   3   4
TORSDOF 3
ENDMDL
MODEL 4
REMARK VINA RESULT:      -4.6      1.630      2.516
REMARK  3 active torsions:
REMARK  status: ('A' for Active; 'I' for Inactive)
REMARK    1  A    between atoms: C3_3  and  C6_6 
REMARK    2  A    between atoms: C3_3  and  C7_7 
REMARK    3  A    between atoms: C5_5  and  C7_7 
ROOT
HETATM    1  C1  UNL     1     -32.087   7.162   2.504  1.00 20.00     0.012 C 
HETATM    2  C2  UNL     1     -32.238   7.805   3.506  1.00 20.00    -0.117 C 
HETATM    3  C5  UNL     1     -32.420   8.592   4.735  1.00 20.00     0.100 C 
ENDROOT
BRANCH   3   4
HETATM    4  C7  UNL     1     -33.786   8.345   5.373  1.00 20.00     0.090 C 
BRANCH   4   5
HETATM    5  C3  UNL     1     -33.999   6.909   5.834  1.00 20.00     0.127 C 
HETATM    6  O8  UNL     1     -33.431   6.442   6.820  1.00 20.00    -0.298 OA
BRANCH   5   7
HETATM    7  C6  UNL     1     -34.983   6.097   5.008  1.00 20.00     0.074 C 
HETATM    8  C4  UNL     1     -34.435   4.738   4.612  1.00 20.00     0.013 C 
ENDBRANCH   5   7
ENDBRANCH   4   5
ENDBRANCH   3   4
TORSDOF 3
ENDMDL
MODEL 5
REMARK VINA RESULT:      -4.5      2.114      3.269
REMARK  3 active torsions:
REMARK  status: ('A' for Active; 'I' for Inactive)
REMARK    1  A    between atoms: C3_3  and  C6_6 
REMARK    2  A    between atoms: C3_3  and  C7_7 
REMARK    3  A    between atoms: C5_5  and  C7_7 
ROOT
HETATM    1  C1  UNL     1     -34.697   4.887   6.319  1.00 20.00     0.012 C 
HETATM    2  C2  UNL     1     -34.374   6.042   6.259  1.00 20.00    -0.117 C 
HETATM    3  C5  UNL     1     -33.982   7.457   6.189  1.00 20.00     0.100 C 
ENDROOT
BRANCH   3   4
HETATM    4  C7  UNL     1     -33.962   7.972   4.751  1.00 20.00     0.090 C 
BRANCH   4   5
HETATM    5  C3  UNL     1     -32.563   8.260   4.218  1.00 20.00     0.127 C 
HETATM    6  O8  UNL     1     -31.796   9.045   4.774  1.00 20.00    -0.298 OA
BRANCH   5   7
HETATM    7  C6  UNL     1     -32.170   7.493   2.967  1.00 20.00     0.074 C 
HETATM    8  C4  UNL     1     -32.766   6.097   2.924  1.00 20.00     0.013 C 
ENDBRANCH   5   7
ENDBRANCH   4   5
ENDBRANCH   3   4
TORSDOF 3
ENDMDL
MODEL 6
REMARK VINA RESULT:      -4.5      1.904      3.065
REMARK  3 active torsions:
REMARK  status: ('A' for Active; 'I' for Inactive)
REMARK    1  A    between atoms: C3_3  and  C6_6 
REMARK    2  A    between atoms: C3_3  and  C7_7 
REMARK    3  A    between atoms: C5_5  and  C7_7 
ROOT
HETATM    1  C1  UNL     1     -34.476   5.511   6.367  1.00 20.00     0.012 C 
HETATM    2  C2  UNL     1     -34.223   6.626   6.003  1.00 20.00    -0.117 C 
HETATM    3  C5  UNL     1     -33.917   7.993   5.555  1.00 20.00     0.100 C 
ENDROOT
BRANCH   3   4
HETATM    4  C7  UNL     1     -32.520   8.093   4.946  1.00 20.00     0.090 C 
BRANCH   4   5
HETATM    5  C3  UNL     1     -32.511   8.104   3.422  1.00 20.00     0.127 C 
HETATM    6  O8  UNL     1     -32.851   9.089   2.769  1.00 20.00    -0.298 OA
BRANCH   5   7
HETATM    7  C6  UNL     1     -32.029   6.823   2.763  1.00 20.00     0.074 C 
HETATM    8  C4  UNL     1     -33.079   5.726   2.776  1.00 20.00     0.013 C 
ENDBRANCH   5   7
ENDBRANCH   4   5
ENDBRANCH   3   4
TORSDOF 3
ENDMDL
MODEL 7
REMARK VINA RESULT:      -4.4      1.280      3.361
REMARK  3 active torsions:
REMARK  status: ('A' for Active; 'I' for Inactive)
REMARK    1  A    between atoms: C3_3  and  C6_6 
REMARK    2  A    between atoms: C3_3  and  C7_7 
REMARK    3  A    between atoms: C5_5  and  C7_7 
ROOT
HETATM    1  C1  UNL     1     -32.957   5.124   2.641  1.00 20.00     0.012 C 
HETATM    2  C2  UNL     1     -32.605   6.259   2.814  1.00 20.00    -0.117 C 
HETATM    3  C5  UNL     1     -32.171   7.648   3.023  1.00 20.00     0.100 C 
ENDROOT
BRANCH   3   4
HETATM    4  C7  UNL     1     -32.261   8.058   4.492  1.00 20.00     0.090 C 
BRANCH   4   5
HETATM    5  C3  UNL     1     -33.638   7.843   5.109  1.00 20.00     0.127 C 
HETATM    6  O8  UNL     1     -34.656   8.348   4.638  1.00 20.00    -0.298 OA
BRANCH   5   7
HETATM    7  C6  UNL     1     -33.672   6.942   6.332  1.00 20.00     0.074 C 
HETATM    8  C4  UNL     1     -34.562   5.727   6.140  1.00 20.00     0.013 C 
ENDBRANCH   5   7
ENDBRANCH   4   5
ENDBRANCH   3   4
TORSDOF 3
ENDMDL
MODEL 8
REMARK VINA RESULT:      -4.3      1.277      2.966
REMARK  3 active torsions:
REMARK  status: ('A' for Active; 'I' for Inactive)
REMARK    1  A    between atoms: C3_3  and  C6_6 
REMARK    2  A    between atoms: C3_3  and  C7_7 
REMARK    3  A    between atoms: C5_5  and  C7_7 
ROOT
HETATM    1  C1  UNL     1     -34.184   4.435   4.265  1.00 20.00     0.012 C 
HETATM    2  C2  UNL     1     -34.343   5.153   5.213  1.00 20.00    -0.117 C 
HETATM    3  C5  UNL     1     -34.543   6.033   6.375  1.00 20.00     0.100 C 
ENDROOT
BRANCH   3   4
HETATM    4  C7  UNL     1     -33.568   7.209   6.372  1.00 20.00     0.090 C 
BRANCH   4   5
HETATM    5  C3  UNL     1     -33.549   7.991   5.064  1.00 20.00     0.127 C 
HETATM    6  O8  UNL     1     -34.563   8.496   4.584  1.00 20.00    -0.298 OA
BRANCH   5   7
HETATM    7  C6  UNL     1     -32.187   8.127   4.405  1.00 20.00     0.074 C 
HETATM    8  C4  UNL     1     -32.118   7.436   3.055  1.00 20.00     0.013 C 
ENDBRANCH   5   7
ENDBRANCH   4   5
ENDBRANCH   3   4
TORSDOF 3
ENDMDL
MODEL 9
REMARK VINA RESULT:      -4.2      2.138      3.500
REMARK  3 active torsions:
REMARK  status: ('A' for Active; 'I' for Inactive)
REMARK    1  A    between atoms: C3_3  and  C6_6 
REMARK    2  A    between atoms: C3_3  and  C7_7 
REMARK    3  A    between atoms: C5_5  and  C7_7 
ROOT
HETATM    1  C1  UNL     1     -34.421   5.562   6.265  1.00 20.00     0.012 C 
HETATM    2  C2  UNL     1     -34.170   6.672   5.883  1.00 20.00    -0.117 C 
HETATM    3  C5  UNL     1     -33.868   8.031   5.412  1.00 20.00     0.100 C 
ENDROOT
BRANCH   3   4
HETATM    4  C7  UNL     1     -32.483   8.118   4.773  1.00 20.00     0.090 C 
BRANCH   4   5
HETATM    5  C3  UNL     1     -32.471   7.797   3.283  1.00 20.00     0.127 C 
HETATM    6  O8  UNL     1     -32.354   6.649   2.857  1.00 20.00    -0.298 OA
BRANCH   5   7
HETATM    7  C6  UNL     1     -32.639   8.990   2.357  1.00 20.00     0.074 C 
HETATM    8  C4  UNL     1     -32.340   8.654   0.907  1.00 20.00     0.013 C 
ENDBRANCH   5   7
ENDBRANCH   4   5
ENDBRANCH   3   4
TORSDOF 3
ENDMDL
