MODEL 1
REMARK VINA RESULT:      -6.4      0.000      0.000
REMARK  0 active torsions:
REMARK  status: ('A' for Active; 'I' for Inactive)
ROOT
HETATM    1  C1  UNL     1     -34.618   5.618   6.415  1.00 20.00    -0.003 C 
HETATM    2  C2  UNL     1     -34.302   5.007   5.140  1.00 20.00     0.011 C 
HETATM    3  C3  UNL     1     -34.365   6.941   6.379  1.00 20.00    -0.017 C 
HETATM    4  C4  UNL     1     -33.896   5.989   4.334  1.00 20.00    -0.005 C 
HETATM    5  C5  UNL     1     -33.038   6.071   3.148  1.00 20.00     0.156 C 
HETATM    6  C6  UNL     1     -32.301   7.390   3.208  1.00 20.00     0.084 C 
HETATM    7  C7  UNL     1     -32.587   7.871   4.654  1.00 20.00     0.021 C 
HETATM    8  C8  UNL     1     -33.978   7.331   4.985  1.00 20.00     0.045 C 
HETATM    9  O9  UNL     1     -32.941   5.219   2.284  1.00 20.00    -0.293 OA
ENDROOT
TORSDOF 0
ENDMDL
MODEL 2
REMARK VINA RESULT:      -6.0      1.113      1.599
REMARK  0 active torsions:
REMARK  status: ('A' for Active; 'I' for Inactive)
ROOT
HETATM    1  C1  UNL     1     -34.469   4.649   4.814  1.00 20.00    -0.003 C 
HETATM    2  C2  UNL     1     -33.714   5.186   3.701  1.00 20.00     0.011 C 
HETATM    3  C3  UNL     1     -34.750   5.621   5.705  1.00 20.00    -0.017 C 
HETATM    4  C4  UNL     1     -33.584   6.495   3.922  1.00 20.00    -0.005 C 
HETATM    5  C5  UNL     1     -32.626   7.526   3.512  1.00 20.00     0.156 C 
HETATM    6  C6  UNL     1     -32.486   8.501   4.660  1.00 20.00     0.084 C 
HETATM    7  C7  UNL     1     -33.194   7.758   5.822  1.00 20.00     0.021 C 
HETATM    8  C8  UNL     1     -34.299   6.939   5.156  1.00 20.00     0.045 C 
HETATM    9  O9  UNL     1     -32.049   7.572   2.441  1.00 20.00    -0.293 OA
ENDROOT
TORSDOF 0
ENDMDL
MODEL 3
REMARK VINA RESULT:      -5.8      1.789      3.250
REMARK  0 active torsions:
REMARK  status: ('A' for Active; 'I' for Inactive)
ROOT
HETATM    1  C1  UNL     1     -32.963   5.211   2.787  1.00 20.00    -0.003 C 
HETATM    2  C2  UNL     1     -32.608   6.565   3.164  1.00 20.00     0.011 C 
HETATM    3  C3  UNL     1     -33.950   4.746   3.577  1.00 20.00    -0.017 C 
HETATM    4  C4  UNL     1     -33.423   6.911   4.161  1.00 20.00    -0.005 C 
HETATM    5  C5  UNL     1     -33.358   7.865   5.272  1.00 20.00     0.156 C 
HETATM    6  C6  UNL     1     -34.079   7.247   6.448  1.00 20.00     0.084 C 
HETATM    7  C7  UNL     1     -34.269   5.777   5.993  1.00 20.00     0.021 C 
HETATM    8  C8  UNL     1     -34.425   5.847   4.474  1.00 20.00     0.045 C 
HETATM    9  O9  UNL     1     -32.809   8.952   5.241  1.00 20.00    -0.293 OA
ENDROOT
TORSDOF 0
ENDMDL
MODEL 4
REMARK VINA RESULT:      -5.8      1.844      3.664
REMARK  0 active torsions:
REMARK  status: ('A' for Active; 'I' for Inactive)
ROOT
HETATM    1  C1  UNL     1     -32.265   6.993   2.928  1.00 20.00    -0.003 C 
HETATM    2  C2  UNL     1     -32.696   7.635   4.154  1.00 20.00     0.011 C 
HETATM    3  C3  UNL     1     -32.969   5.863   2.716  1.00 20.00    -0.017 C 
HETATM    4  C4  UNL     1     -33.690   6.895   4.645  1.00 20.00    -0.005 C 
HETATM    5  C5  UNL     1     -34.255   6.670   5.979  1.00 20.00     0.156 C 
HETATM    6  C6  UNL     1     -34.702   5.227   6.049  1.00 20.00     0.084 C 
HETATM    7  C7  UNL     1     -34.062   4.614   4.777  1.00 20.00     0.021 C 
HETATM    8  C8  UNL     1     -34.043   5.749   3.754  1.00 20.00     0.045 C 
HETATM    9  O9  UNL     1     -34.336   7.503   6.864  1.00 20.00    -0.293 OA
ENDROOT
TORSDOF 0
ENDMDL
MODEL 5
REMARK VINA RESULT:      -5.5      1.122      2.883
REMARK  0 active torsions:
REMARK  status: ('A' for Active; 'I' for Inactive)
ROOT
HETATM    1  C1  UNL     1     -32.546   8.272   3.530  1.00 20.00    -0.003 C 
HETATM    2  C2  UNL     1     -32.965   6.908   3.282  1.00 20.00     0.011 C 
HETATM    3  C3  UNL     1     -32.654   8.567   4.841  1.00 20.00    -0.017 C 
HETATM    4  C4  UNL     1     -33.284   6.383   4.466  1.00 20.00    -0.005 C 
HETATM    5  C5  UNL     1     -34.161   5.300   4.918  1.00 20.00     0.156 C 
HETATM    6  C6  UNL     1     -34.747   5.713   6.250  1.00 20.00     0.084 C 
HETATM    7  C7  UNL     1     -34.368   7.214   6.335  1.00 20.00     0.021 C 
HETATM    8  C8  UNL     1     -33.036   7.330   5.594  1.00 20.00     0.045 C 
HETATM    9  O9  UNL     1     -34.376   4.264   4.316  1.00 20.00    -0.293 OA
ENDROOT
TORSDOF 0
ENDMDL
MODEL 6
REMARK VINA RESULT:      -5.5      1.203      1.852
REMARK  0 active torsions:
REMARK  status: ('A' for Active; 'I' for Inactive)
ROOT
HETATM    1  C1  UNL     1     -33.797   7.923   6.366  1.00 20.00    -0.003 C 
HETATM    2  C2  UNL     1     -34.185   6.547   6.124  1.00 20.00     0.011 C 
HETATM    3  C3  UNL     1     -33.392   8.506   5.220  1.00 20.00    -0.017 C 
HETATM    4  C4  UNL     1     -34.044   6.334   4.815  1.00 20.00    -0.005 C 
HETATM    5  C5  UNL     1     -33.812   5.155   3.976  1.00 20.00     0.156 C 
HETATM    6  C6  UNL     1     -32.939   5.584   2.817  1.00 20.00     0.084 C 
HETATM    7  C7  UNL     1     -32.467   6.994   3.255  1.00 20.00     0.021 C 
HETATM    8  C8  UNL     1     -33.622   7.563   4.079  1.00 20.00     0.045 C 
HETATM    9  O9  UNL     1     -34.244   4.037   4.189  1.00 20.00    -0.293 OA
ENDROOT
TORSDOF 0
ENDMDL
MODEL 7
REMARK VINA RESULT:      -5.4      0.962      2.568
REMARK  0 active torsions:
REMARK  status: ('A' for Active; 'I' for Inactive)
ROOT
HETATM    1  C1  UNL     1     -32.723   8.942   4.515  1.00 20.00    -0.003 C 
HETATM    2  C2  UNL     1     -32.440   7.906   3.542  1.00 20.00     0.011 C 
HETATM    3  C3  UNL     1     -33.394   8.431   5.566  1.00 20.00    -0.017 C 
HETATM    4  C4  UNL     1     -32.914   6.767   4.047  1.00 20.00    -0.005 C 
HETATM    5  C5  UNL     1     -33.378   5.497   3.482  1.00 20.00     0.156 C 
HETATM    6  C6  UNL     1     -34.508   4.995   4.353  1.00 20.00     0.084 C 
HETATM    7  C7  UNL     1     -34.823   6.228   5.240  1.00 20.00     0.021 C 
HETATM    8  C8  UNL     1     -33.484   6.943   5.416  1.00 20.00     0.045 C 
HETATM    9  O9  UNL     1     -32.931   4.958   2.486  1.00 20.00    -0.293 OA
ENDROOT
TORSDOF 0
ENDMDL
MODEL 8
REMARK VINA RESULT:      -5.3      1.647      2.373
REMARK  0 active torsions:
REMARK  status: ('A' for Active; 'I' for Inactive)
ROOT
HETATM    1  C1  UNL     1     -35.018   5.740   5.987  1.00 20.00    -0.003 C 
HETATM    2  C2  UNL     1     -34.290   6.983   6.139  1.00 20.00     0.011 C 
HETATM    3  C3  UNL     1     -34.525   5.028   4.954  1.00 20.00    -0.017 C 
HETATM    4  C4  UNL     1     -33.332   6.982   5.210  1.00 20.00    -0.005 C 
HETATM    5  C5  UNL     1     -32.571   8.016   4.504  1.00 20.00     0.156 C 
HETATM    6  C6  UNL     1     -32.318   7.519   3.099  1.00 20.00     0.084 C 
HETATM    7  C7  UNL     1     -33.256   6.287   3.003  1.00 20.00     0.021 C 
HETATM    8  C8  UNL     1     -33.306   5.715   4.420  1.00 20.00     0.045 C 
HETATM    9  O9  UNL     1     -32.219   9.083   4.975  1.00 20.00    -0.293 OA
ENDROOT
TORSDOF 0
ENDMDL
MODEL 9
REMARK VINA RESULT:      -4.7      1.943      3.033
REMARK  0 active torsions:
REMARK  status: ('A' for Active; 'I' for Inactive)
ROOT
HETATM    1  C1  UNL     1     -33.274   5.282   2.648  1.00 20.00    -0.003 C 
HETATM    2  C2  UNL     1     -33.872   5.315   3.968  1.00 20.00     0.011 C 
HETATM    3  C3  UNL     1     -32.473   6.351   2.467  1.00 20.00    -0.017 C 
HETATM    4  C4  UNL     1     -33.385   6.394   4.582  1.00 20.00    -0.005 C 
HETATM    5  C5  UNL     1     -33.846   7.267   5.665  1.00 20.00     0.156 C 
HETATM    6  C6  UNL     1     -33.381   8.671   5.350  1.00 20.00     0.084 C 
HETATM    7  C7  UNL     1     -32.908   8.547   3.879  1.00 20.00     0.021 C 
HETATM    8  C8  UNL     1     -32.379   7.119   3.750  1.00 20.00     0.045 C 
HETATM    9  O9  UNL     1     -34.493   6.913   6.634  1.00 20.00    -0.293 OA
ENDROOT
TORSDOF 0
ENDMDL
