MODEL 1
REMARK VINA RESULT:      -3.4      0.000      0.000
REMARK  5 active torsions:
REMARK  status: ('A' for Active; 'I' for Inactive)
REMARK    1  A    between atoms: C5_5  and  C9_9 
REMARK    2  A    between atoms: C6_6  and  C9_9 
REMARK    3  A    between atoms: C7_7  and  N11_11 
REMARK    4  A    between atoms: C8_8  and  N11_11 
REMARK    5  A    between atoms: C9_9  and  N11_11 
ROOT
HETATM    1  C1  UNL     1     -31.931  18.270  -1.050  1.00 20.00     0.061 C 
HETATM    2  C5  UNL     1     -33.048  17.515  -1.640  1.00 20.00     0.159 C 
HETATM    3  N10 UNL     1     -31.051  18.864  -0.582  1.00 20.00    -0.197 NA
ENDROOT
BRANCH   2   4
HETATM    4  C9  UNL     1     -33.433  18.043  -3.034  1.00 20.00     0.235 C 
BRANCH   4   5
HETATM    5  C6  UNL     1     -34.372  19.263  -2.942  1.00 20.00     0.032 C 
HETATM    6  C2  UNL     1     -35.563  19.052  -2.014  1.00 20.00     0.007 C 
ENDBRANCH   4   5
BRANCH   4   7
HETATM    7  N11 UNL     1     -34.080  16.955  -3.774  1.00 20.00     0.093 N 
BRANCH   7   8
HETATM    8  C7  UNL     1     -33.230  15.767  -3.776  1.00 20.00     0.268 C 
HETATM    9  C3  UNL     1     -34.017  14.543  -4.101  1.00 20.00     0.037 C 
ENDBRANCH   7   8
BRANCH   7  10
HETATM   10  C8  UNL     1     -34.375  17.378  -5.142  1.00 20.00     0.268 C 
HETATM   11  C4  UNL     1     -35.829  17.247  -5.443  1.00 20.00     0.037 C 
ENDBRANCH   7  10
ENDBRANCH   4   7
ENDBRANCH   2   4
TORSDOF 5
ENDMDL
MODEL 2
REMARK VINA RESULT:      -3.4     11.971     13.185
REMARK  5 active torsions:
REMARK  status: ('A' for Active; 'I' for Inactive)
REMARK    1  A    between atoms: C5_5  and  C9_9 
REMARK    2  A    between atoms: C6_6  and  C9_9 
REMARK    3  A    between atoms: C7_7  and  N11_11 
REMARK    4  A    between atoms: C8_8  and  N11_11 
REMARK    5  A    between atoms: C9_9  and  N11_11 
ROOT
HETATM    1  C1  UNL     1     -39.384  11.981   4.951  1.00 20.00     0.061 C 
HETATM    2  C5  UNL     1     -39.961  12.466   6.215  1.00 20.00     0.159 C 
HETATM    3  N10 UNL     1     -38.926  11.598   3.956  1.00 20.00    -0.197 NA
ENDROOT
BRANCH   2   4
HETATM    4  C9  UNL     1     -41.396  12.993   6.033  1.00 20.00     0.235 C 
BRANCH   4   5
HETATM    5  C6  UNL     1     -41.539  13.824   4.742  1.00 20.00     0.032 C 
HETATM    6  C2  UNL     1     -42.772  14.721   4.724  1.00 20.00     0.007 C 
ENDBRANCH   4   5
BRANCH   4   7
HETATM    7  N11 UNL     1     -41.739  13.805   7.205  1.00 20.00     0.093 N 
BRANCH   7   8
HETATM    8  C7  UNL     1     -40.531  14.171   7.939  1.00 20.00     0.268 C 
HETATM    9  C3  UNL     1     -40.445  15.648   8.132  1.00 20.00     0.037 C 
ENDBRANCH   7   8
BRANCH   7  10
HETATM   10  C8  UNL     1     -42.667  13.080   8.070  1.00 20.00     0.268 C 
HETATM   11  C4  UNL     1     -43.368  11.999   7.321  1.00 20.00     0.037 C 
ENDBRANCH   7  10
ENDBRANCH   4   7
ENDBRANCH   2   4
TORSDOF 5
ENDMDL
MODEL 3
REMARK VINA RESULT:      -3.4      2.498      5.166
REMARK  5 active torsions:
REMARK  status: ('A' for Active; 'I' for Inactive)
REMARK    1  A    between atoms: C5_5  and  C9_9 
REMARK    2  A    between atoms: C6_6  and  C9_9 
REMARK    3  A    between atoms: C7_7  and  N11_11 
REMARK    4  A    between atoms: C8_8  and  N11_11 
REMARK    5  A    between atoms: C9_9  and  N11_11 
ROOT
HETATM    1  C1  UNL     1     -36.105  14.033  -4.920  1.00 20.00     0.061 C 
HETATM    2  C5  UNL     1     -36.465  15.278  -5.617  1.00 20.00     0.159 C 
HETATM    3  N10 UNL     1     -35.824  13.050  -4.371  1.00 20.00    -0.197 NA
ENDROOT
BRANCH   2   4
HETATM    4  C9  UNL     1     -35.250  16.201  -5.820  1.00 20.00     0.235 C 
BRANCH   4   5
HETATM    5  C6  UNL     1     -34.032  15.429  -6.366  1.00 20.00     0.032 C 
HETATM    6  C2  UNL     1     -33.826  15.590  -7.868  1.00 20.00     0.007 C 
ENDBRANCH   4   5
BRANCH   4   7
HETATM    7  N11 UNL     1     -34.926  16.823  -4.533  1.00 20.00     0.093 N 
BRANCH   7   8
HETATM    8  C7  UNL     1     -35.136  18.267  -4.600  1.00 20.00     0.268 C 
HETATM    9  C3  UNL     1     -34.136  18.915  -5.498  1.00 20.00     0.037 C 
ENDBRANCH   7   8
BRANCH   7  10
HETATM   10  C8  UNL     1     -33.546  16.521  -4.157  1.00 20.00     0.268 C 
HETATM   11  C4  UNL     1     -33.382  16.507  -2.676  1.00 20.00     0.037 C 
ENDBRANCH   7  10
ENDBRANCH   4   7
ENDBRANCH   2   4
TORSDOF 5
ENDMDL
MODEL 4
REMARK VINA RESULT:      -3.3      0.633      1.942
REMARK  5 active torsions:
REMARK  status: ('A' for Active; 'I' for Inactive)
REMARK    1  A    between atoms: C5_5  and  C9_9 
REMARK    2  A    between atoms: C6_6  and  C9_9 
REMARK    3  A    between atoms: C7_7  and  N11_11 
REMARK    4  A    between atoms: C8_8  and  N11_11 
REMARK    5  A    between atoms: C9_9  and  N11_11 
ROOT
HETATM    1  C1  UNL     1     -31.977  18.323  -1.066  1.00 20.00     0.061 C 
HETATM    2  C5  UNL     1     -33.161  17.600  -1.555  1.00 20.00     0.159 C 
HETATM    3  N10 UNL     1     -31.043  18.891  -0.677  1.00 20.00    -0.197 NA
ENDROOT
BRANCH   2   4
HETATM    4  C9  UNL     1     -33.703  18.194  -2.868  1.00 20.00     0.235 C 
BRANCH   4   5
HETATM    5  C6  UNL     1     -35.186  18.597  -2.743  1.00 20.00     0.032 C 
HETATM    6  C2  UNL     1     -35.531  19.263  -1.415  1.00 20.00     0.007 C 
ENDBRANCH   4   5
BRANCH   4   7
HETATM    7  N11 UNL     1     -33.532  17.196  -3.928  1.00 20.00     0.093 N 
BRANCH   7   8
HETATM    8  C7  UNL     1     -34.691  17.198  -4.817  1.00 20.00     0.268 C 
HETATM    9  C3  UNL     1     -34.424  17.996  -6.049  1.00 20.00     0.037 C 
ENDBRANCH   7   8
BRANCH   7  10
HETATM   10  C8  UNL     1     -33.330  15.870  -3.348  1.00 20.00     0.268 C 
HETATM   11  C4  UNL     1     -33.745  14.799  -4.298  1.00 20.00     0.037 C 
ENDBRANCH   7  10
ENDBRANCH   4   7
ENDBRANCH   2   4
TORSDOF 5
ENDMDL
MODEL 5
REMARK VINA RESULT:      -3.3     11.865     13.009
REMARK  5 active torsions:
REMARK  status: ('A' for Active; 'I' for Inactive)
REMARK    1  A    between atoms: C5_5  and  C9_9 
REMARK    2  A    between atoms: C6_6  and  C9_9 
REMARK    3  A    between atoms: C7_7  and  N11_11 
REMARK    4  A    between atoms: C8_8  and  N11_11 
REMARK    5  A    between atoms: C9_9  and  N11_11 
ROOT
HETATM    1  C1  UNL     1     -39.428  12.113   5.106  1.00 20.00     0.061 C 
HETATM    2  C5  UNL     1     -39.694  12.415   6.521  1.00 20.00     0.159 C 
HETATM    3  N10 UNL     1     -39.217  11.872   3.990  1.00 20.00    -0.197 NA
ENDROOT
BRANCH   2   4
HETATM    4  C9  UNL     1     -40.484  13.725   6.696  1.00 20.00     0.235 C 
BRANCH   4   5
HETATM    5  C6  UNL     1     -40.479  14.203   8.161  1.00 20.00     0.032 C 
HETATM    6  C2  UNL     1     -40.247  15.702   8.317  1.00 20.00     0.007 C 
ENDBRANCH   4   5
BRANCH   4   7
HETATM    7  N11 UNL     1     -41.859  13.497   6.238  1.00 20.00     0.093 N 
BRANCH   7   8
HETATM    8  C7  UNL     1     -42.348  14.659   5.502  1.00 20.00     0.268 C 
HETATM    9  C3  UNL     1     -42.236  14.450   4.029  1.00 20.00     0.037 C 
ENDBRANCH   7   8
BRANCH   7  10
HETATM   10  C8  UNL     1     -42.729  13.204   7.375  1.00 20.00     0.268 C 
HETATM   11  C4  UNL     1     -43.340  11.850   7.249  1.00 20.00     0.037 C 
ENDBRANCH   7  10
ENDBRANCH   4   7
ENDBRANCH   2   4
TORSDOF 5
ENDMDL
MODEL 6
REMARK VINA RESULT:      -3.3     11.988     13.213
REMARK  5 active torsions:
REMARK  status: ('A' for Active; 'I' for Inactive)
REMARK    1  A    between atoms: C5_5  and  C9_9 
REMARK    2  A    between atoms: C6_6  and  C9_9 
REMARK    3  A    between atoms: C7_7  and  N11_11 
REMARK    4  A    between atoms: C8_8  and  N11_11 
REMARK    5  A    between atoms: C9_9  and  N11_11 
ROOT
HETATM    1  C1  UNL     1     -39.520  11.877   4.567  1.00 20.00     0.061 C 
HETATM    2  C5  UNL     1     -39.982  11.926   5.963  1.00 20.00     0.159 C 
HETATM    3  N10 UNL     1     -39.153  11.836   3.467  1.00 20.00    -0.197 NA
ENDROOT
BRANCH   2   4
HETATM    4  C9  UNL     1     -41.248  12.788   6.124  1.00 20.00     0.235 C 
BRANCH   4   5
HETATM    5  C6  UNL     1     -41.305  13.920   5.080  1.00 20.00     0.032 C 
HETATM    6  C2  UNL     1     -42.700  14.165   4.516  1.00 20.00     0.007 C 
ENDBRANCH   4   5
BRANCH   4   7
HETATM    7  N11 UNL     1     -41.254  13.344   7.481  1.00 20.00     0.093 N 
BRANCH   7   8
HETATM    8  C7  UNL     1     -42.619  13.402   7.999  1.00 20.00     0.268 C 
HETATM    9  C3  UNL     1     -43.372  12.156   7.672  1.00 20.00     0.037 C 
ENDBRANCH   7   8
BRANCH   7  10
HETATM   10  C8  UNL     1     -40.645  14.672   7.488  1.00 20.00     0.268 C 
HETATM   11  C4  UNL     1     -40.266  15.083   8.869  1.00 20.00     0.037 C 
ENDBRANCH   7  10
ENDBRANCH   4   7
ENDBRANCH   2   4
TORSDOF 5
ENDMDL
MODEL 7
REMARK VINA RESULT:      -3.3     12.145     13.634
REMARK  5 active torsions:
REMARK  status: ('A' for Active; 'I' for Inactive)
REMARK    1  A    between atoms: C5_5  and  C9_9 
REMARK    2  A    between atoms: C6_6  and  C9_9 
REMARK    3  A    between atoms: C7_7  and  N11_11 
REMARK    4  A    between atoms: C8_8  and  N11_11 
REMARK    5  A    between atoms: C9_9  and  N11_11 
ROOT
HETATM    1  C1  UNL     1     -42.194  14.338   4.270  1.00 20.00     0.061 C 
HETATM    2  C5  UNL     1     -42.417  13.989   5.682  1.00 20.00     0.159 C 
HETATM    3  N10 UNL     1     -42.020  14.614   3.156  1.00 20.00    -0.197 NA
ENDROOT
BRANCH   2   4
HETATM    4  C9  UNL     1     -41.107  13.624   6.404  1.00 20.00     0.235 C 
BRANCH   4   5
HETATM    5  C6  UNL     1     -40.604  12.223   6.000  1.00 20.00     0.032 C 
HETATM    6  C2  UNL     1     -39.152  12.203   5.536  1.00 20.00     0.007 C 
ENDBRANCH   4   5
BRANCH   4   7
HETATM    7  N11 UNL     1     -41.348  13.683   7.849  1.00 20.00     0.093 N 
BRANCH   7   8
HETATM    8  C7  UNL     1     -42.675  14.228   8.120  1.00 20.00     0.268 C 
HETATM    9  C3  UNL     1     -43.277  13.602   9.333  1.00 20.00     0.037 C 
ENDBRANCH   7   8
BRANCH   7  10
HETATM   10  C8  UNL     1     -40.318  14.487   8.502  1.00 20.00     0.268 C 
HETATM   11  C4  UNL     1     -40.463  15.930   8.157  1.00 20.00     0.037 C 
ENDBRANCH   7  10
ENDBRANCH   4   7
ENDBRANCH   2   4
TORSDOF 5
ENDMDL
MODEL 8
REMARK VINA RESULT:      -3.3      2.654      4.050
REMARK  5 active torsions:
REMARK  status: ('A' for Active; 'I' for Inactive)
REMARK    1  A    between atoms: C5_5  and  C9_9 
REMARK    2  A    between atoms: C6_6  and  C9_9 
REMARK    3  A    between atoms: C7_7  and  N11_11 
REMARK    4  A    between atoms: C8_8  and  N11_11 
REMARK    5  A    between atoms: C9_9  and  N11_11 
ROOT
HETATM    1  C1  UNL     1     -34.842  13.930  -4.347  1.00 20.00     0.061 C 
HETATM    2  C5  UNL     1     -33.645  14.777  -4.232  1.00 20.00     0.159 C 
HETATM    3  N10 UNL     1     -35.785  13.260  -4.437  1.00 20.00    -0.197 NA
ENDROOT
BRANCH   2   4
HETATM    4  C9  UNL     1     -33.911  16.224  -4.684  1.00 20.00     0.235 C 
BRANCH   4   5
HETATM    5  C6  UNL     1     -34.206  17.151  -3.488  1.00 20.00     0.032 C 
HETATM    6  C2  UNL     1     -33.410  16.807  -2.234  1.00 20.00     0.007 C 
ENDBRANCH   4   5
BRANCH   4   7
HETATM    7  N11 UNL     1     -35.046  16.213  -5.613  1.00 20.00     0.093 N 
BRANCH   7   8
HETATM    8  C7  UNL     1     -34.626  16.673  -6.934  1.00 20.00     0.268 C 
HETATM    9  C3  UNL     1     -33.990  15.570  -7.712  1.00 20.00     0.037 C 
ENDBRANCH   7   8
BRANCH   7  10
HETATM   10  C8  UNL     1     -36.131  17.046  -5.099  1.00 20.00     0.268 C 
HETATM   11  C4  UNL     1     -37.460  16.439  -5.390  1.00 20.00     0.037 C 
ENDBRANCH   7  10
ENDBRANCH   4   7
ENDBRANCH   2   4
TORSDOF 5
ENDMDL
MODEL 9
REMARK VINA RESULT:      -3.2      1.817      2.460
REMARK  5 active torsions:
REMARK  status: ('A' for Active; 'I' for Inactive)
REMARK    1  A    between atoms: C5_5  and  C9_9 
REMARK    2  A    between atoms: C6_6  and  C9_9 
REMARK    3  A    between atoms: C7_7  and  N11_11 
REMARK    4  A    between atoms: C8_8  and  N11_11 
REMARK    5  A    between atoms: C9_9  and  N11_11 
ROOT
HETATM    1  C1  UNL     1     -33.452  16.877  -2.133  1.00 20.00     0.061 C 
HETATM    2  C5  UNL     1     -33.333  16.058  -3.350  1.00 20.00     0.159 C 
HETATM    3  N10 UNL     1     -33.544  17.521  -1.172  1.00 20.00    -0.197 NA
ENDROOT
BRANCH   2   4
HETATM    4  C9  UNL     1     -34.050  16.699  -4.552  1.00 20.00     0.235 C 
BRANCH   4   5
HETATM    5  C6  UNL     1     -35.087  17.749  -4.105  1.00 20.00     0.032 C 
HETATM    6  C2  UNL     1     -36.419  17.647  -4.840  1.00 20.00     0.007 C 
ENDBRANCH   4   5
BRANCH   4   7
HETATM    7  N11 UNL     1     -34.702  15.633  -5.320  1.00 20.00     0.093 N 
BRANCH   7   8
HETATM    8  C7  UNL     1     -34.667  14.378  -4.574  1.00 20.00     0.268 C 
HETATM    9  C3  UNL     1     -35.981  13.675  -4.641  1.00 20.00     0.037 C 
ENDBRANCH   7   8
BRANCH   7  10
HETATM   10  C8  UNL     1     -34.054  15.476  -6.620  1.00 20.00     0.268 C 
HETATM   11  C4  UNL     1     -35.023  15.687  -7.733  1.00 20.00     0.037 C 
ENDBRANCH   7  10
ENDBRANCH   4   7
ENDBRANCH   2   4
TORSDOF 5
ENDMDL
