MODEL 1
REMARK VINA RESULT:      -4.0      0.000      0.000
REMARK  2 active torsions:
REMARK  status: ('A' for Active; 'I' for Inactive)
REMARK    1  A    between atoms: C6_6  and  C7_7 
REMARK    2  A    between atoms: C7_7  and  N9_9 
ROOT
HETATM    1  C1  UNL     1     -22.875  17.193   9.956  1.00 20.00     0.101 C 
HETATM    2  C4  UNL     1     -24.582  16.167  11.392  1.00 20.00     0.066 C 
HETATM    3  C7  UNL     1     -23.652  17.376  11.201  1.00 20.00     0.243 C 
HETATM    4  N8  UNL     1     -22.266  17.049   8.978  1.00 20.00    -0.195 NA
ENDROOT
BRANCH   3   5
HETATM    5  C6  UNL     1     -24.444  18.722  11.196  1.00 20.00     0.030 C 
HETATM    6  C2  UNL     1     -25.635  18.740  12.165  1.00 20.00     0.013 C 
HETATM    7  C3  UNL     1     -24.939  19.124   9.795  1.00 20.00     0.013 C 
ENDBRANCH   3   5
BRANCH   3   8
HETATM    8  N9  UNL     1     -22.732  17.379  12.331  1.00 20.00     0.102 N 
HETATM    9  C5  UNL     1     -21.908  18.580  12.329  1.00 20.00     0.309 C 
HETATM   10  H23 UNL     1     -22.129  16.559  12.275  1.00 20.00     0.317 HD
ENDBRANCH   3   8
TORSDOF 2
ENDMDL
MODEL 2
REMARK VINA RESULT:      -3.5     18.526     19.978
REMARK  2 active torsions:
REMARK  status: ('A' for Active; 'I' for Inactive)
REMARK    1  A    between atoms: C6_6  and  C7_7 
REMARK    2  A    between atoms: C7_7  and  N9_9 
ROOT
HETATM    1  C1  UNL     1     -35.177  14.046  -4.679  1.00 20.00     0.101 C 
HETATM    2  C4  UNL     1     -33.486  15.569  -3.758  1.00 20.00     0.066 C 
HETATM    3  C7  UNL     1     -34.319  15.206  -4.998  1.00 20.00     0.243 C 
HETATM    4  N8  UNL     1     -35.851  13.135  -4.426  1.00 20.00    -0.195 NA
ENDROOT
BRANCH   3   5
HETATM    5  C6  UNL     1     -35.157  16.422  -5.509  1.00 20.00     0.030 C 
HETATM    6  C2  UNL     1     -34.827  17.741  -4.796  1.00 20.00     0.013 C 
HETATM    7  C3  UNL     1     -36.675  16.182  -5.431  1.00 20.00     0.013 C 
ENDBRANCH   3   5
BRANCH   3   8
HETATM    8  N9  UNL     1     -33.375  14.819  -6.039  1.00 20.00     0.102 N 
HETATM    9  C5  UNL     1     -33.808  15.305  -7.342  1.00 20.00     0.309 C 
HETATM   10  H23 UNL     1     -33.306  13.802  -6.066  1.00 20.00     0.317 HD
ENDBRANCH   3   8
TORSDOF 2
ENDMDL
MODEL 3
REMARK VINA RESULT:      -3.5     17.774     18.663
REMARK  2 active torsions:
REMARK  status: ('A' for Active; 'I' for Inactive)
REMARK    1  A    between atoms: C6_6  and  C7_7 
REMARK    2  A    between atoms: C7_7  and  N9_9 
ROOT
HETATM    1  C1  UNL     1     -42.010  12.450   6.781  1.00 20.00     0.101 C 
HETATM    2  C4  UNL     1     -41.391  13.679   4.748  1.00 20.00     0.066 C 
HETATM    3  C7  UNL     1     -40.866  13.004   6.026  1.00 20.00     0.243 C 
HETATM    4  N8  UNL     1     -42.909  12.015   7.374  1.00 20.00    -0.195 NA
ENDROOT
BRANCH   3   5
HETATM    5  C6  UNL     1     -39.799  11.909   5.706  1.00 20.00     0.030 C 
HETATM    6  C2  UNL     1     -38.516  12.036   6.539  1.00 20.00     0.013 C 
HETATM    7  C3  UNL     1     -39.420  11.855   4.215  1.00 20.00     0.013 C 
ENDBRANCH   3   5
BRANCH   3   8
HETATM    8  N9  UNL     1     -40.238  14.049   6.825  1.00 20.00     0.102 N 
HETATM    9  C5  UNL     1     -41.183  15.116   7.124  1.00 20.00     0.309 C 
HETATM   10  H23 UNL     1     -39.448  14.435   6.309  1.00 20.00     0.317 HD
ENDBRANCH   3   8
TORSDOF 2
ENDMDL
MODEL 4
REMARK VINA RESULT:      -3.5     15.343     16.599
REMARK  2 active torsions:
REMARK  status: ('A' for Active; 'I' for Inactive)
REMARK    1  A    between atoms: C6_6  and  C7_7 
REMARK    2  A    between atoms: C7_7  and  N9_9 
ROOT
HETATM    1  C1  UNL     1     -33.357   5.589   3.437  1.00 20.00     0.101 C 
HETATM    2  C4  UNL     1     -35.543   6.120   4.421  1.00 20.00     0.066 C 
HETATM    3  C7  UNL     1     -34.028   6.370   4.498  1.00 20.00     0.243 C 
HETATM    4  N8  UNL     1     -32.832   4.976   2.603  1.00 20.00    -0.195 NA
ENDROOT
BRANCH   3   5
HETATM    5  C6  UNL     1     -33.687   7.891   4.401  1.00 20.00     0.030 C 
HETATM    6  C2  UNL     1     -32.359   8.180   3.685  1.00 20.00     0.013 C 
HETATM    7  C3  UNL     1     -33.677   8.595   5.769  1.00 20.00     0.013 C 
ENDBRANCH   3   5
BRANCH   3   8
HETATM    8  N9  UNL     1     -33.587   5.874   5.795  1.00 20.00     0.102 N 
HETATM    9  C5  UNL     1     -34.655   5.146   6.467  1.00 20.00     0.309 C 
HETATM   10  H23 UNL     1     -33.302   6.663   6.376  1.00 20.00     0.317 HD
ENDBRANCH   3   8
TORSDOF 2
ENDMDL
MODEL 5
REMARK VINA RESULT:      -3.4      1.278      2.229
REMARK  2 active torsions:
REMARK  status: ('A' for Active; 'I' for Inactive)
REMARK    1  A    between atoms: C6_6  and  C7_7 
REMARK    2  A    between atoms: C7_7  and  N9_9 
ROOT
HETATM    1  C1  UNL     1     -24.090  16.779  11.710  1.00 20.00     0.101 C 
HETATM    2  C4  UNL     1     -22.493  18.540  12.327  1.00 20.00     0.066 C 
HETATM    3  C7  UNL     1     -23.389  17.982  11.210  1.00 20.00     0.243 C 
HETATM    4  N8  UNL     1     -24.639  15.836  12.105  1.00 20.00    -0.195 NA
ENDROOT
BRANCH   3   5
HETATM    5  C6  UNL     1     -24.393  19.056  10.681  1.00 20.00     0.030 C 
HETATM    6  C2  UNL     1     -25.716  19.099  11.458  1.00 20.00     0.013 C 
HETATM    7  C3  UNL     1     -24.702  18.904   9.181  1.00 20.00     0.013 C 
ENDBRANCH   3   5
BRANCH   3   8
HETATM    8  N9  UNL     1     -22.506  17.590  10.119  1.00 20.00     0.102 N 
HETATM    9  C5  UNL     1     -21.293  18.396  10.115  1.00 20.00     0.309 C 
HETATM   10  H23 UNL     1     -22.994  17.714   9.232  1.00 20.00     0.317 HD
ENDBRANCH   3   8
TORSDOF 2
ENDMDL
MODEL 6
REMARK VINA RESULT:      -3.4     18.458     19.890
REMARK  2 active torsions:
REMARK  status: ('A' for Active; 'I' for Inactive)
REMARK    1  A    between atoms: C6_6  and  C7_7 
REMARK    2  A    between atoms: C7_7  and  N9_9 
ROOT
HETATM    1  C1  UNL     1     -34.110  15.292  -6.767  1.00 20.00     0.101 C 
HETATM    2  C4  UNL     1     -36.256  15.721  -5.652  1.00 20.00     0.066 C 
HETATM    3  C7  UNL     1     -34.756  15.454  -5.446  1.00 20.00     0.243 C 
HETATM    4  N8  UNL     1     -33.605  15.165  -7.804  1.00 20.00    -0.195 NA
ENDROOT
BRANCH   3   5
HETATM    5  C6  UNL     1     -34.077  16.583  -4.606  1.00 20.00     0.030 C 
HETATM    6  C2  UNL     1     -33.389  16.073  -3.331  1.00 20.00     0.013 C 
HETATM    7  C3  UNL     1     -35.046  17.717  -4.228  1.00 20.00     0.013 C 
ENDBRANCH   3   5
BRANCH   3   8
HETATM    8  N9  UNL     1     -34.649  14.199  -4.715  1.00 20.00     0.102 N 
HETATM    9  C5  UNL     1     -35.952  13.563  -4.577  1.00 20.00     0.309 C 
HETATM   10  H23 UNL     1     -34.266  14.383  -3.788  1.00 20.00     0.317 HD
ENDBRANCH   3   8
TORSDOF 2
ENDMDL
MODEL 7
REMARK VINA RESULT:      -3.4     18.427     19.878
REMARK  2 active torsions:
REMARK  status: ('A' for Active; 'I' for Inactive)
REMARK    1  A    between atoms: C6_6  and  C7_7 
REMARK    2  A    between atoms: C7_7  and  N9_9 
ROOT
HETATM    1  C1  UNL     1     -35.789  15.073  -5.539  1.00 20.00     0.101 C 
HETATM    2  C4  UNL     1     -34.022  14.326  -4.006  1.00 20.00     0.066 C 
HETATM    3  C7  UNL     1     -34.383  15.298  -5.141  1.00 20.00     0.243 C 
HETATM    4  N8  UNL     1     -36.893  14.895  -5.849  1.00 20.00    -0.195 NA
ENDROOT
BRANCH   3   5
HETATM    5  C6  UNL     1     -34.128  16.784  -4.734  1.00 20.00     0.030 C 
HETATM    6  C2  UNL     1     -33.304  16.939  -3.447  1.00 20.00     0.013 C 
HETATM    7  C3  UNL     1     -35.424  17.601  -4.595  1.00 20.00     0.013 C 
ENDBRANCH   3   5
BRANCH   3   8
HETATM    8  N9  UNL     1     -33.519  14.967  -6.267  1.00 20.00     0.102 N 
HETATM    9  C5  UNL     1     -33.949  15.657  -7.475  1.00 20.00     0.309 C 
HETATM   10  H23 UNL     1     -33.548  13.960  -6.427  1.00 20.00     0.317 HD
ENDBRANCH   3   8
TORSDOF 2
ENDMDL
MODEL 8
REMARK VINA RESULT:      -3.4     18.680     20.183
REMARK  2 active torsions:
REMARK  status: ('A' for Active; 'I' for Inactive)
REMARK    1  A    between atoms: C6_6  and  C7_7 
REMARK    2  A    between atoms: C7_7  and  N9_9 
ROOT
HETATM    1  C1  UNL     1     -35.567  15.240  -6.354  1.00 20.00     0.101 C 
HETATM    2  C4  UNL     1     -34.616  17.502  -6.274  1.00 20.00     0.066 C 
HETATM    3  C7  UNL     1     -35.037  16.278  -5.445  1.00 20.00     0.243 C 
HETATM    4  N8  UNL     1     -35.983  14.426  -7.069  1.00 20.00    -0.195 NA
ENDROOT
BRANCH   3   5
HETATM    5  C6  UNL     1     -33.858  15.736  -4.573  1.00 20.00     0.030 C 
HETATM    6  C2  UNL     1     -34.075  14.303  -4.067  1.00 20.00     0.013 C 
HETATM    7  C3  UNL     1     -33.531  16.642  -3.373  1.00 20.00     0.013 C 
ENDBRANCH   3   5
BRANCH   3   8
HETATM    8  N9  UNL     1     -36.108  16.719  -4.560  1.00 20.00     0.102 N 
HETATM    9  C5  UNL     1     -37.087  17.517  -5.284  1.00 20.00     0.309 C 
HETATM   10  H23 UNL     1     -35.710  17.279  -3.806  1.00 20.00     0.317 HD
ENDBRANCH   3   8
TORSDOF 2
ENDMDL
MODEL 9
REMARK VINA RESULT:      -3.3     17.962     18.867
REMARK  2 active torsions:
REMARK  status: ('A' for Active; 'I' for Inactive)
REMARK    1  A    between atoms: C6_6  and  C7_7 
REMARK    2  A    between atoms: C7_7  and  N9_9 
ROOT
HETATM    1  C1  UNL     1     -41.408  13.554   4.892  1.00 20.00     0.101 C 
HETATM    2  C4  UNL     1     -40.504  13.874   7.152  1.00 20.00     0.066 C 
HETATM    3  C7  UNL     1     -40.937  12.842   6.099  1.00 20.00     0.243 C 
HETATM    4  N8  UNL     1     -41.778  14.115   3.945  1.00 20.00    -0.195 NA
ENDROOT
BRANCH   3   5
HETATM    5  C6  UNL     1     -39.788  11.838   5.765  1.00 20.00     0.030 C 
HETATM    6  C2  UNL     1     -38.501  12.084   6.566  1.00 20.00     0.013 C 
HETATM    7  C3  UNL     1     -39.439  11.799   4.267  1.00 20.00     0.013 C 
ENDBRANCH   3   5
BRANCH   3   8
HETATM    8  N9  UNL     1     -42.053  12.100   6.672  1.00 20.00     0.102 N 
HETATM    9  C5  UNL     1     -43.036  13.004   7.253  1.00 20.00     0.309 C 
HETATM   10  H23 UNL     1     -41.702  11.475   7.397  1.00 20.00     0.317 HD
ENDBRANCH   3   8
TORSDOF 2
ENDMDL
