MODEL 1
REMARK VINA RESULT:      -3.4      0.000      0.000
REMARK  1 active torsions:
REMARK  status: ('A' for Active; 'I' for Inactive)
REMARK    1  A    between atoms: C1_1  and  S9_9 
ROOT
HETATM    1  C1  UNL     1     -22.954  18.956   9.712  1.00 20.00     0.047 A 
HETATM    2  C2  UNL     1     -24.212  19.052   9.088  1.00 20.00     0.069 A 
HETATM    3  C3  UNL     1     -23.244  18.762  11.041  1.00 20.00     0.044 A 
HETATM    4  C4  UNL     1     -24.509  19.263   7.658  1.00 20.00     0.074 C 
HETATM    5  C5  UNL     1     -22.374  18.586  12.220  1.00 20.00     0.071 C 
HETATM    6  C6  UNL     1     -25.399  18.583  12.324  1.00 20.00     0.179 C 
HETATM    7  N7  UNL     1     -25.226  18.931   9.949  1.00 20.00    -0.176 NA
HETATM    8  N8  UNL     1     -24.606  18.755  11.128  1.00 20.00    -0.277 N 
ENDROOT
BRANCH   1   9
HETATM    9  S9  UNL     1     -21.392  19.059   8.960  1.00 20.00    -0.139 SA
HETATM   10  H19 UNL     1     -21.490  18.015   8.113  1.00 20.00     0.107 HD
ENDBRANCH   1   9
TORSDOF 1
ENDMDL
MODEL 2
REMARK VINA RESULT:      -3.4      0.998      2.808
REMARK  1 active torsions:
REMARK  status: ('A' for Active; 'I' for Inactive)
REMARK    1  A    between atoms: C1_1  and  S9_9 
ROOT
HETATM    1  C1  UNL     1     -23.210  18.799  10.225  1.00 20.00     0.047 A 
HETATM    2  C2  UNL     1     -23.032  18.576  11.603  1.00 20.00     0.069 A 
HETATM    3  C3  UNL     1     -24.564  18.987  10.079  1.00 20.00     0.044 A 
HETATM    4  C4  UNL     1     -21.777  18.315  12.332  1.00 20.00     0.074 C 
HETATM    5  C5  UNL     1     -25.394  19.263   8.891  1.00 20.00     0.071 C 
HETATM    6  C6  UNL     1     -26.485  18.986  11.701  1.00 20.00     0.179 C 
HETATM    7  N7  UNL     1     -24.180  18.616  12.285  1.00 20.00    -0.176 NA
HETATM    8  N8  UNL     1     -25.093  18.869  11.331  1.00 20.00    -0.277 N 
ENDROOT
BRANCH   1   9
HETATM    9  S9  UNL     1     -21.985  18.830   8.994  1.00 20.00    -0.139 SA
HETATM   10  H19 UNL     1     -21.450  17.608   9.191  1.00 20.00     0.107 HD
ENDBRANCH   1   9
TORSDOF 1
ENDMDL
MODEL 3
REMARK VINA RESULT:      -3.3     15.863     16.554
REMARK  1 active torsions:
REMARK  status: ('A' for Active; 'I' for Inactive)
REMARK    1  A    between atoms: C1_1  and  S9_9 
ROOT
HETATM    1  C1  UNL     1     -33.780   6.185   4.516  1.00 20.00     0.047 A 
HETATM    2  C2  UNL     1     -32.982   6.244   3.358  1.00 20.00     0.069 A 
HETATM    3  C3  UNL     1     -33.508   7.357   5.181  1.00 20.00     0.044 A 
HETATM    4  C4  UNL     1     -32.870   5.250   2.274  1.00 20.00     0.074 C 
HETATM    5  C5  UNL     1     -34.015   7.903   6.454  1.00 20.00     0.071 C 
HETATM    6  C6  UNL     1     -32.000   9.306   4.684  1.00 20.00     0.179 C 
HETATM    7  N7  UNL     1     -32.257   7.363   3.288  1.00 20.00    -0.176 NA
HETATM    8  N8  UNL     1     -32.598   8.019   4.409  1.00 20.00    -0.277 N 
ENDROOT
BRANCH   1   9
HETATM    9  S9  UNL     1     -34.863   4.912   4.988  1.00 20.00    -0.139 SA
HETATM   10  H19 UNL     1     -35.334   5.442   6.134  1.00 20.00     0.107 HD
ENDBRANCH   1   9
TORSDOF 1
ENDMDL
MODEL 4
REMARK VINA RESULT:      -3.3     15.917     16.550
REMARK  1 active torsions:
REMARK  status: ('A' for Active; 'I' for Inactive)
REMARK    1  A    between atoms: C1_1  and  S9_9 
ROOT
HETATM    1  C1  UNL     1     -32.875   7.758   4.381  1.00 20.00     0.047 A 
HETATM    2  C2  UNL     1     -32.707   7.072   3.163  1.00 20.00     0.069 A 
HETATM    3  C3  UNL     1     -33.637   6.912   5.150  1.00 20.00     0.044 A 
HETATM    4  C4  UNL     1     -31.971   7.508   1.962  1.00 20.00     0.074 C 
HETATM    5  C5  UNL     1     -34.159   7.038   6.525  1.00 20.00     0.071 C 
HETATM    6  C6  UNL     1     -34.630   4.639   4.739  1.00 20.00     0.179 C 
HETATM    7  N7  UNL     1     -33.316   5.883   3.154  1.00 20.00    -0.176 NA
HETATM    8  N8  UNL     1     -33.871   5.814   4.375  1.00 20.00    -0.277 N 
ENDROOT
BRANCH   1   9
HETATM    9  S9  UNL     1     -32.250   9.322   4.806  1.00 20.00    -0.139 SA
HETATM   10  H19 UNL     1     -31.767   9.037   6.032  1.00 20.00     0.107 HD
ENDBRANCH   1   9
TORSDOF 1
ENDMDL
MODEL 5
REMARK VINA RESULT:      -3.2     16.408     17.031
REMARK  1 active torsions:
REMARK  status: ('A' for Active; 'I' for Inactive)
REMARK    1  A    between atoms: C1_1  and  S9_9 
ROOT
HETATM    1  C1  UNL     1     -33.014   6.911   3.587  1.00 20.00     0.047 A 
HETATM    2  C2  UNL     1     -33.319   5.564   3.318  1.00 20.00     0.069 A 
HETATM    3  C3  UNL     1     -33.583   7.154   4.814  1.00 20.00     0.044 A 
HETATM    4  C4  UNL     1     -32.958   4.764   2.132  1.00 20.00     0.074 C 
HETATM    5  C5  UNL     1     -33.624   8.367   5.654  1.00 20.00     0.071 C 
HETATM    6  C6  UNL     1     -34.902   5.729   6.411  1.00 20.00     0.179 C 
HETATM    7  N7  UNL     1     -34.028   4.991   4.294  1.00 20.00    -0.176 NA
HETATM    8  N8  UNL     1     -34.172   5.982   5.190  1.00 20.00    -0.277 N 
ENDROOT
BRANCH   1   9
HETATM    9  S9  UNL     1     -32.117   8.011   2.586  1.00 20.00    -0.139 SA
HETATM   10  H19 UNL     1     -33.136   8.546   1.884  1.00 20.00     0.107 HD
ENDBRANCH   1   9
TORSDOF 1
ENDMDL
MODEL 6
REMARK VINA RESULT:      -3.2     16.079     16.869
REMARK  1 active torsions:
REMARK  status: ('A' for Active; 'I' for Inactive)
REMARK    1  A    between atoms: C1_1  and  S9_9 
ROOT
HETATM    1  C1  UNL     1     -33.532   7.032   5.099  1.00 20.00     0.047 A 
HETATM    2  C2  UNL     1     -32.679   7.808   4.292  1.00 20.00     0.069 A 
HETATM    3  C3  UNL     1     -33.736   5.881   4.376  1.00 20.00     0.044 A 
HETATM    4  C4  UNL     1     -32.129   9.149   4.568  1.00 20.00     0.074 C 
HETATM    5  C5  UNL     1     -34.529   4.671   4.663  1.00 20.00     0.071 C 
HETATM    6  C6  UNL     1     -32.915   5.088   2.137  1.00 20.00     0.179 C 
HETATM    7  N7  UNL     1     -32.364   7.203   3.144  1.00 20.00    -0.176 NA
HETATM    8  N8  UNL     1     -33.020   6.034   3.225  1.00 20.00    -0.277 N 
ENDROOT
BRANCH   1   9
HETATM    9  S9  UNL     1     -34.174   7.446   6.659  1.00 20.00    -0.139 SA
HETATM   10  H19 UNL     1     -35.325   6.746   6.612  1.00 20.00     0.107 HD
ENDBRANCH   1   9
TORSDOF 1
ENDMDL
MODEL 7
REMARK VINA RESULT:      -3.1     16.441     17.278
REMARK  1 active torsions:
REMARK  status: ('A' for Active; 'I' for Inactive)
REMARK    1  A    between atoms: C1_1  and  S9_9 
ROOT
HETATM    1  C1  UNL     1     -33.458   7.176   4.672  1.00 20.00     0.047 A 
HETATM    2  C2  UNL     1     -34.139   6.020   5.100  1.00 20.00     0.069 A 
HETATM    3  C3  UNL     1     -32.926   6.829   3.453  1.00 20.00     0.044 A 
HETATM    4  C4  UNL     1     -34.899   5.817   6.348  1.00 20.00     0.074 C 
HETATM    5  C5  UNL     1     -32.106   7.588   2.489  1.00 20.00     0.071 C 
HETATM    6  C6  UNL     1     -32.991   4.722   2.084  1.00 20.00     0.179 C 
HETATM    7  N7  UNL     1     -34.048   5.014   4.226  1.00 20.00    -0.176 NA
HETATM    8  N8  UNL     1     -33.306   5.537   3.236  1.00 20.00    -0.277 N 
ENDROOT
BRANCH   1   9
HETATM    9  S9  UNL     1     -33.329   8.694   5.505  1.00 20.00    -0.139 SA
HETATM   10  H19 UNL     1     -33.234   9.517   4.441  1.00 20.00     0.107 HD
ENDBRANCH   1   9
TORSDOF 1
ENDMDL
MODEL 8
REMARK VINA RESULT:      -3.1     15.745     16.537
REMARK  1 active torsions:
REMARK  status: ('A' for Active; 'I' for Inactive)
REMARK    1  A    between atoms: C1_1  and  S9_9 
ROOT
HETATM    1  C1  UNL     1     -33.534   6.152   4.208  1.00 20.00     0.047 A 
HETATM    2  C2  UNL     1     -33.949   6.470   5.515  1.00 20.00     0.069 A 
HETATM    3  C3  UNL     1     -32.803   7.244   3.805  1.00 20.00     0.044 A 
HETATM    4  C4  UNL     1     -34.767   5.658   6.436  1.00 20.00     0.074 C 
HETATM    5  C5  UNL     1     -32.097   7.541   2.544  1.00 20.00     0.071 C 
HETATM    6  C6  UNL     1     -32.197   9.415   4.919  1.00 20.00     0.179 C 
HETATM    7  N7  UNL     1     -33.521   7.670   5.915  1.00 20.00    -0.176 NA
HETATM    8  N8  UNL     1     -32.826   8.115   4.855  1.00 20.00    -0.277 N 
ENDROOT
BRANCH   1   9
HETATM    9  S9  UNL     1     -33.872   4.701   3.316  1.00 20.00    -0.139 SA
HETATM   10  H19 UNL     1     -33.294   5.027   2.143  1.00 20.00     0.107 HD
ENDBRANCH   1   9
TORSDOF 1
ENDMDL
MODEL 9
REMARK VINA RESULT:      -3.1     15.799     16.490
REMARK  1 active torsions:
REMARK  status: ('A' for Active; 'I' for Inactive)
REMARK    1  A    between atoms: C1_1  and  S9_9 
ROOT
HETATM    1  C1  UNL     1     -32.894   7.161   3.813  1.00 20.00     0.047 A 
HETATM    2  C2  UNL     1     -32.892   8.018   4.930  1.00 20.00     0.069 A 
HETATM    3  C3  UNL     1     -33.609   6.063   4.225  1.00 20.00     0.044 A 
HETATM    4  C4  UNL     1     -32.267   9.349   5.059  1.00 20.00     0.074 C 
HETATM    5  C5  UNL     1     -33.973   4.813   3.530  1.00 20.00     0.071 C 
HETATM    6  C6  UNL     1     -34.748   5.462   6.384  1.00 20.00     0.179 C 
HETATM    7  N7  UNL     1     -33.552   7.508   5.973  1.00 20.00    -0.176 NA
HETATM    8  N8  UNL     1     -33.977   6.320   5.513  1.00 20.00    -0.277 N 
ENDROOT
BRANCH   1   9
HETATM    9  S9  UNL     1     -32.155   7.441   2.266  1.00 20.00    -0.139 SA
HETATM   10  H19 UNL     1     -31.429   6.310   2.165  1.00 20.00     0.107 HD
ENDBRANCH   1   9
TORSDOF 1
ENDMDL
