MODEL 1
REMARK VINA RESULT:      -4.5      0.000      0.000
REMARK  2 active torsions:
REMARK  status: ('A' for Active; 'I' for Inactive)
REMARK    1  A    between atoms: C1_1  and  C5_5 
REMARK       I    between atoms: C1_1  and  N7_7 
REMARK    2  A    between atoms: C5_5  and  C6_6 
ROOT
HETATM    1  C1  UNL     1     -32.771   7.935   4.536  1.00 20.00     0.220 C 
HETATM    2  C2  UNL     1     -34.648   5.495   5.985  1.00 20.00     0.040 C 
HETATM    3  C3  UNL     1     -34.199   6.902   6.396  1.00 20.00     0.127 C 
HETATM    4  C4  UNL     1     -34.321   5.860   4.532  1.00 20.00     0.127 C 
HETATM    5  N7  UNL     1     -33.629   7.014   5.069  1.00 20.00    -0.352 N 
HETATM    6  O8  UNL     1     -32.313   8.893   5.156  1.00 20.00    -0.273 OA
ENDROOT
BRANCH   1   7
HETATM    7  C5  UNL     1     -32.410   7.686   3.095  1.00 20.00     0.118 C 
BRANCH   7   8
HETATM    8  C6  UNL     1     -32.624   8.936   2.267  1.00 20.00     0.124 C 
HETATM    9 CL9  UNL     1     -32.336   8.631   0.535  1.00 20.00    -0.130 Cl
ENDBRANCH   7   8
ENDBRANCH   1   7
TORSDOF 2
ENDMDL
MODEL 2
REMARK VINA RESULT:      -4.1      3.082      4.238
REMARK  2 active torsions:
REMARK  status: ('A' for Active; 'I' for Inactive)
REMARK    1  A    between atoms: C1_1  and  C5_5 
REMARK       I    between atoms: C1_1  and  N7_7 
REMARK    2  A    between atoms: C5_5  and  C6_6 
ROOT
HETATM    1  C1  UNL     1     -33.416   5.973   3.466  1.00 20.00     0.220 C 
HETATM    2  C2  UNL     1     -32.200   8.883   4.742  1.00 20.00     0.040 C 
HETATM    3  C3  UNL     1     -31.833   7.986   3.553  1.00 20.00     0.127 C 
HETATM    4  C4  UNL     1     -33.571   8.197   4.784  1.00 20.00     0.127 C 
HETATM    5  N7  UNL     1     -33.004   7.203   3.895  1.00 20.00    -0.352 N 
HETATM    6  O8  UNL     1     -32.803   5.282   2.654  1.00 20.00    -0.273 OA
ENDROOT
BRANCH   1   7
HETATM    7  C5  UNL     1     -34.710   5.504   4.079  1.00 20.00     0.118 C 
BRANCH   7   8
HETATM    8  C6  UNL     1     -34.447   4.722   5.350  1.00 20.00     0.124 C 
HETATM    9 CL9  UNL     1     -34.714   5.722   6.800  1.00 20.00    -0.130 Cl
ENDBRANCH   7   8
ENDBRANCH   1   7
TORSDOF 2
ENDMDL
MODEL 3
REMARK VINA RESULT:      -4.0      1.760      2.006
REMARK  2 active torsions:
REMARK  status: ('A' for Active; 'I' for Inactive)
REMARK    1  A    between atoms: C1_1  and  C5_5 
REMARK       I    between atoms: C1_1  and  N7_7 
REMARK    2  A    between atoms: C5_5  and  C6_6 
ROOT
HETATM    1  C1  UNL     1     -33.021   6.301   3.408  1.00 20.00     0.220 C 
HETATM    2  C2  UNL     1     -34.918   5.969   6.212  1.00 20.00     0.040 C 
HETATM    3  C3  UNL     1     -34.444   5.016   5.108  1.00 20.00     0.127 C 
HETATM    4  C4  UNL     1     -33.815   6.946   5.787  1.00 20.00     0.127 C 
HETATM    5  N7  UNL     1     -33.675   6.133   4.596  1.00 20.00    -0.352 N 
HETATM    6  O8  UNL     1     -32.981   5.457   2.515  1.00 20.00    -0.273 OA
ENDROOT
BRANCH   1   7
HETATM    7  C5  UNL     1     -32.335   7.634   3.260  1.00 20.00     0.118 C 
BRANCH   7   8
HETATM    8  C6  UNL     1     -32.170   7.991   1.797  1.00 20.00     0.124 C 
HETATM    9 CL9  UNL     1     -32.882   9.582   1.428  1.00 20.00    -0.130 Cl
ENDBRANCH   7   8
ENDBRANCH   1   7
TORSDOF 2
ENDMDL
MODEL 4
REMARK VINA RESULT:      -3.6     11.851     12.058
REMARK  2 active torsions:
REMARK  status: ('A' for Active; 'I' for Inactive)
REMARK    1  A    between atoms: C1_1  and  C5_5 
REMARK       I    between atoms: C1_1  and  N7_7 
REMARK    2  A    between atoms: C5_5  and  C6_6 
ROOT
HETATM    1  C1  UNL     1     -31.501  18.748   0.381  1.00 20.00     0.220 C 
HETATM    2  C2  UNL     1     -30.754  18.888   3.697  1.00 20.00     0.040 C 
HETATM    3  C3  UNL     1     -29.933  18.906   2.402  1.00 20.00     0.127 C 
HETATM    4  C4  UNL     1     -31.990  19.263   2.871  1.00 20.00     0.127 C 
HETATM    5  N7  UNL     1     -31.202  18.933   1.702  1.00 20.00    -0.352 N 
HETATM    6  O8  UNL     1     -30.666  18.512  -0.491  1.00 20.00    -0.273 OA
ENDROOT
BRANCH   1   7
HETATM    7  C5  UNL     1     -32.968  18.852   0.057  1.00 20.00     0.118 C 
BRANCH   7   8
HETATM    8  C6  UNL     1     -33.200  18.679  -1.431  1.00 20.00     0.124 C 
HETATM    9 CL9  UNL     1     -33.654  17.003  -1.830  1.00 20.00    -0.130 Cl
ENDBRANCH   7   8
ENDBRANCH   1   7
TORSDOF 2
ENDMDL
MODEL 5
REMARK VINA RESULT:      -3.6      2.131      3.528
REMARK  2 active torsions:
REMARK  status: ('A' for Active; 'I' for Inactive)
REMARK    1  A    between atoms: C1_1  and  C5_5 
REMARK       I    between atoms: C1_1  and  N7_7 
REMARK    2  A    between atoms: C5_5  and  C6_6 
ROOT
HETATM    1  C1  UNL     1     -34.190   6.789   5.463  1.00 20.00     0.220 C 
HETATM    2  C2  UNL     1     -32.324   9.136   3.857  1.00 20.00     0.040 C 
HETATM    3  C3  UNL     1     -32.494   8.704   5.318  1.00 20.00     0.127 C 
HETATM    4  C4  UNL     1     -32.941   7.798   3.432  1.00 20.00     0.127 C 
HETATM    5  N7  UNL     1     -33.345   7.644   4.814  1.00 20.00    -0.352 N 
HETATM    6  O8  UNL     1     -34.372   6.786   6.679  1.00 20.00    -0.273 OA
ENDROOT
BRANCH   1   7
HETATM    7  C5  UNL     1     -34.908   5.821   4.559  1.00 20.00     0.118 C 
BRANCH   7   8
HETATM    8  C6  UNL     1     -34.075   4.574   4.342  1.00 20.00     0.124 C 
HETATM    9 CL9  UNL     1     -33.132   4.672   2.833  1.00 20.00    -0.130 Cl
ENDBRANCH   7   8
ENDBRANCH   1   7
TORSDOF 2
ENDMDL
MODEL 6
REMARK VINA RESULT:      -3.5      9.642     10.177
REMARK  2 active torsions:
REMARK  status: ('A' for Active; 'I' for Inactive)
REMARK    1  A    between atoms: C1_1  and  C5_5 
REMARK       I    between atoms: C1_1  and  N7_7 
REMARK    2  A    between atoms: C5_5  and  C6_6 
ROOT
HETATM    1  C1  UNL     1     -41.005  13.523   5.796  1.00 20.00     0.220 C 
HETATM    2  C2  UNL     1     -40.494  15.752   8.315  1.00 20.00     0.040 C 
HETATM    3  C3  UNL     1     -41.332  15.745   7.031  1.00 20.00     0.127 C 
HETATM    4  C4  UNL     1     -40.401  14.224   8.215  1.00 20.00     0.127 C 
HETATM    5  N7  UNL     1     -40.905  14.369   6.865  1.00 20.00    -0.352 N 
HETATM    6  O8  UNL     1     -41.518  13.825   4.720  1.00 20.00    -0.273 OA
ENDROOT
BRANCH   1   7
HETATM    7  C5  UNL     1     -40.424  12.154   6.033  1.00 20.00     0.118 C 
BRANCH   7   8
HETATM    8  C6  UNL     1     -38.993  12.088   5.537  1.00 20.00     0.124 C 
HETATM    9 CL9  UNL     1     -38.919  11.641   3.814  1.00 20.00    -0.130 Cl
ENDBRANCH   7   8
ENDBRANCH   1   7
TORSDOF 2
ENDMDL
MODEL 7
REMARK VINA RESULT:      -3.4     11.607     12.636
REMARK  2 active torsions:
REMARK  status: ('A' for Active; 'I' for Inactive)
REMARK    1  A    between atoms: C1_1  and  C5_5 
REMARK       I    between atoms: C1_1  and  N7_7 
REMARK    2  A    between atoms: C5_5  and  C6_6 
ROOT
HETATM    1  C1  UNL     1     -33.990  14.949  -4.319  1.00 20.00     0.220 C 
HETATM    2  C2  UNL     1     -35.629  15.967  -7.121  1.00 20.00     0.040 C 
HETATM    3  C3  UNL     1     -35.723  14.748  -6.196  1.00 20.00     0.127 C 
HETATM    4  C4  UNL     1     -34.873  16.702  -6.008  1.00 20.00     0.127 C 
HETATM    5  N7  UNL     1     -34.737  15.410  -5.366  1.00 20.00    -0.352 N 
HETATM    6  O8  UNL     1     -34.048  13.801  -3.881  1.00 20.00    -0.273 OA
ENDROOT
BRANCH   1   7
HETATM    7  C5  UNL     1     -33.061  15.972  -3.720  1.00 20.00     0.118 C 
BRANCH   7   8
HETATM    8  C6  UNL     1     -33.608  16.485  -2.403  1.00 20.00     0.124 C 
HETATM    9 CL9  UNL     1     -32.604  17.804  -1.748  1.00 20.00    -0.130 Cl
ENDBRANCH   7   8
ENDBRANCH   1   7
TORSDOF 2
ENDMDL
MODEL 8
REMARK VINA RESULT:      -3.4      2.322      3.824
REMARK  2 active torsions:
REMARK  status: ('A' for Active; 'I' for Inactive)
REMARK    1  A    between atoms: C1_1  and  C5_5 
REMARK       I    between atoms: C1_1  and  N7_7 
REMARK    2  A    between atoms: C5_5  and  C6_6 
ROOT
HETATM    1  C1  UNL     1     -33.466   8.069   5.255  1.00 20.00     0.220 C 
HETATM    2  C2  UNL     1     -32.300   7.820   2.068  1.00 20.00     0.040 C 
HETATM    3  C3  UNL     1     -32.635   8.983   3.009  1.00 20.00     0.127 C 
HETATM    4  C4  UNL     1     -32.247   6.898   3.293  1.00 20.00     0.127 C 
HETATM    5  N7  UNL     1     -32.878   7.977   4.024  1.00 20.00    -0.352 N 
HETATM    6  O8  UNL     1     -33.915   9.110   5.731  1.00 20.00    -0.273 OA
ENDROOT
BRANCH   1   7
HETATM    7  C5  UNL     1     -33.530   6.768   6.010  1.00 20.00     0.118 C 
BRANCH   7   8
HETATM    8  C6  UNL     1     -34.802   6.016   5.674  1.00 20.00     0.124 C 
HETATM    9 CL9  UNL     1     -34.467   4.575   4.680  1.00 20.00    -0.130 Cl
ENDBRANCH   7   8
ENDBRANCH   1   7
TORSDOF 2
ENDMDL
MODEL 9
REMARK VINA RESULT:      -3.4      9.840     10.279
REMARK  2 active torsions:
REMARK  status: ('A' for Active; 'I' for Inactive)
REMARK    1  A    between atoms: C1_1  and  C5_5 
REMARK       I    between atoms: C1_1  and  N7_7 
REMARK    2  A    between atoms: C5_5  and  C6_6 
ROOT
HETATM    1  C1  UNL     1     -40.674  13.342   6.790  1.00 20.00     0.220 C 
HETATM    2  C2  UNL     1     -42.877  15.464   5.302  1.00 20.00     0.040 C 
HETATM    3  C3  UNL     1     -41.950  15.547   6.521  1.00 20.00     0.127 C 
HETATM    4  C4  UNL     1     -42.047  14.276   4.803  1.00 20.00     0.127 C 
HETATM    5  N7  UNL     1     -41.459  14.242   6.126  1.00 20.00    -0.352 N 
HETATM    6  O8  UNL     1     -40.225  13.517   7.921  1.00 20.00    -0.273 OA
ENDROOT
BRANCH   1   7
HETATM    7  C5  UNL     1     -40.391  12.079   6.019  1.00 20.00     0.118 C 
BRANCH   7   8
HETATM    8  C6  UNL     1     -38.967  12.078   5.499  1.00 20.00     0.124 C 
HETATM    9 CL9  UNL     1     -38.904  11.661   3.768  1.00 20.00    -0.130 Cl
ENDBRANCH   7   8
ENDBRANCH   1   7
TORSDOF 2
ENDMDL
