MODEL 1
REMARK VINA RESULT:      -4.7      0.000      0.000
REMARK  4 active torsions:
REMARK  status: ('A' for Active; 'I' for Inactive)
REMARK    1  A    between atoms: C3_3  and  C6_6 
REMARK    2  A    between atoms: C3_3  and  C7_7 
REMARK    3  A    between atoms: C5_5  and  C6_6 
REMARK    4  A    between atoms: C7_7  and  C8_8 
ROOT
HETATM    1  C1  UNL     1     -32.876   5.152   2.520  1.00 20.00     0.012 C 
HETATM    2  C2  UNL     1     -33.586   4.982   3.473  1.00 20.00    -0.117 C 
HETATM    3  C5  UNL     1     -34.457   4.774   4.640  1.00 20.00     0.100 C 
ENDROOT
BRANCH   3   4
HETATM    4  C6  UNL     1     -35.003   6.090   5.187  1.00 20.00     0.090 C 
BRANCH   4   5
HETATM    5  C3  UNL     1     -33.948   6.964   5.854  1.00 20.00     0.127 C 
HETATM    6  O9  UNL     1     -33.311   6.592   6.838  1.00 20.00    -0.298 OA
BRANCH   5   7
HETATM    7  C7  UNL     1     -33.719   8.321   5.207  1.00 20.00     0.078 C 
BRANCH   7   8
HETATM    8  C8  UNL     1     -32.357   8.425   4.527  1.00 20.00     0.003 C 
HETATM    9  C4  UNL     1     -32.495   8.700   3.038  1.00 20.00     0.005 C 
ENDBRANCH   7   8
ENDBRANCH   5   7
ENDBRANCH   4   5
ENDBRANCH   3   4
TORSDOF 4
ENDMDL
MODEL 2
REMARK VINA RESULT:      -4.7      1.572      2.604
REMARK  4 active torsions:
REMARK  status: ('A' for Active; 'I' for Inactive)
REMARK    1  A    between atoms: C3_3  and  C6_6 
REMARK    2  A    between atoms: C3_3  and  C7_7 
REMARK    3  A    between atoms: C5_5  and  C6_6 
REMARK    4  A    between atoms: C7_7  and  C8_8 
ROOT
HETATM    1  C1  UNL     1     -32.121   7.422   2.946  1.00 20.00     0.012 C 
HETATM    2  C2  UNL     1     -32.669   6.355   2.891  1.00 20.00    -0.117 C 
HETATM    3  C5  UNL     1     -33.341   5.049   2.823  1.00 20.00     0.100 C 
ENDROOT
BRANCH   3   4
HETATM    4  C6  UNL     1     -33.838   4.591   4.192  1.00 20.00     0.090 C 
BRANCH   4   5
HETATM    5  C3  UNL     1     -34.887   5.511   4.805  1.00 20.00     0.127 C 
HETATM    6  O9  UNL     1     -35.876   5.890   4.181  1.00 20.00    -0.298 OA
BRANCH   5   7
HETATM    7  C7  UNL     1     -34.638   5.913   6.251  1.00 20.00     0.078 C 
BRANCH   7   8
HETATM    8  C8  UNL     1     -33.538   6.961   6.389  1.00 20.00     0.003 C 
HETATM    9  C4  UNL     1     -33.957   8.293   5.788  1.00 20.00     0.005 C 
ENDBRANCH   7   8
ENDBRANCH   5   7
ENDBRANCH   4   5
ENDBRANCH   3   4
TORSDOF 4
ENDMDL
MODEL 3
REMARK VINA RESULT:      -4.6      1.314      3.096
REMARK  4 active torsions:
REMARK  status: ('A' for Active; 'I' for Inactive)
REMARK    1  A    between atoms: C3_3  and  C6_6 
REMARK    2  A    between atoms: C3_3  and  C7_7 
REMARK    3  A    between atoms: C5_5  and  C6_6 
REMARK    4  A    between atoms: C7_7  and  C8_8 
ROOT
HETATM    1  C1  UNL     1     -32.890   5.127   2.549  1.00 20.00     0.012 C 
HETATM    2  C2  UNL     1     -32.562   6.275   2.684  1.00 20.00    -0.117 C 
HETATM    3  C5  UNL     1     -32.160   7.679   2.850  1.00 20.00     0.100 C 
ENDROOT
BRANCH   3   4
HETATM    4  C6  UNL     1     -32.131   8.095   4.318  1.00 20.00     0.090 C 
BRANCH   4   5
HETATM    5  C3  UNL     1     -33.463   7.910   5.036  1.00 20.00     0.127 C 
HETATM    6  O9  UNL     1     -34.510   8.403   4.619  1.00 20.00    -0.298 OA
BRANCH   5   7
HETATM    7  C7  UNL     1     -33.414   7.056   6.293  1.00 20.00     0.078 C 
BRANCH   7   8
HETATM    8  C8  UNL     1     -34.660   6.192   6.465  1.00 20.00     0.003 C 
HETATM    9  C4  UNL     1     -34.638   4.989   5.537  1.00 20.00     0.005 C 
ENDBRANCH   7   8
ENDBRANCH   5   7
ENDBRANCH   4   5
ENDBRANCH   3   4
TORSDOF 4
ENDMDL
MODEL 4
REMARK VINA RESULT:      -4.6      1.526      3.326
REMARK  4 active torsions:
REMARK  status: ('A' for Active; 'I' for Inactive)
REMARK    1  A    between atoms: C3_3  and  C6_6 
REMARK    2  A    between atoms: C3_3  and  C7_7 
REMARK    3  A    between atoms: C5_5  and  C6_6 
REMARK    4  A    between atoms: C7_7  and  C8_8 
ROOT
HETATM    1  C1  UNL     1     -32.795   8.461   4.977  1.00 20.00     0.012 C 
HETATM    2  C2  UNL     1     -33.491   7.832   5.728  1.00 20.00    -0.117 C 
HETATM    3  C5  UNL     1     -34.341   7.062   6.648  1.00 20.00     0.100 C 
ENDROOT
BRANCH   3   4
HETATM    4  C6  UNL     1     -34.378   5.579   6.283  1.00 20.00     0.090 C 
BRANCH   4   5
HETATM    5  C3  UNL     1     -34.755   5.312   4.831  1.00 20.00     0.127 C 
HETATM    6  O9  UNL     1     -35.748   5.812   4.305  1.00 20.00    -0.298 OA
BRANCH   5   7
HETATM    7  C7  UNL     1     -33.806   4.401   4.067  1.00 20.00     0.078 C 
BRANCH   7   8
HETATM    8  C8  UNL     1     -33.501   4.915   2.663  1.00 20.00     0.003 C 
HETATM    9  C4  UNL     1     -32.511   6.068   2.694  1.00 20.00     0.005 C 
ENDBRANCH   7   8
ENDBRANCH   5   7
ENDBRANCH   4   5
ENDBRANCH   3   4
TORSDOF 4
ENDMDL
MODEL 5
REMARK VINA RESULT:      -4.5      1.578      3.151
REMARK  4 active torsions:
REMARK  status: ('A' for Active; 'I' for Inactive)
REMARK    1  A    between atoms: C3_3  and  C6_6 
REMARK    2  A    between atoms: C3_3  and  C7_7 
REMARK    3  A    between atoms: C5_5  and  C6_6 
REMARK    4  A    between atoms: C7_7  and  C8_8 
ROOT
HETATM    1  C1  UNL     1     -34.651   4.895   6.231  1.00 20.00     0.012 C 
HETATM    2  C2  UNL     1     -34.308   6.043   6.315  1.00 20.00    -0.117 C 
HETATM    3  C5  UNL     1     -33.889   7.449   6.419  1.00 20.00     0.100 C 
ENDROOT
BRANCH   3   4
HETATM    4  C6  UNL     1     -33.959   8.166   5.073  1.00 20.00     0.090 C 
BRANCH   4   5
HETATM    5  C3  UNL     1     -32.595   8.434   4.447  1.00 20.00     0.127 C 
HETATM    6  O9  UNL     1     -31.878   9.367   4.805  1.00 20.00    -0.298 OA
BRANCH   5   7
HETATM    7  C7  UNL     1     -32.170   7.454   3.365  1.00 20.00     0.078 C 
BRANCH   7   8
HETATM    8  C8  UNL     1     -33.296   6.512   2.950  1.00 20.00     0.003 C 
HETATM    9  C4  UNL     1     -32.785   5.100   2.713  1.00 20.00     0.005 C 
ENDBRANCH   7   8
ENDBRANCH   5   7
ENDBRANCH   4   5
ENDBRANCH   3   4
TORSDOF 4
ENDMDL
MODEL 6
REMARK VINA RESULT:      -4.5      1.552      3.442
REMARK  4 active torsions:
REMARK  status: ('A' for Active; 'I' for Inactive)
REMARK    1  A    between atoms: C3_3  and  C6_6 
REMARK    2  A    between atoms: C3_3  and  C7_7 
REMARK    3  A    between atoms: C5_5  and  C6_6 
REMARK    4  A    between atoms: C7_7  and  C8_8 
ROOT
HETATM    1  C1  UNL     1     -32.441   8.635   4.063  1.00 20.00     0.012 C 
HETATM    2  C2  UNL     1     -32.370   7.558   3.536  1.00 20.00    -0.117 C 
HETATM    3  C5  UNL     1     -32.282   6.240   2.890  1.00 20.00     0.100 C 
ENDROOT
BRANCH   3   4
HETATM    4  C6  UNL     1     -33.655   5.593   2.725  1.00 20.00     0.090 C 
BRANCH   4   5
HETATM    5  C3  UNL     1     -34.166   4.904   3.985  1.00 20.00     0.127 C 
HETATM    6  O9  UNL     1     -33.778   3.790   4.330  1.00 20.00    -0.298 OA
BRANCH   5   7
HETATM    7  C7  UNL     1     -35.174   5.699   4.801  1.00 20.00     0.078 C 
BRANCH   7   8
HETATM    8  C8  UNL     1     -34.812   5.762   6.282  1.00 20.00     0.003 C 
HETATM    9  C4  UNL     1     -34.136   7.078   6.636  1.00 20.00     0.005 C 
ENDBRANCH   7   8
ENDBRANCH   5   7
ENDBRANCH   4   5
ENDBRANCH   3   4
TORSDOF 4
ENDMDL
MODEL 7
REMARK VINA RESULT:      -4.4      0.683      3.131
REMARK  4 active torsions:
REMARK  status: ('A' for Active; 'I' for Inactive)
REMARK    1  A    between atoms: C3_3  and  C6_6 
REMARK    2  A    between atoms: C3_3  and  C7_7 
REMARK    3  A    between atoms: C5_5  and  C6_6 
REMARK    4  A    between atoms: C7_7  and  C8_8 
ROOT
HETATM    1  C1  UNL     1     -32.518   8.763   2.324  1.00 20.00     0.012 C 
HETATM    2  C2  UNL     1     -32.540   8.530   3.502  1.00 20.00    -0.117 C 
HETATM    3  C5  UNL     1     -32.567   8.245   4.944  1.00 20.00     0.100 C 
ENDROOT
BRANCH   3   4
HETATM    4  C6  UNL     1     -33.980   7.949   5.441  1.00 20.00     0.090 C 
BRANCH   4   5
HETATM    5  C3  UNL     1     -34.258   6.466   5.659  1.00 20.00     0.127 C 
HETATM    6  O9  UNL     1     -34.035   5.904   6.730  1.00 20.00    -0.298 OA
BRANCH   5   7
HETATM    7  C7  UNL     1     -34.851   5.731   4.467  1.00 20.00     0.078 C 
BRANCH   7   8
HETATM    8  C8  UNL     1     -33.947   4.611   3.959  1.00 20.00     0.003 C 
HETATM    9  C4  UNL     1     -33.123   5.058   2.761  1.00 20.00     0.005 C 
ENDBRANCH   7   8
ENDBRANCH   5   7
ENDBRANCH   4   5
ENDBRANCH   3   4
TORSDOF 4
ENDMDL
MODEL 8
REMARK VINA RESULT:      -4.2      2.004      3.340
REMARK  4 active torsions:
REMARK  status: ('A' for Active; 'I' for Inactive)
REMARK    1  A    between atoms: C3_3  and  C6_6 
REMARK    2  A    between atoms: C3_3  and  C7_7 
REMARK    3  A    between atoms: C5_5  and  C6_6 
REMARK    4  A    between atoms: C7_7  and  C8_8 
ROOT
HETATM    1  C1  UNL     1     -34.599   5.496   6.160  1.00 20.00     0.012 C 
HETATM    2  C2  UNL     1     -34.308   6.631   5.896  1.00 20.00    -0.117 C 
HETATM    3  C5  UNL     1     -33.954   8.020   5.572  1.00 20.00     0.100 C 
ENDROOT
BRANCH   3   4
HETATM    4  C6  UNL     1     -32.558   8.125   4.961  1.00 20.00     0.090 C 
BRANCH   4   5
HETATM    5  C3  UNL     1     -32.500   7.730   3.490  1.00 20.00     0.127 C 
HETATM    6  O9  UNL     1     -32.404   6.559   3.126  1.00 20.00    -0.298 OA
BRANCH   5   7
HETATM    7  C7  UNL     1     -32.591   8.881   2.500  1.00 20.00     0.078 C 
BRANCH   7   8
HETATM    8  C8  UNL     1     -32.130   8.489   1.099  1.00 20.00     0.003 C 
HETATM    9  C4  UNL     1     -32.898   9.243   0.026  1.00 20.00     0.005 C 
ENDBRANCH   7   8
ENDBRANCH   5   7
ENDBRANCH   4   5
ENDBRANCH   3   4
TORSDOF 4
ENDMDL
MODEL 9
REMARK VINA RESULT:      -4.1      1.883      3.058
REMARK  4 active torsions:
REMARK  status: ('A' for Active; 'I' for Inactive)
REMARK    1  A    between atoms: C3_3  and  C6_6 
REMARK    2  A    between atoms: C3_3  and  C7_7 
REMARK    3  A    between atoms: C5_5  and  C6_6 
REMARK    4  A    between atoms: C7_7  and  C8_8 
ROOT
HETATM    1  C1  UNL     1     -34.421   6.797   6.964  1.00 20.00     0.012 C 
HETATM    2  C2  UNL     1     -34.482   6.041   6.032  1.00 20.00    -0.117 C 
HETATM    3  C5  UNL     1     -34.556   5.116   4.892  1.00 20.00     0.100 C 
ENDROOT
BRANCH   3   4
HETATM    4  C6  UNL     1     -34.418   5.844   3.557  1.00 20.00     0.090 C 
BRANCH   4   5
HETATM    5  C3  UNL     1     -33.025   5.745   2.944  1.00 20.00     0.127 C 
HETATM    6  O9  UNL     1     -32.601   4.709   2.437  1.00 20.00    -0.298 OA
BRANCH   5   7
HETATM    7  C7  UNL     1     -32.203   7.024   2.983  1.00 20.00     0.078 C 
BRANCH   7   8
HETATM    8  C8  UNL     1     -32.983   8.207   3.549  1.00 20.00     0.003 C 
HETATM    9  C4  UNL     1     -32.299   8.791   4.775  1.00 20.00     0.005 C 
ENDBRANCH   7   8
ENDBRANCH   5   7
ENDBRANCH   4   5
ENDBRANCH   3   4
TORSDOF 4
ENDMDL
