MODEL 1
REMARK VINA RESULT:      -3.9      0.000      0.000
REMARK  3 active torsions:
REMARK  status: ('A' for Active; 'I' for Inactive)
REMARK    1  A    between atoms: C2_2  and  C4_4 
REMARK    2  A    between atoms: C2_2  and  C9_9 
REMARK    3  A    between atoms: C8_8  and  C9_9 
ROOT
HETATM    1  C1  UNL     1     -41.286  13.750   4.891  1.00 20.00     0.071 C 
HETATM    2  C9  UNL     1     -40.373  13.282   5.951  1.00 20.00     0.162 C 
HETATM    3  N10 UNL     1     -42.002  14.122   4.058  1.00 20.00    -0.196 NA
ENDROOT
BRANCH   2   4
HETATM    4  C2  UNL     1     -41.007  13.417   7.326  1.00 20.00     0.148 C 
HETATM    5  O11 UNL     1     -42.078  12.913   7.646  1.00 20.00    -0.296 OA
BRANCH   4   6
HETATM    6  C4  UNL     1     -40.249  14.231   8.323  1.00 20.00     0.061 A 
HETATM    7  C3  UNL     1     -40.993  14.821   9.476  1.00 20.00     0.017 A 
HETATM    8  C5  UNL     1     -40.453  15.712   8.394  1.00 20.00    -0.007 A 
HETATM    9  C6  UNL     1     -41.390  16.446   7.497  1.00 20.00     0.011 C 
ENDBRANCH   4   6
ENDBRANCH   2   4
BRANCH   2  10
HETATM   10  C8  UNL     1     -39.895  11.845   5.697  1.00 20.00     0.022 C 
HETATM   11  C7  UNL     1     -39.187  11.636   4.363  1.00 20.00     0.007 C 
ENDBRANCH   2  10
TORSDOF 3
ENDMDL
MODEL 2
REMARK VINA RESULT:      -3.7     11.216     12.412
REMARK  3 active torsions:
REMARK  status: ('A' for Active; 'I' for Inactive)
REMARK    1  A    between atoms: C2_2  and  C4_4 
REMARK    2  A    between atoms: C2_2  and  C9_9 
REMARK    3  A    between atoms: C8_8  and  C9_9 
ROOT
HETATM    1  C1  UNL     1     -34.742  17.013  -4.992  1.00 20.00     0.071 C 
HETATM    2  C9  UNL     1     -33.740  17.014  -3.910  1.00 20.00     0.162 C 
HETATM    3  N10 UNL     1     -35.528  17.016  -5.845  1.00 20.00    -0.196 NA
ENDROOT
BRANCH   2   4
HETATM    4  C2  UNL     1     -34.245  17.768  -2.690  1.00 20.00     0.148 C 
HETATM    5  O11 UNL     1     -35.036  18.704  -2.734  1.00 20.00    -0.296 OA
BRANCH   4   6
HETATM    6  C4  UNL     1     -33.711  17.316  -1.370  1.00 20.00     0.061 A 
HETATM    7  C3  UNL     1     -33.985  18.154  -0.164  1.00 20.00     0.017 A 
HETATM    8  C5  UNL     1     -32.591  18.062  -0.717  1.00 20.00    -0.007 A 
HETATM    9  C6  UNL     1     -31.951  19.263  -1.327  1.00 20.00     0.011 C 
ENDBRANCH   4   6
ENDBRANCH   2   4
BRANCH   2  10
HETATM   10  C8  UNL     1     -33.301  15.589  -3.540  1.00 20.00     0.022 C 
HETATM   11  C7  UNL     1     -33.746  14.511  -4.522  1.00 20.00     0.007 C 
ENDBRANCH   2  10
TORSDOF 3
ENDMDL
MODEL 3
REMARK VINA RESULT:      -3.7      1.690      1.964
REMARK  3 active torsions:
REMARK  status: ('A' for Active; 'I' for Inactive)
REMARK    1  A    between atoms: C2_2  and  C4_4 
REMARK    2  A    between atoms: C2_2  and  C9_9 
REMARK    3  A    between atoms: C8_8  and  C9_9 
ROOT
HETATM    1  C1  UNL     1     -42.175  12.430   6.820  1.00 20.00     0.071 C 
HETATM    2  C9  UNL     1     -40.909  13.123   6.519  1.00 20.00     0.162 C 
HETATM    3  N10 UNL     1     -43.173  11.887   7.055  1.00 20.00    -0.196 NA
ENDROOT
BRANCH   2   4
HETATM    4  C2  UNL     1     -40.509  14.059   7.649  1.00 20.00     0.148 C 
HETATM    5  O11 UNL     1     -40.166  13.688   8.766  1.00 20.00    -0.296 OA
BRANCH   4   6
HETATM    6  C4  UNL     1     -40.560  15.520   7.341  1.00 20.00     0.061 A 
HETATM    7  C3  UNL     1     -40.607  16.488   8.477  1.00 20.00     0.017 A 
HETATM    8  C5  UNL     1     -41.811  16.299   7.599  1.00 20.00    -0.007 A 
HETATM    9  C6  UNL     1     -43.050  15.685   8.154  1.00 20.00     0.011 C 
ENDBRANCH   4   6
ENDBRANCH   2   4
BRANCH   2  10
HETATM   10  C8  UNL     1     -39.781  12.133   6.193  1.00 20.00     0.022 C 
HETATM   11  C7  UNL     1     -39.526  11.927   4.703  1.00 20.00     0.007 C 
ENDBRANCH   2  10
TORSDOF 3
ENDMDL
MODEL 4
REMARK VINA RESULT:      -3.6     12.232     13.155
REMARK  3 active torsions:
REMARK  status: ('A' for Active; 'I' for Inactive)
REMARK    1  A    between atoms: C2_2  and  C4_4 
REMARK    2  A    between atoms: C2_2  and  C9_9 
REMARK    3  A    between atoms: C8_8  and  C9_9 
ROOT
HETATM    1  C1  UNL     1     -33.654  15.275  -3.815  1.00 20.00     0.071 C 
HETATM    2  C9  UNL     1     -33.236  16.621  -3.380  1.00 20.00     0.162 C 
HETATM    3  N10 UNL     1     -33.979  14.216  -4.159  1.00 20.00    -0.196 NA
ENDROOT
BRANCH   2   4
HETATM    4  C2  UNL     1     -33.856  17.701  -4.254  1.00 20.00     0.148 C 
HETATM    5  O11 UNL     1     -33.282  18.730  -4.593  1.00 20.00    -0.296 OA
BRANCH   4   6
HETATM    6  C4  UNL     1     -35.260  17.459  -4.701  1.00 20.00     0.061 A 
HETATM    7  C3  UNL     1     -35.977  18.552  -5.424  1.00 20.00     0.017 A 
HETATM    8  C5  UNL     1     -36.394  18.170  -4.033  1.00 20.00    -0.007 A 
HETATM    9  C6  UNL     1     -36.201  19.128  -2.907  1.00 20.00     0.011 C 
ENDBRANCH   4   6
ENDBRANCH   2   4
BRANCH   2  10
HETATM   10  C8  UNL     1     -33.546  16.862  -1.895  1.00 20.00     0.022 C 
HETATM   11  C7  UNL     1     -32.693  17.939  -1.234  1.00 20.00     0.007 C 
ENDBRANCH   2  10
TORSDOF 3
ENDMDL
MODEL 5
REMARK VINA RESULT:      -3.6     10.982     12.585
REMARK  3 active torsions:
REMARK  status: ('A' for Active; 'I' for Inactive)
REMARK    1  A    between atoms: C2_2  and  C4_4 
REMARK    2  A    between atoms: C2_2  and  C9_9 
REMARK    3  A    between atoms: C8_8  and  C9_9 
ROOT
HETATM    1  C1  UNL     1     -34.023  18.509   0.421  1.00 20.00     0.071 C 
HETATM    2  C9  UNL     1     -33.324  17.960  -0.756  1.00 20.00     0.162 C 
HETATM    3  N10 UNL     1     -34.575  18.938   1.347  1.00 20.00    -0.196 NA
ENDROOT
BRANCH   2   4
HETATM    4  C2  UNL     1     -34.119  18.195  -2.031  1.00 20.00     0.148 C 
HETATM    5  O11 UNL     1     -35.316  18.456  -2.061  1.00 20.00    -0.296 OA
BRANCH   4   6
HETATM    6  C4  UNL     1     -33.356  18.083  -3.310  1.00 20.00     0.061 A 
HETATM    7  C3  UNL     1     -34.111  17.805  -4.569  1.00 20.00     0.017 A 
HETATM    8  C5  UNL     1     -33.210  16.755  -3.984  1.00 20.00    -0.007 A 
HETATM    9  C6  UNL     1     -33.791  15.497  -3.434  1.00 20.00     0.011 C 
ENDBRANCH   4   6
ENDBRANCH   2   4
BRANCH   2  10
HETATM   10  C8  UNL     1     -31.897  18.514  -0.880  1.00 20.00     0.022 C 
HETATM   11  C7  UNL     1     -31.091  18.493   0.414  1.00 20.00     0.007 C 
ENDBRANCH   2  10
TORSDOF 3
ENDMDL
MODEL 6
REMARK VINA RESULT:      -3.6     11.274     12.563
REMARK  3 active torsions:
REMARK  status: ('A' for Active; 'I' for Inactive)
REMARK    1  A    between atoms: C2_2  and  C4_4 
REMARK    2  A    between atoms: C2_2  and  C9_9 
REMARK    3  A    between atoms: C8_8  and  C9_9 
ROOT
HETATM    1  C1  UNL     1     -31.266  18.735   0.980  1.00 20.00     0.071 C 
HETATM    2  C9  UNL     1     -32.527  19.039   0.278  1.00 20.00     0.162 C 
HETATM    3  N10 UNL     1     -30.272  18.500   1.531  1.00 20.00    -0.196 NA
ENDROOT
BRANCH   2   4
HETATM    4  C2  UNL     1     -32.452  18.645  -1.189  1.00 20.00     0.148 C 
HETATM    5  O11 UNL     1     -31.804  19.250  -2.035  1.00 20.00    -0.296 OA
BRANCH   4   6
HETATM    6  C4  UNL     1     -33.240  17.440  -1.586  1.00 20.00     0.061 A 
HETATM    7  C3  UNL     1     -33.089  16.915  -2.977  1.00 20.00     0.017 A 
HETATM    8  C5  UNL     1     -34.373  17.569  -2.555  1.00 20.00    -0.007 A 
HETATM    9  C6  UNL     1     -34.780  18.870  -3.159  1.00 20.00     0.011 C 
ENDBRANCH   4   6
ENDBRANCH   2   4
BRANCH   2  10
HETATM   10  C8  UNL     1     -33.734  18.387   0.968  1.00 20.00     0.022 C 
HETATM   11  C7  UNL     1     -34.982  19.260   1.026  1.00 20.00     0.007 C 
ENDBRANCH   2  10
TORSDOF 3
ENDMDL
MODEL 7
REMARK VINA RESULT:      -3.6     10.119     10.820
REMARK  3 active torsions:
REMARK  status: ('A' for Active; 'I' for Inactive)
REMARK    1  A    between atoms: C2_2  and  C4_4 
REMARK    2  A    between atoms: C2_2  and  C9_9 
REMARK    3  A    between atoms: C8_8  and  C9_9 
ROOT
HETATM    1  C1  UNL     1     -32.106   8.689   4.271  1.00 20.00     0.071 C 
HETATM    2  C9  UNL     1     -32.160   7.486   3.421  1.00 20.00     0.162 C 
HETATM    3  N10 UNL     1     -32.061   9.635   4.942  1.00 20.00    -0.196 NA
ENDROOT
BRANCH   2   4
HETATM    4  C2  UNL     1     -33.313   6.577   3.821  1.00 20.00     0.148 C 
HETATM    5  O11 UNL     1     -33.550   5.493   3.302  1.00 20.00    -0.296 OA
BRANCH   4   6
HETATM    6  C4  UNL     1     -34.195   7.080   4.916  1.00 20.00     0.061 A 
HETATM    7  C3  UNL     1     -33.669   7.076   6.315  1.00 20.00     0.017 A 
HETATM    8  C5  UNL     1     -34.764   6.126   5.920  1.00 20.00    -0.007 A 
HETATM    9  C6  UNL     1     -34.501   4.659   5.885  1.00 20.00     0.011 C 
ENDBRANCH   4   6
ENDBRANCH   2   4
BRANCH   2  10
HETATM   10  C8  UNL     1     -32.228   7.845   1.929  1.00 20.00     0.022 C 
HETATM   11  C7  UNL     1     -32.808   9.223   1.632  1.00 20.00     0.007 C 
ENDBRANCH   2  10
TORSDOF 3
ENDMDL
MODEL 8
REMARK VINA RESULT:      -3.5      1.470      2.242
REMARK  3 active torsions:
REMARK  status: ('A' for Active; 'I' for Inactive)
REMARK    1  A    between atoms: C2_2  and  C4_4 
REMARK    2  A    between atoms: C2_2  and  C9_9 
REMARK    3  A    between atoms: C8_8  and  C9_9 
ROOT
HETATM    1  C1  UNL     1     -39.818  12.475   5.691  1.00 20.00     0.071 C 
HETATM    2  C9  UNL     1     -41.184  12.935   6.004  1.00 20.00     0.162 C 
HETATM    3  N10 UNL     1     -38.744  12.109   5.446  1.00 20.00    -0.196 NA
ENDROOT
BRANCH   2   4
HETATM    4  C2  UNL     1     -41.275  13.468   7.426  1.00 20.00     0.148 C 
HETATM    5  O11 UNL     1     -42.154  13.163   8.223  1.00 20.00    -0.296 OA
BRANCH   4   6
HETATM    6  C4  UNL     1     -40.211  14.432   7.835  1.00 20.00     0.061 A 
HETATM    7  C3  UNL     1     -40.272  15.022   9.207  1.00 20.00     0.017 A 
HETATM    8  C5  UNL     1     -40.535  15.883   8.004  1.00 20.00    -0.007 A 
HETATM    9  C6  UNL     1     -41.898  16.442   7.773  1.00 20.00     0.011 C 
ENDBRANCH   4   6
ENDBRANCH   2   4
BRANCH   2  10
HETATM   10  C8  UNL     1     -41.681  13.973   4.988  1.00 20.00     0.022 C 
HETATM   11  C7  UNL     1     -43.174  14.273   5.063  1.00 20.00     0.007 C 
ENDBRANCH   2  10
TORSDOF 3
ENDMDL
MODEL 9
REMARK VINA RESULT:      -3.5     12.807     13.788
REMARK  3 active torsions:
REMARK  status: ('A' for Active; 'I' for Inactive)
REMARK    1  A    between atoms: C2_2  and  C4_4 
REMARK    2  A    between atoms: C2_2  and  C9_9 
REMARK    3  A    between atoms: C8_8  and  C9_9 
ROOT
HETATM    1  C1  UNL     1     -36.159  15.192  -6.900  1.00 20.00     0.071 C 
HETATM    2  C9  UNL     1     -36.068  16.071  -5.719  1.00 20.00     0.162 C 
HETATM    3  N10 UNL     1     -36.230  14.498  -7.827  1.00 20.00    -0.196 NA
ENDROOT
BRANCH   2   4
HETATM    4  C2  UNL     1     -34.647  16.573  -5.512  1.00 20.00     0.148 C 
HETATM    5  O11 UNL     1     -34.290  17.732  -5.688  1.00 20.00    -0.296 OA
BRANCH   4   6
HETATM    6  C4  UNL     1     -33.648  15.553  -5.073  1.00 20.00     0.061 A 
HETATM    7  C3  UNL     1     -34.072  14.518  -4.083  1.00 20.00     0.017 A 
HETATM    8  C5  UNL     1     -33.098  15.589  -3.682  1.00 20.00    -0.007 A 
HETATM    9  C6  UNL     1     -33.495  16.619  -2.679  1.00 20.00     0.011 C 
ENDBRANCH   4   6
ENDBRANCH   2   4
BRANCH   2  10
HETATM   10  C8  UNL     1     -37.063  17.238  -5.800  1.00 20.00     0.022 C 
HETATM   11  C7  UNL     1     -37.529  17.772  -4.450  1.00 20.00     0.007 C 
ENDBRANCH   2  10
TORSDOF 3
ENDMDL
