MODEL 1
REMARK VINA RESULT:      -4.7      0.000      0.000
REMARK  3 active torsions:
REMARK  status: ('A' for Active; 'I' for Inactive)
REMARK    1  A    between atoms: C2_2  and  C5_5 
REMARK    2  A    between atoms: C2_2  and  C7_7 
REMARK    3  A    between atoms: C5_5  and  C6_6 
ROOT
HETATM    1  C1  UNL     1     -32.255   7.967   1.841  1.00 20.00     0.071 C 
HETATM    2  C4  UNL     1     -32.928   5.838   2.886  1.00 20.00     0.033 C 
HETATM    3  C7  UNL     1     -32.176   7.152   3.065  1.00 20.00     0.158 C 
HETATM    4  N8  UNL     1     -32.313   8.609   0.876  1.00 20.00    -0.196 NA
ENDROOT
BRANCH   3   5
HETATM    5  C2  UNL     1     -32.746   7.904   4.262  1.00 20.00     0.144 C 
HETATM    6  O9  UNL     1     -32.159   8.860   4.769  1.00 20.00    -0.297 OA
BRANCH   5   7
HETATM    7  C5  UNL     1     -34.078   7.397   4.800  1.00 20.00     0.079 C 
BRANCH   7   8
HETATM    8  C6  UNL     1     -34.004   6.872   6.231  1.00 20.00     0.003 C 
HETATM    9  C3  UNL     1     -34.527   5.449   6.358  1.00 20.00     0.005 C 
ENDBRANCH   7   8
ENDBRANCH   5   7
ENDBRANCH   3   5
TORSDOF 3
ENDMDL
MODEL 2
REMARK VINA RESULT:      -4.5      2.185      2.628
REMARK  3 active torsions:
REMARK  status: ('A' for Active; 'I' for Inactive)
REMARK    1  A    between atoms: C2_2  and  C5_5 
REMARK    2  A    between atoms: C2_2  and  C7_7 
REMARK    3  A    between atoms: C5_5  and  C6_6 
ROOT
HETATM    1  C1  UNL     1     -32.343   8.124   4.210  1.00 20.00     0.071 C 
HETATM    2  C4  UNL     1     -32.314   7.910   1.753  1.00 20.00     0.033 C 
HETATM    3  C7  UNL     1     -32.124   7.196   3.087  1.00 20.00     0.158 C 
HETATM    4  N8  UNL     1     -32.511   8.854   5.096  1.00 20.00    -0.196 NA
ENDROOT
BRANCH   3   5
HETATM    5  C2  UNL     1     -33.076   6.008   3.166  1.00 20.00     0.144 C 
HETATM    6  O9  UNL     1     -32.845   4.950   2.579  1.00 20.00    -0.297 OA
BRANCH   5   7
HETATM    7  C5  UNL     1     -34.333   6.210   4.003  1.00 20.00     0.079 C 
BRANCH   7   8
HETATM    8  C6  UNL     1     -34.593   5.086   5.003  1.00 20.00     0.003 C 
HETATM    9  C3  UNL     1     -34.498   5.559   6.447  1.00 20.00     0.005 C 
ENDBRANCH   7   8
ENDBRANCH   5   7
ENDBRANCH   3   5
TORSDOF 3
ENDMDL
MODEL 3
REMARK VINA RESULT:      -4.1      1.648      2.421
REMARK  3 active torsions:
REMARK  status: ('A' for Active; 'I' for Inactive)
REMARK    1  A    between atoms: C2_2  and  C5_5 
REMARK    2  A    between atoms: C2_2  and  C7_7 
REMARK    3  A    between atoms: C5_5  and  C6_6 
ROOT
HETATM    1  C1  UNL     1     -32.571   7.587   3.284  1.00 20.00     0.071 C 
HETATM    2  C4  UNL     1     -32.190   9.152   5.151  1.00 20.00     0.033 C 
HETATM    3  C7  UNL     1     -33.197   8.259   4.435  1.00 20.00     0.158 C 
HETATM    4  N8  UNL     1     -32.080   7.060   2.374  1.00 20.00    -0.196 NA
ENDROOT
BRANCH   3   5
HETATM    5  C2  UNL     1     -33.764   7.243   5.419  1.00 20.00     0.144 C 
HETATM    6  O9  UNL     1     -33.308   7.114   6.556  1.00 20.00    -0.297 OA
BRANCH   5   7
HETATM    7  C5  UNL     1     -34.919   6.389   4.911  1.00 20.00     0.079 C 
BRANCH   7   8
HETATM    8  C6  UNL     1     -34.719   4.891   5.126  1.00 20.00     0.003 C 
HETATM    9  C3  UNL     1     -33.831   4.263   4.061  1.00 20.00     0.005 C 
ENDBRANCH   7   8
ENDBRANCH   5   7
ENDBRANCH   3   5
TORSDOF 3
ENDMDL
MODEL 4
REMARK VINA RESULT:      -4.0      2.192      3.336
REMARK  3 active torsions:
REMARK  status: ('A' for Active; 'I' for Inactive)
REMARK    1  A    between atoms: C2_2  and  C5_5 
REMARK    2  A    between atoms: C2_2  and  C7_7 
REMARK    3  A    between atoms: C5_5  and  C6_6 
ROOT
HETATM    1  C1  UNL     1     -33.671   5.288   3.561  1.00 20.00     0.071 C 
HETATM    2  C4  UNL     1     -35.938   6.074   4.132  1.00 20.00     0.033 C 
HETATM    3  C7  UNL     1     -34.627   5.503   4.661  1.00 20.00     0.158 C 
HETATM    4  N8  UNL     1     -32.918   5.115   2.696  1.00 20.00    -0.196 NA
ENDROOT
BRANCH   3   5
HETATM    5  C2  UNL     1     -34.051   6.445   5.711  1.00 20.00     0.144 C 
HETATM    6  O9  UNL     1     -33.679   6.042   6.813  1.00 20.00    -0.297 OA
BRANCH   5   7
HETATM    7  C5  UNL     1     -33.973   7.916   5.321  1.00 20.00     0.079 C 
BRANCH   7   8
HETATM    8  C6  UNL     1     -32.574   8.373   4.917  1.00 20.00     0.003 C 
HETATM    9  C3  UNL     1     -32.468   8.680   3.430  1.00 20.00     0.005 C 
ENDBRANCH   7   8
ENDBRANCH   5   7
ENDBRANCH   3   5
TORSDOF 3
ENDMDL
MODEL 5
REMARK VINA RESULT:      -3.9     11.484     12.287
REMARK  3 active torsions:
REMARK  status: ('A' for Active; 'I' for Inactive)
REMARK    1  A    between atoms: C2_2  and  C5_5 
REMARK    2  A    between atoms: C2_2  and  C7_7 
REMARK    3  A    between atoms: C5_5  and  C6_6 
ROOT
HETATM    1  C1  UNL     1     -31.653  18.669  -0.670  1.00 20.00     0.071 C 
HETATM    2  C4  UNL     1     -33.942  17.885  -0.195  1.00 20.00     0.033 C 
HETATM    3  C7  UNL     1     -33.038  18.633  -1.169  1.00 20.00     0.158 C 
HETATM    4  N8  UNL     1     -30.561  18.702  -0.277  1.00 20.00    -0.196 NA
ENDROOT
BRANCH   3   5
HETATM    5  C2  UNL     1     -33.109  17.969  -2.539  1.00 20.00     0.144 C 
HETATM    6  O9  UNL     1     -32.957  18.609  -3.580  1.00 20.00    -0.297 OA
BRANCH   5   7
HETATM    7  C5  UNL     1     -33.391  16.472  -2.544  1.00 20.00     0.079 C 
BRANCH   7   8
HETATM    8  C6  UNL     1     -33.197  15.814  -3.908  1.00 20.00     0.003 C 
HETATM    9  C3  UNL     1     -34.029  14.550  -4.069  1.00 20.00     0.005 C 
ENDBRANCH   7   8
ENDBRANCH   5   7
ENDBRANCH   3   5
TORSDOF 3
ENDMDL
MODEL 6
REMARK VINA RESULT:      -3.9      2.518      4.136
REMARK  3 active torsions:
REMARK  status: ('A' for Active; 'I' for Inactive)
REMARK    1  A    between atoms: C2_2  and  C5_5 
REMARK    2  A    between atoms: C2_2  and  C7_7 
REMARK    3  A    between atoms: C5_5  and  C6_6 
ROOT
HETATM    1  C1  UNL     1     -34.450   5.772   5.518  1.00 20.00     0.071 C 
HETATM    2  C4  UNL     1     -33.452   5.284   3.317  1.00 20.00     0.033 C 
HETATM    3  C7  UNL     1     -34.100   6.340   4.205  1.00 20.00     0.158 C 
HETATM    4  N8  UNL     1     -34.731   5.326   6.552  1.00 20.00    -0.196 NA
ENDROOT
BRANCH   3   5
HETATM    5  C2  UNL     1     -33.153   7.525   4.356  1.00 20.00     0.144 C 
HETATM    6  O9  UNL     1     -33.176   8.253   5.349  1.00 20.00    -0.297 OA
BRANCH   5   7
HETATM    7  C5  UNL     1     -32.187   7.763   3.202  1.00 20.00     0.079 C 
BRANCH   7   8
HETATM    8  C6  UNL     1     -32.590   8.919   2.290  1.00 20.00     0.003 C 
HETATM    9  C3  UNL     1     -32.338   8.616   0.820  1.00 20.00     0.005 C 
ENDBRANCH   7   8
ENDBRANCH   5   7
ENDBRANCH   3   5
TORSDOF 3
ENDMDL
MODEL 7
REMARK VINA RESULT:      -3.9      2.441      3.941
REMARK  3 active torsions:
REMARK  status: ('A' for Active; 'I' for Inactive)
REMARK    1  A    between atoms: C2_2  and  C5_5 
REMARK    2  A    between atoms: C2_2  and  C7_7 
REMARK    3  A    between atoms: C5_5  and  C6_6 
ROOT
HETATM    1  C1  UNL     1     -33.622   7.646   5.514  1.00 20.00     0.071 C 
HETATM    2  C4  UNL     1     -33.728   5.545   6.800  1.00 20.00     0.033 C 
HETATM    3  C7  UNL     1     -34.472   6.497   5.870  1.00 20.00     0.158 C 
HETATM    4  N8  UNL     1     -32.956   8.554   5.235  1.00 20.00    -0.196 NA
ENDROOT
BRANCH   3   5
HETATM    5  C2  UNL     1     -34.921   5.742   4.624  1.00 20.00     0.144 C 
HETATM    6  O9  UNL     1     -35.986   5.995   4.059  1.00 20.00    -0.297 OA
BRANCH   5   7
HETATM    7  C5  UNL     1     -33.983   4.650   4.127  1.00 20.00     0.079 C 
BRANCH   7   8
HETATM    8  C6  UNL     1     -33.422   4.908   2.731  1.00 20.00     0.003 C 
HETATM    9  C3  UNL     1     -32.531   6.141   2.680  1.00 20.00     0.005 C 
ENDBRANCH   7   8
ENDBRANCH   5   7
ENDBRANCH   3   5
TORSDOF 3
ENDMDL
MODEL 8
REMARK VINA RESULT:      -3.8     11.483     12.304
REMARK  3 active torsions:
REMARK  status: ('A' for Active; 'I' for Inactive)
REMARK    1  A    between atoms: C2_2  and  C5_5 
REMARK    2  A    between atoms: C2_2  and  C7_7 
REMARK    3  A    between atoms: C5_5  and  C6_6 
ROOT
HETATM    1  C1  UNL     1     -35.604  15.043  -6.176  1.00 20.00     0.071 C 
HETATM    2  C4  UNL     1     -34.550  17.217  -5.682  1.00 20.00     0.033 C 
HETATM    3  C7  UNL     1     -35.125  15.929  -5.102  1.00 20.00     0.158 C 
HETATM    4  N8  UNL     1     -35.985  14.345  -7.021  1.00 20.00    -0.196 NA
ENDROOT
BRANCH   3   5
HETATM    5  C2  UNL     1     -34.063  15.238  -4.255  1.00 20.00     0.144 C 
HETATM    6  O9  UNL     1     -34.007  14.011  -4.156  1.00 20.00    -0.297 OA
BRANCH   5   7
HETATM    7  C5  UNL     1     -33.084  16.152  -3.529  1.00 20.00     0.079 C 
BRANCH   7   8
HETATM    8  C6  UNL     1     -33.579  16.624  -2.164  1.00 20.00     0.003 C 
HETATM    9  C3  UNL     1     -32.785  17.809  -1.634  1.00 20.00     0.005 C 
ENDBRANCH   7   8
ENDBRANCH   5   7
ENDBRANCH   3   5
TORSDOF 3
ENDMDL
MODEL 9
REMARK VINA RESULT:      -3.8      2.639      4.448
REMARK  3 active torsions:
REMARK  status: ('A' for Active; 'I' for Inactive)
REMARK    1  A    between atoms: C2_2  and  C5_5 
REMARK    2  A    between atoms: C2_2  and  C7_7 
REMARK    3  A    between atoms: C5_5  and  C6_6 
ROOT
HETATM    1  C1  UNL     1     -34.377   5.844   4.834  1.00 20.00     0.071 C 
HETATM    2  C4  UNL     1     -33.760   8.228   4.955  1.00 20.00     0.033 C 
HETATM    3  C7  UNL     1     -33.280   6.811   4.663  1.00 20.00     0.158 C 
HETATM    4  N8  UNL     1     -35.240   5.080   4.971  1.00 20.00    -0.196 NA
ENDROOT
BRANCH   3   5
HETATM    5  C2  UNL     1     -32.710   6.749   3.251  1.00 20.00     0.144 C 
HETATM    6  O9  UNL     1     -32.732   5.713   2.585  1.00 20.00    -0.297 OA
BRANCH   5   7
HETATM    7  C5  UNL     1     -32.101   8.040   2.716  1.00 20.00     0.079 C 
BRANCH   7   8
HETATM    8  C6  UNL     1     -32.099   8.134   1.193  1.00 20.00     0.003 C 
HETATM    9  C3  UNL     1     -32.743   9.417   0.688  1.00 20.00     0.005 C 
ENDBRANCH   7   8
ENDBRANCH   5   7
ENDBRANCH   3   5
TORSDOF 3
ENDMDL
