MODEL 1
REMARK VINA RESULT:      -5.0      0.000      0.000
REMARK  2 active torsions:
REMARK  status: ('A' for Active; 'I' for Inactive)
REMARK    1  A    between atoms: C1_1  and  C3_3 
REMARK    2  A    between atoms: C7_7  and  C9_9 
ROOT
HETATM    1  C1  UNL     1     -33.821   6.233   4.374  1.00 20.00    -0.002 C 
HETATM    2  C2  UNL     1     -33.734   7.130   5.373  1.00 20.00     0.021 C 
HETATM    3  C4  UNL     1     -33.195   6.461   3.022  1.00 20.00     0.047 C 
HETATM    4  C5  UNL     1     -32.979   8.426   5.240  1.00 20.00     0.052 C 
HETATM    5  C6  UNL     1     -32.073   8.484   4.007  1.00 20.00     0.010 C 
HETATM    6  C7  UNL     1     -32.788   7.923   2.775  1.00 20.00    -0.010 C 
HETATM    7 CL11 UNL     1     -34.465   6.911   6.929  1.00 20.00    -0.088 Cl
ENDROOT
BRANCH   1   8
HETATM    8  C3  UNL     1     -34.544   4.960   4.523  1.00 20.00     0.267 C 
HETATM    9  O10 UNL     1     -33.972   3.881   4.517  1.00 20.00    -0.302 OA
ENDBRANCH   1   8
BRANCH   6  10
HETATM   10  C9  UNL     1     -31.912   8.040   1.530  1.00 20.00     0.000 C 
HETATM   11  C8  UNL     1     -32.519   8.947   0.511  1.00 20.00     0.005 C 
ENDBRANCH   6  10
TORSDOF 2
ENDMDL
MODEL 2
REMARK VINA RESULT:      -4.5      2.890      4.700
REMARK  2 active torsions:
REMARK  status: ('A' for Active; 'I' for Inactive)
REMARK    1  A    between atoms: C1_1  and  C3_3 
REMARK    2  A    between atoms: C7_7  and  C9_9 
ROOT
HETATM    1  C1  UNL     1     -32.793   7.776   3.669  1.00 20.00    -0.002 C 
HETATM    2  C2  UNL     1     -32.530   7.254   2.457  1.00 20.00     0.021 C 
HETATM    3  C4  UNL     1     -33.516   7.007   4.745  1.00 20.00     0.047 C 
HETATM    4  C5  UNL     1     -32.907   5.846   2.078  1.00 20.00     0.052 C 
HETATM    5  C6  UNL     1     -33.318   4.979   3.272  1.00 20.00     0.010 C 
HETATM    6  C7  UNL     1     -34.235   5.753   4.222  1.00 20.00    -0.010 C 
HETATM    7 CL11 UNL     1     -31.726   8.120   1.190  1.00 20.00    -0.088 Cl
ENDROOT
BRANCH   1   8
HETATM    8  C3  UNL     1     -32.401   9.146   4.035  1.00 20.00     0.267 C 
HETATM    9  O10 UNL     1     -32.088   9.452   5.175  1.00 20.00    -0.302 OA
ENDBRANCH   1   8
BRANCH   6  10
HETATM   10  C9  UNL     1     -34.699   4.870   5.379  1.00 20.00     0.000 C 
HETATM   11  C8  UNL     1     -34.633   5.593   6.685  1.00 20.00     0.005 C 
ENDBRANCH   6  10
TORSDOF 2
ENDMDL
MODEL 3
REMARK VINA RESULT:      -4.3     11.777     12.720
REMARK  2 active torsions:
REMARK  status: ('A' for Active; 'I' for Inactive)
REMARK    1  A    between atoms: C1_1  and  C3_3 
REMARK    2  A    between atoms: C7_7  and  C9_9 
ROOT
HETATM    1  C1  UNL     1     -33.747  16.274  -3.738  1.00 20.00    -0.002 C 
HETATM    2  C2  UNL     1     -34.562  17.130  -4.380  1.00 20.00     0.021 C 
HETATM    3  C4  UNL     1     -33.141  16.585  -2.394  1.00 20.00     0.047 C 
HETATM    4  C5  UNL     1     -34.966  18.460  -3.801  1.00 20.00     0.052 C 
HETATM    5  C6  UNL     1     -34.632  18.608  -2.314  1.00 20.00     0.010 C 
HETATM    6  C7  UNL     1     -33.230  18.071  -2.011  1.00 20.00    -0.010 C 
HETATM    7 CL11 UNL     1     -35.254  16.815  -5.938  1.00 20.00    -0.088 Cl
ENDROOT
BRANCH   1   8
HETATM    8  C3  UNL     1     -33.376  14.968  -4.306  1.00 20.00     0.267 C 
HETATM    9  O10 UNL     1     -34.061  13.970  -4.146  1.00 20.00    -0.302 OA
ENDBRANCH   1   8
BRANCH   6  10
HETATM   10  C9  UNL     1     -32.869  18.276  -0.542  1.00 20.00     0.000 C 
HETATM   11  C8  UNL     1     -31.405  18.517  -0.362  1.00 20.00     0.005 C 
ENDBRANCH   6  10
TORSDOF 2
ENDMDL
MODEL 4
REMARK VINA RESULT:      -4.1      2.328      3.948
REMARK  2 active torsions:
REMARK  status: ('A' for Active; 'I' for Inactive)
REMARK    1  A    between atoms: C1_1  and  C3_3 
REMARK    2  A    between atoms: C7_7  and  C9_9 
ROOT
HETATM    1  C1  UNL     1     -33.004   6.471   3.013  1.00 20.00    -0.002 C 
HETATM    2  C2  UNL     1     -32.524   7.702   2.758  1.00 20.00     0.021 C 
HETATM    3  C4  UNL     1     -33.632   6.101   4.332  1.00 20.00     0.047 C 
HETATM    4  C5  UNL     1     -32.599   8.827   3.756  1.00 20.00     0.052 C 
HETATM    5  C6  UNL     1     -33.534   8.541   4.934  1.00 20.00     0.010 C 
HETATM    6  C7  UNL     1     -33.341   7.113   5.453  1.00 20.00    -0.010 C 
HETATM    7 CL11 UNL     1     -31.772   8.151   1.263  1.00 20.00    -0.088 Cl
ENDROOT
BRANCH   1   8
HETATM    8  C3  UNL     1     -32.943   5.384   2.022  1.00 20.00     0.267 C 
HETATM    9  O10 UNL     1     -32.640   4.241   2.326  1.00 20.00    -0.302 OA
ENDBRANCH   1   8
BRANCH   6  10
HETATM   10  C9  UNL     1     -34.225   6.845   6.669  1.00 20.00     0.000 C 
HETATM   11  C8  UNL     1     -34.817   5.474   6.629  1.00 20.00     0.005 C 
ENDBRANCH   6  10
TORSDOF 2
ENDMDL
MODEL 5
REMARK VINA RESULT:      -4.0     12.243     12.672
REMARK  2 active torsions:
REMARK  status: ('A' for Active; 'I' for Inactive)
REMARK    1  A    between atoms: C1_1  and  C3_3 
REMARK    2  A    between atoms: C7_7  and  C9_9 
ROOT
HETATM    1  C1  UNL     1     -33.568  18.999   0.974  1.00 20.00    -0.002 C 
HETATM    2  C2  UNL     1     -33.009  18.580  -0.176  1.00 20.00     0.021 C 
HETATM    3  C4  UNL     1     -32.763  19.263   2.220  1.00 20.00     0.047 C 
HETATM    4  C5  UNL     1     -31.526  18.367  -0.329  1.00 20.00     0.052 C 
HETATM    5  C6  UNL     1     -30.700  18.963   0.814  1.00 20.00     0.010 C 
HETATM    6  C7  UNL     1     -31.346  18.667   2.170  1.00 20.00    -0.010 C 
HETATM    7 CL11 UNL     1     -33.910  18.242  -1.617  1.00 20.00    -0.088 Cl
ENDROOT
BRANCH   1   8
HETATM    8  C3  UNL     1     -35.017  19.223   1.106  1.00 20.00     0.267 C 
HETATM    9  O10 UNL     1     -35.649  18.844   2.080  1.00 20.00    -0.302 OA
ENDBRANCH   1   8
BRANCH   6  10
HETATM   10  C9  UNL     1     -30.491  19.203   3.315  1.00 20.00     0.000 C 
HETATM   11  C8  UNL     1     -29.105  18.646   3.276  1.00 20.00     0.005 C 
ENDBRANCH   6  10
TORSDOF 2
ENDMDL
MODEL 6
REMARK VINA RESULT:      -4.0     10.432     11.272
REMARK  2 active torsions:
REMARK  status: ('A' for Active; 'I' for Inactive)
REMARK    1  A    between atoms: C1_1  and  C3_3 
REMARK    2  A    between atoms: C7_7  and  C9_9 
ROOT
HETATM    1  C1  UNL     1     -40.892  14.944   7.324  1.00 20.00    -0.002 C 
HETATM    2  C2  UNL     1     -41.861  15.324   6.473  1.00 20.00     0.021 C 
HETATM    3  C4  UNL     1     -40.106  13.670   7.145  1.00 20.00     0.047 C 
HETATM    4  C5  UNL     1     -42.227  14.528   5.248  1.00 20.00     0.052 C 
HETATM    5  C6  UNL     1     -41.206  13.443   4.895  1.00 20.00     0.010 C 
HETATM    6  C7  UNL     1     -40.749  12.691   6.148  1.00 20.00    -0.010 C 
HETATM    7 CL11 UNL     1     -42.800  16.768   6.666  1.00 20.00    -0.088 Cl
ENDROOT
BRANCH   1   8
HETATM    8  C3  UNL     1     -40.529  15.741   8.508  1.00 20.00     0.267 C 
HETATM    9  O10 UNL     1     -39.765  15.324   9.364  1.00 20.00    -0.302 OA
ENDBRANCH   1   8
BRANCH   6  10
HETATM   10  C9  UNL     1     -39.781  11.566   5.791  1.00 20.00     0.000 C 
HETATM   11  C8  UNL     1     -39.196  11.751   4.429  1.00 20.00     0.005 C 
ENDBRANCH   6  10
TORSDOF 2
ENDMDL
MODEL 7
REMARK VINA RESULT:      -3.9     12.240     13.218
REMARK  2 active torsions:
REMARK  status: ('A' for Active; 'I' for Inactive)
REMARK    1  A    between atoms: C1_1  and  C3_3 
REMARK    2  A    between atoms: C7_7  and  C9_9 
ROOT
HETATM    1  C1  UNL     1     -35.257  16.875  -4.999  1.00 20.00    -0.002 C 
HETATM    2  C2  UNL     1     -34.968  15.611  -5.359  1.00 20.00     0.021 C 
HETATM    3  C4  UNL     1     -34.576  17.567  -3.847  1.00 20.00     0.047 C 
HETATM    4  C5  UNL     1     -33.918  14.786  -4.662  1.00 20.00     0.052 C 
HETATM    5  C6  UNL     1     -33.009  15.604  -3.740  1.00 20.00     0.010 C 
HETATM    6  C7  UNL     1     -33.822  16.604  -2.915  1.00 20.00    -0.010 C 
HETATM    7 CL11 UNL     1     -35.752  14.778  -6.661  1.00 20.00    -0.088 Cl
ENDROOT
BRANCH   1   8
HETATM    8  C3  UNL     1     -36.272  17.678  -5.701  1.00 20.00     0.267 C 
HETATM    9  O10 UNL     1     -37.468  17.537  -5.500  1.00 20.00    -0.302 OA
ENDBRANCH   1   8
BRANCH   6  10
HETATM   10  C9  UNL     1     -32.926  17.375  -1.948  1.00 20.00     0.000 C 
HETATM   11  C8  UNL     1     -33.669  17.791  -0.720  1.00 20.00     0.005 C 
ENDBRANCH   6  10
TORSDOF 2
ENDMDL
MODEL 8
REMARK VINA RESULT:      -3.7     10.591     11.286
REMARK  2 active torsions:
REMARK  status: ('A' for Active; 'I' for Inactive)
REMARK    1  A    between atoms: C1_1  and  C3_3 
REMARK    2  A    between atoms: C7_7  and  C9_9 
ROOT
HETATM    1  C1  UNL     1     -42.158  14.519   5.250  1.00 20.00    -0.002 C 
HETATM    2  C2  UNL     1     -42.123  15.294   6.349  1.00 20.00     0.021 C 
HETATM    3  C4  UNL     1     -41.232  13.346   5.053  1.00 20.00     0.047 C 
HETATM    4  C5  UNL     1     -41.177  15.042   7.493  1.00 20.00     0.052 C 
HETATM    5  C6  UNL     1     -40.499  13.670   7.437  1.00 20.00     0.010 C 
HETATM    6  C7  UNL     1     -40.032  13.347   6.015  1.00 20.00    -0.010 C 
HETATM    7 CL11 UNL     1     -43.155  16.665   6.593  1.00 20.00    -0.088 Cl
ENDROOT
BRANCH   1   8
HETATM    8  C3  UNL     1     -43.102  14.763   4.146  1.00 20.00     0.267 C 
HETATM    9  O10 UNL     1     -42.844  14.465   2.991  1.00 20.00    -0.302 OA
ENDBRANCH   1   8
BRANCH   6  10
HETATM   10  C9  UNL     1     -39.298  12.009   5.968  1.00 20.00     0.000 C 
HETATM   11  C8  UNL     1     -39.115  11.529   4.565  1.00 20.00     0.005 C 
ENDBRANCH   6  10
TORSDOF 2
ENDMDL
MODEL 9
REMARK VINA RESULT:      -3.7      1.981      2.548
REMARK  2 active torsions:
REMARK  status: ('A' for Active; 'I' for Inactive)
REMARK    1  A    between atoms: C1_1  and  C3_3 
REMARK    2  A    between atoms: C7_7  and  C9_9 
ROOT
HETATM    1  C1  UNL     1     -33.943   6.507   4.751  1.00 20.00    -0.002 C 
HETATM    2  C2  UNL     1     -33.543   5.468   3.996  1.00 20.00     0.021 C 
HETATM    3  C4  UNL     1     -33.626   7.937   4.398  1.00 20.00     0.047 C 
HETATM    4  C5  UNL     1     -32.771   5.642   2.715  1.00 20.00     0.052 C 
HETATM    5  C6  UNL     1     -32.761   7.083   2.197  1.00 20.00     0.010 C 
HETATM    6  C7  UNL     1     -32.520   8.075   3.338  1.00 20.00    -0.010 C 
HETATM    7 CL11 UNL     1     -33.867   3.811   4.389  1.00 20.00    -0.088 Cl
ENDROOT
BRANCH   1   8
HETATM    8  C3  UNL     1     -34.715   6.325   5.992  1.00 20.00     0.267 C 
HETATM    9  O10 UNL     1     -34.505   6.991   6.993  1.00 20.00    -0.302 OA
ENDBRANCH   1   8
BRANCH   6  10
HETATM   10  C9  UNL     1     -32.444   9.507   2.815  1.00 20.00     0.000 C 
HETATM   11  C8  UNL     1     -32.857   9.594   1.382  1.00 20.00     0.005 C 
ENDBRANCH   6  10
TORSDOF 2
ENDMDL
