MODEL 1
REMARK VINA RESULT:      -5.0      0.000      0.000
REMARK  2 active torsions:
REMARK  status: ('A' for Active; 'I' for Inactive)
REMARK    1  A    between atoms: C2_2  and  C4_4 
REMARK    2  A    between atoms: C2_2  and  C8_8 
ROOT
HETATM    1  C1  UNL     1     -32.233   7.962   1.744  1.00 20.00     0.071 C 
HETATM    2  C7  UNL     1     -32.921   5.834   2.778  1.00 20.00     0.033 C 
HETATM    3  C8  UNL     1     -32.114   7.117   2.945  1.00 20.00     0.158 C 
HETATM    4  N9  UNL     1     -32.322   8.628   0.799  1.00 20.00    -0.196 NA
ENDROOT
BRANCH   3   5
HETATM    5  C2  UNL     1     -32.594   7.859   4.180  1.00 20.00     0.148 C 
HETATM    6  O10 UNL     1     -32.028   8.831   4.667  1.00 20.00    -0.296 OA
BRANCH   5   7
HETATM    7  C4  UNL     1     -33.831   7.326   4.825  1.00 20.00     0.061 A 
HETATM    8  C3  UNL     1     -34.212   7.847   6.172  1.00 20.00     0.017 A 
HETATM    9  C5  UNL     1     -33.679   6.446   6.034  1.00 20.00    -0.007 A 
HETATM   10  C6  UNL     1     -34.587   5.278   6.208  1.00 20.00     0.011 C 
ENDBRANCH   5   7
ENDBRANCH   3   5
TORSDOF 2
ENDMDL
MODEL 2
REMARK VINA RESULT:      -4.3      2.425      4.253
REMARK  2 active torsions:
REMARK  status: ('A' for Active; 'I' for Inactive)
REMARK    1  A    between atoms: C2_2  and  C4_4 
REMARK    2  A    between atoms: C2_2  and  C8_8 
ROOT
HETATM    1  C1  UNL     1     -34.013   7.393   5.420  1.00 20.00     0.071 C 
HETATM    2  C7  UNL     1     -34.706   5.450   6.767  1.00 20.00     0.033 C 
HETATM    3  C8  UNL     1     -34.759   6.123   5.400  1.00 20.00     0.158 C 
HETATM    4  N9  UNL     1     -33.428   8.394   5.434  1.00 20.00    -0.196 NA
ENDROOT
BRANCH   3   5
HETATM    5  C2  UNL     1     -34.199   5.180   4.349  1.00 20.00     0.148 C 
HETATM    6  O10 UNL     1     -34.039   3.977   4.515  1.00 20.00    -0.296 OA
BRANCH   5   7
HETATM    7  C4  UNL     1     -33.813   5.803   3.048  1.00 20.00     0.061 A 
HETATM    8  C3  UNL     1     -32.874   5.062   2.156  1.00 20.00     0.017 A 
HETATM    9  C5  UNL     1     -32.401   6.290   2.886  1.00 20.00    -0.007 A 
HETATM   10  C6  UNL     1     -32.144   7.554   2.139  1.00 20.00     0.011 C 
ENDBRANCH   5   7
ENDBRANCH   3   5
TORSDOF 2
ENDMDL
MODEL 3
REMARK VINA RESULT:      -4.2      1.999      3.385
REMARK  2 active torsions:
REMARK  status: ('A' for Active; 'I' for Inactive)
REMARK    1  A    between atoms: C2_2  and  C4_4 
REMARK    2  A    between atoms: C2_2  and  C8_8 
ROOT
HETATM    1  C1  UNL     1     -33.517   5.280   3.534  1.00 20.00     0.071 C 
HETATM    2  C7  UNL     1     -35.741   5.787   4.465  1.00 20.00     0.033 C 
HETATM    3  C8  UNL     1     -34.253   5.630   4.761  1.00 20.00     0.158 C 
HETATM    4  N9  UNL     1     -32.935   5.001   2.570  1.00 20.00    -0.196 NA
ENDROOT
BRANCH   3   5
HETATM    5  C2  UNL     1     -33.719   6.915   5.367  1.00 20.00     0.148 C 
HETATM    6  O10 UNL     1     -34.092   7.384   6.436  1.00 20.00    -0.296 OA
BRANCH   5   7
HETATM    7  C4  UNL     1     -32.684   7.636   4.567  1.00 20.00     0.061 A 
HETATM    8  C3  UNL     1     -32.326   9.031   4.960  1.00 20.00     0.017 A 
HETATM    9  C5  UNL     1     -33.125   8.787   3.708  1.00 20.00    -0.007 A 
HETATM   10  C6  UNL     1     -32.500   8.983   2.369  1.00 20.00     0.011 C 
ENDBRANCH   5   7
ENDBRANCH   3   5
TORSDOF 2
ENDMDL
MODEL 4
REMARK VINA RESULT:      -4.1      9.224     10.547
REMARK  2 active torsions:
REMARK  status: ('A' for Active; 'I' for Inactive)
REMARK    1  A    between atoms: C2_2  and  C4_4 
REMARK    2  A    between atoms: C2_2  and  C8_8 
ROOT
HETATM    1  C1  UNL     1     -40.766  14.849   7.499  1.00 20.00     0.071 C 
HETATM    2  C7  UNL     1     -42.507  14.753   5.757  1.00 20.00     0.033 C 
HETATM    3  C8  UNL     1     -41.198  14.162   6.269  1.00 20.00     0.158 C 
HETATM    4  N9  UNL     1     -40.423  15.391   8.465  1.00 20.00    -0.196 NA
ENDROOT
BRANCH   3   5
HETATM    5  C2  UNL     1     -41.375  12.674   6.512  1.00 20.00     0.148 C 
HETATM    6  O10 UNL     1     -42.280  12.185   7.178  1.00 20.00    -0.296 OA
BRANCH   5   7
HETATM    7  C4  UNL     1     -40.347  11.782   5.897  1.00 20.00     0.061 A 
HETATM    8  C3  UNL     1     -38.918  11.972   6.283  1.00 20.00     0.017 A 
HETATM    9  C5  UNL     1     -39.384  12.383   4.912  1.00 20.00    -0.007 A 
HETATM   10  C6  UNL     1     -38.976  11.597   3.714  1.00 20.00     0.011 C 
ENDBRANCH   5   7
ENDBRANCH   3   5
TORSDOF 2
ENDMDL
MODEL 5
REMARK VINA RESULT:      -4.1     15.273     15.677
REMARK  2 active torsions:
REMARK  status: ('A' for Active; 'I' for Inactive)
REMARK    1  A    between atoms: C2_2  and  C4_4 
REMARK    2  A    between atoms: C2_2  and  C8_8 
ROOT
HETATM    1  C1  UNL     1     -22.199  17.442   8.331  1.00 20.00     0.071 C 
HETATM    2  C7  UNL     1     -23.805  19.261   8.760  1.00 20.00     0.033 C 
HETATM    3  C8  UNL     1     -23.236  17.936   9.254  1.00 20.00     0.158 C 
HETATM    4  N9  UNL     1     -21.385  17.050   7.604  1.00 20.00    -0.196 NA
ENDROOT
BRANCH   3   5
HETATM    5  C2  UNL     1     -22.674  18.118  10.653  1.00 20.00     0.148 C 
HETATM    6  O10 UNL     1     -21.535  18.499  10.898  1.00 20.00    -0.296 OA
BRANCH   5   7
HETATM    7  C4  UNL     1     -23.597  17.782  11.778  1.00 20.00     0.061 A 
HETATM    8  C3  UNL     1     -24.043  16.367  11.934  1.00 20.00     0.017 A 
HETATM    9  C5  UNL     1     -25.014  17.408  11.447  1.00 20.00    -0.007 A 
HETATM   10  C6  UNL     1     -26.120  17.874  12.330  1.00 20.00     0.011 C 
ENDBRANCH   5   7
ENDBRANCH   3   5
TORSDOF 2
ENDMDL
MODEL 6
REMARK VINA RESULT:      -4.1     11.516     12.547
REMARK  2 active torsions:
REMARK  status: ('A' for Active; 'I' for Inactive)
REMARK    1  A    between atoms: C2_2  and  C4_4 
REMARK    2  A    between atoms: C2_2  and  C8_8 
ROOT
HETATM    1  C1  UNL     1     -36.032  15.209  -5.483  1.00 20.00     0.071 C 
HETATM    2  C7  UNL     1     -33.967  15.282  -6.826  1.00 20.00     0.033 C 
HETATM    3  C8  UNL     1     -34.646  15.708  -5.529  1.00 20.00     0.158 C 
HETATM    4  N9  UNL     1     -37.124  14.820  -5.446  1.00 20.00    -0.196 NA
ENDROOT
BRANCH   3   5
HETATM    5  C2  UNL     1     -33.845  15.194  -4.346  1.00 20.00     0.148 C 
HETATM    6  O10 UNL     1     -33.804  14.020  -3.996  1.00 20.00    -0.296 OA
BRANCH   5   7
HETATM    7  C4  UNL     1     -33.083  16.220  -3.574  1.00 20.00     0.061 A 
HETATM    8  C3  UNL     1     -33.568  16.589  -2.211  1.00 20.00     0.017 A 
HETATM    9  C5  UNL     1     -33.725  17.560  -3.350  1.00 20.00    -0.007 A 
HETATM   10  C6  UNL     1     -32.889  18.792  -3.407  1.00 20.00     0.011 C 
ENDBRANCH   5   7
ENDBRANCH   3   5
TORSDOF 2
ENDMDL
MODEL 7
REMARK VINA RESULT:      -4.1      1.619      2.105
REMARK  2 active torsions:
REMARK  status: ('A' for Active; 'I' for Inactive)
REMARK    1  A    between atoms: C2_2  and  C4_4 
REMARK    2  A    between atoms: C2_2  and  C8_8 
ROOT
HETATM    1  C1  UNL     1     -32.966   8.989   2.555  1.00 20.00     0.071 C 
HETATM    2  C7  UNL     1     -32.112   8.561   4.827  1.00 20.00     0.033 C 
HETATM    3  C8  UNL     1     -33.139   8.172   3.769  1.00 20.00     0.158 C 
HETATM    4  N9  UNL     1     -32.834   9.634   1.600  1.00 20.00    -0.196 NA
ENDROOT
BRANCH   3   5
HETATM    5  C2  UNL     1     -33.003   6.694   3.451  1.00 20.00     0.148 C 
HETATM    6  O10 UNL     1     -32.235   6.234   2.614  1.00 20.00    -0.296 OA
BRANCH   5   7
HETATM    7  C4  UNL     1     -33.893   5.773   4.219  1.00 20.00     0.061 A 
HETATM    8  C3  UNL     1     -35.352   6.083   4.282  1.00 20.00     0.017 A 
HETATM    9  C5  UNL     1     -34.493   6.273   5.503  1.00 20.00    -0.007 A 
HETATM   10  C6  UNL     1     -34.620   5.345   6.662  1.00 20.00     0.011 C 
ENDBRANCH   5   7
ENDBRANCH   3   5
TORSDOF 2
ENDMDL
MODEL 8
REMARK VINA RESULT:      -4.0     11.758     12.482
REMARK  2 active torsions:
REMARK  status: ('A' for Active; 'I' for Inactive)
REMARK    1  A    between atoms: C2_2  and  C4_4 
REMARK    2  A    between atoms: C2_2  and  C8_8 
ROOT
HETATM    1  C1  UNL     1     -34.078  15.183  -6.829  1.00 20.00     0.071 C 
HETATM    2  C7  UNL     1     -35.893  15.985  -5.369  1.00 20.00     0.033 C 
HETATM    3  C8  UNL     1     -34.662  15.091  -5.480  1.00 20.00     0.158 C 
HETATM    4  N9  UNL     1     -33.618  15.251  -7.892  1.00 20.00    -0.196 NA
ENDROOT
BRANCH   3   5
HETATM    5  C2  UNL     1     -33.650  15.490  -4.422  1.00 20.00     0.148 C 
HETATM    6  O10 UNL     1     -32.581  14.919  -4.236  1.00 20.00    -0.296 OA
BRANCH   5   7
HETATM    7  C4  UNL     1     -34.026  16.649  -3.559  1.00 20.00     0.061 A 
HETATM    8  C3  UNL     1     -33.173  17.874  -3.602  1.00 20.00     0.017 A 
HETATM    9  C5  UNL     1     -33.141  16.981  -2.390  1.00 20.00    -0.007 A 
HETATM   10  C6  UNL     1     -33.756  17.431  -1.110  1.00 20.00     0.011 C 
ENDBRANCH   5   7
ENDBRANCH   3   5
TORSDOF 2
ENDMDL
MODEL 9
REMARK VINA RESULT:      -4.0     11.736     12.480
REMARK  2 active torsions:
REMARK  status: ('A' for Active; 'I' for Inactive)
REMARK    1  A    between atoms: C2_2  and  C4_4 
REMARK    2  A    between atoms: C2_2  and  C8_8 
ROOT
HETATM    1  C1  UNL     1     -33.798  15.338  -4.239  1.00 20.00     0.071 C 
HETATM    2  C7  UNL     1     -34.740  17.153  -5.613  1.00 20.00     0.033 C 
HETATM    3  C8  UNL     1     -34.366  16.697  -4.207  1.00 20.00     0.158 C 
HETATM    4  N9  UNL     1     -33.353  14.267  -4.262  1.00 20.00    -0.196 NA
ENDROOT
BRANCH   3   5
HETATM    5  C2  UNL     1     -33.384  17.682  -3.600  1.00 20.00     0.148 C 
HETATM    6  O10 UNL     1     -32.996  18.704  -4.154  1.00 20.00    -0.296 OA
BRANCH   5   7
HETATM    7  C4  UNL     1     -32.865  17.338  -2.242  1.00 20.00     0.061 A 
HETATM    8  C3  UNL     1     -33.754  17.560  -1.064  1.00 20.00     0.017 A 
HETATM    9  C5  UNL     1     -32.570  18.462  -1.289  1.00 20.00    -0.007 A 
HETATM   10  C6  UNL     1     -31.379  18.373  -0.398  1.00 20.00     0.011 C 
ENDBRANCH   5   7
ENDBRANCH   3   5
TORSDOF 2
ENDMDL
