MODEL 1
REMARK VINA RESULT:      -3.8      0.000      0.000
REMARK  3 active torsions:
REMARK  status: ('A' for Active; 'I' for Inactive)
REMARK    1  A    between atoms: C2_2  and  C7_7 
REMARK    2  A    between atoms: C2_2  and  C8_8 
REMARK    3  A    between atoms: C7_7  and  C9_9 
ROOT
HETATM    1  C1  UNL     1     -35.330  14.102  -4.599  1.00 20.00     0.071 C 
HETATM    2  C3  UNL     1     -34.172  15.476  -6.287  1.00 20.00     0.033 C 
HETATM    3  C8  UNL     1     -34.642  15.381  -4.840  1.00 20.00     0.158 C 
HETATM    4  N10 UNL     1     -35.876  13.096  -4.407  1.00 20.00    -0.196 NA
ENDROOT
BRANCH   3   5
HETATM    5  C2  UNL     1     -33.444  15.540  -3.911  1.00 20.00     0.144 C 
HETATM    6  O11 UNL     1     -32.325  15.117  -4.208  1.00 20.00    -0.296 OA
BRANCH   5   7
HETATM    7  C7  UNL     1     -33.687  16.222  -2.573  1.00 20.00     0.088 C 
BRANCH   7   8
HETATM    8  C9  UNL     1     -33.570  17.763  -2.598  1.00 20.00    -0.045 C 
HETATM    9  C4  UNL     1     -34.904  18.430  -2.224  1.00 20.00     0.015 C 
HETATM   10  C5  UNL     1     -33.121  18.267  -3.980  1.00 20.00     0.015 C 
HETATM   11  C6  UNL     1     -32.509  18.178  -1.561  1.00 20.00     0.015 C 
ENDBRANCH   7   8
ENDBRANCH   5   7
ENDBRANCH   3   5
TORSDOF 3
ENDMDL
MODEL 2
REMARK VINA RESULT:      -3.7      3.130      4.785
REMARK  3 active torsions:
REMARK  status: ('A' for Active; 'I' for Inactive)
REMARK    1  A    between atoms: C2_2  and  C7_7 
REMARK    2  A    between atoms: C2_2  and  C8_8 
REMARK    3  A    between atoms: C7_7  and  C9_9 
ROOT
HETATM    1  C1  UNL     1     -31.697  18.584  -0.630  1.00 20.00     0.071 C 
HETATM    2  C3  UNL     1     -33.966  18.040   0.166  1.00 20.00     0.033 C 
HETATM    3  C8  UNL     1     -33.117  18.506  -1.011  1.00 20.00     0.158 C 
HETATM    4  N10 UNL     1     -30.577  18.649  -0.331  1.00 20.00    -0.196 NA
ENDROOT
BRANCH   3   5
HETATM    5  C2  UNL     1     -33.316  17.552  -2.183  1.00 20.00     0.144 C 
HETATM    6  O11 UNL     1     -33.546  16.352  -2.018  1.00 20.00    -0.296 OA
BRANCH   5   7
HETATM    7  C7  UNL     1     -33.191  18.134  -3.583  1.00 20.00     0.088 C 
BRANCH   7   8
HETATM    8  C9  UNL     1     -34.511  18.189  -4.385  1.00 20.00    -0.045 C 
HETATM    9  C4  UNL     1     -35.695  18.576  -3.484  1.00 20.00     0.015 C 
HETATM   10  C5  UNL     1     -34.808  16.842  -5.063  1.00 20.00     0.015 C 
HETATM   11  C6  UNL     1     -34.360  19.262  -5.481  1.00 20.00     0.015 C 
ENDBRANCH   7   8
ENDBRANCH   5   7
ENDBRANCH   3   5
TORSDOF 3
ENDMDL
MODEL 3
REMARK VINA RESULT:      -3.6     11.750     12.619
REMARK  3 active torsions:
REMARK  status: ('A' for Active; 'I' for Inactive)
REMARK    1  A    between atoms: C2_2  and  C7_7 
REMARK    2  A    between atoms: C2_2  and  C8_8 
REMARK    3  A    between atoms: C7_7  and  C9_9 
ROOT
HETATM    1  C1  UNL     1     -34.286   4.597   4.757  1.00 20.00     0.071 C 
HETATM    2  C3  UNL     1     -35.972   6.266   4.083  1.00 20.00     0.033 C 
HETATM    3  C8  UNL     1     -35.030   5.795   5.185  1.00 20.00     0.158 C 
HETATM    4  N10 UNL     1     -33.701   3.652   4.424  1.00 20.00    -0.196 NA
ENDROOT
BRANCH   3   5
HETATM    5  C2  UNL     1     -34.077   6.927   5.550  1.00 20.00     0.144 C 
HETATM    6  O11 UNL     1     -33.352   6.877   6.545  1.00 20.00    -0.296 OA
BRANCH   5   7
HETATM    7  C7  UNL     1     -34.074   8.151   4.646  1.00 20.00     0.088 C 
BRANCH   7   8
HETATM    8  C9  UNL     1     -32.763   8.374   3.858  1.00 20.00    -0.045 C 
HETATM    9  C4  UNL     1     -32.953   9.411   2.739  1.00 20.00     0.015 C 
HETATM   10  C5  UNL     1     -32.246   7.060   3.250  1.00 20.00     0.015 C 
HETATM   11  C6  UNL     1     -31.700   8.906   4.840  1.00 20.00     0.015 C 
ENDBRANCH   7   8
ENDBRANCH   5   7
ENDBRANCH   3   5
TORSDOF 3
ENDMDL
MODEL 4
REMARK VINA RESULT:      -3.6      1.912      2.475
REMARK  3 active torsions:
REMARK  status: ('A' for Active; 'I' for Inactive)
REMARK    1  A    between atoms: C2_2  and  C7_7 
REMARK    2  A    between atoms: C2_2  and  C8_8 
REMARK    3  A    between atoms: C7_7  and  C9_9 
ROOT
HETATM    1  C1  UNL     1     -33.980  15.272  -6.446  1.00 20.00     0.071 C 
HETATM    2  C3  UNL     1     -34.321  14.360  -4.181  1.00 20.00     0.033 C 
HETATM    3  C8  UNL     1     -33.799  15.530  -5.008  1.00 20.00     0.158 C 
HETATM    4  N10 UNL     1     -34.118  15.069  -7.581  1.00 20.00    -0.196 NA
ENDROOT
BRANCH   3   5
HETATM    5  C2  UNL     1     -34.521  16.805  -4.587  1.00 20.00     0.144 C 
HETATM    6  O11 UNL     1     -35.746  16.917  -4.658  1.00 20.00    -0.296 OA
BRANCH   5   7
HETATM    7  C7  UNL     1     -33.662  17.961  -4.097  1.00 20.00     0.088 C 
BRANCH   7   8
HETATM    8  C9  UNL     1     -33.764  18.251  -2.583  1.00 20.00    -0.045 C 
HETATM    9  C4  UNL     1     -33.550  16.974  -1.754  1.00 20.00     0.015 C 
HETATM   10  C5  UNL     1     -35.127  18.867  -2.223  1.00 20.00     0.015 C 
HETATM   11  C6  UNL     1     -32.661  19.262  -2.214  1.00 20.00     0.015 C 
ENDBRANCH   7   8
ENDBRANCH   5   7
ENDBRANCH   3   5
TORSDOF 3
ENDMDL
MODEL 5
REMARK VINA RESULT:      -3.5     11.754     12.670
REMARK  3 active torsions:
REMARK  status: ('A' for Active; 'I' for Inactive)
REMARK    1  A    between atoms: C2_2  and  C7_7 
REMARK    2  A    between atoms: C2_2  and  C8_8 
REMARK    3  A    between atoms: C7_7  and  C9_9 
ROOT
HETATM    1  C1  UNL     1     -34.291   4.589   4.748  1.00 20.00     0.071 C 
HETATM    2  C3  UNL     1     -35.982   6.252   4.073  1.00 20.00     0.033 C 
HETATM    3  C8  UNL     1     -35.044   5.781   5.178  1.00 20.00     0.158 C 
HETATM    4  N10 UNL     1     -33.700   3.649   4.414  1.00 20.00    -0.196 NA
ENDROOT
BRANCH   3   5
HETATM    5  C2  UNL     1     -34.099   6.916   5.554  1.00 20.00     0.144 C 
HETATM    6  O11 UNL     1     -33.387   6.869   6.559  1.00 20.00    -0.296 OA
BRANCH   5   7
HETATM    7  C7  UNL     1     -34.087   8.139   4.649  1.00 20.00     0.088 C 
BRANCH   7   8
HETATM    8  C9  UNL     1     -32.752   8.388   3.910  1.00 20.00    -0.045 C 
HETATM    9  C4  UNL     1     -32.223   7.097   3.264  1.00 20.00     0.015 C 
HETATM   10  C5  UNL     1     -31.685   8.954   4.861  1.00 20.00     0.015 C 
HETATM   11  C6  UNL     1     -33.009   9.422   2.796  1.00 20.00     0.015 C 
ENDBRANCH   7   8
ENDBRANCH   5   7
ENDBRANCH   3   5
TORSDOF 3
ENDMDL
MODEL 6
REMARK VINA RESULT:      -3.5     12.050     12.954
REMARK  3 active torsions:
REMARK  status: ('A' for Active; 'I' for Inactive)
REMARK    1  A    between atoms: C2_2  and  C7_7 
REMARK    2  A    between atoms: C2_2  and  C8_8 
REMARK    3  A    between atoms: C7_7  and  C9_9 
ROOT
HETATM    1  C1  UNL     1     -39.727  12.130   4.594  1.00 20.00     0.071 C 
HETATM    2  C3  UNL     1     -41.518  13.814   4.791  1.00 20.00     0.033 C 
HETATM    3  C8  UNL     1     -40.746  12.701   5.491  1.00 20.00     0.158 C 
HETATM    4  N10 UNL     1     -38.926  11.677   3.888  1.00 20.00    -0.196 NA
ENDROOT
BRANCH   3   5
HETATM    5  C2  UNL     1     -40.108  13.253   6.761  1.00 20.00     0.144 C 
HETATM    6  O11 UNL     1     -39.371  12.569   7.474  1.00 20.00    -0.296 OA
BRANCH   5   7
HETATM    7  C7  UNL     1     -40.441  14.689   7.138  1.00 20.00     0.088 C 
BRANCH   7   8
HETATM    8  C9  UNL     1     -41.283  14.845   8.425  1.00 20.00    -0.045 C 
HETATM    9  C4  UNL     1     -40.400  14.778   9.681  1.00 20.00     0.015 C 
HETATM   10  C5  UNL     1     -42.373  13.763   8.513  1.00 20.00     0.015 C 
HETATM   11  C6  UNL     1     -41.970  16.224   8.382  1.00 20.00     0.015 C 
ENDBRANCH   7   8
ENDBRANCH   5   7
ENDBRANCH   3   5
TORSDOF 3
ENDMDL
MODEL 7
REMARK VINA RESULT:      -3.5      1.865      2.443
REMARK  3 active torsions:
REMARK  status: ('A' for Active; 'I' for Inactive)
REMARK    1  A    between atoms: C2_2  and  C7_7 
REMARK    2  A    between atoms: C2_2  and  C8_8 
REMARK    3  A    between atoms: C7_7  and  C9_9 
ROOT
HETATM    1  C1  UNL     1     -35.697  14.082  -5.125  1.00 20.00     0.071 C 
HETATM    2  C3  UNL     1     -34.061  15.206  -6.588  1.00 20.00     0.033 C 
HETATM    3  C8  UNL     1     -35.491  15.202  -6.059  1.00 20.00     0.158 C 
HETATM    4  N10 UNL     1     -35.862  13.198  -4.391  1.00 20.00    -0.196 NA
ENDROOT
BRANCH   3   5
HETATM    5  C2  UNL     1     -35.781  16.537  -5.383  1.00 20.00     0.144 C 
HETATM    6  O11 UNL     1     -36.902  16.825  -4.959  1.00 20.00    -0.296 OA
BRANCH   5   7
HETATM    7  C7  UNL     1     -34.630  17.526  -5.276  1.00 20.00     0.088 C 
BRANCH   7   8
HETATM    8  C9  UNL     1     -34.138  17.798  -3.837  1.00 20.00    -0.045 C 
HETATM    9  C4  UNL     1     -33.607  16.514  -3.177  1.00 20.00     0.015 C 
HETATM   10  C5  UNL     1     -35.258  18.390  -2.965  1.00 20.00     0.015 C 
HETATM   11  C6  UNL     1     -32.988  18.821  -3.910  1.00 20.00     0.015 C 
ENDBRANCH   7   8
ENDBRANCH   5   7
ENDBRANCH   3   5
TORSDOF 3
ENDMDL
MODEL 8
REMARK VINA RESULT:      -3.4     11.327     12.509
REMARK  3 active torsions:
REMARK  status: ('A' for Active; 'I' for Inactive)
REMARK    1  A    between atoms: C2_2  and  C7_7 
REMARK    2  A    between atoms: C2_2  and  C8_8 
REMARK    3  A    between atoms: C7_7  and  C9_9 
ROOT
HETATM    1  C1  UNL     1     -32.761   9.043   2.107  1.00 20.00     0.071 C 
HETATM    2  C3  UNL     1     -32.089   9.415   4.450  1.00 20.00     0.033 C 
HETATM    3  C8  UNL     1     -33.038   8.683   3.508  1.00 20.00     0.158 C 
HETATM    4  N10 UNL     1     -32.548   9.328   1.002  1.00 20.00    -0.196 NA
ENDROOT
BRANCH   3   5
HETATM    5  C2  UNL     1     -32.898   7.180   3.722  1.00 20.00     0.144 C 
HETATM    6  O11 UNL     1     -32.526   6.423   2.824  1.00 20.00    -0.296 OA
BRANCH   5   7
HETATM    7  C7  UNL     1     -33.267   6.636   5.095  1.00 20.00     0.088 C 
BRANCH   7   8
HETATM    8  C9  UNL     1     -34.425   5.612   5.098  1.00 20.00    -0.045 C 
HETATM    9  C4  UNL     1     -33.982   4.267   4.500  1.00 20.00     0.015 C 
HETATM   10  C5  UNL     1     -35.639   6.140   4.316  1.00 20.00     0.015 C 
HETATM   11  C6  UNL     1     -34.852   5.380   6.560  1.00 20.00     0.015 C 
ENDBRANCH   7   8
ENDBRANCH   5   7
ENDBRANCH   3   5
TORSDOF 3
ENDMDL
MODEL 9
REMARK VINA RESULT:      -3.4      2.175      3.632
REMARK  3 active torsions:
REMARK  status: ('A' for Active; 'I' for Inactive)
REMARK    1  A    between atoms: C2_2  and  C7_7 
REMARK    2  A    between atoms: C2_2  and  C8_8 
REMARK    3  A    between atoms: C7_7  and  C9_9 
ROOT
HETATM    1  C1  UNL     1     -35.197  13.924  -4.650  1.00 20.00     0.071 C 
HETATM    2  C3  UNL     1     -33.669  15.640  -3.758  1.00 20.00     0.033 C 
HETATM    3  C8  UNL     1     -33.960  14.681  -4.906  1.00 20.00     0.158 C 
HETATM    4  N10 UNL     1     -36.169  13.323  -4.449  1.00 20.00    -0.196 NA
ENDROOT
BRANCH   3   5
HETATM    5  C2  UNL     1     -34.063  15.471  -6.206  1.00 20.00     0.144 C 
HETATM    6  O11 UNL     1     -33.772  14.976  -7.297  1.00 20.00    -0.296 OA
BRANCH   5   7
HETATM    7  C7  UNL     1     -34.516  16.920  -6.106  1.00 20.00     0.088 C 
BRANCH   7   8
HETATM    8  C9  UNL     1     -36.017  17.153  -6.390  1.00 20.00    -0.045 C 
HETATM    9  C4  UNL     1     -36.833  17.187  -5.088  1.00 20.00     0.015 C 
HETATM   10  C5  UNL     1     -36.585  16.065  -7.317  1.00 20.00     0.015 C 
HETATM   11  C6  UNL     1     -36.163  18.515  -7.095  1.00 20.00     0.015 C 
ENDBRANCH   7   8
ENDBRANCH   5   7
ENDBRANCH   3   5
TORSDOF 3
ENDMDL
