MODEL 1
REMARK VINA RESULT:      -4.2      0.000      0.000
REMARK  3 active torsions:
REMARK  status: ('A' for Active; 'I' for Inactive)
REMARK    1  A    between atoms: C4_4  and  N9_9 
REMARK    2  A    between atoms: C6_6  and  N9_9 
REMARK    3  A    between atoms: C7_7  and  N9_9 
ROOT
HETATM    1  C1  UNL     1     -33.552   5.384   3.261  1.00 20.00     0.089 C 
HETATM    2  C6  UNL     1     -34.596   5.858   4.167  1.00 20.00     0.396 C 
HETATM    3  N8  UNL     1     -32.725   5.003   2.542  1.00 20.00    -0.195 NA
ENDROOT
BRANCH   2   4
HETATM    4  N9  UNL     1     -34.159   7.054   4.885  1.00 20.00     0.105 N 
BRANCH   4   5
HETATM    5  C4  UNL     1     -32.846   7.485   4.408  1.00 20.00     0.224 A 
HETATM    6  C2  UNL     1     -32.728   8.600   3.406  1.00 20.00     0.038 A 
HETATM    7  C3  UNL     1     -32.281   8.816   4.823  1.00 20.00     0.038 A 
ENDBRANCH   4   5
BRANCH   4   8
HETATM    8  C7  UNL     1     -34.122   6.801   6.326  1.00 20.00     0.269 C 
HETATM    9  C5  UNL     1     -34.573   5.415   6.640  1.00 20.00     0.037 C 
ENDBRANCH   4   8
ENDBRANCH   2   4
TORSDOF 3
ENDMDL
MODEL 2
REMARK VINA RESULT:      -4.1      1.539      3.204
REMARK  3 active torsions:
REMARK  status: ('A' for Active; 'I' for Inactive)
REMARK    1  A    between atoms: C4_4  and  N9_9 
REMARK    2  A    between atoms: C6_6  and  N9_9 
REMARK    3  A    between atoms: C7_7  and  N9_9 
ROOT
HETATM    1  C1  UNL     1     -32.358   7.298   2.137  1.00 20.00     0.089 C 
HETATM    2  C6  UNL     1     -32.783   6.281   3.097  1.00 20.00     0.396 C 
HETATM    3  N8  UNL     1     -32.019   8.102   1.373  1.00 20.00    -0.195 NA
ENDROOT
BRANCH   2   4
HETATM    4  N9  UNL     1     -33.163   6.892   4.370  1.00 20.00     0.105 N 
BRANCH   4   5
HETATM    5  C4  UNL     1     -34.437   6.348   4.838  1.00 20.00     0.224 A 
HETATM    6  C2  UNL     1     -34.633   4.862   4.956  1.00 20.00     0.038 A 
HETATM    7  C3  UNL     1     -34.542   5.706   6.194  1.00 20.00     0.038 A 
ENDBRANCH   4   5
BRANCH   4   8
HETATM    8  C7  UNL     1     -33.246   8.346   4.234  1.00 20.00     0.269 C 
HETATM    9  C5  UNL     1     -32.294   9.027   5.158  1.00 20.00     0.037 C 
ENDBRANCH   4   8
ENDBRANCH   2   4
TORSDOF 3
ENDMDL
MODEL 3
REMARK VINA RESULT:      -4.1      9.295     10.190
REMARK  3 active torsions:
REMARK  status: ('A' for Active; 'I' for Inactive)
REMARK    1  A    between atoms: C4_4  and  N9_9 
REMARK    2  A    between atoms: C6_6  and  N9_9 
REMARK    3  A    between atoms: C7_7  and  N9_9 
ROOT
HETATM    1  C1  UNL     1     -42.574  12.550   6.888  1.00 20.00     0.089 C 
HETATM    2  C6  UNL     1     -41.857  13.459   5.996  1.00 20.00     0.396 C 
HETATM    3  N8  UNL     1     -43.146  11.830   7.595  1.00 20.00    -0.195 NA
ENDROOT
BRANCH   2   4
HETATM    4  N9  UNL     1     -40.443  13.539   6.358  1.00 20.00     0.105 N 
BRANCH   4   5
HETATM    5  C4  UNL     1     -39.796  12.240   6.180  1.00 20.00     0.224 A 
HETATM    6  C2  UNL     1     -39.598  11.670   4.803  1.00 20.00     0.038 A 
HETATM    7  C3  UNL     1     -38.414  12.148   5.593  1.00 20.00     0.038 A 
ENDBRANCH   4   5
BRANCH   4   8
HETATM    8  C7  UNL     1     -40.294  14.001   7.738  1.00 20.00     0.269 C 
HETATM    9  C5  UNL     1     -40.366  15.488   7.819  1.00 20.00     0.037 C 
ENDBRANCH   4   8
ENDBRANCH   2   4
TORSDOF 3
ENDMDL
MODEL 4
REMARK VINA RESULT:      -4.0      1.345      2.856
REMARK  3 active torsions:
REMARK  status: ('A' for Active; 'I' for Inactive)
REMARK    1  A    between atoms: C4_4  and  N9_9 
REMARK    2  A    between atoms: C6_6  and  N9_9 
REMARK    3  A    between atoms: C7_7  and  N9_9 
ROOT
HETATM    1  C1  UNL     1     -34.628   5.522   5.669  1.00 20.00     0.089 C 
HETATM    2  C6  UNL     1     -34.453   5.905   4.269  1.00 20.00     0.396 C 
HETATM    3  N8  UNL     1     -34.772   5.217   6.779  1.00 20.00    -0.195 NA
ENDROOT
BRANCH   2   4
HETATM    4  N9  UNL     1     -33.176   6.590   4.072  1.00 20.00     0.105 N 
BRANCH   4   5
HETATM    5  C4  UNL     1     -33.347   8.036   4.209  1.00 20.00     0.224 A 
HETATM    6  C2  UNL     1     -33.546   8.655   5.565  1.00 20.00     0.038 A 
HETATM    7  C3  UNL     1     -32.262   8.879   4.821  1.00 20.00     0.038 A 
ENDBRANCH   4   5
BRANCH   4   8
HETATM    8  C7  UNL     1     -32.616   6.263   2.761  1.00 20.00     0.269 C 
HETATM    9  C5  UNL     1     -32.943   4.861   2.372  1.00 20.00     0.037 C 
ENDBRANCH   4   8
ENDBRANCH   2   4
TORSDOF 3
ENDMDL
MODEL 5
REMARK VINA RESULT:      -4.0      9.456     10.217
REMARK  3 active torsions:
REMARK  status: ('A' for Active; 'I' for Inactive)
REMARK    1  A    between atoms: C4_4  and  N9_9 
REMARK    2  A    between atoms: C6_6  and  N9_9 
REMARK    3  A    between atoms: C7_7  and  N9_9 
ROOT
HETATM    1  C1  UNL     1     -41.973  14.156   4.438  1.00 20.00     0.089 C 
HETATM    2  C6  UNL     1     -41.845  13.522   5.749  1.00 20.00     0.396 C 
HETATM    3  N8  UNL     1     -42.079  14.658   3.397  1.00 20.00    -0.195 NA
ENDROOT
BRANCH   2   4
HETATM    4  N9  UNL     1     -40.459  13.559   6.212  1.00 20.00     0.105 N 
BRANCH   4   5
HETATM    5  C4  UNL     1     -39.838  12.242   6.072  1.00 20.00     0.224 A 
HETATM    6  C2  UNL     1     -39.566  11.669   4.709  1.00 20.00     0.038 A 
HETATM    7  C3  UNL     1     -38.424  12.112   5.577  1.00 20.00     0.038 A 
ENDBRANCH   4   5
BRANCH   4   8
HETATM    8  C7  UNL     1     -40.396  14.009   7.602  1.00 20.00     0.269 C 
HETATM    9  C5  UNL     1     -40.421  15.498   7.687  1.00 20.00     0.037 C 
ENDBRANCH   4   8
ENDBRANCH   2   4
TORSDOF 3
ENDMDL
MODEL 6
REMARK VINA RESULT:      -3.9      1.409      2.892
REMARK  3 active torsions:
REMARK  status: ('A' for Active; 'I' for Inactive)
REMARK    1  A    between atoms: C4_4  and  N9_9 
REMARK    2  A    between atoms: C6_6  and  N9_9 
REMARK    3  A    between atoms: C7_7  and  N9_9 
ROOT
HETATM    1  C1  UNL     1     -34.618   5.562   5.807  1.00 20.00     0.089 C 
HETATM    2  C6  UNL     1     -34.996   6.232   4.564  1.00 20.00     0.396 C 
HETATM    3  N8  UNL     1     -34.322   5.030   6.795  1.00 20.00    -0.195 NA
ENDROOT
BRANCH   2   4
HETATM    4  N9  UNL     1     -33.977   7.200   4.163  1.00 20.00     0.105 N 
BRANCH   4   5
HETATM    5  C4  UNL     1     -32.793   6.512   3.650  1.00 20.00     0.224 A 
HETATM    6  C2  UNL     1     -32.932   5.400   2.648  1.00 20.00     0.038 A 
HETATM    7  C3  UNL     1     -32.345   6.716   2.229  1.00 20.00     0.038 A 
ENDBRANCH   4   5
BRANCH   4   8
HETATM    8  C7  UNL     1     -33.621   8.064   5.288  1.00 20.00     0.269 C 
HETATM    9  C5  UNL     1     -32.418   8.888   4.974  1.00 20.00     0.037 C 
ENDBRANCH   4   8
ENDBRANCH   2   4
TORSDOF 3
ENDMDL
MODEL 7
REMARK VINA RESULT:      -3.9      1.767      3.514
REMARK  3 active torsions:
REMARK  status: ('A' for Active; 'I' for Inactive)
REMARK    1  A    between atoms: C4_4  and  N9_9 
REMARK    2  A    between atoms: C6_6  and  N9_9 
REMARK    3  A    between atoms: C7_7  and  N9_9 
ROOT
HETATM    1  C1  UNL     1     -32.788   9.148   2.694  1.00 20.00     0.089 C 
HETATM    2  C6  UNL     1     -32.746   8.461   3.984  1.00 20.00     0.396 C 
HETATM    3  N8  UNL     1     -32.821   9.696   1.673  1.00 20.00    -0.195 NA
ENDROOT
BRANCH   2   4
HETATM    4  N9  UNL     1     -33.290   7.109   3.873  1.00 20.00     0.105 N 
BRANCH   4   5
HETATM    5  C4  UNL     1     -33.384   6.486   5.193  1.00 20.00     0.224 A 
HETATM    6  C2  UNL     1     -34.074   7.197   6.323  1.00 20.00     0.038 A 
HETATM    7  C3  UNL     1     -34.704   5.982   5.707  1.00 20.00     0.038 A 
ENDBRANCH   4   5
BRANCH   4   8
HETATM    8  C7  UNL     1     -32.463   6.296   2.981  1.00 20.00     0.269 C 
HETATM    9  C5  UNL     1     -33.134   5.006   2.651  1.00 20.00     0.037 C 
ENDBRANCH   4   8
ENDBRANCH   2   4
TORSDOF 3
ENDMDL
MODEL 8
REMARK VINA RESULT:      -3.8      1.558      1.999
REMARK  3 active torsions:
REMARK  status: ('A' for Active; 'I' for Inactive)
REMARK    1  A    between atoms: C4_4  and  N9_9 
REMARK    2  A    between atoms: C6_6  and  N9_9 
REMARK    3  A    between atoms: C7_7  and  N9_9 
ROOT
HETATM    1  C1  UNL     1     -32.358   7.285   2.173  1.00 20.00     0.089 C 
HETATM    2  C6  UNL     1     -32.619   6.243   3.165  1.00 20.00     0.396 C 
HETATM    3  N8  UNL     1     -32.147   8.110   1.385  1.00 20.00    -0.195 NA
ENDROOT
BRANCH   2   4
HETATM    4  N9  UNL     1     -33.738   6.614   4.029  1.00 20.00     0.105 N 
BRANCH   4   5
HETATM    5  C4  UNL     1     -33.261   7.364   5.190  1.00 20.00     0.224 A 
HETATM    6  C2  UNL     1     -32.378   8.567   5.009  1.00 20.00     0.038 A 
HETATM    7  C3  UNL     1     -33.792   8.741   5.482  1.00 20.00     0.038 A 
ENDBRANCH   4   5
BRANCH   4   8
HETATM    8  C7  UNL     1     -34.472   5.423   4.455  1.00 20.00     0.269 C 
HETATM    9  C5  UNL     1     -34.609   5.377   5.939  1.00 20.00     0.037 C 
ENDBRANCH   4   8
ENDBRANCH   2   4
TORSDOF 3
ENDMDL
MODEL 9
REMARK VINA RESULT:      -3.7      9.573     10.643
REMARK  3 active torsions:
REMARK  status: ('A' for Active; 'I' for Inactive)
REMARK    1  A    between atoms: C4_4  and  N9_9 
REMARK    2  A    between atoms: C6_6  and  N9_9 
REMARK    3  A    between atoms: C7_7  and  N9_9 
ROOT
HETATM    1  C1  UNL     1     -40.488  14.215   8.512  1.00 20.00     0.089 C 
HETATM    2  C6  UNL     1     -40.481  14.446   7.069  1.00 20.00     0.396 C 
HETATM    3  N8  UNL     1     -40.489  14.034   9.658  1.00 20.00    -0.195 NA
ENDROOT
BRANCH   2   4
HETATM    4  N9  UNL     1     -41.153  13.356   6.364  1.00 20.00     0.105 N 
BRANCH   4   5
HETATM    5  C4  UNL     1     -40.262  12.769   5.362  1.00 20.00     0.224 A 
HETATM    6  C2  UNL     1     -38.867  12.354   5.734  1.00 20.00     0.038 A 
HETATM    7  C3  UNL     1     -39.900  11.311   5.422  1.00 20.00     0.038 A 
ENDBRANCH   4   5
BRANCH   4   8
HETATM    8  C7  UNL     1     -42.384  13.835   5.736  1.00 20.00     0.269 C 
HETATM    9  C5  UNL     1     -42.122  14.350   4.362  1.00 20.00     0.037 C 
ENDBRANCH   4   8
ENDBRANCH   2   4
TORSDOF 3
ENDMDL
