MODEL 1
REMARK VINA RESULT:      -3.9      0.000      0.000
REMARK  3 active torsions:
REMARK  status: ('A' for Active; 'I' for Inactive)
REMARK    1  A    between atoms: C1_1  and  C4_4 
REMARK       I    between atoms: C1_1  and  N7_7 
REMARK    2  A    between atoms: C5_5  and  C6_6 
REMARK    3  A    between atoms: C6_6  and  N7_7 
ROOT
HETATM    1  C1  UNL     1     -31.480  18.610   0.330  1.00 20.00     0.233 C 
HETATM    2  C3  UNL     1     -34.008  18.383   0.466  1.00 20.00     0.152 C 
HETATM    3  N7  UNL     1     -32.735  18.384  -0.250  1.00 20.00    -0.356 N 
HETATM    4  O8  UNL     1     -30.428  18.603  -0.315  1.00 20.00    -0.272 OA
ENDROOT
BRANCH   3   5
HETATM    5  C6  UNL     1     -32.829  18.130  -1.683  1.00 20.00     0.125 C 
BRANCH   5   6
HETATM    6  C5  UNL     1     -33.486  16.790  -1.994  1.00 20.00     0.015 C 
HETATM    7  C2  UNL     1     -33.215  16.317  -3.415  1.00 20.00     0.006 C 
ENDBRANCH   5   6
ENDBRANCH   3   5
BRANCH   1   8
HETATM    8  C4  UNL     1     -31.487  18.871   1.823  1.00 20.00     0.217 C 
HETATM    9 CL9  UNL     1     -29.888  18.557   2.526  1.00 20.00    -0.121 Cl
ENDBRANCH   1   8
TORSDOF 3
ENDMDL
MODEL 2
REMARK VINA RESULT:      -3.8     11.532     11.775
REMARK  3 active torsions:
REMARK  status: ('A' for Active; 'I' for Inactive)
REMARK    1  A    between atoms: C1_1  and  C4_4 
REMARK       I    between atoms: C1_1  and  N7_7 
REMARK    2  A    between atoms: C5_5  and  C6_6 
REMARK    3  A    between atoms: C6_6  and  N7_7 
ROOT
HETATM    1  C1  UNL     1     -33.564   6.766   4.503  1.00 20.00     0.233 C 
HETATM    2  C3  UNL     1     -32.338   8.966   4.848  1.00 20.00     0.152 C 
HETATM    3  N7  UNL     1     -32.763   7.820   4.047  1.00 20.00    -0.356 N 
HETATM    4  O8  UNL     1     -33.899   5.816   3.790  1.00 20.00    -0.272 OA
ENDROOT
BRANCH   3   5
HETATM    5  C6  UNL     1     -32.283   7.815   2.670  1.00 20.00     0.125 C 
BRANCH   5   6
HETATM    6  C5  UNL     1     -32.666   9.083   1.916  1.00 20.00     0.015 C 
HETATM    7  C2  UNL     1     -32.576   8.920   0.406  1.00 20.00     0.006 C 
ENDBRANCH   5   6
ENDBRANCH   3   5
BRANCH   1   8
HETATM    8  C4  UNL     1     -34.006   6.859   5.950  1.00 20.00     0.217 C 
HETATM    9 CL9  UNL     1     -34.683   5.314   6.503  1.00 20.00    -0.121 Cl
ENDBRANCH   1   8
TORSDOF 3
ENDMDL
MODEL 3
REMARK VINA RESULT:      -3.8     11.965     12.297
REMARK  3 active torsions:
REMARK  status: ('A' for Active; 'I' for Inactive)
REMARK    1  A    between atoms: C1_1  and  C4_4 
REMARK       I    between atoms: C1_1  and  N7_7 
REMARK    2  A    between atoms: C5_5  and  C6_6 
REMARK    3  A    between atoms: C6_6  and  N7_7 
ROOT
HETATM    1  C1  UNL     1     -33.826   6.001   3.988  1.00 20.00     0.233 C 
HETATM    2  C3  UNL     1     -33.642   8.212   5.229  1.00 20.00     0.152 C 
HETATM    3  N7  UNL     1     -33.238   7.254   4.202  1.00 20.00    -0.356 N 
HETATM    4  O8  UNL     1     -33.451   5.223   3.108  1.00 20.00    -0.272 OA
ENDROOT
BRANCH   3   5
HETATM    5  C6  UNL     1     -32.126   7.680   3.361  1.00 20.00     0.125 C 
BRANCH   5   6
HETATM    6  C5  UNL     1     -32.508   8.821   2.426  1.00 20.00     0.015 C 
HETATM    7  C2  UNL     1     -32.248   8.495   0.963  1.00 20.00     0.006 C 
ENDBRANCH   5   6
ENDBRANCH   3   5
BRANCH   1   8
HETATM    8  C4  UNL     1     -34.970   5.647   4.917  1.00 20.00     0.217 C 
HETATM    9 CL9  UNL     1     -34.359   5.140   6.505  1.00 20.00    -0.121 Cl
ENDBRANCH   1   8
TORSDOF 3
ENDMDL
MODEL 4
REMARK VINA RESULT:      -3.8     11.751     12.164
REMARK  3 active torsions:
REMARK  status: ('A' for Active; 'I' for Inactive)
REMARK    1  A    between atoms: C1_1  and  C4_4 
REMARK       I    between atoms: C1_1  and  N7_7 
REMARK    2  A    between atoms: C5_5  and  C6_6 
REMARK    3  A    between atoms: C6_6  and  N7_7 
ROOT
HETATM    1  C1  UNL     1     -33.863   6.987   4.556  1.00 20.00     0.233 C 
HETATM    2  C3  UNL     1     -32.944   5.458   2.744  1.00 20.00     0.152 C 
HETATM    3  N7  UNL     1     -32.987   6.708   3.498  1.00 20.00    -0.356 N 
HETATM    4  O8  UNL     1     -33.864   8.060   5.164  1.00 20.00    -0.272 OA
ENDROOT
BRANCH   3   5
HETATM    5  C6  UNL     1     -32.028   7.721   3.073  1.00 20.00     0.125 C 
BRANCH   5   6
HETATM    6  C5  UNL     1     -32.168   8.071   1.596  1.00 20.00     0.015 C 
HETATM    7  C2  UNL     1     -32.829   9.423   1.372  1.00 20.00     0.006 C 
ENDBRANCH   5   6
ENDBRANCH   3   5
BRANCH   1   8
HETATM    8  C4  UNL     1     -34.826   5.874   4.917  1.00 20.00     0.217 C 
HETATM    9 CL9  UNL     1     -34.536   5.301   6.571  1.00 20.00    -0.121 Cl
ENDBRANCH   1   8
TORSDOF 3
ENDMDL
MODEL 5
REMARK VINA RESULT:      -3.7     11.512     12.002
REMARK  3 active torsions:
REMARK  status: ('A' for Active; 'I' for Inactive)
REMARK    1  A    between atoms: C1_1  and  C4_4 
REMARK       I    between atoms: C1_1  and  N7_7 
REMARK    2  A    between atoms: C5_5  and  C6_6 
REMARK    3  A    between atoms: C6_6  and  N7_7 
ROOT
HETATM    1  C1  UNL     1     -32.492   8.199   2.970  1.00 20.00     0.233 C 
HETATM    2  C3  UNL     1     -32.937   5.696   2.921  1.00 20.00     0.152 C 
HETATM    3  N7  UNL     1     -32.913   7.005   3.570  1.00 20.00    -0.356 N 
HETATM    4  O8  UNL     1     -32.488   9.283   3.557  1.00 20.00    -0.272 OA
ENDROOT
BRANCH   3   5
HETATM    5  C6  UNL     1     -33.367   7.018   4.956  1.00 20.00     0.125 C 
BRANCH   5   6
HETATM    6  C5  UNL     1     -34.678   6.263   5.145  1.00 20.00     0.015 C 
HETATM    7  C2  UNL     1     -34.618   5.254   6.282  1.00 20.00     0.006 C 
ENDBRANCH   5   6
ENDBRANCH   3   5
BRANCH   1   8
HETATM    8  C4  UNL     1     -32.033   8.080   1.531  1.00 20.00     0.217 C 
HETATM    9 CL9  UNL     1     -32.681   9.410   0.550  1.00 20.00    -0.121 Cl
ENDBRANCH   1   8
TORSDOF 3
ENDMDL
MODEL 6
REMARK VINA RESULT:      -3.5     12.346     12.803
REMARK  3 active torsions:
REMARK  status: ('A' for Active; 'I' for Inactive)
REMARK    1  A    between atoms: C1_1  and  C4_4 
REMARK       I    between atoms: C1_1  and  N7_7 
REMARK    2  A    between atoms: C5_5  and  C6_6 
REMARK    3  A    between atoms: C6_6  and  N7_7 
ROOT
HETATM    1  C1  UNL     1     -33.098   7.429   3.858  1.00 20.00     0.233 C 
HETATM    2  C3  UNL     1     -32.975   5.146   2.746  1.00 20.00     0.152 C 
HETATM    3  N7  UNL     1     -33.596   6.142   3.616  1.00 20.00    -0.356 N 
HETATM    4  O8  UNL     1     -33.656   8.239   4.603  1.00 20.00    -0.272 OA
ENDROOT
BRANCH   3   5
HETATM    5  C6  UNL     1     -34.828   5.714   4.268  1.00 20.00     0.125 C 
BRANCH   5   6
HETATM    6  C5  UNL     1     -34.564   4.908   5.535  1.00 20.00     0.015 C 
HETATM    7  C2  UNL     1     -34.519   5.775   6.785  1.00 20.00     0.006 C 
ENDBRANCH   5   6
ENDBRANCH   3   5
BRANCH   1   8
HETATM    8  C4  UNL     1     -31.809   7.777   3.141  1.00 20.00     0.217 C 
HETATM    9 CL9  UNL     1     -32.133   8.285   1.471  1.00 20.00    -0.121 Cl
ENDBRANCH   1   8
TORSDOF 3
ENDMDL
MODEL 7
REMARK VINA RESULT:      -3.5      4.927      6.395
REMARK  3 active torsions:
REMARK  status: ('A' for Active; 'I' for Inactive)
REMARK    1  A    between atoms: C1_1  and  C4_4 
REMARK       I    between atoms: C1_1  and  N7_7 
REMARK    2  A    between atoms: C5_5  and  C6_6 
REMARK    3  A    between atoms: C6_6  and  N7_7 
ROOT
HETATM    1  C1  UNL     1     -33.712  15.097  -4.795  1.00 20.00     0.233 C 
HETATM    2  C3  UNL     1     -34.206  17.587  -4.666  1.00 20.00     0.152 C 
HETATM    3  N7  UNL     1     -33.764  16.314  -4.103  1.00 20.00    -0.356 N 
HETATM    4  O8  UNL     1     -33.332  14.043  -4.278  1.00 20.00    -0.272 OA
ENDROOT
BRANCH   3   5
HETATM    5  C6  UNL     1     -33.360  16.363  -2.703  1.00 20.00     0.125 C 
BRANCH   5   6
HETATM    6  C5  UNL     1     -33.460  17.767  -2.118  1.00 20.00     0.015 C 
HETATM    7  C2  UNL     1     -33.734  17.764  -0.622  1.00 20.00     0.006 C 
ENDBRANCH   5   6
ENDBRANCH   3   5
BRANCH   1   8
HETATM    8  C4  UNL     1     -34.159  15.148  -6.242  1.00 20.00     0.217 C 
HETATM    9 CL9  UNL     1     -35.840  14.603  -6.404  1.00 20.00    -0.121 Cl
ENDBRANCH   1   8
TORSDOF 3
ENDMDL
MODEL 8
REMARK VINA RESULT:      -3.4     11.108     11.774
REMARK  3 active torsions:
REMARK  status: ('A' for Active; 'I' for Inactive)
REMARK    1  A    between atoms: C1_1  and  C4_4 
REMARK       I    between atoms: C1_1  and  N7_7 
REMARK    2  A    between atoms: C5_5  and  C6_6 
REMARK    3  A    between atoms: C6_6  and  N7_7 
ROOT
HETATM    1  C1  UNL     1     -40.697  14.103   7.365  1.00 20.00     0.233 C 
HETATM    2  C3  UNL     1     -41.678  13.966   5.024  1.00 20.00     0.152 C 
HETATM    3  N7  UNL     1     -40.936  13.427   6.162  1.00 20.00    -0.356 N 
HETATM    4  O8  UNL     1     -40.063  13.609   8.301  1.00 20.00    -0.272 OA
ENDROOT
BRANCH   3   5
HETATM    5  C6  UNL     1     -40.416  12.077   5.979  1.00 20.00     0.125 C 
BRANCH   5   6
HETATM    6  C5  UNL     1     -39.003  12.071   5.410  1.00 20.00     0.015 C 
HETATM    7  C2  UNL     1     -38.958  11.635   3.952  1.00 20.00     0.006 C 
ENDBRANCH   5   6
ENDBRANCH   3   5
BRANCH   1   8
HETATM    8  C4  UNL     1     -41.271  15.503   7.455  1.00 20.00     0.217 C 
HETATM    9 CL9  UNL     1     -40.628  16.359   8.870  1.00 20.00    -0.121 Cl
ENDBRANCH   1   8
TORSDOF 3
ENDMDL
MODEL 9
REMARK VINA RESULT:      -3.3     12.081     12.470
REMARK  3 active torsions:
REMARK  status: ('A' for Active; 'I' for Inactive)
REMARK    1  A    between atoms: C1_1  and  C4_4 
REMARK       I    between atoms: C1_1  and  N7_7 
REMARK    2  A    between atoms: C5_5  and  C6_6 
REMARK    3  A    between atoms: C6_6  and  N7_7 
ROOT
HETATM    1  C1  UNL     1     -32.939   6.820   3.416  1.00 20.00     0.233 C 
HETATM    2  C3  UNL     1     -32.385   8.914   4.746  1.00 20.00     0.152 C 
HETATM    3  N7  UNL     1     -33.179   7.721   4.461  1.00 20.00    -0.356 N 
HETATM    4  O8  UNL     1     -33.638   5.824   3.212  1.00 20.00    -0.272 OA
ENDROOT
BRANCH   3   5
HETATM    5  C6  UNL     1     -34.305   7.496   5.361  1.00 20.00     0.125 C 
BRANCH   5   6
HETATM    6  C5  UNL     1     -33.942   6.585   6.528  1.00 20.00     0.015 C 
HETATM    7  C2  UNL     1     -34.566   5.202   6.412  1.00 20.00     0.006 C 
ENDBRANCH   5   6
ENDBRANCH   3   5
BRANCH   1   8
HETATM    8  C4  UNL     1     -31.752   7.144   2.532  1.00 20.00     0.217 C 
HETATM    9 CL9  UNL     1     -32.230   8.213   1.199  1.00 20.00    -0.121 Cl
ENDBRANCH   1   8
TORSDOF 3
ENDMDL
