MODEL 1
REMARK VINA RESULT:      -4.3      0.000      0.000
REMARK  0 active torsions:
REMARK  status: ('A' for Active; 'I' for Inactive)
ROOT
HETATM    1  C1  UNL     1     -33.850  18.707  -4.240  1.00 20.00     0.039 A 
HETATM    2  C2  UNL     1     -33.221  19.081  -3.051  1.00 20.00     0.022 A 
HETATM    3  C3  UNL     1     -33.038  16.751  -2.367  1.00 20.00     0.029 A 
HETATM    4  C4  UNL     1     -33.652  16.394  -3.553  1.00 20.00    -0.021 A 
HETATM    5  C5  UNL     1     -34.047  17.359  -4.469  1.00 20.00     0.075 A 
HETATM    6  C6  UNL     1     -32.816  18.108  -2.121  1.00 20.00     0.011 A 
HETATM    7  C7  UNL     1     -34.058  15.057  -4.040  1.00 20.00     0.073 C 
HETATM    8  C8  UNL     1     -34.382  15.416  -5.499  1.00 20.00     0.129 C 
HETATM    9  C9  UNL     1     -35.580  14.650  -6.036  1.00 20.00     0.040 C 
HETATM   10  O10 UNL     1     -34.656  16.839  -5.582  1.00 20.00    -0.345 OA
HETATM   11 BR11 UNL     1     -31.974  18.645  -0.515  1.00 20.00    -0.051 Br
ENDROOT
TORSDOF 0
ENDMDL
MODEL 2
REMARK VINA RESULT:      -4.0      2.953      4.679
REMARK  0 active torsions:
REMARK  status: ('A' for Active; 'I' for Inactive)
ROOT
HETATM    1  C1  UNL     1     -33.550  14.838  -4.247  1.00 20.00     0.039 A 
HETATM    2  C2  UNL     1     -34.040  14.766  -5.552  1.00 20.00     0.022 A 
HETATM    3  C3  UNL     1     -34.768  17.088  -5.451  1.00 20.00     0.029 A 
HETATM    4  C4  UNL     1     -34.269  17.148  -4.163  1.00 20.00    -0.021 A 
HETATM    5  C5  UNL     1     -33.671  16.041  -3.578  1.00 20.00     0.075 A 
HETATM    6  C6  UNL     1     -34.643  15.885  -6.151  1.00 20.00     0.011 A 
HETATM    7  C7  UNL     1     -34.316  18.258  -3.185  1.00 20.00     0.073 C 
HETATM    8  C8  UNL     1     -33.332  17.706  -2.141  1.00 20.00     0.129 C 
HETATM    9  C9  UNL     1     -33.751  18.028  -0.717  1.00 20.00     0.040 C 
HETATM   10  O10 UNL     1     -33.248  16.264  -2.293  1.00 20.00    -0.345 OA
HETATM   11 BR11 UNL     1     -35.306  15.755  -7.918  1.00 20.00    -0.051 Br
ENDROOT
TORSDOF 0
ENDMDL
MODEL 3
REMARK VINA RESULT:      -4.0     16.590     17.596
REMARK  0 active torsions:
REMARK  status: ('A' for Active; 'I' for Inactive)
ROOT
HETATM    1  C1  UNL     1     -22.774  18.000  11.328  1.00 20.00     0.039 A 
HETATM    2  C2  UNL     1     -21.994  18.007  10.170  1.00 20.00     0.022 A 
HETATM    3  C3  UNL     1     -23.861  18.874   8.869  1.00 20.00     0.029 A 
HETATM    4  C4  UNL     1     -24.619  18.871  10.025  1.00 20.00    -0.021 A 
HETATM    5  C5  UNL     1     -24.079  18.443  11.229  1.00 20.00     0.075 A 
HETATM    6  C6  UNL     1     -22.535  18.444   8.948  1.00 20.00     0.011 A 
HETATM    7  C7  UNL     1     -26.045  19.214  10.218  1.00 20.00     0.073 C 
HETATM    8  C8  UNL     1     -26.079  19.263  11.754  1.00 20.00     0.129 C 
HETATM    9  C9  UNL     1     -27.375  18.713  12.327  1.00 20.00     0.040 C 
HETATM   10  O10 UNL     1     -24.968  18.486  12.272  1.00 20.00    -0.345 OA
HETATM   11 BR11 UNL     1     -21.456  18.434   7.394  1.00 20.00    -0.051 Br
ENDROOT
TORSDOF 0
ENDMDL
MODEL 4
REMARK VINA RESULT:      -4.0     12.888     13.509
REMARK  0 active torsions:
REMARK  status: ('A' for Active; 'I' for Inactive)
ROOT
HETATM    1  C1  UNL     1     -40.304  14.452   8.662  1.00 20.00     0.039 A 
HETATM    2  C2  UNL     1     -41.029  15.625   8.877  1.00 20.00     0.022 A 
HETATM    3  C3  UNL     1     -41.994  15.486   6.646  1.00 20.00     0.029 A 
HETATM    4  C4  UNL     1     -41.279  14.319   6.450  1.00 20.00    -0.021 A 
HETATM    5  C5  UNL     1     -40.452  13.817   7.444  1.00 20.00     0.075 A 
HETATM    6  C6  UNL     1     -41.870  16.138   7.875  1.00 20.00     0.011 A 
HETATM    7  C7  UNL     1     -41.176  13.467   5.245  1.00 20.00     0.073 C 
HETATM    8  C8  UNL     1     -40.477  12.247   5.867  1.00 20.00     0.129 C 
HETATM    9  C9  UNL     1     -39.460  11.618   4.930  1.00 20.00     0.040 C 
HETATM   10  O10 UNL     1     -39.802  12.665   7.083  1.00 20.00    -0.345 OA
HETATM   11 BR11 UNL     1     -42.834  17.735   8.191  1.00 20.00    -0.051 Br
ENDROOT
TORSDOF 0
ENDMDL
MODEL 5
REMARK VINA RESULT:      -3.9      1.564      2.277
REMARK  0 active torsions:
REMARK  status: ('A' for Active; 'I' for Inactive)
ROOT
HETATM    1  C1  UNL     1     -33.306  15.939  -3.175  1.00 20.00     0.039 A 
HETATM    2  C2  UNL     1     -33.525  16.871  -2.159  1.00 20.00     0.022 A 
HETATM    3  C3  UNL     1     -34.894  18.231  -3.644  1.00 20.00     0.029 A 
HETATM    4  C4  UNL     1     -34.677  17.295  -4.639  1.00 20.00    -0.021 A 
HETATM    5  C5  UNL     1     -33.898  16.172  -4.401  1.00 20.00     0.075 A 
HETATM    6  C6  UNL     1     -34.316  18.009  -2.392  1.00 20.00     0.011 A 
HETATM    7  C7  UNL     1     -35.111  17.305  -6.053  1.00 20.00     0.073 C 
HETATM    8  C8  UNL     1     -34.768  15.853  -6.424  1.00 20.00     0.129 C 
HETATM    9  C9  UNL     1     -34.234  15.724  -7.841  1.00 20.00     0.040 C 
HETATM   10  O10 UNL     1     -33.768  15.357  -5.496  1.00 20.00    -0.345 OA
HETATM   11 BR11 UNL     1     -34.590  19.258  -0.998  1.00 20.00    -0.051 Br
ENDROOT
TORSDOF 0
ENDMDL
MODEL 6
REMARK VINA RESULT:      -3.9      1.519      1.818
REMARK  0 active torsions:
REMARK  status: ('A' for Active; 'I' for Inactive)
ROOT
HETATM    1  C1  UNL     1     -35.144  19.012  -2.001  1.00 20.00     0.039 A 
HETATM    2  C2  UNL     1     -34.444  19.261  -0.820  1.00 20.00     0.022 A 
HETATM    3  C3  UNL     1     -32.837  17.510  -1.352  1.00 20.00     0.029 A 
HETATM    4  C4  UNL     1     -33.534  17.281  -2.524  1.00 20.00    -0.021 A 
HETATM    5  C5  UNL     1     -34.664  18.022  -2.837  1.00 20.00     0.075 A 
HETATM    6  C6  UNL     1     -33.297  18.516  -0.498  1.00 20.00     0.011 A 
HETATM    7  C7  UNL     1     -33.311  16.256  -3.568  1.00 20.00     0.073 C 
HETATM    8  C8  UNL     1     -34.253  16.802  -4.653  1.00 20.00     0.129 C 
HETATM    9  C9  UNL     1     -34.965  15.699  -5.417  1.00 20.00     0.040 C 
HETATM   10  O10 UNL     1     -35.246  17.655  -4.024  1.00 20.00    -0.345 OA
HETATM   11 BR11 UNL     1     -32.373  18.871   1.114  1.00 20.00    -0.051 Br
ENDROOT
TORSDOF 0
ENDMDL
MODEL 7
REMARK VINA RESULT:      -3.8      2.919      4.440
REMARK  0 active torsions:
REMARK  status: ('A' for Active; 'I' for Inactive)
ROOT
HETATM    1  C1  UNL     1     -35.685  18.303  -3.805  1.00 20.00     0.039 A 
HETATM    2  C2  UNL     1     -35.549  17.448  -4.900  1.00 20.00     0.022 A 
HETATM    3  C3  UNL     1     -33.627  16.365  -3.870  1.00 20.00     0.029 A 
HETATM    4  C4  UNL     1     -33.779  17.212  -2.787  1.00 20.00    -0.021 A 
HETATM    5  C5  UNL     1     -34.791  18.159  -2.761  1.00 20.00     0.075 A 
HETATM    6  C6  UNL     1     -34.527  16.484  -4.931  1.00 20.00     0.011 A 
HETATM    7  C7  UNL     1     -32.947  17.345  -1.571  1.00 20.00     0.073 C 
HETATM    8  C8  UNL     1     -33.879  18.236  -0.733  1.00 20.00     0.129 C 
HETATM    9  C9  UNL     1     -33.120  19.263   0.090  1.00 20.00     0.040 C 
HETATM   10  O10 UNL     1     -34.791  18.928  -1.626  1.00 20.00    -0.345 OA
HETATM   11 BR11 UNL     1     -34.364  15.344  -6.432  1.00 20.00    -0.051 Br
ENDROOT
TORSDOF 0
ENDMDL
MODEL 8
REMARK VINA RESULT:      -3.7      3.132      4.843
REMARK  0 active torsions:
REMARK  status: ('A' for Active; 'I' for Inactive)
ROOT
HETATM    1  C1  UNL     1     -33.267  16.420  -2.662  1.00 20.00     0.039 A 
HETATM    2  C2  UNL     1     -33.676  16.307  -3.992  1.00 20.00     0.022 A 
HETATM    3  C3  UNL     1     -35.160  18.220  -3.742  1.00 20.00     0.029 A 
HETATM    4  C4  UNL     1     -34.739  18.327  -2.429  1.00 20.00    -0.021 A 
HETATM    5  C5  UNL     1     -33.809  17.441  -1.906  1.00 20.00     0.075 A 
HETATM    6  C6  UNL     1     -34.615  17.203  -4.529  1.00 20.00     0.011 A 
HETATM    7  C7  UNL     1     -35.185  19.258  -1.369  1.00 20.00     0.073 C 
HETATM    8  C8  UNL     1     -34.092  18.980  -0.324  1.00 20.00     0.129 C 
HETATM    9  C9  UNL     1     -34.626  19.006   1.099  1.00 20.00     0.040 C 
HETATM   10  O10 UNL     1     -33.515  17.674  -0.587  1.00 20.00    -0.345 OA
HETATM   11 BR11 UNL     1     -35.156  17.020  -6.332  1.00 20.00    -0.051 Br
ENDROOT
TORSDOF 0
ENDMDL
MODEL 9
REMARK VINA RESULT:      -3.7      1.471      2.466
REMARK  0 active torsions:
REMARK  status: ('A' for Active; 'I' for Inactive)
ROOT
HETATM    1  C1  UNL     1     -33.658  16.492  -3.069  1.00 20.00     0.039 A 
HETATM    2  C2  UNL     1     -33.065  17.035  -1.928  1.00 20.00     0.022 A 
HETATM    3  C3  UNL     1     -32.845  19.200  -3.020  1.00 20.00     0.029 A 
HETATM    4  C4  UNL     1     -33.443  18.653  -4.140  1.00 20.00    -0.021 A 
HETATM    5  C5  UNL     1     -33.840  17.324  -4.157  1.00 20.00     0.075 A 
HETATM    6  C6  UNL     1     -32.663  18.381  -1.903  1.00 20.00     0.011 A 
HETATM    7  C7  UNL     1     -33.702  19.263  -5.463  1.00 20.00     0.073 C 
HETATM    8  C8  UNL     1     -34.627  18.185  -6.052  1.00 20.00     0.129 C 
HETATM    9  C9  UNL     1     -34.394  17.965  -7.537  1.00 20.00     0.040 C 
HETATM   10  O10 UNL     1     -34.398  16.936  -5.348  1.00 20.00    -0.345 OA
HETATM   11 BR11 UNL     1     -31.855  19.086  -0.345  1.00 20.00    -0.051 Br
ENDROOT
TORSDOF 0
ENDMDL
