MODEL 1
REMARK VINA RESULT:      -4.8      0.000      0.000
REMARK  2 active torsions:
REMARK  status: ('A' for Active; 'I' for Inactive)
REMARK    1  A    between atoms: C7_7  and  C12_12 
REMARK    2  A    between atoms: C11_11  and  C12_12 
ROOT
HETATM    1  C1  UNL     1     -35.685  14.372  -5.183  1.00 20.00     0.064 C 
HETATM    2  C2  UNL     1     -34.611  16.424  -6.070  1.00 20.00     0.019 C 
HETATM    3  C3  UNL     1     -33.304  14.797  -4.636  1.00 20.00     0.019 C 
HETATM    4  C4  UNL     1     -34.772  17.352  -4.865  1.00 20.00     0.007 C 
HETATM    5  C5  UNL     1     -33.467  15.729  -3.434  1.00 20.00     0.007 C 
HETATM    6  C6  UNL     1     -34.421  14.954  -5.675  1.00 20.00     0.093 C 
HETATM    7  C7  UNL     1     -33.618  17.193  -3.867  1.00 20.00    -0.007 C 
HETATM    8  N13 UNL     1     -36.678  13.914  -4.797  1.00 20.00    -0.197 NA
ENDROOT
BRANCH   7   9
HETATM    9  C12 UNL     1     -33.827  18.096  -2.652  1.00 20.00    -0.044 C 
HETATM   10  C9  UNL     1     -32.790  19.237  -2.691  1.00 20.00     0.015 C 
HETATM   11  C10 UNL     1     -35.241  18.708  -2.720  1.00 20.00     0.015 C 
BRANCH   9  12
HETATM   12  C11 UNL     1     -33.659  17.243  -1.364  1.00 20.00     0.004 C 
HETATM   13  C8  UNL     1     -33.730  17.996  -0.041  1.00 20.00     0.006 C 
ENDBRANCH   9  12
ENDBRANCH   7   9
TORSDOF 2
ENDMDL
MODEL 2
REMARK VINA RESULT:      -4.2     11.747     14.017
REMARK  2 active torsions:
REMARK  status: ('A' for Active; 'I' for Inactive)
REMARK    1  A    between atoms: C7_7  and  C12_12 
REMARK    2  A    between atoms: C11_11  and  C12_12 
ROOT
HETATM    1  C1  UNL     1     -42.259  16.305   9.674  1.00 20.00     0.064 C 
HETATM    2  C2  UNL     1     -40.060  15.213   9.319  1.00 20.00     0.019 C 
HETATM    3  C3  UNL     1     -41.017  16.787   7.582  1.00 20.00     0.019 C 
HETATM    4  C4  UNL     1     -40.489  14.017   8.468  1.00 20.00     0.007 C 
HETATM    5  C5  UNL     1     -41.444  15.589   6.734  1.00 20.00     0.007 C 
HETATM    6  C6  UNL     1     -40.918  16.461   9.078  1.00 20.00     0.093 C 
HETATM    7  C7  UNL     1     -40.542  14.371   6.976  1.00 20.00    -0.007 C 
HETATM    8  N13 UNL     1     -43.313  16.182  10.142  1.00 20.00    -0.197 NA
ENDROOT
BRANCH   7   9
HETATM    9  C12 UNL     1     -41.018  13.175   6.154  1.00 20.00    -0.044 C 
HETATM   10  C9  UNL     1     -42.240  12.543   6.850  1.00 20.00     0.015 C 
HETATM   11  C10 UNL     1     -41.443  13.665   4.755  1.00 20.00     0.015 C 
BRANCH   9  12
HETATM   12  C11 UNL     1     -39.854  12.150   6.047  1.00 20.00     0.004 C 
HETATM   13  C8  UNL     1     -39.364  11.829   4.640  1.00 20.00     0.006 C 
ENDBRANCH   9  12
ENDBRANCH   7   9
TORSDOF 2
ENDMDL
MODEL 3
REMARK VINA RESULT:      -4.2      1.579      2.164
REMARK  2 active torsions:
REMARK  status: ('A' for Active; 'I' for Inactive)
REMARK    1  A    between atoms: C7_7  and  C12_12 
REMARK    2  A    between atoms: C11_11  and  C12_12 
ROOT
HETATM    1  C1  UNL     1     -34.208  15.117  -6.812  1.00 20.00     0.064 C 
HETATM    2  C2  UNL     1     -34.126  14.613  -4.385  1.00 20.00     0.019 C 
HETATM    3  C3  UNL     1     -36.034  15.960  -5.362  1.00 20.00     0.019 C 
HETATM    4  C4  UNL     1     -33.486  15.901  -3.865  1.00 20.00     0.007 C 
HETATM    5  C5  UNL     1     -35.391  17.246  -4.840  1.00 20.00     0.007 C 
HETATM    6  C6  UNL     1     -35.019  14.838  -5.611  1.00 20.00     0.093 C 
HETATM    7  C7  UNL     1     -34.535  16.987  -3.593  1.00 20.00    -0.007 C 
HETATM    8  N13 UNL     1     -33.570  15.336  -7.756  1.00 20.00    -0.197 NA
ENDROOT
BRANCH   7   9
HETATM    9  C12 UNL     1     -33.866  18.277  -3.121  1.00 20.00    -0.044 C 
HETATM   10  C9  UNL     1     -33.104  18.909  -4.304  1.00 20.00     0.015 C 
HETATM   11  C10 UNL     1     -34.954  19.262  -2.648  1.00 20.00     0.015 C 
BRANCH   9  12
HETATM   12  C11 UNL     1     -32.891  17.935  -1.959  1.00 20.00     0.004 C 
HETATM   13  C8  UNL     1     -33.517  17.767  -0.580  1.00 20.00     0.006 C 
ENDBRANCH   9  12
ENDBRANCH   7   9
TORSDOF 2
ENDMDL
MODEL 4
REMARK VINA RESULT:      -3.9      2.151      4.859
REMARK  2 active torsions:
REMARK  status: ('A' for Active; 'I' for Inactive)
REMARK    1  A    between atoms: C7_7  and  C12_12 
REMARK    2  A    between atoms: C11_11  and  C12_12 
ROOT
HETATM    1  C1  UNL     1     -34.663  19.036  -1.677  1.00 20.00     0.064 C 
HETATM    2  C2  UNL     1     -32.900  17.311  -1.936  1.00 20.00     0.019 C 
HETATM    3  C3  UNL     1     -33.320  19.014  -3.762  1.00 20.00     0.019 C 
HETATM    4  C4  UNL     1     -33.667  16.262  -2.742  1.00 20.00     0.007 C 
HETATM    5  C5  UNL     1     -34.087  17.962  -4.564  1.00 20.00     0.007 C 
HETATM    6  C6  UNL     1     -33.334  18.748  -2.251  1.00 20.00     0.093 C 
HETATM    7  C7  UNL     1     -33.600  16.542  -4.249  1.00 20.00    -0.007 C 
HETATM    8  N13 UNL     1     -35.707  19.263  -1.225  1.00 20.00    -0.197 NA
ENDROOT
BRANCH   7   9
HETATM    9  C12 UNL     1     -34.413  15.508  -5.026  1.00 20.00    -0.044 C 
HETATM   10  C9  UNL     1     -34.562  14.237  -4.165  1.00 20.00     0.015 C 
HETATM   11  C10 UNL     1     -35.816  16.082  -5.308  1.00 20.00     0.015 C 
BRANCH   9  12
HETATM   12  C11 UNL     1     -33.672  15.189  -6.355  1.00 20.00     0.004 C 
HETATM   13  C8  UNL     1     -34.274  15.782  -7.623  1.00 20.00     0.006 C 
ENDBRANCH   9  12
ENDBRANCH   7   9
TORSDOF 2
ENDMDL
MODEL 5
REMARK VINA RESULT:      -3.8      2.130      4.699
REMARK  2 active torsions:
REMARK  status: ('A' for Active; 'I' for Inactive)
REMARK    1  A    between atoms: C7_7  and  C12_12 
REMARK    2  A    between atoms: C11_11  and  C12_12 
ROOT
HETATM    1  C1  UNL     1     -34.501  18.998  -1.673  1.00 20.00     0.064 C 
HETATM    2  C2  UNL     1     -32.850  17.186  -2.050  1.00 20.00     0.019 C 
HETATM    3  C3  UNL     1     -33.179  19.013  -3.771  1.00 20.00     0.019 C 
HETATM    4  C4  UNL     1     -33.688  16.234  -2.904  1.00 20.00     0.007 C 
HETATM    5  C5  UNL     1     -34.016  18.057  -4.622  1.00 20.00     0.007 C 
HETATM    6  C6  UNL     1     -33.197  18.662  -2.278  1.00 20.00     0.093 C 
HETATM    7  C7  UNL     1     -33.616  16.594  -4.394  1.00 20.00    -0.007 C 
HETATM    8  N13 UNL     1     -35.525  19.263  -1.197  1.00 20.00    -0.197 NA
ENDROOT
BRANCH   7   9
HETATM    9  C12 UNL     1     -34.498  15.658  -5.218  1.00 20.00    -0.044 C 
HETATM   10  C9  UNL     1     -35.898  16.289  -5.367  1.00 20.00     0.015 C 
HETATM   11  C10 UNL     1     -33.879  15.491  -6.620  1.00 20.00     0.015 C 
BRANCH   9  12
HETATM   12  C11 UNL     1     -34.587  14.288  -4.489  1.00 20.00     0.004 C 
HETATM   13  C8  UNL     1     -35.937  13.582  -4.541  1.00 20.00     0.006 C 
ENDBRANCH   9  12
ENDBRANCH   7   9
TORSDOF 2
ENDMDL
MODEL 6
REMARK VINA RESULT:      -3.8     12.185     13.711
REMARK  2 active torsions:
REMARK  status: ('A' for Active; 'I' for Inactive)
REMARK    1  A    between atoms: C7_7  and  C12_12 
REMARK    2  A    between atoms: C11_11  and  C12_12 
ROOT
HETATM    1  C1  UNL     1     -40.600  18.162   7.389  1.00 20.00     0.064 C 
HETATM    2  C2  UNL     1     -42.709  16.926   7.816  1.00 20.00     0.019 C 
HETATM    3  C3  UNL     1     -40.558  16.250   8.969  1.00 20.00     0.019 C 
HETATM    4  C4  UNL     1     -42.544  15.767   6.833  1.00 20.00     0.007 C 
HETATM    5  C5  UNL     1     -40.398  15.091   7.984  1.00 20.00     0.007 C 
HETATM    6  C6  UNL     1     -41.377  17.415   8.398  1.00 20.00     0.093 C 
HETATM    7  C7  UNL     1     -41.752  14.607   7.451  1.00 20.00    -0.007 C 
HETATM    8  N13 UNL     1     -39.991  18.748   6.596  1.00 20.00    -0.197 NA
ENDROOT
BRANCH   7   9
HETATM    9  C12 UNL     1     -41.561  13.483   6.434  1.00 20.00    -0.044 C 
HETATM   10  C9  UNL     1     -42.510  12.319   6.788  1.00 20.00     0.015 C 
HETATM   11  C10 UNL     1     -41.923  14.009   5.031  1.00 20.00     0.015 C 
BRANCH   9  12
HETATM   12  C11 UNL     1     -40.078  13.017   6.481  1.00 20.00     0.004 C 
HETATM   13  C8  UNL     1     -39.757  11.715   5.757  1.00 20.00     0.006 C 
ENDBRANCH   9  12
ENDBRANCH   7   9
TORSDOF 2
ENDMDL
MODEL 7
REMARK VINA RESULT:      -3.6     24.537     25.690
REMARK  2 active torsions:
REMARK  status: ('A' for Active; 'I' for Inactive)
REMARK    1  A    between atoms: C7_7  and  C12_12 
REMARK    2  A    between atoms: C11_11  and  C12_12 
ROOT
HETATM    1  C1  UNL     1     -23.502  -3.319   9.282  1.00 20.00     0.064 C 
HETATM    2  C2  UNL     1     -23.686  -2.679  11.672  1.00 20.00     0.019 C 
HETATM    3  C3  UNL     1     -25.130  -4.523  10.713  1.00 20.00     0.019 C 
HETATM    4  C4  UNL     1     -24.872  -1.716  11.601  1.00 20.00     0.007 C 
HETATM    5  C5  UNL     1     -26.314  -3.557  10.644  1.00 20.00     0.007 C 
HETATM    6  C6  UNL     1     -23.771  -3.815  10.646  1.00 20.00     0.093 C 
HETATM    7  C7  UNL     1     -26.211  -2.457  11.707  1.00 20.00    -0.007 C 
HETATM    8  N13 UNL     1     -23.289  -2.928   8.211  1.00 20.00    -0.197 NA
ENDROOT
BRANCH   7   9
HETATM    9  C12 UNL     1     -27.379  -1.479  11.586  1.00 20.00    -0.044 C 
HETATM   10  C9  UNL     1     -26.989  -0.146  12.257  1.00 20.00     0.015 C 
HETATM   11  C10 UNL     1     -27.662  -1.218  10.093  1.00 20.00     0.015 C 
BRANCH   9  12
HETATM   12  C11 UNL     1     -28.623  -2.101  12.281  1.00 20.00     0.004 C 
HETATM   13  C8  UNL     1     -29.759  -2.540  11.365  1.00 20.00     0.006 C 
ENDBRANCH   9  12
ENDBRANCH   7   9
TORSDOF 2
ENDMDL
MODEL 8
REMARK VINA RESULT:      -3.6      2.736      4.764
REMARK  2 active torsions:
REMARK  status: ('A' for Active; 'I' for Inactive)
REMARK    1  A    between atoms: C7_7  and  C12_12 
REMARK    2  A    between atoms: C11_11  and  C12_12 
ROOT
HETATM    1  C1  UNL     1     -32.424  18.591  -1.129  1.00 20.00     0.064 C 
HETATM    2  C2  UNL     1     -34.874  18.768  -1.476  1.00 20.00     0.019 C 
HETATM    3  C3  UNL     1     -33.650  16.611  -1.984  1.00 20.00     0.019 C 
HETATM    4  C4  UNL     1     -34.910  19.096  -2.969  1.00 20.00     0.007 C 
HETATM    5  C5  UNL     1     -33.689  16.943  -3.476  1.00 20.00     0.007 C 
HETATM    6  C6  UNL     1     -33.704  17.856  -1.089  1.00 20.00     0.093 C 
HETATM    7  C7  UNL     1     -34.891  17.827  -3.830  1.00 20.00    -0.007 C 
HETATM    8  N13 UNL     1     -31.419  19.168  -1.161  1.00 20.00    -0.197 NA
ENDROOT
BRANCH   7   9
HETATM    9  C12 UNL     1     -34.880  18.183  -5.316  1.00 20.00    -0.044 C 
HETATM   10  C9  UNL     1     -33.806  19.262  -5.565  1.00 20.00     0.015 C 
HETATM   11  C10 UNL     1     -34.518  16.925  -6.130  1.00 20.00     0.015 C 
BRANCH   9  12
HETATM   12  C11 UNL     1     -36.289  18.708  -5.712  1.00 20.00     0.004 C 
HETATM   13  C8  UNL     1     -37.453  17.748  -5.494  1.00 20.00     0.006 C 
ENDBRANCH   9  12
ENDBRANCH   7   9
TORSDOF 2
ENDMDL
MODEL 9
REMARK VINA RESULT:      -3.4     12.318     14.570
REMARK  2 active torsions:
REMARK  status: ('A' for Active; 'I' for Inactive)
REMARK    1  A    between atoms: C7_7  and  C12_12 
REMARK    2  A    between atoms: C11_11  and  C12_12 
ROOT
HETATM    1  C1  UNL     1     -42.246  15.863  10.310  1.00 20.00     0.064 C 
HETATM    2  C2  UNL     1     -40.154  15.367   9.073  1.00 20.00     0.019 C 
HETATM    3  C3  UNL     1     -41.906  16.906   8.086  1.00 20.00     0.019 C 
HETATM    4  C4  UNL     1     -40.640  14.236   8.166  1.00 20.00     0.007 C 
HETATM    5  C5  UNL     1     -42.388  15.771   7.181  1.00 20.00     0.007 C 
HETATM    6  C6  UNL     1     -41.241  16.406   9.375  1.00 20.00     0.093 C 
HETATM    7  C7  UNL     1     -41.265  14.774   6.872  1.00 20.00    -0.007 C 
HETATM    8  N13 UNL     1     -43.035  15.436  11.045  1.00 20.00    -0.197 NA
ENDROOT
BRANCH   7   9
HETATM    9  C12 UNL     1     -41.785  13.627   6.007  1.00 20.00    -0.044 C 
HETATM   10  C9  UNL     1     -41.848  14.094   4.539  1.00 20.00     0.015 C 
HETATM   11  C10 UNL     1     -40.806  12.440   6.108  1.00 20.00     0.015 C 
BRANCH   9  12
HETATM   12  C11 UNL     1     -43.196  13.220   6.516  1.00 20.00     0.004 C 
HETATM   13  C8  UNL     1     -43.286  11.903   7.279  1.00 20.00     0.006 C 
ENDBRANCH   9  12
ENDBRANCH   7   9
TORSDOF 2
ENDMDL
