MODEL 1
REMARK VINA RESULT:      -3.6      0.000      0.000
REMARK  0 active torsions:
REMARK  status: ('A' for Active; 'I' for Inactive)
ROOT
HETATM    1  C1  UNL     1     -39.621  12.363   4.728  1.00 20.00     0.064 C 
HETATM    2  C2  UNL     1     -41.574  13.947   4.637  1.00 20.00     0.023 C 
HETATM    3  C3  UNL     1     -41.442  12.203   6.459  1.00 20.00     0.028 C 
HETATM    4  C4  UNL     1     -43.412  13.805   6.389  1.00 20.00     0.013 C 
HETATM    5  C5  UNL     1     -40.638  13.151   5.557  1.00 20.00     0.094 C 
HETATM    6  C6  UNL     1     -42.665  14.709   5.396  1.00 20.00    -0.017 C 
HETATM    7  C7  UNL     1     -42.522  12.920   7.298  1.00 20.00    -0.046 C 
HETATM    8  C8  UNL     1     -42.123  15.916   6.045  1.00 20.00     0.010 C 
HETATM    9  C9  UNL     1     -41.874  13.741   8.429  1.00 20.00     0.015 C 
HETATM   10  C10 UNL     1     -43.417  11.853   7.966  1.00 20.00     0.015 C 
HETATM   11  N11 UNL     1     -38.850  11.766   4.100  1.00 20.00    -0.197 NA
ENDROOT
TORSDOF 0
ENDMDL
MODEL 2
REMARK VINA RESULT:      -3.6      1.486      2.397
REMARK  0 active torsions:
REMARK  status: ('A' for Active; 'I' for Inactive)
ROOT
HETATM    1  C1  UNL     1     -40.095  12.406   5.358  1.00 20.00     0.064 C 
HETATM    2  C2  UNL     1     -42.290  13.153   6.335  1.00 20.00     0.023 C 
HETATM    3  C3  UNL     1     -40.119  13.856   7.416  1.00 20.00     0.028 C 
HETATM    4  C4  UNL     1     -42.327  14.630   8.404  1.00 20.00     0.013 C 
HETATM    5  C5  UNL     1     -40.824  13.535   6.089  1.00 20.00     0.094 C 
HETATM    6  C6  UNL     1     -43.068  14.210   7.125  1.00 20.00    -0.017 C 
HETATM    7  C7  UNL     1     -40.822  14.960   8.236  1.00 20.00    -0.046 C 
HETATM    8  C8  UNL     1     -43.412  15.367   6.280  1.00 20.00     0.010 C 
HETATM    9  C9  UNL     1     -40.613  16.338   7.581  1.00 20.00     0.015 C 
HETATM   10  C10 UNL     1     -40.177  15.019   9.638  1.00 20.00     0.015 C 
HETATM   11  N11 UNL     1     -39.542  11.551   4.803  1.00 20.00    -0.197 NA
ENDROOT
TORSDOF 0
ENDMDL
MODEL 3
REMARK VINA RESULT:      -3.4     12.883     13.697
REMARK  0 active torsions:
REMARK  status: ('A' for Active; 'I' for Inactive)
ROOT
HETATM    1  C1  UNL     1     -33.236  17.279  -2.705  1.00 20.00     0.064 C 
HETATM    2  C2  UNL     1     -34.027  15.415  -4.198  1.00 20.00     0.023 C 
HETATM    3  C3  UNL     1     -35.282  17.605  -4.135  1.00 20.00     0.028 C 
HETATM    4  C4  UNL     1     -36.083  15.738  -5.659  1.00 20.00     0.013 C 
HETATM    5  C5  UNL     1     -33.903  16.936  -4.039  1.00 20.00     0.094 C 
HETATM    6  C6  UNL     1     -34.748  14.997  -5.484  1.00 20.00    -0.017 C 
HETATM    7  C7  UNL     1     -36.039  17.272  -5.439  1.00 20.00    -0.046 C 
HETATM    8  C8  UNL     1     -33.875  15.144  -6.661  1.00 20.00     0.010 C 
HETATM    9  C9  UNL     1     -35.401  17.999  -6.638  1.00 20.00     0.015 C 
HETATM   10  C10 UNL     1     -37.490  17.788  -5.313  1.00 20.00     0.015 C 
HETATM   11  N11 UNL     1     -32.730  17.539  -1.694  1.00 20.00    -0.197 NA
ENDROOT
TORSDOF 0
ENDMDL
MODEL 4
REMARK VINA RESULT:      -3.3     20.782     22.532
REMARK  0 active torsions:
REMARK  status: ('A' for Active; 'I' for Inactive)
ROOT
HETATM    1  C1  UNL     1     -24.306  -3.631  10.361  1.00 20.00     0.064 C 
HETATM    2  C2  UNL     1     -26.647  -4.108  11.147  1.00 20.00     0.023 C 
HETATM    3  C3  UNL     1     -25.752  -1.748  11.196  1.00 20.00     0.028 C 
HETATM    4  C4  UNL     1     -28.124  -2.212  11.978  1.00 20.00     0.013 C 
HETATM    5  C5  UNL     1     -25.734  -3.090  10.451  1.00 20.00     0.094 C 
HETATM    6  C6  UNL     1     -28.083  -3.606  11.334  1.00 20.00    -0.017 C 
HETATM    7  C7  UNL     1     -27.168  -1.156  11.367  1.00 20.00    -0.046 C 
HETATM    8  C8  UNL     1     -28.837  -3.653  10.069  1.00 20.00     0.010 C 
HETATM    9  C9  UNL     1     -27.699  -0.624  10.021  1.00 20.00     0.015 C 
HETATM   10  C10 UNL     1     -27.088   0.047  12.332  1.00 20.00     0.015 C 
HETATM   11  N11 UNL     1     -23.223  -4.041  10.293  1.00 20.00    -0.197 NA
ENDROOT
TORSDOF 0
ENDMDL
MODEL 5
REMARK VINA RESULT:      -3.2      9.836     11.104
REMARK  0 active torsions:
REMARK  status: ('A' for Active; 'I' for Inactive)
ROOT
HETATM    1  C1  UNL     1     -32.403   8.962   4.561  1.00 20.00     0.064 C 
HETATM    2  C2  UNL     1     -32.222   6.762   3.354  1.00 20.00     0.023 C 
HETATM    3  C3  UNL     1     -33.757   6.990   5.347  1.00 20.00     0.028 C 
HETATM    4  C4  UNL     1     -33.597   4.768   4.128  1.00 20.00     0.013 C 
HETATM    5  C5  UNL     1     -33.157   7.704   4.126  1.00 20.00     0.094 C 
HETATM    6  C6  UNL     1     -32.892   5.447   2.943  1.00 20.00    -0.017 C 
HETATM    7  C7  UNL     1     -34.500   5.683   4.993  1.00 20.00    -0.046 C 
HETATM    8  C8  UNL     1     -33.797   5.640   1.798  1.00 20.00     0.010 C 
HETATM    9  C9  UNL     1     -35.835   5.992   4.288  1.00 20.00     0.015 C 
HETATM   10  C10 UNL     1     -34.838   4.938   6.302  1.00 20.00     0.015 C 
HETATM   11  N11 UNL     1     -31.832   9.916   4.891  1.00 20.00    -0.197 NA
ENDROOT
TORSDOF 0
ENDMDL
MODEL 6
REMARK VINA RESULT:      -3.1     12.195     13.670
REMARK  0 active torsions:
REMARK  status: ('A' for Active; 'I' for Inactive)
ROOT
HETATM    1  C1  UNL     1     -34.087  14.786  -3.962  1.00 20.00     0.064 C 
HETATM    2  C2  UNL     1     -33.060  16.744  -2.762  1.00 20.00     0.023 C 
HETATM    3  C3  UNL     1     -34.116  17.064  -5.033  1.00 20.00     0.028 C 
HETATM    4  C4  UNL     1     -33.098  19.053  -3.826  1.00 20.00     0.013 C 
HETATM    5  C5  UNL     1     -34.182  16.292  -3.707  1.00 20.00     0.094 C 
HETATM    6  C6  UNL     1     -33.051  18.256  -2.513  1.00 20.00    -0.017 C 
HETATM    7  C7  UNL     1     -34.163  18.597  -4.856  1.00 20.00    -0.046 C 
HETATM    8  C8  UNL     1     -34.123  18.655  -1.586  1.00 20.00     0.010 C 
HETATM    9  C9  UNL     1     -35.577  19.054  -4.449  1.00 20.00     0.015 C 
HETATM   10  C10 UNL     1     -33.843  19.261  -6.214  1.00 20.00     0.015 C 
HETATM   11  N11 UNL     1     -34.016  13.645  -4.155  1.00 20.00    -0.197 NA
ENDROOT
TORSDOF 0
ENDMDL
MODEL 7
REMARK VINA RESULT:      -3.1      1.046      2.587
REMARK  0 active torsions:
REMARK  status: ('A' for Active; 'I' for Inactive)
ROOT
HETATM    1  C1  UNL     1     -39.648  12.024   4.846  1.00 20.00     0.064 C 
HETATM    2  C2  UNL     1     -39.609  13.786   6.642  1.00 20.00     0.023 C 
HETATM    3  C3  UNL     1     -41.544  13.671   5.023  1.00 20.00     0.028 C 
HETATM    4  C4  UNL     1     -41.526  15.445   6.841  1.00 20.00     0.013 C 
HETATM    5  C5  UNL     1     -40.500  12.858   5.805  1.00 20.00     0.094 C 
HETATM    6  C6  UNL     1     -40.401  14.703   7.580  1.00 20.00    -0.017 C 
HETATM    7  C7  UNL     1     -42.418  14.575   5.920  1.00 20.00    -0.046 C 
HETATM    8  C8  UNL     1     -40.902  13.967   8.754  1.00 20.00     0.010 C 
HETATM    9  C9  UNL     1     -43.417  13.729   6.732  1.00 20.00     0.015 C 
HETATM   10  C10 UNL     1     -43.247  15.514   5.016  1.00 20.00     0.015 C 
HETATM   11  N11 UNL     1     -39.002  11.392   4.120  1.00 20.00    -0.197 NA
ENDROOT
TORSDOF 0
ENDMDL
MODEL 8
REMARK VINA RESULT:      -3.0     12.382     14.263
REMARK  0 active torsions:
REMARK  status: ('A' for Active; 'I' for Inactive)
ROOT
HETATM    1  C1  UNL     1     -38.233  15.981  -5.284  1.00 20.00     0.064 C 
HETATM    2  C2  UNL     1     -36.061  14.715  -5.389  1.00 20.00     0.023 C 
HETATM    3  C3  UNL     1     -36.255  16.989  -6.471  1.00 20.00     0.028 C 
HETATM    4  C4  UNL     1     -34.051  15.730  -6.571  1.00 20.00     0.013 C 
HETATM    5  C5  UNL     1     -36.707  16.104  -5.300  1.00 20.00     0.094 C 
HETATM    6  C6  UNL     1     -34.532  14.763  -5.478  1.00 20.00    -0.017 C 
HETATM    7  C7  UNL     1     -34.720  17.127  -6.581  1.00 20.00    -0.046 C 
HETATM    8  C8  UNL     1     -33.927  15.064  -4.168  1.00 20.00     0.010 C 
HETATM    9  C9  UNL     1     -34.175  18.025  -5.453  1.00 20.00     0.015 C 
HETATM   10  C10 UNL     1     -34.382  17.821  -7.918  1.00 20.00     0.015 C 
HETATM   11  N11 UNL     1     -39.388  15.887  -5.272  1.00 20.00    -0.197 NA
ENDROOT
TORSDOF 0
ENDMDL
MODEL 9
REMARK VINA RESULT:      -3.0     12.798     13.798
REMARK  0 active torsions:
REMARK  status: ('A' for Active; 'I' for Inactive)
ROOT
HETATM    1  C1  UNL     1     -38.380  16.372  -5.747  1.00 20.00     0.064 C 
HETATM    2  C2  UNL     1     -36.449  17.886  -5.191  1.00 20.00     0.023 C 
HETATM    3  C3  UNL     1     -36.139  15.380  -5.172  1.00 20.00     0.028 C 
HETATM    4  C4  UNL     1     -34.176  16.895  -4.624  1.00 20.00     0.013 C 
HETATM    5  C5  UNL     1     -36.864  16.558  -5.839  1.00 20.00     0.094 C 
HETATM    6  C6  UNL     1     -34.933  18.110  -5.185  1.00 20.00    -0.017 C 
HETATM    7  C7  UNL     1     -34.601  15.515  -5.186  1.00 20.00    -0.046 C 
HETATM    8  C8  UNL     1     -34.443  18.498  -6.519  1.00 20.00     0.010 C 
HETATM    9  C9  UNL     1     -34.050  15.287  -6.607  1.00 20.00     0.015 C 
HETATM   10  C10 UNL     1     -34.000  14.415  -4.283  1.00 20.00     0.015 C 
HETATM   11  N11 UNL     1     -39.529  16.232  -5.677  1.00 20.00    -0.197 NA
ENDROOT
TORSDOF 0
ENDMDL
