MODEL 1
REMARK VINA RESULT:      -4.1      0.000      0.000
REMARK  6 active torsions:
REMARK  status: ('A' for Active; 'I' for Inactive)
REMARK    1  A    between atoms: C1_1  and  C5_5 
REMARK    2  A    between atoms: C1_1  and  O10_10 
REMARK    3  A    between atoms: C5_5  and  C6_6 
REMARK    4  A    between atoms: C6_6  and  C7_7 
REMARK    5  A    between atoms: C7_7  and  O11_11 
REMARK    6  A    between atoms: C8_8  and  O11_11 
ROOT
HETATM    1  C6  UNL     1     -33.400   8.651   5.101  1.00 20.00     0.036 C 
ENDROOT
BRANCH   1   2
HETATM    2  C5  UNL     1     -32.102   8.389   4.343  1.00 20.00     0.113 C 
BRANCH   2   3
HETATM    3  C1  UNL     1     -32.350   8.091   2.882  1.00 20.00     0.258 C 
HETATM    4  O9  UNL     1     -32.233   6.993   2.357  1.00 20.00    -0.265 OA
BRANCH   3   5
HETATM    5  O10 UNL     1     -32.727   9.245   2.254  1.00 20.00    -0.326 OA
HETATM    6  C4  UNL     1     -32.664   9.216   0.824  1.00 20.00     0.213 C 
ENDBRANCH   3   5
ENDBRANCH   2   3
ENDBRANCH   1   2
BRANCH   1   7
HETATM    7  C7  UNL     1     -33.951   7.377   5.728  1.00 20.00     0.168 C 
BRANCH   7   8
HETATM    8  O11 UNL     1     -34.733   6.691   4.761  1.00 20.00    -0.387 OA
BRANCH   8   9
HETATM    9  C8  UNL     1     -34.871   5.314   5.084  1.00 20.00     0.113 C 
HETATM   10  C2  UNL     1     -33.983   4.491   4.160  1.00 20.00     0.039 C 
HETATM   11  C3  UNL     1     -34.511   5.104   6.548  1.00 20.00     0.039 C 
ENDBRANCH   8   9
ENDBRANCH   7   8
ENDBRANCH   1   7
TORSDOF 6
ENDMDL
MODEL 2
REMARK VINA RESULT:      -3.8     11.278     12.225
REMARK  6 active torsions:
REMARK  status: ('A' for Active; 'I' for Inactive)
REMARK    1  A    between atoms: C1_1  and  C5_5 
REMARK    2  A    between atoms: C1_1  and  O10_10 
REMARK    3  A    between atoms: C5_5  and  C6_6 
REMARK    4  A    between atoms: C6_6  and  C7_7 
REMARK    5  A    between atoms: C7_7  and  O11_11 
REMARK    6  A    between atoms: C8_8  and  O11_11 
ROOT
HETATM    1  C6  UNL     1     -33.610  17.746  -0.670  1.00 20.00     0.036 C 
ENDROOT
BRANCH   1   2
HETATM    2  C5  UNL     1     -32.936  19.004  -0.132  1.00 20.00     0.113 C 
BRANCH   2   3
HETATM    3  C1  UNL     1     -31.528  18.733   0.345  1.00 20.00     0.258 C 
HETATM    4  O9  UNL     1     -30.540  18.673  -0.372  1.00 20.00    -0.265 OA
BRANCH   3   5
HETATM    5  O10 UNL     1     -31.545  18.571   1.702  1.00 20.00    -0.326 OA
HETATM    6  C4  UNL     1     -30.265  18.589   2.341  1.00 20.00     0.213 C 
ENDBRANCH   3   5
ENDBRANCH   2   3
ENDBRANCH   1   2
BRANCH   1   7
HETATM    7  C7  UNL     1     -33.320  17.543  -2.151  1.00 20.00     0.168 C 
BRANCH   7   8
HETATM    8  O11 UNL     1     -33.543  16.179  -2.480  1.00 20.00    -0.387 OA
BRANCH   8   9
HETATM    9  C8  UNL     1     -33.472  15.962  -3.882  1.00 20.00     0.113 C 
HETATM   10  C2  UNL     1     -33.964  14.557  -4.197  1.00 20.00     0.039 C 
HETATM   11  C3  UNL     1     -34.295  17.024  -4.596  1.00 20.00     0.039 C 
ENDBRANCH   8   9
ENDBRANCH   7   8
ENDBRANCH   1   7
TORSDOF 6
ENDMDL
MODEL 3
REMARK VINA RESULT:      -3.8      1.689      4.224
REMARK  6 active torsions:
REMARK  status: ('A' for Active; 'I' for Inactive)
REMARK    1  A    between atoms: C1_1  and  C5_5 
REMARK    2  A    between atoms: C1_1  and  O10_10 
REMARK    3  A    between atoms: C5_5  and  C6_6 
REMARK    4  A    between atoms: C6_6  and  C7_7 
REMARK    5  A    between atoms: C7_7  and  O11_11 
REMARK    6  A    between atoms: C8_8  and  O11_11 
ROOT
HETATM    1  C6  UNL     1     -34.383   6.844   6.614  1.00 20.00     0.036 C 
ENDROOT
BRANCH   1   2
HETATM    2  C5  UNL     1     -34.507   5.359   6.285  1.00 20.00     0.113 C 
BRANCH   2   3
HETATM    3  C1  UNL     1     -34.945   5.129   4.858  1.00 20.00     0.258 C 
HETATM    4  O9  UNL     1     -35.903   5.664   4.319  1.00 20.00    -0.265 OA
BRANCH   3   5
HETATM    5  O10 UNL     1     -34.094   4.233   4.273  1.00 20.00    -0.326 OA
HETATM    6  C4  UNL     1     -33.363   4.722   3.145  1.00 20.00     0.213 C 
ENDBRANCH   3   5
ENDBRANCH   2   3
ENDBRANCH   1   2
BRANCH   1   7
HETATM    7  C7  UNL     1     -33.260   7.502   5.825  1.00 20.00     0.168 C 
BRANCH   7   8
HETATM    8  O11 UNL     1     -33.784   7.989   4.598  1.00 20.00    -0.387 OA
BRANCH   8   9
HETATM    9  C8  UNL     1     -32.802   8.703   3.859  1.00 20.00     0.113 C 
HETATM   10  C2  UNL     1     -31.858   9.403   4.825  1.00 20.00     0.039 C 
HETATM   11  C3  UNL     1     -32.062   7.736   2.945  1.00 20.00     0.039 C 
ENDBRANCH   8   9
ENDBRANCH   7   8
ENDBRANCH   1   7
TORSDOF 6
ENDMDL
MODEL 4
REMARK VINA RESULT:      -3.8     11.326     12.336
REMARK  6 active torsions:
REMARK  status: ('A' for Active; 'I' for Inactive)
REMARK    1  A    between atoms: C1_1  and  C5_5 
REMARK    2  A    between atoms: C1_1  and  O10_10 
REMARK    3  A    between atoms: C5_5  and  C6_6 
REMARK    4  A    between atoms: C6_6  and  C7_7 
REMARK    5  A    between atoms: C7_7  and  O11_11 
REMARK    6  A    between atoms: C8_8  and  O11_11 
ROOT
HETATM    1  C6  UNL     1     -33.623  14.934  -4.177  1.00 20.00     0.036 C 
ENDROOT
BRANCH   1   2
HETATM    2  C5  UNL     1     -34.493  14.840  -5.426  1.00 20.00     0.113 C 
BRANCH   2   3
HETATM    3  C1  UNL     1     -35.819  14.172  -5.143  1.00 20.00     0.258 C 
HETATM    4  O9  UNL     1     -35.981  13.209  -4.407  1.00 20.00    -0.265 OA
BRANCH   3   5
HETATM    5  O10 UNL     1     -36.799  14.822  -5.841  1.00 20.00    -0.326 OA
HETATM    6  C4  UNL     1     -36.978  16.202  -5.510  1.00 20.00     0.213 C 
ENDBRANCH   3   5
ENDBRANCH   2   3
ENDBRANCH   1   2
BRANCH   1   7
HETATM    7  C7  UNL     1     -33.551  16.359  -3.647  1.00 20.00     0.168 C 
BRANCH   7   8
HETATM    8  O11 UNL     1     -33.509  16.320  -2.228  1.00 20.00    -0.387 OA
BRANCH   8   9
HETATM    9  C8  UNL     1     -32.956  17.513  -1.689  1.00 20.00     0.113 C 
HETATM   10  C2  UNL     1     -32.921  18.582  -2.772  1.00 20.00     0.039 C 
HETATM   11  C3  UNL     1     -33.782  17.951  -0.489  1.00 20.00     0.039 C 
ENDBRANCH   8   9
ENDBRANCH   7   8
ENDBRANCH   1   7
TORSDOF 6
ENDMDL
MODEL 5
REMARK VINA RESULT:      -3.8      1.370      4.302
REMARK  6 active torsions:
REMARK  status: ('A' for Active; 'I' for Inactive)
REMARK    1  A    between atoms: C1_1  and  C5_5 
REMARK    2  A    between atoms: C1_1  and  O10_10 
REMARK    3  A    between atoms: C5_5  and  C6_6 
REMARK    4  A    between atoms: C6_6  and  C7_7 
REMARK    5  A    between atoms: C7_7  and  O11_11 
REMARK    6  A    between atoms: C8_8  and  O11_11 
ROOT
HETATM    1  C6  UNL     1     -34.097   7.488   6.281  1.00 20.00     0.036 C 
ENDROOT
BRANCH   1   2
HETATM    2  C5  UNL     1     -34.475   6.012   6.376  1.00 20.00     0.113 C 
BRANCH   2   3
HETATM    3  C1  UNL     1     -35.002   5.477   5.065  1.00 20.00     0.258 C 
HETATM    4  O9  UNL     1     -35.852   6.018   4.372  1.00 20.00    -0.265 OA
BRANCH   3   5
HETATM    5  O10 UNL     1     -34.370   4.298   4.784  1.00 20.00    -0.326 OA
HETATM    6  C4  UNL     1     -33.604   4.283   3.575  1.00 20.00     0.213 C 
ENDBRANCH   3   5
ENDBRANCH   2   3
ENDBRANCH   1   2
BRANCH   1   7
HETATM    7  C7  UNL     1     -32.941   7.710   5.316  1.00 20.00     0.168 C 
BRANCH   7   8
HETATM    8  O11 UNL     1     -33.378   8.558   4.264  1.00 20.00    -0.387 OA
BRANCH   8   9
HETATM    9  C8  UNL     1     -32.414   8.635   3.222  1.00 20.00     0.113 C 
HETATM   10  C2  UNL     1     -32.040   7.228   2.781  1.00 20.00     0.039 C 
HETATM   11  C3  UNL     1     -32.982   9.456   2.074  1.00 20.00     0.039 C 
ENDBRANCH   8   9
ENDBRANCH   7   8
ENDBRANCH   1   7
TORSDOF 6
ENDMDL
MODEL 6
REMARK VINA RESULT:      -3.6      1.089      2.101
REMARK  6 active torsions:
REMARK  status: ('A' for Active; 'I' for Inactive)
REMARK    1  A    between atoms: C1_1  and  C5_5 
REMARK    2  A    between atoms: C1_1  and  O10_10 
REMARK    3  A    between atoms: C5_5  and  C6_6 
REMARK    4  A    between atoms: C6_6  and  C7_7 
REMARK    5  A    between atoms: C7_7  and  O11_11 
REMARK    6  A    between atoms: C8_8  and  O11_11 
ROOT
HETATM    1  C6  UNL     1     -33.107   5.640   2.641  1.00 20.00     0.036 C 
ENDROOT
BRANCH   1   2
HETATM    2  C5  UNL     1     -32.049   6.655   3.066  1.00 20.00     0.113 C 
BRANCH   2   3
HETATM    3  C1  UNL     1     -32.365   8.045   2.565  1.00 20.00     0.258 C 
HETATM    4  O9  UNL     1     -32.741   8.978   3.261  1.00 20.00    -0.265 OA
BRANCH   3   5
HETATM    5  O10 UNL     1     -32.158   8.085   1.214  1.00 20.00    -0.326 OA
HETATM    6  C4  UNL     1     -32.679   9.238   0.545  1.00 20.00     0.213 C 
ENDBRANCH   3   5
ENDBRANCH   2   3
ENDBRANCH   1   2
BRANCH   1   7
HETATM    7  C7  UNL     1     -33.922   5.148   3.828  1.00 20.00     0.168 C 
BRANCH   7   8
HETATM    8  O11 UNL     1     -34.732   6.213   4.303  1.00 20.00    -0.387 OA
BRANCH   8   9
HETATM    9  C8  UNL     1     -34.754   6.259   5.723  1.00 20.00     0.113 C 
HETATM   10  C2  UNL     1     -34.365   4.895   6.274  1.00 20.00     0.039 C 
HETATM   11  C3  UNL     1     -33.813   7.354   6.204  1.00 20.00     0.039 C 
ENDBRANCH   8   9
ENDBRANCH   7   8
ENDBRANCH   1   7
TORSDOF 6
ENDMDL
MODEL 7
REMARK VINA RESULT:      -3.6     11.310     12.294
REMARK  6 active torsions:
REMARK  status: ('A' for Active; 'I' for Inactive)
REMARK    1  A    between atoms: C1_1  and  C5_5 
REMARK    2  A    between atoms: C1_1  and  O10_10 
REMARK    3  A    between atoms: C5_5  and  C6_6 
REMARK    4  A    between atoms: C6_6  and  C7_7 
REMARK    5  A    between atoms: C7_7  and  O11_11 
REMARK    6  A    between atoms: C8_8  and  O11_11 
ROOT
HETATM    1  C6  UNL     1     -33.114  16.316  -2.974  1.00 20.00     0.036 C 
ENDROOT
BRANCH   1   2
HETATM    2  C5  UNL     1     -34.044  16.220  -4.180  1.00 20.00     0.113 C 
BRANCH   2   3
HETATM    3  C1  UNL     1     -34.138  14.808  -4.711  1.00 20.00     0.258 C 
HETATM    4  O9  UNL     1     -34.424  13.822  -4.047  1.00 20.00    -0.265 OA
BRANCH   3   5
HETATM    5  O10 UNL     1     -33.855  14.820  -6.049  1.00 20.00    -0.326 OA
HETATM    6  C4  UNL     1     -34.606  15.755  -6.829  1.00 20.00     0.213 C 
ENDBRANCH   3   5
ENDBRANCH   2   3
ENDBRANCH   1   2
BRANCH   1   7
HETATM    7  C7  UNL     1     -33.575  17.385  -1.993  1.00 20.00     0.168 C 
BRANCH   7   8
HETATM    8  O11 UNL     1     -32.518  18.313  -1.794  1.00 20.00    -0.387 OA
BRANCH   8   9
HETATM    9  C8  UNL     1     -32.507  18.814  -0.465  1.00 20.00     0.113 C 
HETATM   10  C2  UNL     1     -33.642  18.175   0.321  1.00 20.00     0.039 C 
HETATM   11  C3  UNL     1     -31.152  18.530   0.167  1.00 20.00     0.039 C 
ENDBRANCH   8   9
ENDBRANCH   7   8
ENDBRANCH   1   7
TORSDOF 6
ENDMDL
MODEL 8
REMARK VINA RESULT:      -3.6      8.989     10.175
REMARK  6 active torsions:
REMARK  status: ('A' for Active; 'I' for Inactive)
REMARK    1  A    between atoms: C1_1  and  C5_5 
REMARK    2  A    between atoms: C1_1  and  O10_10 
REMARK    3  A    between atoms: C5_5  and  C6_6 
REMARK    4  A    between atoms: C6_6  and  C7_7 
REMARK    5  A    between atoms: C7_7  and  O11_11 
REMARK    6  A    between atoms: C8_8  and  O11_11 
ROOT
HETATM    1  C6  UNL     1     -41.725  12.467   6.448  1.00 20.00     0.036 C 
ENDROOT
BRANCH   1   2
HETATM    2  C5  UNL     1     -40.523  12.854   5.591  1.00 20.00     0.113 C 
BRANCH   2   3
HETATM    3  C1  UNL     1     -39.238  12.258   6.117  1.00 20.00     0.258 C 
HETATM    4  O9  UNL     1     -38.997  12.024   7.293  1.00 20.00    -0.265 OA
BRANCH   3   5
HETATM    5  O10 UNL     1     -38.397  12.023   5.064  1.00 20.00    -0.326 OA
HETATM    6  C4  UNL     1     -39.036  11.663   3.835  1.00 20.00     0.213 C 
ENDBRANCH   3   5
ENDBRANCH   2   3
ENDBRANCH   1   2
BRANCH   1   7
HETATM    7  C7  UNL     1     -42.168  13.613   7.346  1.00 20.00     0.168 C 
BRANCH   7   8
HETATM    8  O11 UNL     1     -41.692  13.375   8.663  1.00 20.00    -0.387 OA
BRANCH   8   9
HETATM    9  C8  UNL     1     -41.298  14.582   9.301  1.00 20.00     0.113 C 
HETATM   10  C2  UNL     1     -40.724  14.259  10.673  1.00 20.00     0.039 C 
HETATM   11  C3  UNL     1     -40.289  15.307   8.422  1.00 20.00     0.039 C 
ENDBRANCH   8   9
ENDBRANCH   7   8
ENDBRANCH   1   7
TORSDOF 6
ENDMDL
MODEL 9
REMARK VINA RESULT:      -3.6     11.142     12.252
REMARK  6 active torsions:
REMARK  status: ('A' for Active; 'I' for Inactive)
REMARK    1  A    between atoms: C1_1  and  C5_5 
REMARK    2  A    between atoms: C1_1  and  O10_10 
REMARK    3  A    between atoms: C5_5  and  C6_6 
REMARK    4  A    between atoms: C6_6  and  C7_7 
REMARK    5  A    between atoms: C7_7  and  O11_11 
REMARK    6  A    between atoms: C8_8  and  O11_11 
ROOT
HETATM    1  C6  UNL     1     -33.270  16.196  -3.023  1.00 20.00     0.036 C 
ENDROOT
BRANCH   1   2
HETATM    2  C5  UNL     1     -34.062  16.365  -4.316  1.00 20.00     0.113 C 
BRANCH   2   3
HETATM    3  C1  UNL     1     -34.100  15.091  -5.128  1.00 20.00     0.258 C 
HETATM    4  O9  UNL     1     -33.800  14.998  -6.310  1.00 20.00    -0.265 OA
BRANCH   3   5
HETATM    5  O10 UNL     1     -34.519  14.067  -4.324  1.00 20.00    -0.326 OA
HETATM    6  C4  UNL     1     -35.850  13.601  -4.564  1.00 20.00     0.213 C 
ENDBRANCH   3   5
ENDBRANCH   2   3
ENDBRANCH   1   2
BRANCH   1   7
HETATM    7  C7  UNL     1     -33.643  17.252  -1.993  1.00 20.00     0.168 C 
BRANCH   7   8
HETATM    8  O11 UNL     1     -32.611  18.227  -1.940  1.00 20.00    -0.387 OA
BRANCH   8   9
HETATM    9  C8  UNL     1     -32.502  18.801  -0.645  1.00 20.00     0.113 C 
HETATM   10  C2  UNL     1     -33.599  18.237   0.247  1.00 20.00     0.039 C 
HETATM   11  C3  UNL     1     -31.116  18.517  -0.085  1.00 20.00     0.039 C 
ENDBRANCH   8   9
ENDBRANCH   7   8
ENDBRANCH   1   7
TORSDOF 6
ENDMDL
