MODEL 1
REMARK VINA RESULT:      -4.2      0.000      0.000
REMARK  4 active torsions:
REMARK  status: ('A' for Active; 'I' for Inactive)
REMARK    1  A    between atoms: C1_1  and  C8_8 
REMARK    2  A    between atoms: C4_4  and  C7_7 
REMARK    3  A    between atoms: C7_7  and  O10_10 
REMARK    4  A    between atoms: C8_8  and  O10_10 
ROOT
HETATM    1  C6  UNL     1     -31.836   8.615   4.761  1.00 20.00     0.048 C 
HETATM    2  C8  UNL     1     -32.944   8.350   3.758  1.00 20.00     0.186 C 
ENDROOT
BRANCH   2   3
HETATM    3  C1  UNL     1     -32.471   7.444   2.629  1.00 20.00     0.151 C 
HETATM    4  C5  UNL     1     -32.646   5.960   2.822  1.00 20.00     0.093 C 
HETATM    5  O9  UNL     1     -31.964   7.891   1.600  1.00 20.00    -0.296 OA
ENDBRANCH   2   3
BRANCH   2   6
HETATM    6  O10 UNL     1     -34.017   7.723   4.440  1.00 20.00    -0.378 OA
BRANCH   6   7
HETATM    7  C7  UNL     1     -33.713   7.507   5.813  1.00 20.00     0.173 C 
BRANCH   7   8
HETATM    8  C4  UNL     1     -34.565   6.370   6.334  1.00 20.00     0.009 A 
HETATM    9  C2  UNL     1     -35.074   5.312   5.395  1.00 20.00     0.007 A 
HETATM   10  C3  UNL     1     -34.008   4.975   6.401  1.00 20.00     0.007 A 
ENDBRANCH   7   8
ENDBRANCH   6   7
ENDBRANCH   2   6
TORSDOF 4
ENDMDL
MODEL 2
REMARK VINA RESULT:      -4.0      1.168      1.707
REMARK  4 active torsions:
REMARK  status: ('A' for Active; 'I' for Inactive)
REMARK    1  A    between atoms: C1_1  and  C8_8 
REMARK    2  A    between atoms: C4_4  and  C7_7 
REMARK    3  A    between atoms: C7_7  and  O10_10 
REMARK    4  A    between atoms: C8_8  and  O10_10 
ROOT
HETATM    1  C6  UNL     1     -32.492   6.286   2.795  1.00 20.00     0.048 C 
HETATM    2  C8  UNL     1     -32.388   7.732   3.244  1.00 20.00     0.186 C 
ENDROOT
BRANCH   2   3
HETATM    3  C1  UNL     1     -32.489   8.692   2.066  1.00 20.00     0.151 C 
HETATM    4  C5  UNL     1     -31.982   8.200   0.735  1.00 20.00     0.093 C 
HETATM    5  O9  UNL     1     -32.960   9.824   2.183  1.00 20.00    -0.296 OA
ENDBRANCH   2   3
BRANCH   2   6
HETATM    6  O10 UNL     1     -33.449   7.992   4.148  1.00 20.00    -0.378 OA
BRANCH   6   7
HETATM    7  C7  UNL     1     -33.150   7.524   5.458  1.00 20.00     0.173 C 
BRANCH   7   8
HETATM    8  C4  UNL     1     -34.359   6.800   6.011  1.00 20.00     0.009 A 
HETATM    9  C2  UNL     1     -35.066   5.763   5.182  1.00 20.00     0.007 A 
HETATM   10  C3  UNL     1     -34.266   5.346   6.384  1.00 20.00     0.007 A 
ENDBRANCH   7   8
ENDBRANCH   6   7
ENDBRANCH   2   6
TORSDOF 4
ENDMDL
MODEL 3
REMARK VINA RESULT:      -3.9     11.881     12.567
REMARK  4 active torsions:
REMARK  status: ('A' for Active; 'I' for Inactive)
REMARK    1  A    between atoms: C1_1  and  C8_8 
REMARK    2  A    between atoms: C4_4  and  C7_7 
REMARK    3  A    between atoms: C7_7  and  O10_10 
REMARK    4  A    between atoms: C8_8  and  O10_10 
ROOT
HETATM    1  C6  UNL     1     -33.921  17.940   0.389  1.00 20.00     0.048 C 
HETATM    2  C8  UNL     1     -32.902  18.777  -0.364  1.00 20.00     0.186 C 
ENDROOT
BRANCH   2   3
HETATM    3  C1  UNL     1     -31.503  18.604   0.210  1.00 20.00     0.151 C 
HETATM    4  C5  UNL     1     -31.388  18.457   1.706  1.00 20.00     0.093 C 
HETATM    5  O9  UNL     1     -30.500  18.587  -0.504  1.00 20.00    -0.296 OA
ENDBRANCH   2   3
BRANCH   2   6
HETATM    6  O10 UNL     1     -32.903  18.361  -1.720  1.00 20.00    -0.378 OA
BRANCH   6   7
HETATM    7  C7  UNL     1     -33.467  17.064  -1.871  1.00 20.00     0.173 C 
BRANCH   7   8
HETATM    8  C4  UNL     1     -33.128  16.536  -3.248  1.00 20.00     0.009 A 
HETATM    9  C2  UNL     1     -33.704  15.230  -3.722  1.00 20.00     0.007 A 
HETATM   10  C3  UNL     1     -34.170  16.522  -4.332  1.00 20.00     0.007 A 
ENDBRANCH   7   8
ENDBRANCH   6   7
ENDBRANCH   2   6
TORSDOF 4
ENDMDL
MODEL 4
REMARK VINA RESULT:      -3.9      9.286     10.602
REMARK  4 active torsions:
REMARK  status: ('A' for Active; 'I' for Inactive)
REMARK    1  A    between atoms: C1_1  and  C8_8 
REMARK    2  A    between atoms: C4_4  and  C7_7 
REMARK    3  A    between atoms: C7_7  and  O10_10 
REMARK    4  A    between atoms: C8_8  and  O10_10 
ROOT
HETATM    1  C6  UNL     1     -43.010  13.348   8.756  1.00 20.00     0.048 C 
HETATM    2  C8  UNL     1     -42.009  13.674   7.663  1.00 20.00     0.186 C 
ENDROOT
BRANCH   2   3
HETATM    3  C1  UNL     1     -40.744  14.303   8.231  1.00 20.00     0.151 C 
HETATM    4  C5  UNL     1     -40.425  15.712   7.803  1.00 20.00     0.093 C 
HETATM    5  O9  UNL     1     -40.003  13.697   9.006  1.00 20.00    -0.296 OA
ENDBRANCH   2   3
BRANCH   2   6
HETATM    6  O10 UNL     1     -41.670  12.467   6.999  1.00 20.00    -0.378 OA
BRANCH   6   7
HETATM    7  C7  UNL     1     -40.999  12.713   5.770  1.00 20.00     0.173 C 
BRANCH   7   8
HETATM    8  C4  UNL     1     -39.883  11.704   5.606  1.00 20.00     0.009 A 
HETATM    9  C2  UNL     1     -39.089  11.653   4.330  1.00 20.00     0.007 A 
HETATM   10  C3  UNL     1     -38.449  12.155   5.593  1.00 20.00     0.007 A 
ENDBRANCH   7   8
ENDBRANCH   6   7
ENDBRANCH   2   6
TORSDOF 4
ENDMDL
MODEL 5
REMARK VINA RESULT:      -3.7      9.477     10.495
REMARK  4 active torsions:
REMARK  status: ('A' for Active; 'I' for Inactive)
REMARK    1  A    between atoms: C1_1  and  C8_8 
REMARK    2  A    between atoms: C4_4  and  C7_7 
REMARK    3  A    between atoms: C7_7  and  O10_10 
REMARK    4  A    between atoms: C8_8  and  O10_10 
ROOT
HETATM    1  C6  UNL     1     -41.518  13.670   5.233  1.00 20.00     0.048 C 
HETATM    2  C8  UNL     1     -41.213  12.470   6.112  1.00 20.00     0.186 C 
ENDROOT
BRANCH   2   3
HETATM    3  C1  UNL     1     -39.751  12.058   6.008  1.00 20.00     0.151 C 
HETATM    4  C5  UNL     1     -39.207  11.798   4.626  1.00 20.00     0.093 C 
HETATM    5  O9  UNL     1     -39.033  11.935   7.001  1.00 20.00    -0.296 OA
ENDBRANCH   2   3
BRANCH   2   6
HETATM    6  O10 UNL     1     -41.502  12.822   7.455  1.00 20.00    -0.378 OA
BRANCH   6   7
HETATM    7  C7  UNL     1     -42.177  14.071   7.537  1.00 20.00     0.173 C 
BRANCH   7   8
HETATM    8  C4  UNL     1     -41.594  14.873   8.680  1.00 20.00     0.009 A 
HETATM    9  C2  UNL     1     -40.175  14.642   9.121  1.00 20.00     0.007 A 
HETATM   10  C3  UNL     1     -40.544  15.917   8.415  1.00 20.00     0.007 A 
ENDBRANCH   7   8
ENDBRANCH   6   7
ENDBRANCH   2   6
TORSDOF 4
ENDMDL
MODEL 6
REMARK VINA RESULT:      -3.6     11.748     12.926
REMARK  4 active torsions:
REMARK  status: ('A' for Active; 'I' for Inactive)
REMARK    1  A    between atoms: C1_1  and  C8_8 
REMARK    2  A    between atoms: C4_4  and  C7_7 
REMARK    3  A    between atoms: C7_7  and  O10_10 
REMARK    4  A    between atoms: C8_8  and  O10_10 
ROOT
HETATM    1  C6  UNL     1     -34.242  14.112  -4.175  1.00 20.00     0.048 C 
HETATM    2  C8  UNL     1     -34.322  15.159  -5.272  1.00 20.00     0.186 C 
ENDROOT
BRANCH   2   3
HETATM    3  C1  UNL     1     -35.686  15.156  -5.949  1.00 20.00     0.151 C 
HETATM    4  C5  UNL     1     -36.651  16.245  -5.556  1.00 20.00     0.093 C 
HETATM    5  O9  UNL     1     -36.001  14.305  -6.781  1.00 20.00    -0.296 OA
ENDBRANCH   2   3
BRANCH   2   6
HETATM    6  O10 UNL     1     -34.097  16.431  -4.685  1.00 20.00    -0.378 OA
BRANCH   6   7
HETATM    7  C7  UNL     1     -33.383  16.326  -3.460  1.00 20.00     0.173 C 
BRANCH   7   8
HETATM    8  C4  UNL     1     -33.707  17.525  -2.595  1.00 20.00     0.009 A 
HETATM    9  C2  UNL     1     -33.692  17.405  -1.096  1.00 20.00     0.007 A 
HETATM   10  C3  UNL     1     -32.625  18.198  -1.797  1.00 20.00     0.007 A 
ENDBRANCH   7   8
ENDBRANCH   6   7
ENDBRANCH   2   6
TORSDOF 4
ENDMDL
MODEL 7
REMARK VINA RESULT:      -3.6     12.072     13.276
REMARK  4 active torsions:
REMARK  status: ('A' for Active; 'I' for Inactive)
REMARK    1  A    between atoms: C1_1  and  C8_8 
REMARK    2  A    between atoms: C4_4  and  C7_7 
REMARK    3  A    between atoms: C7_7  and  O10_10 
REMARK    4  A    between atoms: C8_8  and  O10_10 
ROOT
HETATM    1  C6  UNL     1     -35.754  17.335  -5.513  1.00 20.00     0.048 C 
HETATM    2  C8  UNL     1     -35.416  15.878  -5.252  1.00 20.00     0.186 C 
ENDROOT
BRANCH   2   3
HETATM    3  C1  UNL     1     -35.180  15.117  -6.550  1.00 20.00     0.151 C 
HETATM    4  C5  UNL     1     -33.924  15.442  -7.317  1.00 20.00     0.093 C 
HETATM    5  O9  UNL     1     -35.973  14.274  -6.967  1.00 20.00    -0.296 OA
ENDBRANCH   2   3
BRANCH   2   6
HETATM    6  O10 UNL     1     -34.237  15.832  -4.465  1.00 20.00    -0.378 OA
BRANCH   6   7
HETATM    7  C7  UNL     1     -33.995  17.070  -3.808  1.00 20.00     0.173 C 
BRANCH   7   8
HETATM    8  C4  UNL     1     -33.252  16.807  -2.516  1.00 20.00     0.009 A 
HETATM    9  C2  UNL     1     -32.539  17.927  -1.810  1.00 20.00     0.007 A 
HETATM   10  C3  UNL     1     -33.786  17.337  -1.213  1.00 20.00     0.007 A 
ENDBRANCH   7   8
ENDBRANCH   6   7
ENDBRANCH   2   6
TORSDOF 4
ENDMDL
MODEL 8
REMARK VINA RESULT:      -3.6      0.908      2.336
REMARK  4 active torsions:
REMARK  status: ('A' for Active; 'I' for Inactive)
REMARK    1  A    between atoms: C1_1  and  C8_8 
REMARK    2  A    between atoms: C4_4  and  C7_7 
REMARK    3  A    between atoms: C7_7  and  O10_10 
REMARK    4  A    between atoms: C8_8  and  O10_10 
ROOT
HETATM    1  C6  UNL     1     -32.900   5.057   2.286  1.00 20.00     0.048 C 
HETATM    2  C8  UNL     1     -32.919   6.012   3.467  1.00 20.00     0.186 C 
ENDROOT
BRANCH   2   3
HETATM    3  C1  UNL     1     -32.368   7.380   3.089  1.00 20.00     0.151 C 
HETATM    4  C5  UNL     1     -32.143   8.363   4.209  1.00 20.00     0.093 C 
HETATM    5  O9  UNL     1     -32.116   7.684   1.922  1.00 20.00    -0.296 OA
ENDBRANCH   2   3
BRANCH   2   6
HETATM    6  O10 UNL     1     -34.262   6.154   3.899  1.00 20.00    -0.378 OA
BRANCH   6   7
HETATM    7  C7  UNL     1     -34.691   5.032   4.661  1.00 20.00     0.173 C 
BRANCH   7   8
HETATM    8  C4  UNL     1     -34.744   5.420   6.123  1.00 20.00     0.009 A 
HETATM    9  C2  UNL     1     -33.475   5.710   6.876  1.00 20.00     0.007 A 
HETATM   10  C3  UNL     1     -34.424   6.828   6.545  1.00 20.00     0.007 A 
ENDBRANCH   7   8
ENDBRANCH   6   7
ENDBRANCH   2   6
TORSDOF 4
ENDMDL
MODEL 9
REMARK VINA RESULT:      -3.5      2.038      3.706
REMARK  4 active torsions:
REMARK  status: ('A' for Active; 'I' for Inactive)
REMARK    1  A    between atoms: C1_1  and  C8_8 
REMARK    2  A    between atoms: C4_4  and  C7_7 
REMARK    3  A    between atoms: C7_7  and  O10_10 
REMARK    4  A    between atoms: C8_8  and  O10_10 
ROOT
HETATM    1  C6  UNL     1     -35.655   6.318   4.238  1.00 20.00     0.048 C 
HETATM    2  C8  UNL     1     -34.872   5.372   5.130  1.00 20.00     0.186 C 
ENDROOT
BRANCH   2   3
HETATM    3  C1  UNL     1     -33.936   4.486   4.320  1.00 20.00     0.151 C 
HETATM    4  C5  UNL     1     -33.446   5.029   3.002  1.00 20.00     0.093 C 
HETATM    5  O9  UNL     1     -33.589   3.371   4.710  1.00 20.00    -0.296 OA
ENDBRANCH   2   3
BRANCH   2   6
HETATM    6  O10 UNL     1     -34.107   6.150   6.037  1.00 20.00    -0.378 OA
BRANCH   6   7
HETATM    7  C7  UNL     1     -34.072   7.519   5.654  1.00 20.00     0.173 C 
BRANCH   7   8
HETATM    8  C4  UNL     1     -32.700   7.842   5.103  1.00 20.00     0.009 A 
HETATM    9  C2  UNL     1     -32.550   8.375   3.705  1.00 20.00     0.007 A 
HETATM   10  C3  UNL     1     -32.289   9.272   4.883  1.00 20.00     0.007 A 
ENDBRANCH   7   8
ENDBRANCH   6   7
ENDBRANCH   2   6
TORSDOF 4
ENDMDL
