MODEL 1
REMARK VINA RESULT:      -3.5      0.000      0.000
REMARK  4 active torsions:
REMARK  status: ('A' for Active; 'I' for Inactive)
REMARK    1  A    between atoms: C1_1  and  C8_8 
REMARK    2  A    between atoms: C7_7  and  N10_10 
REMARK    3  A    between atoms: C8_8  and  N10_10 
REMARK    4  A    between atoms: C9_9  and  N10_10 
ROOT
HETATM    1  N10 UNL     1     -41.529  13.503   7.270  1.00 20.00     0.103 N 
ENDROOT
BRANCH   1   2
HETATM    2  C7  UNL     1     -42.798  13.111   7.902  1.00 20.00     0.269 C 
HETATM    3  C3  UNL     1     -43.320  11.842   7.316  1.00 20.00     0.037 C 
ENDBRANCH   1   2
BRANCH   1   4
HETATM    4  C8  UNL     1     -41.338  12.825   6.016  1.00 20.00     0.287 C 
HETATM    5  C4  UNL     1     -41.495  13.767   4.834  1.00 20.00     0.051 C 
BRANCH   4   6
HETATM    6  C1  UNL     1     -39.946  12.218   6.037  1.00 20.00     0.155 C 
HETATM    7  C2  UNL     1     -39.371  11.802   4.707  1.00 20.00     0.093 C 
HETATM    8  O11 UNL     1     -39.289  12.103   7.072  1.00 20.00    -0.296 OA
ENDBRANCH   4   6
ENDBRANCH   1   4
BRANCH   1   9
HETATM    9  C9  UNL     1     -41.497  14.964   7.100  1.00 20.00     0.216 C 
HETATM   10  C5  UNL     1     -40.296  15.526   7.846  1.00 20.00     0.042 C 
HETATM   11  C6  UNL     1     -42.804  15.549   7.616  1.00 20.00     0.042 C 
ENDBRANCH   1   9
TORSDOF 4
ENDMDL
MODEL 2
REMARK VINA RESULT:      -3.3     12.679     14.280
REMARK  4 active torsions:
REMARK  status: ('A' for Active; 'I' for Inactive)
REMARK    1  A    between atoms: C1_1  and  C8_8 
REMARK    2  A    between atoms: C7_7  and  N10_10 
REMARK    3  A    between atoms: C8_8  and  N10_10 
REMARK    4  A    between atoms: C9_9  and  N10_10 
ROOT
HETATM    1  N10 UNL     1     -34.506  16.411  -5.300  1.00 20.00     0.103 N 
ENDROOT
BRANCH   1   2
HETATM    2  C7  UNL     1     -35.889  16.891  -5.163  1.00 20.00     0.269 C 
HETATM    3  C3  UNL     1     -36.019  18.300  -5.636  1.00 20.00     0.037 C 
ENDBRANCH   1   2
BRANCH   1   4
HETATM    4  C8  UNL     1     -33.985  15.949  -4.041  1.00 20.00     0.287 C 
HETATM    5  C4  UNL     1     -32.882  14.921  -4.228  1.00 20.00     0.051 C 
BRANCH   4   6
HETATM    6  C1  UNL     1     -33.466  17.164  -3.291  1.00 20.00     0.155 C 
HETATM    7  C2  UNL     1     -33.526  17.104  -1.787  1.00 20.00     0.093 C 
HETATM    8  O11 UNL     1     -32.979  18.137  -3.866  1.00 20.00    -0.296 OA
ENDBRANCH   4   6
ENDBRANCH   1   4
BRANCH   1   9
HETATM    9  C9  UNL     1     -34.452  15.355  -6.322  1.00 20.00     0.216 C 
HETATM   10  C5  UNL     1     -34.058  15.972  -7.657  1.00 20.00     0.042 C 
HETATM   11  C6  UNL     1     -35.810  14.671  -6.396  1.00 20.00     0.042 C 
ENDBRANCH   1   9
TORSDOF 4
ENDMDL
MODEL 3
REMARK VINA RESULT:      -3.2     12.685     13.696
REMARK  4 active torsions:
REMARK  status: ('A' for Active; 'I' for Inactive)
REMARK    1  A    between atoms: C1_1  and  C8_8 
REMARK    2  A    between atoms: C7_7  and  N10_10 
REMARK    3  A    between atoms: C8_8  and  N10_10 
REMARK    4  A    between atoms: C9_9  and  N10_10 
ROOT
HETATM    1  N10 UNL     1     -34.450  16.511  -4.344  1.00 20.00     0.103 N 
ENDROOT
BRANCH   1   2
HETATM    2  C7  UNL     1     -35.129  17.563  -5.116  1.00 20.00     0.269 C 
HETATM    3  C3  UNL     1     -36.537  17.741  -4.660  1.00 20.00     0.037 C 
ENDBRANCH   1   2
BRANCH   1   4
HETATM    4  C8  UNL     1     -33.956  15.469  -5.203  1.00 20.00     0.287 C 
HETATM    5  C4  UNL     1     -32.971  14.563  -4.484  1.00 20.00     0.051 C 
BRANCH   4   6
HETATM    6  C1  UNL     1     -35.156  14.676  -5.691  1.00 20.00     0.155 C 
HETATM    7  C2  UNL     1     -35.938  13.923  -4.645  1.00 20.00     0.093 C 
HETATM    8  O11 UNL     1     -35.512  14.673  -6.870  1.00 20.00    -0.296 OA
ENDBRANCH   4   6
ENDBRANCH   1   4
BRANCH   1   9
HETATM    9  C9  UNL     1     -33.367  17.109  -3.548  1.00 20.00     0.216 C 
HETATM   10  C5  UNL     1     -33.716  17.002  -2.071  1.00 20.00     0.042 C 
HETATM   11  C6  UNL     1     -33.178  18.556  -3.979  1.00 20.00     0.042 C 
ENDBRANCH   1   9
TORSDOF 4
ENDMDL
MODEL 4
REMARK VINA RESULT:      -3.1     13.273     14.558
REMARK  4 active torsions:
REMARK  status: ('A' for Active; 'I' for Inactive)
REMARK    1  A    between atoms: C1_1  and  C8_8 
REMARK    2  A    between atoms: C7_7  and  N10_10 
REMARK    3  A    between atoms: C8_8  and  N10_10 
REMARK    4  A    between atoms: C9_9  and  N10_10 
ROOT
HETATM    1  N10 UNL     1     -34.933  16.167  -5.367  1.00 20.00     0.103 N 
ENDROOT
BRANCH   1   2
HETATM    2  C7  UNL     1     -34.742  17.513  -4.805  1.00 20.00     0.269 C 
HETATM    3  C3  UNL     1     -36.051  18.179  -4.547  1.00 20.00     0.037 C 
ENDBRANCH   1   2
BRANCH   1   4
HETATM    4  C8  UNL     1     -34.809  16.177  -6.800  1.00 20.00     0.287 C 
HETATM    5  C4  UNL     1     -33.592  15.398  -7.268  1.00 20.00     0.051 C 
BRANCH   4   6
HETATM    6  C1  UNL     1     -36.083  15.575  -7.369  1.00 20.00     0.155 C 
HETATM    7  C2  UNL     1     -37.168  16.543  -7.765  1.00 20.00     0.093 C 
HETATM    8  O11 UNL     1     -36.222  14.365  -7.544  1.00 20.00    -0.296 OA
ENDBRANCH   4   6
ENDBRANCH   1   4
BRANCH   1   9
HETATM    9  C9  UNL     1     -33.972  15.238  -4.752  1.00 20.00     0.216 C 
HETATM   10  C5  UNL     1     -34.722  14.023  -4.225  1.00 20.00     0.042 C 
HETATM   11  C6  UNL     1     -33.225  15.964  -3.643  1.00 20.00     0.042 C 
ENDBRANCH   1   9
TORSDOF 4
ENDMDL
MODEL 5
REMARK VINA RESULT:      -3.1     12.295     13.574
REMARK  4 active torsions:
REMARK  status: ('A' for Active; 'I' for Inactive)
REMARK    1  A    between atoms: C1_1  and  C8_8 
REMARK    2  A    between atoms: C7_7  and  N10_10 
REMARK    3  A    between atoms: C8_8  and  N10_10 
REMARK    4  A    between atoms: C9_9  and  N10_10 
ROOT
HETATM    1  N10 UNL     1     -34.444  17.383  -3.776  1.00 20.00     0.103 N 
ENDROOT
BRANCH   1   2
HETATM    2  C7  UNL     1     -34.414  16.157  -4.587  1.00 20.00     0.269 C 
HETATM    3  C3  UNL     1     -33.357  15.221  -4.109  1.00 20.00     0.037 C 
ENDBRANCH   1   2
BRANCH   1   4
HETATM    4  C8  UNL     1     -33.147  18.002  -3.715  1.00 20.00     0.287 C 
HETATM    5  C4  UNL     1     -33.081  19.263  -4.559  1.00 20.00     0.051 C 
BRANCH   4   6
HETATM    6  C1  UNL     1     -32.863  18.317  -2.256  1.00 20.00     0.155 C 
HETATM    7  C2  UNL     1     -33.593  17.486  -1.232  1.00 20.00     0.093 C 
HETATM    8  O11 UNL     1     -32.050  19.174  -1.910  1.00 20.00    -0.296 OA
ENDBRANCH   4   6
ENDBRANCH   1   4
BRANCH   1   9
HETATM    9  C9  UNL     1     -35.453  18.306  -4.318  1.00 20.00     0.216 C 
HETATM   10  C5  UNL     1     -36.413  18.705  -3.206  1.00 20.00     0.042 C 
HETATM   11  C6  UNL     1     -36.177  17.623  -5.469  1.00 20.00     0.042 C 
ENDBRANCH   1   9
TORSDOF 4
ENDMDL
MODEL 6
REMARK VINA RESULT:      -3.1     13.381     14.276
REMARK  4 active torsions:
REMARK  status: ('A' for Active; 'I' for Inactive)
REMARK    1  A    between atoms: C1_1  and  C8_8 
REMARK    2  A    between atoms: C7_7  and  N10_10 
REMARK    3  A    between atoms: C8_8  and  N10_10 
REMARK    4  A    between atoms: C9_9  and  N10_10 
ROOT
HETATM    1  N10 UNL     1     -34.635  16.529  -5.301  1.00 20.00     0.103 N 
ENDROOT
BRANCH   1   2
HETATM    2  C7  UNL     1     -33.848  16.064  -4.149  1.00 20.00     0.269 C 
HETATM    3  C3  UNL     1     -33.816  14.574  -4.086  1.00 20.00     0.037 C 
ENDBRANCH   1   2
BRANCH   1   4
HETATM    4  C8  UNL     1     -35.630  15.561  -5.679  1.00 20.00     0.287 C 
HETATM    5  C4  UNL     1     -37.039  16.097  -5.496  1.00 20.00     0.051 C 
BRANCH   4   6
HETATM    6  C1  UNL     1     -35.379  15.198  -7.133  1.00 20.00     0.155 C 
HETATM    7  C2  UNL     1     -34.086  15.684  -7.736  1.00 20.00     0.093 C 
HETATM    8  O11 UNL     1     -36.160  14.507  -7.787  1.00 20.00    -0.296 OA
ENDBRANCH   4   6
ENDBRANCH   1   4
BRANCH   1   9
HETATM    9  C9  UNL     1     -35.245  17.829  -4.985  1.00 20.00     0.216 C 
HETATM   10  C5  UNL     1     -34.700  18.881  -5.941  1.00 20.00     0.042 C 
HETATM   11  C6  UNL     1     -34.943  18.176  -3.534  1.00 20.00     0.042 C 
ENDBRANCH   1   9
TORSDOF 4
ENDMDL
MODEL 7
REMARK VINA RESULT:      -3.1     17.533     18.947
REMARK  4 active torsions:
REMARK  status: ('A' for Active; 'I' for Inactive)
REMARK    1  A    between atoms: C1_1  and  C8_8 
REMARK    2  A    between atoms: C7_7  and  N10_10 
REMARK    3  A    between atoms: C8_8  and  N10_10 
REMARK    4  A    between atoms: C9_9  and  N10_10 
ROOT
HETATM    1  N10 UNL     1     -23.747  18.138   9.993  1.00 20.00     0.103 N 
ENDROOT
BRANCH   1   2
HETATM    2  C7  UNL     1     -24.672  19.261   9.778  1.00 20.00     0.269 C 
HETATM    3  C3  UNL     1     -25.443  19.090   8.514  1.00 20.00     0.037 C 
ENDBRANCH   1   2
BRANCH   1   4
HETATM    4  C8  UNL     1     -22.404  18.488   9.616  1.00 20.00     0.287 C 
HETATM    5  C4  UNL     1     -21.407  18.176  10.719  1.00 20.00     0.051 C 
BRANCH   4   6
HETATM    6  C1  UNL     1     -22.069  17.710   8.355  1.00 20.00     0.155 C 
HETATM    7  C2  UNL     1     -22.017  18.497   7.070  1.00 20.00     0.093 C 
HETATM    8  O11 UNL     1     -21.810  16.507   8.369  1.00 20.00    -0.296 OA
ENDBRANCH   4   6
ENDBRANCH   1   4
BRANCH   1   9
HETATM    9  C9  UNL     1     -23.815  17.708  11.398  1.00 20.00     0.216 C 
HETATM   10  C5  UNL     1     -24.516  16.359  11.473  1.00 20.00     0.042 C 
HETATM   11  C6  UNL     1     -24.549  18.770  12.204  1.00 20.00     0.042 C 
ENDBRANCH   1   9
TORSDOF 4
ENDMDL
MODEL 8
REMARK VINA RESULT:      -3.0      1.091      2.364
REMARK  4 active torsions:
REMARK  status: ('A' for Active; 'I' for Inactive)
REMARK    1  A    between atoms: C1_1  and  C8_8 
REMARK    2  A    between atoms: C7_7  and  N10_10 
REMARK    3  A    between atoms: C8_8  and  N10_10 
REMARK    4  A    between atoms: C9_9  and  N10_10 
ROOT
HETATM    1  N10 UNL     1     -41.161  14.507   6.443  1.00 20.00     0.103 N 
ENDROOT
BRANCH   1   2
HETATM    2  C7  UNL     1     -40.704  15.526   7.399  1.00 20.00     0.269 C 
HETATM    3  C3  UNL     1     -40.303  14.906   8.695  1.00 20.00     0.037 C 
ENDBRANCH   1   2
BRANCH   1   4
HETATM    4  C8  UNL     1     -41.115  13.190   7.020  1.00 20.00     0.287 C 
HETATM    5  C4  UNL     1     -42.429  12.450   6.845  1.00 20.00     0.051 C 
BRANCH   4   6
HETATM    6  C1  UNL     1     -39.981  12.439   6.343  1.00 20.00     0.155 C 
HETATM    7  C2  UNL     1     -40.018  12.375   4.838  1.00 20.00     0.093 C 
HETATM    8  O11 UNL     1     -39.050  11.938   6.973  1.00 20.00    -0.296 OA
ENDBRANCH   4   6
ENDBRANCH   1   4
BRANCH   1   9
HETATM    9  C9  UNL     1     -42.516  14.842   5.980  1.00 20.00     0.216 C 
HETATM   10  C5  UNL     1     -42.493  15.039   4.470  1.00 20.00     0.042 C 
HETATM   11  C6  UNL     1     -42.989  16.095   6.703  1.00 20.00     0.042 C 
ENDBRANCH   1   9
TORSDOF 4
ENDMDL
MODEL 9
REMARK VINA RESULT:      -3.0      1.970      3.211
REMARK  4 active torsions:
REMARK  status: ('A' for Active; 'I' for Inactive)
REMARK    1  A    between atoms: C1_1  and  C8_8 
REMARK    2  A    between atoms: C7_7  and  N10_10 
REMARK    3  A    between atoms: C8_8  and  N10_10 
REMARK    4  A    between atoms: C9_9  and  N10_10 
ROOT
HETATM    1  N10 UNL     1     -40.893  14.139   6.363  1.00 20.00     0.103 N 
ENDROOT
BRANCH   1   2
HETATM    2  C7  UNL     1     -39.994  13.013   6.655  1.00 20.00     0.269 C 
HETATM    3  C3  UNL     1     -39.870  12.104   5.479  1.00 20.00     0.037 C 
ENDBRANCH   1   2
BRANCH   1   4
HETATM    4  C8  UNL     1     -42.129  13.684   5.782  1.00 20.00     0.287 C 
HETATM    5  C4  UNL     1     -43.291  13.819   6.751  1.00 20.00     0.051 C 
BRANCH   4   6
HETATM    6  C1  UNL     1     -42.373  14.511   4.532  1.00 20.00     0.155 C 
HETATM    7  C2  UNL     1     -43.316  15.679   4.669  1.00 20.00     0.093 C 
HETATM    8  O11 UNL     1     -41.806  14.279   3.464  1.00 20.00    -0.296 OA
ENDBRANCH   4   6
ENDBRANCH   1   4
BRANCH   1   9
HETATM    9  C9  UNL     1     -41.130  14.909   7.593  1.00 20.00     0.216 C 
HETATM   10  C5  UNL     1     -40.765  16.366   7.347  1.00 20.00     0.042 C 
HETATM   11  C6  UNL     1     -40.304  14.305   8.720  1.00 20.00     0.042 C 
ENDBRANCH   1   9
TORSDOF 4
ENDMDL
