MODEL 1
REMARK VINA RESULT:      -3.6      0.000      0.000
REMARK  3 active torsions:
REMARK  status: ('A' for Active; 'I' for Inactive)
REMARK    1  A    between atoms: C5_5  and  C6_6 
REMARK    2  A    between atoms: C6_6  and  C7_7 
REMARK    3  A    between atoms: C7_7  and  N9_9 
ROOT
HETATM    1  C1  UNL     1     -31.702  18.547  -0.866  1.00 20.00     0.095 C 
HETATM    2  C7  UNL     1     -32.992  18.515  -1.574  1.00 20.00     0.327 C 
HETATM    3  N8  UNL     1     -30.682  18.573  -0.313  1.00 20.00    -0.195 NA
ENDROOT
BRANCH   2   4
HETATM    4  C6  UNL     1     -33.396  17.077  -1.949  1.00 20.00     0.050 C 
BRANCH   4   5
HETATM    5  C5  UNL     1     -33.279  16.741  -3.442  1.00 20.00    -0.001 C 
HETATM    6  C2  UNL     1     -33.655  15.291  -3.712  1.00 20.00     0.005 C 
ENDBRANCH   4   5
ENDBRANCH   2   4
BRANCH   2   7
HETATM    7  N9  UNL     1     -34.028  19.166  -0.774  1.00 20.00     0.098 N 
HETATM    8  C3  UNL     1     -34.205  18.466   0.498  1.00 20.00     0.311 C 
HETATM    9  C4  UNL     1     -35.290  19.214  -1.511  1.00 20.00     0.311 C 
ENDBRANCH   2   7
TORSDOF 3
ENDMDL
MODEL 2
REMARK VINA RESULT:      -3.5     10.793     11.861
REMARK  3 active torsions:
REMARK  status: ('A' for Active; 'I' for Inactive)
REMARK    1  A    between atoms: C5_5  and  C6_6 
REMARK    2  A    between atoms: C6_6  and  C7_7 
REMARK    3  A    between atoms: C7_7  and  N9_9 
ROOT
HETATM    1  C1  UNL     1     -40.485  13.919   7.806  1.00 20.00     0.095 C 
HETATM    2  C7  UNL     1     -40.683  13.775   6.354  1.00 20.00     0.327 C 
HETATM    3  N8  UNL     1     -40.325  14.034   8.949  1.00 20.00    -0.195 NA
ENDROOT
BRANCH   2   4
HETATM    4  C6  UNL     1     -40.422  12.331   5.889  1.00 20.00     0.050 C 
BRANCH   4   5
HETATM    5  C5  UNL     1     -38.988  12.052   5.420  1.00 20.00    -0.001 C 
HETATM    6  C2  UNL     1     -38.957  11.639   3.955  1.00 20.00     0.005 C 
ENDBRANCH   4   5
ENDBRANCH   2   4
BRANCH   2   7
HETATM    7  N9  UNL     1     -42.024  14.221   5.977  1.00 20.00     0.098 N 
HETATM    8  C3  UNL     1     -43.034  13.307   6.509  1.00 20.00     0.311 C 
HETATM    9  C4  UNL     1     -42.139  14.321   4.522  1.00 20.00     0.311 C 
ENDBRANCH   2   7
TORSDOF 3
ENDMDL
MODEL 3
REMARK VINA RESULT:      -3.5     10.788     11.736
REMARK  3 active torsions:
REMARK  status: ('A' for Active; 'I' for Inactive)
REMARK    1  A    between atoms: C5_5  and  C6_6 
REMARK    2  A    between atoms: C6_6  and  C7_7 
REMARK    3  A    between atoms: C7_7  and  N9_9 
ROOT
HETATM    1  C1  UNL     1     -40.488  13.946   7.878  1.00 20.00     0.095 C 
HETATM    2  C7  UNL     1     -40.661  13.877   6.417  1.00 20.00     0.327 C 
HETATM    3  N8  UNL     1     -40.347  14.002   9.028  1.00 20.00    -0.195 NA
ENDROOT
BRANCH   2   4
HETATM    4  C6  UNL     1     -40.504  12.436   5.897  1.00 20.00     0.050 C 
BRANCH   4   5
HETATM    5  C5  UNL     1     -39.073  12.043   5.505  1.00 20.00    -0.001 C 
HETATM    6  C2  UNL     1     -38.985  11.683   4.029  1.00 20.00     0.005 C 
ENDBRANCH   4   5
ENDBRANCH   2   4
BRANCH   2   7
HETATM    7  N9  UNL     1     -41.952  14.444   6.030  1.00 20.00     0.098 N 
HETATM    8  C3  UNL     1     -42.161  14.300   4.590  1.00 20.00     0.311 C 
HETATM    9  C4  UNL     1     -42.031  15.851   6.421  1.00 20.00     0.311 C 
ENDBRANCH   2   7
TORSDOF 3
ENDMDL
MODEL 4
REMARK VINA RESULT:      -3.4     11.920     12.860
REMARK  3 active torsions:
REMARK  status: ('A' for Active; 'I' for Inactive)
REMARK    1  A    between atoms: C5_5  and  C6_6 
REMARK    2  A    between atoms: C6_6  and  C7_7 
REMARK    3  A    between atoms: C7_7  and  N9_9 
ROOT
HETATM    1  C1  UNL     1     -32.593   8.249   4.739  1.00 20.00     0.095 C 
HETATM    2  C7  UNL     1     -32.995   6.887   4.347  1.00 20.00     0.327 C 
HETATM    3  N8  UNL     1     -32.275   9.319   5.052  1.00 20.00    -0.195 NA
ENDROOT
BRANCH   2   4
HETATM    4  C6  UNL     1     -34.526   6.758   4.244  1.00 20.00     0.050 C 
BRANCH   4   5
HETATM    5  C5  UNL     1     -35.140   5.642   5.101  1.00 20.00    -0.001 C 
HETATM    6  C2  UNL     1     -34.426   5.520   6.440  1.00 20.00     0.005 C 
ENDBRANCH   4   5
ENDBRANCH   2   4
BRANCH   2   7
HETATM    7  N9  UNL     1     -32.345   6.505   3.094  1.00 20.00     0.098 N 
HETATM    8  C3  UNL     1     -32.437   7.591   2.119  1.00 20.00     0.311 C 
HETATM    9  C4  UNL     1     -32.944   5.284   2.558  1.00 20.00     0.311 C 
ENDBRANCH   2   7
TORSDOF 3
ENDMDL
MODEL 5
REMARK VINA RESULT:      -3.4     10.619     11.844
REMARK  3 active torsions:
REMARK  status: ('A' for Active; 'I' for Inactive)
REMARK    1  A    between atoms: C5_5  and  C6_6 
REMARK    2  A    between atoms: C6_6  and  C7_7 
REMARK    3  A    between atoms: C7_7  and  N9_9 
ROOT
HETATM    1  C1  UNL     1     -41.790  13.989   4.685  1.00 20.00     0.095 C 
HETATM    2  C7  UNL     1     -41.434  13.446   6.007  1.00 20.00     0.327 C 
HETATM    3  N8  UNL     1     -42.073  14.411   3.643  1.00 20.00    -0.195 NA
ENDROOT
BRANCH   2   4
HETATM    4  C6  UNL     1     -39.958  13.011   6.060  1.00 20.00     0.050 C 
BRANCH   4   5
HETATM    5  C5  UNL     1     -39.680  11.602   5.516  1.00 20.00    -0.001 C 
HETATM    6  C2  UNL     1     -39.005  11.662   4.153  1.00 20.00     0.005 C 
ENDBRANCH   4   5
ENDBRANCH   2   4
BRANCH   2   7
HETATM    7  N9  UNL     1     -41.739  14.419   7.055  1.00 20.00     0.098 N 
HETATM    8  C3  UNL     1     -40.525  15.125   7.465  1.00 20.00     0.311 C 
HETATM    9  C4  UNL     1     -42.358  13.758   8.203  1.00 20.00     0.311 C 
ENDBRANCH   2   7
TORSDOF 3
ENDMDL
MODEL 6
REMARK VINA RESULT:      -3.4     12.034     12.800
REMARK  3 active torsions:
REMARK  status: ('A' for Active; 'I' for Inactive)
REMARK    1  A    between atoms: C5_5  and  C6_6 
REMARK    2  A    between atoms: C6_6  and  C7_7 
REMARK    3  A    between atoms: C7_7  and  N9_9 
ROOT
HETATM    1  C1  UNL     1     -33.085   5.960   3.166  1.00 20.00     0.095 C 
HETATM    2  C7  UNL     1     -33.431   7.246   3.793  1.00 20.00     0.327 C 
HETATM    3  N8  UNL     1     -32.816   4.947   2.669  1.00 20.00    -0.195 NA
ENDROOT
BRANCH   2   4
HETATM    4  C6  UNL     1     -33.806   7.069   5.276  1.00 20.00     0.050 C 
BRANCH   4   5
HETATM    5  C5  UNL     1     -34.918   6.044   5.543  1.00 20.00    -0.001 C 
HETATM    6  C2  UNL     1     -34.438   4.940   6.475  1.00 20.00     0.005 C 
ENDBRANCH   4   5
ENDBRANCH   2   4
BRANCH   2   7
HETATM    7  N9  UNL     1     -32.336   8.202   3.633  1.00 20.00     0.098 N 
HETATM    8  C3  UNL     1     -32.210   9.038   4.827  1.00 20.00     0.311 C 
HETATM    9  C4  UNL     1     -32.550   9.032   2.448  1.00 20.00     0.311 C 
ENDBRANCH   2   7
TORSDOF 3
ENDMDL
MODEL 7
REMARK VINA RESULT:      -3.3      3.489      5.035
REMARK  3 active torsions:
REMARK  status: ('A' for Active; 'I' for Inactive)
REMARK    1  A    between atoms: C5_5  and  C6_6 
REMARK    2  A    between atoms: C6_6  and  C7_7 
REMARK    3  A    between atoms: C7_7  and  N9_9 
ROOT
HETATM    1  C1  UNL     1     -34.085  15.376  -6.034  1.00 20.00     0.095 C 
HETATM    2  C7  UNL     1     -34.450  15.842  -4.685  1.00 20.00     0.327 C 
HETATM    3  N8  UNL     1     -33.799  15.005  -7.095  1.00 20.00    -0.195 NA
ENDROOT
BRANCH   2   4
HETATM    4  C6  UNL     1     -33.205  16.043  -3.801  1.00 20.00     0.050 C 
BRANCH   4   5
HETATM    5  C5  UNL     1     -33.500  16.488  -2.362  1.00 20.00    -0.001 C 
HETATM    6  C2  UNL     1     -32.893  17.853  -2.071  1.00 20.00     0.005 C 
ENDBRANCH   4   5
ENDBRANCH   2   4
BRANCH   2   7
HETATM    7  N9  UNL     1     -35.247  17.065  -4.768  1.00 20.00     0.098 N 
HETATM    8  C3  UNL     1     -36.539  16.791  -5.396  1.00 20.00     0.311 C 
HETATM    9  C4  UNL     1     -34.525  18.097  -5.511  1.00 20.00     0.311 C 
ENDBRANCH   2   7
TORSDOF 3
ENDMDL
MODEL 8
REMARK VINA RESULT:      -3.3     15.257     16.043
REMARK  3 active torsions:
REMARK  status: ('A' for Active; 'I' for Inactive)
REMARK    1  A    between atoms: C5_5  and  C6_6 
REMARK    2  A    between atoms: C6_6  and  C7_7 
REMARK    3  A    between atoms: C7_7  and  N9_9 
ROOT
HETATM    1  C1  UNL     1     -22.606  18.513  12.086  1.00 20.00     0.095 C 
HETATM    2  C7  UNL     1     -24.046  18.521  11.775  1.00 20.00     0.327 C 
HETATM    3  N8  UNL     1     -21.473  18.512  12.332  1.00 20.00    -0.195 NA
ENDROOT
BRANCH   2   4
HETATM    4  C6  UNL     1     -24.296  18.636  10.261  1.00 20.00     0.050 C 
BRANCH   4   5
HETATM    5  C5  UNL     1     -23.063  19.014   9.429  1.00 20.00    -0.001 C 
HETATM    6  C2  UNL     1     -22.459  17.792   8.751  1.00 20.00     0.005 C 
ENDBRANCH   4   5
ENDBRANCH   2   4
BRANCH   2   7
HETATM    7  N9  UNL     1     -24.693  17.334  12.332  1.00 20.00     0.098 N 
HETATM    8  C3  UNL     1     -24.301  16.140  11.583  1.00 20.00     0.311 C 
HETATM    9  C4  UNL     1     -26.147  17.491  12.320  1.00 20.00     0.311 C 
ENDBRANCH   2   7
TORSDOF 3
ENDMDL
MODEL 9
REMARK VINA RESULT:      -3.3      4.318      6.158
REMARK  3 active torsions:
REMARK  status: ('A' for Active; 'I' for Inactive)
REMARK    1  A    between atoms: C5_5  and  C6_6 
REMARK    2  A    between atoms: C6_6  and  C7_7 
REMARK    3  A    between atoms: C7_7  and  N9_9 
ROOT
HETATM    1  C1  UNL     1     -35.630  14.097  -4.868  1.00 20.00     0.095 C 
HETATM    2  C7  UNL     1     -35.536  15.438  -5.468  1.00 20.00     0.327 C 
HETATM    3  N8  UNL     1     -35.708  13.042  -4.392  1.00 20.00    -0.195 NA
ENDROOT
BRANCH   2   4
HETATM    4  C6  UNL     1     -34.330  16.221  -4.915  1.00 20.00     0.050 C 
BRANCH   4   5
HETATM    5  C5  UNL     1     -33.642  15.576  -3.704  1.00 20.00    -0.001 C 
HETATM    6  C2  UNL     1     -33.297  16.616  -2.648  1.00 20.00     0.005 C 
ENDBRANCH   4   5
ENDBRANCH   2   4
BRANCH   2   7
HETATM    7  N9  UNL     1     -35.483  15.341  -6.926  1.00 20.00     0.098 N 
HETATM    8  C3  UNL     1     -34.122  15.582  -7.404  1.00 20.00     0.311 C 
HETATM    9  C4  UNL     1     -36.415  16.289  -7.536  1.00 20.00     0.311 C 
ENDBRANCH   2   7
TORSDOF 3
ENDMDL
