MODEL 1
REMARK VINA RESULT:      -3.5      0.000      0.000
REMARK  3 active torsions:
REMARK  status: ('A' for Active; 'I' for Inactive)
REMARK    1  A    between atoms: C5_5  and  C6_6 
REMARK    2  A    between atoms: C6_6  and  C7_7 
REMARK    3  A    between atoms: C7_7  and  N9_9 
ROOT
HETATM    1  C1  UNL     1     -41.663  13.988   4.698  1.00 20.00     0.095 C 
HETATM    2  C7  UNL     1     -41.194  13.549   6.023  1.00 20.00     0.327 C 
HETATM    3  N8  UNL     1     -42.032  14.338   3.655  1.00 20.00    -0.195 NA
ENDROOT
BRANCH   2   4
HETATM    4  C6  UNL     1     -40.537  12.158   5.958  1.00 20.00     0.050 C 
BRANCH   4   5
HETATM    5  C5  UNL     1     -39.075  12.153   5.493  1.00 20.00    -0.001 C 
HETATM    6  C2  UNL     1     -38.952  11.636   4.066  1.00 20.00     0.005 C 
ENDBRANCH   4   5
ENDBRANCH   2   4
BRANCH   2   7
HETATM    7  N9  UNL     1     -42.293  13.568   6.986  1.00 20.00     0.098 N 
HETATM    8  C3  UNL     1     -41.821  14.024   8.292  1.00 20.00     0.311 C 
HETATM    9  C4  UNL     1     -42.899  12.241   7.097  1.00 20.00     0.311 C 
ENDBRANCH   2   7
TORSDOF 3
ENDMDL
MODEL 2
REMARK VINA RESULT:      -3.4      9.751     10.732
REMARK  3 active torsions:
REMARK  status: ('A' for Active; 'I' for Inactive)
REMARK    1  A    between atoms: C5_5  and  C6_6 
REMARK    2  A    between atoms: C6_6  and  C7_7 
REMARK    3  A    between atoms: C7_7  and  N9_9 
ROOT
HETATM    1  C1  UNL     1     -32.873   5.800   3.072  1.00 20.00     0.095 C 
HETATM    2  C7  UNL     1     -32.873   6.764   4.184  1.00 20.00     0.327 C 
HETATM    3  N8  UNL     1     -32.867   5.038   2.197  1.00 20.00    -0.195 NA
ENDROOT
BRANCH   2   4
HETATM    4  C6  UNL     1     -34.304   7.087   4.652  1.00 20.00     0.050 C 
BRANCH   4   5
HETATM    5  C5  UNL     1     -35.122   5.874   5.117  1.00 20.00    -0.001 C 
HETATM    6  C2  UNL     1     -34.555   5.287   6.401  1.00 20.00     0.005 C 
ENDBRANCH   4   5
ENDBRANCH   2   4
BRANCH   2   7
HETATM    7  N9  UNL     1     -32.157   7.980   3.806  1.00 20.00     0.098 N 
HETATM    8  C3  UNL     1     -32.274   8.991   4.855  1.00 20.00     0.311 C 
HETATM    9  C4  UNL     1     -32.667   8.501   2.537  1.00 20.00     0.311 C 
ENDBRANCH   2   7
TORSDOF 3
ENDMDL
MODEL 3
REMARK VINA RESULT:      -3.4      1.674      2.261
REMARK  3 active torsions:
REMARK  status: ('A' for Active; 'I' for Inactive)
REMARK    1  A    between atoms: C5_5  and  C6_6 
REMARK    2  A    between atoms: C6_6  and  C7_7 
REMARK    3  A    between atoms: C7_7  and  N9_9 
ROOT
HETATM    1  C1  UNL     1     -41.989  12.675   6.861  1.00 20.00     0.095 C 
HETATM    2  C7  UNL     1     -40.886  13.468   6.294  1.00 20.00     0.327 C 
HETATM    3  N8  UNL     1     -42.862  12.053   7.305  1.00 20.00    -0.195 NA
ENDROOT
BRANCH   2   4
HETATM    4  C6  UNL     1     -39.581  12.653   6.224  1.00 20.00     0.050 C 
BRANCH   4   5
HETATM    5  C5  UNL     1     -39.635  11.423   5.308  1.00 20.00    -0.001 C 
HETATM    6  C2  UNL     1     -38.974  11.704   3.967  1.00 20.00     0.005 C 
ENDBRANCH   4   5
ENDBRANCH   2   4
BRANCH   2   7
HETATM    7  N9  UNL     1     -40.697  14.699   7.058  1.00 20.00     0.098 N 
HETATM    8  C3  UNL     1     -40.391  14.393   8.455  1.00 20.00     0.311 C 
HETATM    9  C4  UNL     1     -41.888  15.544   6.971  1.00 20.00     0.311 C 
ENDBRANCH   2   7
TORSDOF 3
ENDMDL
MODEL 4
REMARK VINA RESULT:      -3.4     10.773     12.088
REMARK  3 active torsions:
REMARK  status: ('A' for Active; 'I' for Inactive)
REMARK    1  A    between atoms: C5_5  and  C6_6 
REMARK    2  A    between atoms: C6_6  and  C7_7 
REMARK    3  A    between atoms: C7_7  and  N9_9 
ROOT
HETATM    1  C1  UNL     1     -31.766  18.401  -0.674  1.00 20.00     0.095 C 
HETATM    2  C7  UNL     1     -33.139  18.060  -1.078  1.00 20.00     0.327 C 
HETATM    3  N8  UNL     1     -30.684  18.668  -0.350  1.00 20.00    -0.195 NA
ENDROOT
BRANCH   2   4
HETATM    4  C6  UNL     1     -33.222  17.738  -2.582  1.00 20.00     0.050 C 
BRANCH   4   5
HETATM    5  C5  UNL     1     -33.307  16.243  -2.920  1.00 20.00    -0.001 C 
HETATM    6  C2  UNL     1     -33.928  16.023  -4.292  1.00 20.00     0.005 C 
ENDBRANCH   4   5
ENDBRANCH   2   4
BRANCH   2   7
HETATM    7  N9  UNL     1     -34.059  19.137  -0.719  1.00 20.00     0.098 N 
HETATM    8  C3  UNL     1     -34.474  19.012   0.677  1.00 20.00     0.311 C 
HETATM    9  C4  UNL     1     -35.227  19.127  -1.600  1.00 20.00     0.311 C 
ENDBRANCH   2   7
TORSDOF 3
ENDMDL
MODEL 5
REMARK VINA RESULT:      -3.4     11.833     13.472
REMARK  3 active torsions:
REMARK  status: ('A' for Active; 'I' for Inactive)
REMARK    1  A    between atoms: C5_5  and  C6_6 
REMARK    2  A    between atoms: C6_6  and  C7_7 
REMARK    3  A    between atoms: C7_7  and  N9_9 
ROOT
HETATM    1  C1  UNL     1     -35.222  14.026  -4.866  1.00 20.00     0.095 C 
HETATM    2  C7  UNL     1     -34.410  15.089  -5.481  1.00 20.00     0.327 C 
HETATM    3  N8  UNL     1     -35.859  13.185  -4.384  1.00 20.00    -0.195 NA
ENDROOT
BRANCH   2   4
HETATM    4  C6  UNL     1     -34.202  16.271  -4.517  1.00 20.00     0.050 C 
BRANCH   4   5
HETATM    5  C5  UNL     1     -33.208  16.011  -3.378  1.00 20.00    -0.001 C 
HETATM    6  C2  UNL     1     -33.520  16.875  -2.165  1.00 20.00     0.005 C 
ENDBRANCH   4   5
ENDBRANCH   2   4
BRANCH   2   7
HETATM    7  N9  UNL     1     -35.015  15.532  -6.735  1.00 20.00     0.098 N 
HETATM    8  C3  UNL     1     -33.996  15.676  -7.773  1.00 20.00     0.311 C 
HETATM    9  C4  UNL     1     -35.728  16.795  -6.541  1.00 20.00     0.311 C 
ENDBRANCH   2   7
TORSDOF 3
ENDMDL
MODEL 6
REMARK VINA RESULT:      -3.3     12.294     13.472
REMARK  3 active torsions:
REMARK  status: ('A' for Active; 'I' for Inactive)
REMARK    1  A    between atoms: C5_5  and  C6_6 
REMARK    2  A    between atoms: C6_6  and  C7_7 
REMARK    3  A    between atoms: C7_7  and  N9_9 
ROOT
HETATM    1  C1  UNL     1     -35.281  14.995  -6.393  1.00 20.00     0.095 C 
HETATM    2  C7  UNL     1     -34.319  15.836  -5.663  1.00 20.00     0.327 C 
HETATM    3  N8  UNL     1     -36.037  14.332  -6.974  1.00 20.00    -0.195 NA
ENDROOT
BRANCH   2   4
HETATM    4  C6  UNL     1     -34.090  15.320  -4.231  1.00 20.00     0.050 C 
BRANCH   4   5
HETATM    5  C5  UNL     1     -32.980  16.040  -3.454  1.00 20.00    -0.001 C 
HETATM    6  C2  UNL     1     -33.534  16.737  -2.219  1.00 20.00     0.005 C 
ENDBRANCH   4   5
ENDBRANCH   2   4
BRANCH   2   7
HETATM    7  N9  UNL     1     -34.762  17.229  -5.657  1.00 20.00     0.098 N 
HETATM    8  C3  UNL     1     -36.096  17.339  -5.067  1.00 20.00     0.311 C 
HETATM    9  C4  UNL     1     -34.758  17.774  -7.014  1.00 20.00     0.311 C 
ENDBRANCH   2   7
TORSDOF 3
ENDMDL
MODEL 7
REMARK VINA RESULT:      -3.3      9.708     10.683
REMARK  3 active torsions:
REMARK  status: ('A' for Active; 'I' for Inactive)
REMARK    1  A    between atoms: C5_5  and  C6_6 
REMARK    2  A    between atoms: C6_6  and  C7_7 
REMARK    3  A    between atoms: C7_7  and  N9_9 
ROOT
HETATM    1  C1  UNL     1     -32.542   8.667   4.816  1.00 20.00     0.095 C 
HETATM    2  C7  UNL     1     -33.278   7.815   3.868  1.00 20.00     0.327 C 
HETATM    3  N8  UNL     1     -31.961   9.343   5.559  1.00 20.00    -0.195 NA
ENDROOT
BRANCH   2   4
HETATM    4  C6  UNL     1     -34.277   6.895   4.593  1.00 20.00     0.050 C 
BRANCH   4   5
HETATM    5  C5  UNL     1     -34.037   6.740   6.101  1.00 20.00    -0.001 C 
HETATM    6  C2  UNL     1     -34.438   5.353   6.583  1.00 20.00     0.005 C 
ENDBRANCH   4   5
ENDBRANCH   2   4
BRANCH   2   7
HETATM    7  N9  UNL     1     -32.348   7.041   3.049  1.00 20.00     0.098 N 
HETATM    8  C3  UNL     1     -32.079   7.731   1.788  1.00 20.00     0.311 C 
HETATM    9  C4  UNL     1     -32.881   5.703   2.794  1.00 20.00     0.311 C 
ENDBRANCH   2   7
TORSDOF 3
ENDMDL
MODEL 8
REMARK VINA RESULT:      -3.3     17.993     19.110
REMARK  3 active torsions:
REMARK  status: ('A' for Active; 'I' for Inactive)
REMARK    1  A    between atoms: C5_5  and  C6_6 
REMARK    2  A    between atoms: C6_6  and  C7_7 
REMARK    3  A    between atoms: C7_7  and  N9_9 
ROOT
HETATM    1  C1  UNL     1     -24.210  18.849   9.185  1.00 20.00     0.095 C 
HETATM    2  C7  UNL     1     -23.726  18.320  10.470  1.00 20.00     0.327 C 
HETATM    3  N8  UNL     1     -24.589  19.263   8.169  1.00 20.00    -0.195 NA
ENDROOT
BRANCH   2   4
HETATM    4  C6  UNL     1     -24.725  18.599  11.608  1.00 20.00     0.050 C 
BRANCH   4   5
HETATM    5  C5  UNL     1     -25.483  17.367  12.121  1.00 20.00    -0.001 C 
HETATM    6  C2  UNL     1     -24.663  16.098  11.933  1.00 20.00     0.005 C 
ENDBRANCH   4   5
ENDBRANCH   2   4
BRANCH   2   7
HETATM    7  N9  UNL     1     -22.407  18.864  10.782  1.00 20.00     0.098 N 
HETATM    8  C3  UNL     1     -21.413  18.379   9.825  1.00 20.00     0.311 C 
HETATM    9  C4  UNL     1     -22.016  18.509  12.147  1.00 20.00     0.311 C 
ENDBRANCH   2   7
TORSDOF 3
ENDMDL
MODEL 9
REMARK VINA RESULT:      -3.2      1.575      2.545
REMARK  3 active torsions:
REMARK  status: ('A' for Active; 'I' for Inactive)
REMARK    1  A    between atoms: C5_5  and  C6_6 
REMARK    2  A    between atoms: C6_6  and  C7_7 
REMARK    3  A    between atoms: C7_7  and  N9_9 
ROOT
HETATM    1  C1  UNL     1     -42.409  12.565   6.914  1.00 20.00     0.095 C 
HETATM    2  C7  UNL     1     -41.568  13.588   6.272  1.00 20.00     0.327 C 
HETATM    3  N8  UNL     1     -43.076  11.759   7.417  1.00 20.00    -0.195 NA
ENDROOT
BRANCH   2   4
HETATM    4  C6  UNL     1     -40.089  13.163   6.234  1.00 20.00     0.050 C 
BRANCH   4   5
HETATM    5  C5  UNL     1     -39.841  11.729   5.746  1.00 20.00    -0.001 C 
HETATM    6  C2  UNL     1     -39.154  11.720   4.388  1.00 20.00     0.005 C 
ENDBRANCH   4   5
ENDBRANCH   2   4
BRANCH   2   7
HETATM    7  N9  UNL     1     -41.728  14.876   6.945  1.00 20.00     0.098 N 
HETATM    8  C3  UNL     1     -42.250  15.877   6.017  1.00 20.00     0.311 C 
HETATM    9  C4  UNL     1     -40.454  15.319   7.511  1.00 20.00     0.311 C 
ENDBRANCH   2   7
TORSDOF 3
ENDMDL
