MODEL 1
REMARK VINA RESULT:      -3.9      0.000      0.000
REMARK  3 active torsions:
REMARK  status: ('A' for Active; 'I' for Inactive)
REMARK    1  A    between atoms: C6_6  and  C8_8 
REMARK    2  A    between atoms: C7_7  and  C8_8 
REMARK    3  A    between atoms: C8_8  and  N10_10 
ROOT
HETATM    1  C1  UNL     1     -24.673  18.834   9.755  1.00 20.00     0.102 C 
HETATM    2  C8  UNL     1     -24.014  18.287  10.961  1.00 20.00     0.244 C 
HETATM    3  N9  UNL     1     -25.192  19.263   8.808  1.00 20.00    -0.194 NA
ENDROOT
BRANCH   2   4
HETATM    4  C6  UNL     1     -24.004  16.738  10.897  1.00 20.00     0.053 C 
HETATM    5  C2  UNL     1     -24.692  16.040  12.068  1.00 20.00     0.009 C 
ENDBRANCH   2   4
BRANCH   2   6
HETATM    6  C7  UNL     1     -24.793  18.716  12.231  1.00 20.00     0.053 C 
HETATM    7  C3  UNL     1     -26.196  19.263  11.976  1.00 20.00     0.009 C 
ENDBRANCH   2   6
BRANCH   2   8
HETATM    8  N10 UNL     1     -22.653  18.783  11.032  1.00 20.00     0.103 N 
HETATM    9  C4  UNL     1     -21.834  18.220   9.952  1.00 20.00     0.311 C 
HETATM   10  C5  UNL     1     -22.050  18.473  12.332  1.00 20.00     0.311 C 
ENDBRANCH   2   8
TORSDOF 3
ENDMDL
MODEL 2
REMARK VINA RESULT:      -3.5     17.409     18.827
REMARK  3 active torsions:
REMARK  status: ('A' for Active; 'I' for Inactive)
REMARK    1  A    between atoms: C6_6  and  C8_8 
REMARK    2  A    between atoms: C7_7  and  C8_8 
REMARK    3  A    between atoms: C8_8  and  N10_10 
ROOT
HETATM    1  C1  UNL     1     -41.781  14.018   4.686  1.00 20.00     0.102 C 
HETATM    2  C8  UNL     1     -41.580  13.611   6.094  1.00 20.00     0.244 C 
HETATM    3  N9  UNL     1     -41.939  14.336   3.581  1.00 20.00    -0.194 NA
ENDROOT
BRANCH   2   4
HETATM    4  C6  UNL     1     -40.793  12.276   6.148  1.00 20.00     0.053 C 
HETATM    5  C2  UNL     1     -39.637  12.168   5.155  1.00 20.00     0.009 C 
ENDBRANCH   2   4
BRANCH   2   6
HETATM    6  C7  UNL     1     -42.951  13.396   6.785  1.00 20.00     0.053 C 
HETATM    7  C3  UNL     1     -43.249  11.956   7.197  1.00 20.00     0.009 C 
ENDBRANCH   2   6
BRANCH   2   8
HETATM    8  N10 UNL     1     -40.838  14.644   6.793  1.00 20.00     0.103 N 
HETATM    9  C4  UNL     1     -40.463  14.199   8.139  1.00 20.00     0.311 C 
HETATM   10  C5  UNL     1     -41.617  15.884   6.873  1.00 20.00     0.311 C 
ENDBRANCH   2   8
TORSDOF 3
ENDMDL
MODEL 3
REMARK VINA RESULT:      -3.3     18.583     20.247
REMARK  3 active torsions:
REMARK  status: ('A' for Active; 'I' for Inactive)
REMARK    1  A    between atoms: C6_6  and  C8_8 
REMARK    2  A    between atoms: C7_7  and  C8_8 
REMARK    3  A    between atoms: C8_8  and  N10_10 
ROOT
HETATM    1  C1  UNL     1     -34.056  15.292  -6.905  1.00 20.00     0.102 C 
HETATM    2  C8  UNL     1     -34.748  15.497  -5.613  1.00 20.00     0.244 C 
HETATM    3  N9  UNL     1     -33.512  15.133  -7.918  1.00 20.00    -0.194 NA
ENDROOT
BRANCH   2   4
HETATM    4  C6  UNL     1     -34.977  17.012  -5.374  1.00 20.00     0.053 C 
HETATM    5  C2  UNL     1     -34.425  17.927  -6.464  1.00 20.00     0.009 C 
ENDBRANCH   2   4
BRANCH   2   6
HETATM    6  C7  UNL     1     -33.879  14.947  -4.453  1.00 20.00     0.053 C 
HETATM    7  C3  UNL     1     -33.410  15.993  -3.444  1.00 20.00     0.009 C 
ENDBRANCH   2   6
BRANCH   2   8
HETATM    8  N10 UNL     1     -36.024  14.807  -5.636  1.00 20.00     0.103 N 
HETATM    9  C4  UNL     1     -37.128  15.740  -5.386  1.00 20.00     0.311 C 
HETATM   10  C5  UNL     1     -36.051  13.722  -4.650  1.00 20.00     0.311 C 
ENDBRANCH   2   8
TORSDOF 3
ENDMDL
MODEL 4
REMARK VINA RESULT:      -3.2     18.436     20.020
REMARK  3 active torsions:
REMARK  status: ('A' for Active; 'I' for Inactive)
REMARK    1  A    between atoms: C6_6  and  C8_8 
REMARK    2  A    between atoms: C7_7  and  C8_8 
REMARK    3  A    between atoms: C8_8  and  N10_10 
ROOT
HETATM    1  C1  UNL     1     -34.058  15.308  -6.874  1.00 20.00     0.102 C 
HETATM    2  C8  UNL     1     -34.659  15.545  -5.543  1.00 20.00     0.244 C 
HETATM    3  N9  UNL     1     -33.586  15.121  -7.918  1.00 20.00    -0.194 NA
ENDROOT
BRANCH   2   4
HETATM    4  C6  UNL     1     -33.691  15.055  -4.434  1.00 20.00     0.053 C 
HETATM    5  C2  UNL     1     -33.388  16.080  -3.343  1.00 20.00     0.009 C 
ENDBRANCH   2   4
BRANCH   2   6
HETATM    6  C7  UNL     1     -35.987  14.757  -5.413  1.00 20.00     0.053 C 
HETATM    7  C3  UNL     1     -35.915  13.509  -4.535  1.00 20.00     0.009 C 
ENDBRANCH   2   6
BRANCH   2   8
HETATM    8  N10 UNL     1     -34.915  16.964  -5.375  1.00 20.00     0.103 N 
HETATM    9  C4  UNL     1     -36.340  17.213  -5.133  1.00 20.00     0.311 C 
HETATM   10  C5  UNL     1     -34.466  17.719  -6.550  1.00 20.00     0.311 C 
ENDBRANCH   2   8
TORSDOF 3
ENDMDL
MODEL 5
REMARK VINA RESULT:      -3.2     18.593     20.185
REMARK  3 active torsions:
REMARK  status: ('A' for Active; 'I' for Inactive)
REMARK    1  A    between atoms: C6_6  and  C8_8 
REMARK    2  A    between atoms: C7_7  and  C8_8 
REMARK    3  A    between atoms: C8_8  and  N10_10 
ROOT
HETATM    1  C1  UNL     1     -35.620  14.250  -4.944  1.00 20.00     0.102 C 
HETATM    2  C8  UNL     1     -35.052  15.507  -5.477  1.00 20.00     0.244 C 
HETATM    3  N9  UNL     1     -36.067  13.263  -4.527  1.00 20.00    -0.194 NA
ENDROOT
BRANCH   2   4
HETATM    4  C6  UNL     1     -36.160  16.322  -6.195  1.00 20.00     0.053 C 
HETATM    5  C2  UNL     1     -37.527  16.291  -5.513  1.00 20.00     0.009 C 
ENDBRANCH   2   4
BRANCH   2   6
HETATM    6  C7  UNL     1     -33.937  15.191  -6.507  1.00 20.00     0.053 C 
HETATM    7  C3  UNL     1     -34.191  15.717  -7.918  1.00 20.00     0.009 C 
ENDBRANCH   2   6
BRANCH   2   8
HETATM    8  N10 UNL     1     -34.501  16.288  -4.385  1.00 20.00     0.103 N 
HETATM    9  C4  UNL     1     -34.210  17.659  -4.818  1.00 20.00     0.311 C 
HETATM   10  C5  UNL     1     -33.287  15.661  -3.854  1.00 20.00     0.311 C 
ENDBRANCH   2   8
TORSDOF 3
ENDMDL
MODEL 6
REMARK VINA RESULT:      -3.2     17.716     18.888
REMARK  3 active torsions:
REMARK  status: ('A' for Active; 'I' for Inactive)
REMARK    1  A    between atoms: C6_6  and  C8_8 
REMARK    2  A    between atoms: C7_7  and  C8_8 
REMARK    3  A    between atoms: C8_8  and  N10_10 
ROOT
HETATM    1  C1  UNL     1     -42.284  12.875   7.131  1.00 20.00     0.102 C 
HETATM    2  C8  UNL     1     -41.527  13.786   6.244  1.00 20.00     0.244 C 
HETATM    3  N9  UNL     1     -42.877  12.160   7.826  1.00 20.00    -0.194 NA
ENDROOT
BRANCH   2   4
HETATM    4  C6  UNL     1     -40.677  12.960   5.244  1.00 20.00     0.053 C 
HETATM    5  C2  UNL     1     -39.775  11.905   5.882  1.00 20.00     0.009 C 
ENDBRANCH   2   4
BRANCH   2   6
HETATM    6  C7  UNL     1     -40.568  14.668   7.084  1.00 20.00     0.053 C 
HETATM    7  C3  UNL     1     -40.484  14.303   8.565  1.00 20.00     0.009 C 
ENDBRANCH   2   6
BRANCH   2   8
HETATM    8  N10 UNL     1     -42.455  14.631   5.516  1.00 20.00     0.103 N 
HETATM    9  C4  UNL     1     -42.227  14.534   4.070  1.00 20.00     0.311 C 
HETATM   10  C5  UNL     1     -42.341  16.028   5.948  1.00 20.00     0.311 C 
ENDBRANCH   2   8
TORSDOF 3
ENDMDL
MODEL 7
REMARK VINA RESULT:      -3.1     18.746     20.404
REMARK  3 active torsions:
REMARK  status: ('A' for Active; 'I' for Inactive)
REMARK    1  A    between atoms: C6_6  and  C8_8 
REMARK    2  A    between atoms: C7_7  and  C8_8 
REMARK    3  A    between atoms: C8_8  and  N10_10 
ROOT
HETATM    1  C1  UNL     1     -35.615  14.180  -4.914  1.00 20.00     0.102 C 
HETATM    2  C8  UNL     1     -35.245  15.482  -5.512  1.00 20.00     0.244 C 
HETATM    3  N9  UNL     1     -35.904  13.158  -4.445  1.00 20.00    -0.194 NA
ENDROOT
BRANCH   2   4
HETATM    4  C6  UNL     1     -35.270  15.375  -7.059  1.00 20.00     0.053 C 
HETATM    5  C2  UNL     1     -33.911  15.540  -7.738  1.00 20.00     0.009 C 
ENDBRANCH   2   4
BRANCH   2   6
HETATM    6  C7  UNL     1     -33.812  15.879  -5.074  1.00 20.00     0.053 C 
HETATM    7  C3  UNL     1     -33.516  15.694  -3.588  1.00 20.00     0.009 C 
ENDBRANCH   2   6
BRANCH   2   8
HETATM    8  N10 UNL     1     -36.187  16.496  -5.078  1.00 20.00     0.103 N 
HETATM    9  C4  UNL     1     -37.541  16.192  -5.556  1.00 20.00     0.311 C 
HETATM   10  C5  UNL     1     -35.778  17.825  -5.542  1.00 20.00     0.311 C 
ENDBRANCH   2   8
TORSDOF 3
ENDMDL
MODEL 8
REMARK VINA RESULT:      -3.1      1.268      3.189
REMARK  3 active torsions:
REMARK  status: ('A' for Active; 'I' for Inactive)
REMARK    1  A    between atoms: C6_6  and  C8_8 
REMARK    2  A    between atoms: C7_7  and  C8_8 
REMARK    3  A    between atoms: C8_8  and  N10_10 
ROOT
HETATM    1  C1  UNL     1     -23.091  17.614  10.081  1.00 20.00     0.102 C 
HETATM    2  C8  UNL     1     -24.031  18.231  11.043  1.00 20.00     0.244 C 
HETATM    3  N9  UNL     1     -22.353  17.129   9.328  1.00 20.00    -0.194 NA
ENDROOT
BRANCH   2   4
HETATM    4  C6  UNL     1     -23.242  18.851  12.225  1.00 20.00     0.053 C 
HETATM    5  C2  UNL     1     -21.773  18.441  12.305  1.00 20.00     0.009 C 
ENDBRANCH   2   4
BRANCH   2   6
HETATM    6  C7  UNL     1     -24.991  17.154  11.611  1.00 20.00     0.053 C 
HETATM    7  C3  UNL     1     -24.327  15.833  11.996  1.00 20.00     0.009 C 
ENDBRANCH   2   6
BRANCH   2   8
HETATM    8  N10 UNL     1     -24.799  19.263  10.372  1.00 20.00     0.103 N 
HETATM    9  C4  UNL     1     -26.193  19.258  10.828  1.00 20.00     0.311 C 
HETATM   10  C5  UNL     1     -24.747  19.091   8.916  1.00 20.00     0.311 C 
ENDBRANCH   2   8
TORSDOF 3
ENDMDL
MODEL 9
REMARK VINA RESULT:      -3.1     17.514     19.058
REMARK  3 active torsions:
REMARK  status: ('A' for Active; 'I' for Inactive)
REMARK    1  A    between atoms: C6_6  and  C8_8 
REMARK    2  A    between atoms: C7_7  and  C8_8 
REMARK    3  A    between atoms: C8_8  and  N10_10 
ROOT
HETATM    1  C1  UNL     1     -42.561  12.416   7.020  1.00 20.00     0.102 C 
HETATM    2  C8  UNL     1     -41.699  13.533   6.577  1.00 20.00     0.244 C 
HETATM    3  N9  UNL     1     -43.238  11.539   7.367  1.00 20.00    -0.194 NA
ENDROOT
BRANCH   2   4
HETATM    4  C6  UNL     1     -42.567  14.639   5.922  1.00 20.00     0.053 C 
HETATM    5  C2  UNL     1     -42.589  14.622   4.395  1.00 20.00     0.009 C 
ENDBRANCH   2   4
BRANCH   2   6
HETATM    6  C7  UNL     1     -40.678  13.030   5.524  1.00 20.00     0.053 C 
HETATM    7  C3  UNL     1     -39.855  11.816   5.950  1.00 20.00     0.009 C 
ENDBRANCH   2   6
BRANCH   2   8
HETATM    8  N10 UNL     1     -40.991  14.079   7.720  1.00 20.00     0.103 N 
HETATM    9  C4  UNL     1     -41.894  14.240   8.865  1.00 20.00     0.311 C 
HETATM   10  C5  UNL     1     -40.370  15.365   7.387  1.00 20.00     0.311 C 
ENDBRANCH   2   8
TORSDOF 3
ENDMDL
