MODEL 1
REMARK VINA RESULT:      -4.5      0.000      0.000
REMARK  4 active torsions:
REMARK  status: ('A' for Active; 'I' for Inactive)
REMARK    1  A    between atoms: C3_3  and  C7_7 
REMARK    2  A    between atoms: C5_5  and  C6_6 
REMARK    3  A    between atoms: C6_6  and  C7_7 
REMARK    4  A    between atoms: C7_7  and  O8_8 
ROOT
HETATM    1  C7  UNL     1     -33.805   6.971   6.024  1.00 20.00     0.122 C 
ENDROOT
BRANCH   1   2
HETATM    2  C3  UNL     1     -34.675   5.759   5.717  1.00 20.00     0.014 A 
HETATM    3  C1  UNL     1     -35.491   5.711   4.456  1.00 20.00     0.007 A 
HETATM    4  C2  UNL     1     -34.294   4.814   4.612  1.00 20.00     0.007 A 
ENDBRANCH   1   2
BRANCH   1   5
HETATM    5  C6  UNL     1     -33.754   7.940   4.838  1.00 20.00     0.032 C 
BRANCH   5   6
HETATM    6  C5  UNL     1     -32.331   8.115   4.299  1.00 20.00    -0.002 C 
HETATM    7  C4  UNL     1     -32.150   7.398   2.970  1.00 20.00     0.005 C 
ENDBRANCH   5   6
ENDBRANCH   1   5
BRANCH   1   8
HETATM    8  O8  UNL     1     -34.328   7.630   7.173  1.00 20.00    -0.395 OA
HETATM    9  H22 UNL     1     -35.073   8.172   6.866  1.00 20.00     0.210 HD
ENDBRANCH   1   8
TORSDOF 4
ENDMDL
MODEL 2
REMARK VINA RESULT:      -4.4      1.502      3.313
REMARK  4 active torsions:
REMARK  status: ('A' for Active; 'I' for Inactive)
REMARK    1  A    between atoms: C3_3  and  C7_7 
REMARK    2  A    between atoms: C5_5  and  C6_6 
REMARK    3  A    between atoms: C6_6  and  C7_7 
REMARK    4  A    between atoms: C7_7  and  O8_8 
ROOT
HETATM    1  C7  UNL     1     -32.856   8.334   4.417  1.00 20.00     0.122 C 
ENDROOT
BRANCH   1   2
HETATM    2  C3  UNL     1     -32.028   7.501   3.447  1.00 20.00     0.014 A 
HETATM    3  C1  UNL     1     -32.647   6.330   2.736  1.00 20.00     0.007 A 
HETATM    4  C2  UNL     1     -32.293   7.575   1.970  1.00 20.00     0.007 A 
ENDBRANCH   1   2
BRANCH   1   5
HETATM    5  C6  UNL     1     -34.101   7.576   4.890  1.00 20.00     0.032 C 
BRANCH   5   6
HETATM    6  C5  UNL     1     -33.883   6.899   6.246  1.00 20.00    -0.002 C 
HETATM    7  C4  UNL     1     -34.543   5.529   6.294  1.00 20.00     0.005 C 
ENDBRANCH   5   6
ENDBRANCH   1   5
BRANCH   1   8
HETATM    8  O8  UNL     1     -32.041   8.681   5.533  1.00 20.00    -0.395 OA
HETATM    9  H22 UNL     1     -31.123   8.660   5.222  1.00 20.00     0.210 HD
ENDBRANCH   1   8
TORSDOF 4
ENDMDL
MODEL 3
REMARK VINA RESULT:      -4.3      0.903      3.285
REMARK  4 active torsions:
REMARK  status: ('A' for Active; 'I' for Inactive)
REMARK    1  A    between atoms: C3_3  and  C7_7 
REMARK    2  A    between atoms: C5_5  and  C6_6 
REMARK    3  A    between atoms: C6_6  and  C7_7 
REMARK    4  A    between atoms: C7_7  and  O8_8 
ROOT
HETATM    1  C7  UNL     1     -33.731   7.846   5.241  1.00 20.00     0.122 C 
ENDROOT
BRANCH   1   2
HETATM    2  C3  UNL     1     -32.456   8.013   4.426  1.00 20.00     0.014 A 
HETATM    3  C1  UNL     1     -32.265   7.240   3.150  1.00 20.00     0.007 A 
HETATM    4  C2  UNL     1     -32.490   8.726   3.104  1.00 20.00     0.007 A 
ENDBRANCH   1   2
BRANCH   1   5
HETATM    5  C6  UNL     1     -33.591   6.732   6.284  1.00 20.00     0.032 C 
BRANCH   5   6
HETATM    6  C5  UNL     1     -34.701   5.685   6.161  1.00 20.00    -0.002 C 
HETATM    7  C4  UNL     1     -34.630   4.955   4.828  1.00 20.00     0.005 C 
ENDBRANCH   5   6
ENDBRANCH   1   5
BRANCH   1   8
HETATM    8  O8  UNL     1     -34.029   9.083   5.882  1.00 20.00    -0.395 OA
HETATM    9  H22 UNL     1     -34.785   9.465   5.408  1.00 20.00     0.210 HD
ENDBRANCH   1   8
TORSDOF 4
ENDMDL
MODEL 4
REMARK VINA RESULT:      -4.1      1.489      2.103
REMARK  4 active torsions:
REMARK  status: ('A' for Active; 'I' for Inactive)
REMARK    1  A    between atoms: C3_3  and  C7_7 
REMARK    2  A    between atoms: C5_5  and  C6_6 
REMARK    3  A    between atoms: C6_6  and  C7_7 
REMARK    4  A    between atoms: C7_7  and  O8_8 
ROOT
HETATM    1  C7  UNL     1     -32.748   7.698   4.832  1.00 20.00     0.122 C 
ENDROOT
BRANCH   1   2
HETATM    2  C3  UNL     1     -34.100   7.436   5.483  1.00 20.00     0.014 A 
HETATM    3  C1  UNL     1     -34.854   6.170   5.184  1.00 20.00     0.007 A 
HETATM    4  C2  UNL     1     -34.238   6.377   6.540  1.00 20.00     0.007 A 
ENDBRANCH   1   2
BRANCH   1   5
HETATM    5  C6  UNL     1     -32.876   7.852   3.313  1.00 20.00     0.032 C 
BRANCH   5   6
HETATM    6  C5  UNL     1     -32.115   6.759   2.557  1.00 20.00    -0.002 C 
HETATM    7  C4  UNL     1     -32.861   5.434   2.596  1.00 20.00     0.005 C 
ENDBRANCH   5   6
ENDBRANCH   1   5
BRANCH   1   8
HETATM    8  O8  UNL     1     -32.188   8.879   5.398  1.00 20.00    -0.395 OA
HETATM    9  H22 UNL     1     -31.593   9.251   4.729  1.00 20.00     0.210 HD
ENDBRANCH   1   8
TORSDOF 4
ENDMDL
MODEL 5
REMARK VINA RESULT:      -4.1      1.396      2.890
REMARK  4 active torsions:
REMARK  status: ('A' for Active; 'I' for Inactive)
REMARK    1  A    between atoms: C3_3  and  C7_7 
REMARK    2  A    between atoms: C5_5  and  C6_6 
REMARK    3  A    between atoms: C6_6  and  C7_7 
REMARK    4  A    between atoms: C7_7  and  O8_8 
ROOT
HETATM    1  C7  UNL     1     -34.579   6.187   5.853  1.00 20.00     0.122 C 
ENDROOT
BRANCH   1   2
HETATM    2  C3  UNL     1     -33.509   7.261   6.001  1.00 20.00     0.014 A 
HETATM    3  C1  UNL     1     -32.909   7.906   4.783  1.00 20.00     0.007 A 
HETATM    4  C2  UNL     1     -33.826   8.694   5.678  1.00 20.00     0.007 A 
ENDBRANCH   1   2
BRANCH   1   5
HETATM    5  C6  UNL     1     -34.819   5.831   4.382  1.00 20.00     0.032 C 
BRANCH   5   6
HETATM    6  C5  UNL     1     -33.939   4.667   3.920  1.00 20.00    -0.002 C 
HETATM    7  C4  UNL     1     -33.062   5.067   2.743  1.00 20.00     0.005 C 
ENDBRANCH   5   6
ENDBRANCH   1   5
BRANCH   1   8
HETATM    8  O8  UNL     1     -34.169   5.030   6.576  1.00 20.00    -0.395 OA
HETATM    9  H22 UNL     1     -34.979   4.583   6.865  1.00 20.00     0.210 HD
ENDBRANCH   1   8
TORSDOF 4
ENDMDL
MODEL 6
REMARK VINA RESULT:      -4.1      2.143      3.854
REMARK  4 active torsions:
REMARK  status: ('A' for Active; 'I' for Inactive)
REMARK    1  A    between atoms: C3_3  and  C7_7 
REMARK    2  A    between atoms: C5_5  and  C6_6 
REMARK    3  A    between atoms: C6_6  and  C7_7 
REMARK    4  A    between atoms: C7_7  and  O8_8 
ROOT
HETATM    1  C7  UNL     1     -33.092   6.043   3.717  1.00 20.00     0.122 C 
ENDROOT
BRANCH   1   2
HETATM    2  C3  UNL     1     -32.827   7.531   3.531  1.00 20.00     0.014 A 
HETATM    3  C1  UNL     1     -33.551   8.541   4.377  1.00 20.00     0.007 A 
HETATM    4  C2  UNL     1     -32.080   8.303   4.582  1.00 20.00     0.007 A 
ENDBRANCH   1   2
BRANCH   1   5
HETATM    5  C6  UNL     1     -34.554   5.774   4.091  1.00 20.00     0.032 C 
BRANCH   5   6
HETATM    6  C5  UNL     1     -34.679   5.024   5.420  1.00 20.00    -0.002 C 
HETATM    7  C4  UNL     1     -34.399   5.939   6.602  1.00 20.00     0.005 C 
ENDBRANCH   5   6
ENDBRANCH   1   5
BRANCH   1   8
HETATM    8  O8  UNL     1     -32.763   5.365   2.508  1.00 20.00    -0.395 OA
HETATM    9  H22 UNL     1     -32.905   4.420   2.674  1.00 20.00     0.210 HD
ENDBRANCH   1   8
TORSDOF 4
ENDMDL
MODEL 7
REMARK VINA RESULT:      -4.0      1.944      2.461
REMARK  4 active torsions:
REMARK  status: ('A' for Active; 'I' for Inactive)
REMARK    1  A    between atoms: C3_3  and  C7_7 
REMARK    2  A    between atoms: C5_5  and  C6_6 
REMARK    3  A    between atoms: C6_6  and  C7_7 
REMARK    4  A    between atoms: C7_7  and  O8_8 
ROOT
HETATM    1  C7  UNL     1     -33.956   6.027   3.800  1.00 20.00     0.122 C 
ENDROOT
BRANCH   1   2
HETATM    2  C3  UNL     1     -34.730   6.297   5.084  1.00 20.00     0.014 A 
HETATM    3  C1  UNL     1     -34.754   5.273   6.184  1.00 20.00     0.007 A 
HETATM    4  C2  UNL     1     -33.996   6.559   6.368  1.00 20.00     0.007 A 
ENDBRANCH   1   2
BRANCH   1   5
HETATM    5  C6  UNL     1     -32.638   6.806   3.764  1.00 20.00     0.032 C 
BRANCH   5   6
HETATM    6  C5  UNL     1     -32.863   8.313   3.608  1.00 20.00    -0.002 C 
HETATM    7  C4  UNL     1     -32.221   9.091   4.746  1.00 20.00     0.005 C 
ENDBRANCH   5   6
ENDBRANCH   1   5
BRANCH   1   8
HETATM    8  O8  UNL     1     -33.701   4.628   3.705  1.00 20.00    -0.395 OA
HETATM    9  H22 UNL     1     -33.714   4.283   4.611  1.00 20.00     0.210 HD
ENDBRANCH   1   8
TORSDOF 4
ENDMDL
MODEL 8
REMARK VINA RESULT:      -3.9      1.816      2.767
REMARK  4 active torsions:
REMARK  status: ('A' for Active; 'I' for Inactive)
REMARK    1  A    between atoms: C3_3  and  C7_7 
REMARK    2  A    between atoms: C5_5  and  C6_6 
REMARK    3  A    between atoms: C6_6  and  C7_7 
REMARK    4  A    between atoms: C7_7  and  O8_8 
ROOT
HETATM    1  C7  UNL     1     -34.888   5.985   4.424  1.00 20.00     0.122 C 
ENDROOT
BRANCH   1   2
HETATM    2  C3  UNL     1     -34.769   6.181   5.929  1.00 20.00     0.014 A 
HETATM    3  C1  UNL     1     -33.651   5.526   6.693  1.00 20.00     0.007 A 
HETATM    4  C2  UNL     1     -33.657   7.018   6.497  1.00 20.00     0.007 A 
ENDBRANCH   1   2
BRANCH   1   5
HETATM    5  C6  UNL     1     -34.011   4.827   3.936  1.00 20.00     0.032 C 
BRANCH   5   6
HETATM    6  C5  UNL     1     -33.087   5.247   2.790  1.00 20.00    -0.002 C 
HETATM    7  C4  UNL     1     -32.555   6.658   2.994  1.00 20.00     0.005 C 
ENDBRANCH   5   6
ENDBRANCH   1   5
BRANCH   1   8
HETATM    8  O8  UNL     1     -36.252   5.735   4.101  1.00 20.00    -0.395 OA
HETATM    9  H22 UNL     1     -36.781   6.333   4.652  1.00 20.00     0.210 HD
ENDBRANCH   1   8
TORSDOF 4
ENDMDL
MODEL 9
REMARK VINA RESULT:      -3.8      1.867      2.582
REMARK  4 active torsions:
REMARK  status: ('A' for Active; 'I' for Inactive)
REMARK    1  A    between atoms: C3_3  and  C7_7 
REMARK    2  A    between atoms: C5_5  and  C6_6 
REMARK    3  A    between atoms: C6_6  and  C7_7 
REMARK    4  A    between atoms: C7_7  and  O8_8 
ROOT
HETATM    1  C7  UNL     1     -34.167   5.576   4.731  1.00 20.00     0.122 C 
ENDROOT
BRANCH   1   2
HETATM    2  C3  UNL     1     -33.907   5.531   3.231  1.00 20.00     0.014 A 
HETATM    3  C1  UNL     1     -32.652   6.131   2.661  1.00 20.00     0.007 A 
HETATM    4  C2  UNL     1     -32.834   4.638   2.675  1.00 20.00     0.007 A 
ENDBRANCH   1   2
BRANCH   1   5
HETATM    5  C6  UNL     1     -34.502   6.995   5.202  1.00 20.00     0.032 C 
BRANCH   5   6
HETATM    6  C5  UNL     1     -33.317   7.664   5.904  1.00 20.00    -0.002 C 
HETATM    7  C4  UNL     1     -32.638   8.682   4.999  1.00 20.00     0.005 C 
ENDBRANCH   5   6
ENDBRANCH   1   5
BRANCH   1   8
HETATM    8  O8  UNL     1     -35.242   4.692   5.036  1.00 20.00    -0.395 OA
HETATM    9  H22 UNL     1     -35.133   4.434   5.964  1.00 20.00     0.210 HD
ENDBRANCH   1   8
TORSDOF 4
ENDMDL
