MODEL 1
REMARK VINA RESULT:      -4.4      0.000      0.000
REMARK  3 active torsions:
REMARK  status: ('A' for Active; 'I' for Inactive)
REMARK    1  A    between atoms: C1_1  and  C4_4 
REMARK    2  A    between atoms: C1_1  and  C7_7 
REMARK    3  A    between atoms: C7_7  and  C8_8 
ROOT
HETATM    1  C1  UNL     1     -33.827   7.021   5.832  1.00 20.00     0.131 C 
HETATM    2  O9  UNL     1     -33.013   7.110   6.751  1.00 20.00    -0.298 OA
ENDROOT
BRANCH   1   3
HETATM    3  C4  UNL     1     -34.799   5.870   5.767  1.00 20.00     0.055 A 
HETATM    4  C2  UNL     1     -35.557   5.668   4.505  1.00 20.00     0.013 A 
HETATM    5  C3  UNL     1     -34.459   4.722   4.889  1.00 20.00     0.013 A 
ENDBRANCH   1   3
BRANCH   1   6
HETATM    6  C7  UNL     1     -33.892   8.017   4.685  1.00 20.00     0.082 C 
BRANCH   6   7
HETATM    7  C8  UNL     1     -32.582   8.138   3.893  1.00 20.00    -0.016 C 
HETATM    8  C5  UNL     1     -32.597   9.357   2.968  1.00 20.00     0.010 C 
HETATM    9  C6  UNL     1     -32.348   6.869   3.069  1.00 20.00     0.010 C 
ENDBRANCH   6   7
ENDBRANCH   1   6
TORSDOF 3
ENDMDL
MODEL 2
REMARK VINA RESULT:      -4.3      0.930      3.538
REMARK  3 active torsions:
REMARK  status: ('A' for Active; 'I' for Inactive)
REMARK    1  A    between atoms: C1_1  and  C4_4 
REMARK    2  A    between atoms: C1_1  and  C7_7 
REMARK    3  A    between atoms: C7_7  and  C8_8 
ROOT
HETATM    1  C1  UNL     1     -33.755   7.624   5.167  1.00 20.00     0.131 C 
HETATM    2  O9  UNL     1     -34.013   8.107   6.269  1.00 20.00    -0.298 OA
ENDROOT
BRANCH   1   3
HETATM    3  C4  UNL     1     -32.469   7.955   4.457  1.00 20.00     0.055 A 
HETATM    4  C2  UNL     1     -32.214   7.318   3.139  1.00 20.00     0.013 A 
HETATM    5  C3  UNL     1     -32.547   8.778   3.223  1.00 20.00     0.013 A 
ENDBRANCH   1   3
BRANCH   1   6
HETATM    6  C7  UNL     1     -34.714   6.706   4.422  1.00 20.00     0.082 C 
BRANCH   6   7
HETATM    7  C8  UNL     1     -34.817   5.297   5.023  1.00 20.00    -0.016 C 
HETATM    8  C5  UNL     1     -34.401   5.285   6.497  1.00 20.00     0.010 C 
HETATM    9  C6  UNL     1     -33.939   4.323   4.232  1.00 20.00     0.010 C 
ENDBRANCH   6   7
ENDBRANCH   1   6
TORSDOF 3
ENDMDL
MODEL 3
REMARK VINA RESULT:      -4.3      1.662      2.232
REMARK  3 active torsions:
REMARK  status: ('A' for Active; 'I' for Inactive)
REMARK    1  A    between atoms: C1_1  and  C4_4 
REMARK    2  A    between atoms: C1_1  and  C7_7 
REMARK    3  A    between atoms: C7_7  and  C8_8 
ROOT
HETATM    1  C1  UNL     1     -33.514   5.941   3.866  1.00 20.00     0.131 C 
HETATM    2  O9  UNL     1     -33.605   4.846   3.313  1.00 20.00    -0.298 OA
ENDROOT
BRANCH   1   3
HETATM    3  C4  UNL     1     -34.494   6.355   4.933  1.00 20.00     0.055 A 
HETATM    4  C2  UNL     1     -34.878   5.348   5.957  1.00 20.00     0.013 A 
HETATM    5  C3  UNL     1     -33.991   6.501   6.322  1.00 20.00     0.013 A 
ENDBRANCH   1   3
BRANCH   1   6
HETATM    6  C7  UNL     1     -32.455   6.969   3.496  1.00 20.00     0.082 C 
BRANCH   6   7
HETATM    7  C8  UNL     1     -32.926   8.423   3.632  1.00 20.00    -0.016 C 
HETATM    8  C5  UNL     1     -32.744   9.196   2.323  1.00 20.00     0.010 C 
HETATM    9  C6  UNL     1     -32.155   9.123   4.755  1.00 20.00     0.010 C 
ENDBRANCH   6   7
ENDBRANCH   1   6
TORSDOF 3
ENDMDL
MODEL 4
REMARK VINA RESULT:      -4.2      1.327      1.605
REMARK  3 active torsions:
REMARK  status: ('A' for Active; 'I' for Inactive)
REMARK    1  A    between atoms: C1_1  and  C4_4 
REMARK    2  A    between atoms: C1_1  and  C7_7 
REMARK    3  A    between atoms: C7_7  and  C8_8 
ROOT
HETATM    1  C1  UNL     1     -33.432   7.714   5.321  1.00 20.00     0.131 C 
HETATM    2  O9  UNL     1     -32.646   8.608   5.633  1.00 20.00    -0.298 OA
ENDROOT
BRANCH   1   3
HETATM    3  C4  UNL     1     -34.121   6.886   6.375  1.00 20.00     0.055 A 
HETATM    4  C2  UNL     1     -35.019   5.791   5.926  1.00 20.00     0.013 A 
HETATM    5  C3  UNL     1     -33.690   5.475   6.544  1.00 20.00     0.013 A 
ENDBRANCH   1   3
BRANCH   1   6
HETATM    6  C7  UNL     1     -33.734   7.345   3.877  1.00 20.00     0.082 C 
BRANCH   6   7
HETATM    7  C8  UNL     1     -32.532   6.761   3.121  1.00 20.00    -0.016 C 
HETATM    8  C5  UNL     1     -32.124   7.652   1.945  1.00 20.00     0.010 C 
HETATM    9  C6  UNL     1     -32.864   5.356   2.611  1.00 20.00     0.010 C 
ENDBRANCH   6   7
ENDBRANCH   1   6
TORSDOF 3
ENDMDL
MODEL 5
REMARK VINA RESULT:      -4.1      1.888      4.095
REMARK  3 active torsions:
REMARK  status: ('A' for Active; 'I' for Inactive)
REMARK    1  A    between atoms: C1_1  and  C4_4 
REMARK    2  A    between atoms: C1_1  and  C7_7 
REMARK    3  A    between atoms: C7_7  and  C8_8 
ROOT
HETATM    1  C1  UNL     1     -33.103   6.103   3.252  1.00 20.00     0.131 C 
HETATM    2  O9  UNL     1     -32.944   5.041   2.652  1.00 20.00    -0.298 OA
ENDROOT
BRANCH   1   3
HETATM    3  C4  UNL     1     -32.119   7.235   3.098  1.00 20.00     0.055 A 
HETATM    4  C2  UNL     1     -32.193   8.061   1.866  1.00 20.00     0.013 A 
HETATM    5  C3  UNL     1     -32.638   8.624   3.183  1.00 20.00     0.013 A 
ENDBRANCH   1   3
BRANCH   1   6
HETATM    6  C7  UNL     1     -34.256   6.345   4.215  1.00 20.00     0.082 C 
BRANCH   6   7
HETATM    7  C8  UNL     1     -33.870   6.200   5.694  1.00 20.00    -0.016 C 
HETATM    8  C5  UNL     1     -34.737   5.155   6.399  1.00 20.00     0.010 C 
HETATM    9  C6  UNL     1     -34.006   7.548   6.406  1.00 20.00     0.010 C 
ENDBRANCH   6   7
ENDBRANCH   1   6
TORSDOF 3
ENDMDL
MODEL 6
REMARK VINA RESULT:      -4.1      1.733      3.877
REMARK  3 active torsions:
REMARK  status: ('A' for Active; 'I' for Inactive)
REMARK    1  A    between atoms: C1_1  and  C4_4 
REMARK    2  A    between atoms: C1_1  and  C7_7 
REMARK    3  A    between atoms: C7_7  and  C8_8 
ROOT
HETATM    1  C1  UNL     1     -33.148   6.506   3.396  1.00 20.00     0.131 C 
HETATM    2  O9  UNL     1     -32.822   5.581   2.654  1.00 20.00    -0.298 OA
ENDROOT
BRANCH   1   3
HETATM    3  C4  UNL     1     -32.177   7.607   3.736  1.00 20.00     0.055 A 
HETATM    4  C2  UNL     1     -32.568   9.006   3.420  1.00 20.00     0.013 A 
HETATM    5  C3  UNL     1     -32.533   8.532   4.842  1.00 20.00     0.013 A 
ENDBRANCH   1   3
BRANCH   1   6
HETATM    6  C7  UNL     1     -34.516   6.593   4.057  1.00 20.00     0.082 C 
BRANCH   6   7
HETATM    7  C8  UNL     1     -34.780   5.483   5.085  1.00 20.00    -0.016 C 
HETATM    8  C5  UNL     1     -34.400   5.928   6.499  1.00 20.00     0.010 C 
HETATM    9  C6  UNL     1     -33.992   4.224   4.712  1.00 20.00     0.010 C 
ENDBRANCH   6   7
ENDBRANCH   1   6
TORSDOF 3
ENDMDL
MODEL 7
REMARK VINA RESULT:      -3.8      0.829      1.583
REMARK  3 active torsions:
REMARK  status: ('A' for Active; 'I' for Inactive)
REMARK    1  A    between atoms: C1_1  and  C4_4 
REMARK    2  A    between atoms: C1_1  and  C7_7 
REMARK    3  A    between atoms: C7_7  and  C8_8 
ROOT
HETATM    1  C1  UNL     1     -33.651   7.384   5.632  1.00 20.00     0.131 C 
HETATM    2  O9  UNL     1     -34.115   7.745   6.713  1.00 20.00    -0.298 OA
ENDROOT
BRANCH   1   3
HETATM    3  C4  UNL     1     -33.968   6.023   5.068  1.00 20.00     0.055 A 
HETATM    4  C2  UNL     1     -34.768   5.090   5.903  1.00 20.00     0.013 A 
HETATM    5  C3  UNL     1     -35.376   5.736   4.694  1.00 20.00     0.013 A 
ENDBRANCH   1   3
BRANCH   1   6
HETATM    6  C7  UNL     1     -32.700   8.243   4.812  1.00 20.00     0.082 C 
BRANCH   6   7
HETATM    7  C8  UNL     1     -32.926   8.146   3.297  1.00 20.00    -0.016 C 
HETATM    8  C5  UNL     1     -31.955   7.157   2.648  1.00 20.00     0.010 C 
HETATM    9  C6  UNL     1     -32.764   9.526   2.652  1.00 20.00     0.010 C 
ENDBRANCH   6   7
ENDBRANCH   1   6
TORSDOF 3
ENDMDL
MODEL 8
REMARK VINA RESULT:      -3.8      9.000      9.944
REMARK  3 active torsions:
REMARK  status: ('A' for Active; 'I' for Inactive)
REMARK    1  A    between atoms: C1_1  and  C4_4 
REMARK    2  A    between atoms: C1_1  and  C7_7 
REMARK    3  A    between atoms: C7_7  and  C8_8 
ROOT
HETATM    1  C1  UNL     1     -40.863  13.057   5.301  1.00 20.00     0.131 C 
HETATM    2  O9  UNL     1     -41.183  13.581   4.235  1.00 20.00    -0.298 OA
ENDROOT
BRANCH   1   3
HETATM    3  C4  UNL     1     -39.943  11.864   5.333  1.00 20.00     0.055 A 
HETATM    4  C2  UNL     1     -39.033  11.653   4.178  1.00 20.00     0.013 A 
HETATM    5  C3  UNL     1     -38.488  12.111   5.498  1.00 20.00     0.013 A 
ENDBRANCH   1   3
BRANCH   1   6
HETATM    6  C7  UNL     1     -41.393  13.530   6.647  1.00 20.00     0.082 C 
BRANCH   6   7
HETATM    7  C8  UNL     1     -40.577  14.671   7.269  1.00 20.00    -0.016 C 
HETATM    8  C5  UNL     1     -40.285  14.409   8.749  1.00 20.00     0.010 C 
HETATM    9  C6  UNL     1     -41.328  15.997   7.119  1.00 20.00     0.010 C 
ENDBRANCH   6   7
ENDBRANCH   1   6
TORSDOF 3
ENDMDL
MODEL 9
REMARK VINA RESULT:      -3.6      8.998      9.887
REMARK  3 active torsions:
REMARK  status: ('A' for Active; 'I' for Inactive)
REMARK    1  A    between atoms: C1_1  and  C4_4 
REMARK    2  A    between atoms: C1_1  and  C7_7 
REMARK    3  A    between atoms: C7_7  and  C8_8 
ROOT
HETATM    1  C1  UNL     1     -41.635  13.088   6.684  1.00 20.00     0.131 C 
HETATM    2  O9  UNL     1     -42.278  12.134   7.121  1.00 20.00    -0.298 OA
ENDROOT
BRANCH   1   3
HETATM    3  C4  UNL     1     -41.671  14.428   7.374  1.00 20.00     0.055 A 
HETATM    4  C2  UNL     1     -41.018  14.547   8.703  1.00 20.00     0.013 A 
HETATM    5  C3  UNL     1     -40.398  15.183   7.495  1.00 20.00     0.013 A 
ENDBRANCH   1   3
BRANCH   1   6
HETATM    6  C7  UNL     1     -40.803  13.012   5.413  1.00 20.00     0.082 C 
BRANCH   6   7
HETATM    7  C8  UNL     1     -39.797  11.853   5.398  1.00 20.00    -0.016 C 
HETATM    8  C5  UNL     1     -38.729  12.024   6.481  1.00 20.00     0.010 C 
HETATM    9  C6  UNL     1     -39.127  11.756   4.025  1.00 20.00     0.010 C 
ENDBRANCH   6   7
ENDBRANCH   1   6
TORSDOF 3
ENDMDL
