MODEL 1
REMARK VINA RESULT:      -4.4      0.000      0.000
REMARK  5 active torsions:
REMARK  status: ('A' for Active; 'I' for Inactive)
REMARK    1  A    between atoms: C4_4  and  C6_6 
REMARK    2  A    between atoms: C4_4  and  C7_7 
REMARK    3  A    between atoms: C5_5  and  C8_8 
REMARK    4  A    between atoms: C5_5  and  N9_9 
REMARK    5  A    between atoms: C7_7  and  N9_9 
ROOT
HETATM    1  C3  UNL     1     -32.918   4.917   2.149  1.00 20.00     0.042 C 
HETATM    2  C7  UNL     1     -33.532   5.837   3.201  1.00 20.00     0.217 C 
ENDROOT
BRANCH   2   3
HETATM    3  C4  UNL     1     -32.483   6.817   3.747  1.00 20.00     0.039 C 
BRANCH   3   4
HETATM    4  C6  UNL     1     -32.929   8.295   3.791  1.00 20.00    -0.021 C 
HETATM    5  C1  UNL     1     -32.625   8.964   2.448  1.00 20.00     0.009 C 
HETATM    6  C2  UNL     1     -32.255   9.076   4.919  1.00 20.00     0.009 C 
ENDBRANCH   3   4
ENDBRANCH   2   3
BRANCH   2   7
HETATM    7  N9  UNL     1     -34.063   5.027   4.277  1.00 20.00     0.092 N 
HETATM    8  H28 UNL     1     -34.403   4.138   3.905  1.00 20.00     0.316 HD
BRANCH   7   9
HETATM    9  C5  UNL     1     -35.164   5.704   4.957  1.00 20.00     0.340 C 
BRANCH   9  10
HETATM   10  C8  UNL     1     -34.846   5.897   6.425  1.00 20.00     0.381 C 
HETATM   11  F10 UNL     1     -34.355   7.145   6.632  1.00 20.00    -0.213 F 
HETATM   12  F11 UNL     1     -33.861   5.033   6.783  1.00 20.00    -0.213 F 
ENDBRANCH   9  10
ENDBRANCH   7   9
ENDBRANCH   2   7
TORSDOF 5
ENDMDL
MODEL 2
REMARK VINA RESULT:      -4.3      3.385      4.851
REMARK  5 active torsions:
REMARK  status: ('A' for Active; 'I' for Inactive)
REMARK    1  A    between atoms: C4_4  and  C6_6 
REMARK    2  A    between atoms: C4_4  and  C7_7 
REMARK    3  A    between atoms: C5_5  and  C8_8 
REMARK    4  A    between atoms: C5_5  and  N9_9 
REMARK    5  A    between atoms: C7_7  and  N9_9 
ROOT
HETATM    1  C3  UNL     1     -32.563   6.087   2.829  1.00 20.00     0.042 C 
HETATM    2  C7  UNL     1     -32.491   7.330   3.714  1.00 20.00     0.217 C 
ENDROOT
BRANCH   2   3
HETATM    3  C4  UNL     1     -33.671   7.367   4.697  1.00 20.00     0.039 C 
BRANCH   3   4
HETATM    4  C6  UNL     1     -34.318   5.998   4.995  1.00 20.00    -0.021 C 
HETATM    5  C1  UNL     1     -35.710   5.937   4.359  1.00 20.00     0.009 C 
HETATM    6  C2  UNL     1     -34.425   5.714   6.493  1.00 20.00     0.009 C 
ENDBRANCH   3   4
ENDBRANCH   2   3
BRANCH   2   7
HETATM    7  N9  UNL     1     -32.511   8.506   2.870  1.00 20.00     0.092 N 
HETATM    8  H28 UNL     1     -33.450   8.910   2.863  1.00 20.00     0.316 HD
BRANCH   7   9
HETATM    9  C5  UNL     1     -32.131   8.179   1.498  1.00 20.00     0.340 C 
BRANCH   9  10
HETATM   10  C8  UNL     1     -32.543   9.288   0.552  1.00 20.00     0.381 C 
HETATM   11  F10 UNL     1     -33.312  10.193   1.208  1.00 20.00    -0.213 F 
HETATM   12  F11 UNL     1     -33.319   8.766  -0.433  1.00 20.00    -0.213 F 
ENDBRANCH   9  10
ENDBRANCH   7   9
ENDBRANCH   2   7
TORSDOF 5
ENDMDL
MODEL 3
REMARK VINA RESULT:      -4.1      1.606      2.959
REMARK  5 active torsions:
REMARK  status: ('A' for Active; 'I' for Inactive)
REMARK    1  A    between atoms: C4_4  and  C6_6 
REMARK    2  A    between atoms: C4_4  and  C7_7 
REMARK    3  A    between atoms: C5_5  and  C8_8 
REMARK    4  A    between atoms: C5_5  and  N9_9 
REMARK    5  A    between atoms: C7_7  and  N9_9 
ROOT
HETATM    1  C3  UNL     1     -32.201   9.251   5.593  1.00 20.00     0.042 C 
HETATM    2  C7  UNL     1     -32.813   7.994   4.978  1.00 20.00     0.217 C 
ENDROOT
BRANCH   2   3
HETATM    3  C4  UNL     1     -33.015   8.171   3.465  1.00 20.00     0.039 C 
BRANCH   3   4
HETATM    4  C6  UNL     1     -32.185   7.218   2.578  1.00 20.00    -0.021 C 
HETATM    5  C1  UNL     1     -32.098   7.782   1.157  1.00 20.00     0.009 C 
HETATM    6  C2  UNL     1     -32.766   5.805   2.536  1.00 20.00     0.009 C 
ENDBRANCH   3   4
ENDBRANCH   2   3
BRANCH   2   7
HETATM    7  N9  UNL     1     -34.083   7.731   5.621  1.00 20.00     0.092 N 
HETATM    8  H28 UNL     1     -34.309   8.492   6.264  1.00 20.00     0.316 HD
BRANCH   7   9
HETATM    9  C5  UNL     1     -34.047   6.477   6.369  1.00 20.00     0.340 C 
BRANCH   9  10
HETATM   10  C8  UNL     1     -34.910   5.430   5.697  1.00 20.00     0.381 C 
HETATM   11  F10 UNL     1     -34.139   4.396   5.276  1.00 20.00    -0.213 F 
HETATM   12  F11 UNL     1     -35.473   5.967   4.584  1.00 20.00    -0.213 F 
ENDBRANCH   9  10
ENDBRANCH   7   9
ENDBRANCH   2   7
TORSDOF 5
ENDMDL
MODEL 4
REMARK VINA RESULT:      -4.1      3.222      4.862
REMARK  5 active torsions:
REMARK  status: ('A' for Active; 'I' for Inactive)
REMARK    1  A    between atoms: C4_4  and  C6_6 
REMARK    2  A    between atoms: C4_4  and  C7_7 
REMARK    3  A    between atoms: C5_5  and  C8_8 
REMARK    4  A    between atoms: C5_5  and  N9_9 
REMARK    5  A    between atoms: C7_7  and  N9_9 
ROOT
HETATM    1  C3  UNL     1     -32.161   9.036   5.042  1.00 20.00     0.042 C 
HETATM    2  C7  UNL     1     -33.289   8.192   4.454  1.00 20.00     0.217 C 
ENDROOT
BRANCH   2   3
HETATM    3  C4  UNL     1     -34.052   7.453   5.565  1.00 20.00     0.039 C 
BRANCH   3   4
HETATM    4  C6  UNL     1     -34.322   5.958   5.290  1.00 20.00    -0.021 C 
HETATM    5  C1  UNL     1     -35.603   5.810   4.464  1.00 20.00     0.009 C 
HETATM    6  C2  UNL     1     -34.442   5.140   6.575  1.00 20.00     0.009 C 
ENDBRANCH   3   4
ENDBRANCH   2   3
BRANCH   2   7
HETATM    7  N9  UNL     1     -32.723   7.239   3.523  1.00 20.00     0.092 N 
HETATM    8  H28 UNL     1     -32.231   6.505   4.037  1.00 20.00     0.316 HD
BRANCH   7   9
HETATM    9  C5  UNL     1     -31.783   7.886   2.611  1.00 20.00     0.340 C 
BRANCH   9  10
HETATM   10  C8  UNL     1     -32.497   8.373   1.367  1.00 20.00     0.381 C 
HETATM   11  F10 UNL     1     -31.664   8.304   0.299  1.00 20.00    -0.213 F 
HETATM   12  F11 UNL     1     -32.815   9.684   1.523  1.00 20.00    -0.213 F 
ENDBRANCH   9  10
ENDBRANCH   7   9
ENDBRANCH   2   7
TORSDOF 5
ENDMDL
MODEL 5
REMARK VINA RESULT:      -4.0     12.215     13.089
REMARK  5 active torsions:
REMARK  status: ('A' for Active; 'I' for Inactive)
REMARK    1  A    between atoms: C4_4  and  C6_6 
REMARK    2  A    between atoms: C4_4  and  C7_7 
REMARK    3  A    between atoms: C5_5  and  C8_8 
REMARK    4  A    between atoms: C5_5  and  N9_9 
REMARK    5  A    between atoms: C7_7  and  N9_9 
ROOT
HETATM    1  C3  UNL     1     -33.964  19.209  -3.289  1.00 20.00     0.042 C 
HETATM    2  C7  UNL     1     -33.950  17.688  -3.155  1.00 20.00     0.217 C 
ENDROOT
BRANCH   2   3
HETATM    3  C4  UNL     1     -33.143  17.257  -1.921  1.00 20.00     0.039 C 
BRANCH   3   4
HETATM    4  C6  UNL     1     -32.943  18.354  -0.854  1.00 20.00    -0.021 C 
HETATM    5  C1  UNL     1     -31.464  18.431  -0.466  1.00 20.00     0.009 C 
HETATM    6  C2  UNL     1     -33.791  18.117   0.395  1.00 20.00     0.009 C 
ENDBRANCH   3   4
ENDBRANCH   2   3
BRANCH   2   7
HETATM    7  N9  UNL     1     -33.369  17.119  -4.352  1.00 20.00     0.092 N 
HETATM    8  H28 UNL     1     -33.254  17.847  -5.061  1.00 20.00     0.316 HD
BRANCH   7   9
HETATM    9  C5  UNL     1     -34.213  16.060  -4.899  1.00 20.00     0.340 C 
BRANCH   9  10
HETATM   10  C8  UNL     1     -33.601  14.700  -4.634  1.00 20.00     0.381 C 
HETATM   11  F10 UNL     1     -34.305  14.055  -3.671  1.00 20.00    -0.213 F 
HETATM   12  F11 UNL     1     -32.345  14.866  -4.145  1.00 20.00    -0.213 F 
ENDBRANCH   9  10
ENDBRANCH   7   9
ENDBRANCH   2   7
TORSDOF 5
ENDMDL
MODEL 6
REMARK VINA RESULT:      -3.7     12.191     12.866
REMARK  5 active torsions:
REMARK  status: ('A' for Active; 'I' for Inactive)
REMARK    1  A    between atoms: C4_4  and  C6_6 
REMARK    2  A    between atoms: C4_4  and  C7_7 
REMARK    3  A    between atoms: C5_5  and  C8_8 
REMARK    4  A    between atoms: C5_5  and  N9_9 
REMARK    5  A    between atoms: C7_7  and  N9_9 
ROOT
HETATM    1  C3  UNL     1     -32.710  15.090  -4.135  1.00 20.00     0.042 C 
HETATM    2  C7  UNL     1     -33.527  16.337  -3.805  1.00 20.00     0.217 C 
ENDROOT
BRANCH   2   3
HETATM    3  C4  UNL     1     -33.496  16.626  -2.297  1.00 20.00     0.039 C 
BRANCH   3   4
HETATM    4  C6  UNL     1     -33.219  18.097  -1.918  1.00 20.00    -0.021 C 
HETATM    5  C1  UNL     1     -32.900  18.902  -3.181  1.00 20.00     0.009 C 
HETATM    6  C2  UNL     1     -32.075  18.237  -0.915  1.00 20.00     0.009 C 
ENDBRANCH   3   4
ENDBRANCH   2   3
BRANCH   2   7
HETATM    7  N9  UNL     1     -34.892  16.130  -4.243  1.00 20.00     0.092 N 
HETATM    8  H28 UNL     1     -35.423  15.663  -3.505  1.00 20.00     0.316 HD
BRANCH   7   9
HETATM    9  C5  UNL     1     -34.942  15.309  -5.450  1.00 20.00     0.340 C 
BRANCH   9  10
HETATM   10  C8  UNL     1     -36.035  14.267  -5.341  1.00 20.00     0.381 C 
HETATM   11  F10 UNL     1     -37.209  14.862  -5.011  1.00 20.00    -0.213 F 
HETATM   12  F11 UNL     1     -35.738  13.416  -4.325  1.00 20.00    -0.213 F 
ENDBRANCH   9  10
ENDBRANCH   7   9
ENDBRANCH   2   7
TORSDOF 5
ENDMDL
MODEL 7
REMARK VINA RESULT:      -3.7      9.729     10.645
REMARK  5 active torsions:
REMARK  status: ('A' for Active; 'I' for Inactive)
REMARK    1  A    between atoms: C4_4  and  C6_6 
REMARK    2  A    between atoms: C4_4  and  C7_7 
REMARK    3  A    between atoms: C5_5  and  C8_8 
REMARK    4  A    between atoms: C5_5  and  N9_9 
REMARK    5  A    between atoms: C7_7  and  N9_9 
ROOT
HETATM    1  C3  UNL     1     -42.054  12.806   6.718  1.00 20.00     0.042 C 
HETATM    2  C7  UNL     1     -40.834  13.602   7.177  1.00 20.00     0.217 C 
ENDROOT
BRANCH   2   3
HETATM    3  C4  UNL     1     -41.133  15.109   7.169  1.00 20.00     0.039 C 
BRANCH   3   4
HETATM    4  C6  UNL     1     -40.369  15.933   8.228  1.00 20.00    -0.021 C 
HETATM    5  C1  UNL     1     -40.183  15.095   9.496  1.00 20.00     0.009 C 
HETATM    6  C2  UNL     1     -41.079  17.240   8.575  1.00 20.00     0.009 C 
ENDBRANCH   3   4
ENDBRANCH   2   3
BRANCH   2   7
HETATM    7  N9  UNL     1     -39.727  13.311   6.291  1.00 20.00     0.092 N 
HETATM    8  H28 UNL     1     -39.242  14.177   6.049  1.00 20.00     0.316 HD
BRANCH   7   9
HETATM    9  C5  UNL     1     -40.186  12.670   5.062  1.00 20.00     0.340 C 
BRANCH   9  10
HETATM   10  C8  UNL     1     -39.133  11.719   4.531  1.00 20.00     0.381 C 
HETATM   11  F10 UNL     1     -37.935  11.990   5.105  1.00 20.00    -0.213 F 
HETATM   12  F11 UNL     1     -38.977  11.929   3.199  1.00 20.00    -0.213 F 
ENDBRANCH   9  10
ENDBRANCH   7   9
ENDBRANCH   2   7
TORSDOF 5
ENDMDL
MODEL 8
REMARK VINA RESULT:      -3.6      2.179      3.681
REMARK  5 active torsions:
REMARK  status: ('A' for Active; 'I' for Inactive)
REMARK    1  A    between atoms: C4_4  and  C6_6 
REMARK    2  A    between atoms: C4_4  and  C7_7 
REMARK    3  A    between atoms: C5_5  and  C8_8 
REMARK    4  A    between atoms: C5_5  and  N9_9 
REMARK    5  A    between atoms: C7_7  and  N9_9 
ROOT
HETATM    1  C3  UNL     1     -33.200   4.650   2.618  1.00 20.00     0.042 C 
HETATM    2  C7  UNL     1     -33.175   5.818   3.600  1.00 20.00     0.217 C 
ENDROOT
BRANCH   2   3
HETATM    3  C4  UNL     1     -34.588   6.125   4.118  1.00 20.00     0.039 C 
BRANCH   3   4
HETATM    4  C6  UNL     1     -34.790   5.913   5.634  1.00 20.00    -0.021 C 
HETATM    5  C1  UNL     1     -34.218   7.108   6.402  1.00 20.00     0.009 C 
HETATM    6  C2  UNL     1     -34.143   4.623   6.135  1.00 20.00     0.009 C 
ENDBRANCH   3   4
ENDBRANCH   2   3
BRANCH   2   7
HETATM    7  N9  UNL     1     -32.629   6.980   2.931  1.00 20.00     0.092 N 
HETATM    8  H28 UNL     1     -32.083   6.685   2.118  1.00 20.00     0.316 HD
BRANCH   7   9
HETATM    9  C5  UNL     1     -31.765   7.748   3.823  1.00 20.00     0.340 C 
BRANCH   9  10
HETATM   10  C8  UNL     1     -32.335   9.132   4.055  1.00 20.00     0.381 C 
HETATM   11  F10 UNL     1     -32.173   9.488   5.354  1.00 20.00    -0.213 F 
HETATM   12  F11 UNL     1     -33.673   9.105   3.828  1.00 20.00    -0.213 F 
ENDBRANCH   9  10
ENDBRANCH   7   9
ENDBRANCH   2   7
TORSDOF 5
ENDMDL
MODEL 9
REMARK VINA RESULT:      -3.6      2.243      3.397
REMARK  5 active torsions:
REMARK  status: ('A' for Active; 'I' for Inactive)
REMARK    1  A    between atoms: C4_4  and  C6_6 
REMARK    2  A    between atoms: C4_4  and  C7_7 
REMARK    3  A    between atoms: C5_5  and  C8_8 
REMARK    4  A    between atoms: C5_5  and  N9_9 
REMARK    5  A    between atoms: C7_7  and  N9_9 
ROOT
HETATM    1  C3  UNL     1     -34.645   6.325   6.654  1.00 20.00     0.042 C 
HETATM    2  C7  UNL     1     -33.974   6.445   5.288  1.00 20.00     0.217 C 
ENDROOT
BRANCH   2   3
HETATM    3  C4  UNL     1     -33.934   7.910   4.828  1.00 20.00     0.039 C 
BRANCH   3   4
HETATM    4  C6  UNL     1     -32.579   8.378   4.254  1.00 20.00    -0.021 C 
HETATM    5  C1  UNL     1     -31.979   9.454   5.164  1.00 20.00     0.009 C 
HETATM    6  C2  UNL     1     -32.703   8.919   2.830  1.00 20.00     0.009 C 
ENDBRANCH   3   4
ENDBRANCH   2   3
BRANCH   2   7
HETATM    7  N9  UNL     1     -34.712   5.644   4.334  1.00 20.00     0.092 N 
HETATM    8  H28 UNL     1     -35.512   5.206   4.796  1.00 20.00     0.316 HD
BRANCH   7   9
HETATM    9  C5  UNL     1     -33.871   4.598   3.758  1.00 20.00     0.340 C 
BRANCH   9  10
HETATM   10  C8  UNL     1     -33.188   5.095   2.501  1.00 20.00     0.381 C 
HETATM   11  F10 UNL     1     -32.831   4.043   1.722  1.00 20.00    -0.213 F 
HETATM   12  F11 UNL     1     -32.037   5.729   2.842  1.00 20.00    -0.213 F 
ENDBRANCH   9  10
ENDBRANCH   7   9
ENDBRANCH   2   7
TORSDOF 5
ENDMDL
