MODEL 1
REMARK VINA RESULT:      -4.1      0.000      0.000
REMARK  1 active torsions:
REMARK  status: ('A' for Active; 'I' for Inactive)
REMARK    1  A    between atoms: C2_2  and  C3_3 
ROOT
HETATM    1  C1  UNL     1     -33.237   7.582   4.796  1.00 20.00     0.064 C 
HETATM    2  C2  UNL     1     -34.166   6.445   4.784  1.00 20.00     0.194 C 
HETATM    3  N4  UNL     1     -32.503   8.481   4.803  1.00 20.00    -0.197 NA
ENDROOT
BRANCH   2   4
HETATM    4  C3  UNL     1     -34.665   6.121   6.179  1.00 20.00     0.366 C 
HETATM    5  F5  UNL     1     -34.492   7.186   7.000  1.00 20.00    -0.213 F 
HETATM    6  F6  UNL     1     -33.957   5.092   6.705  1.00 20.00    -0.213 F 
ENDBRANCH   2   4
TORSDOF 1
ENDMDL
MODEL 2
REMARK VINA RESULT:      -4.1      1.373      1.422
REMARK  1 active torsions:
REMARK  status: ('A' for Active; 'I' for Inactive)
REMARK    1  A    between atoms: C2_2  and  C3_3 
ROOT
HETATM    1  C1  UNL     1     -33.087   7.812   5.181  1.00 20.00     0.064 C 
HETATM    2  C2  UNL     1     -34.055   7.121   6.044  1.00 20.00     0.194 C 
HETATM    3  N4  UNL     1     -32.322   8.358   4.502  1.00 20.00    -0.197 NA
ENDROOT
BRANCH   2   4
HETATM    4  C3  UNL     1     -34.533   5.826   5.416  1.00 20.00     0.366 C 
HETATM    5  F5  UNL     1     -35.641   6.047   4.666  1.00 20.00    -0.213 F 
HETATM    6  F6  UNL     1     -34.873   4.934   6.378  1.00 20.00    -0.213 F 
ENDBRANCH   2   4
TORSDOF 1
ENDMDL
MODEL 3
REMARK VINA RESULT:      -4.0      0.604      1.313
REMARK  1 active torsions:
REMARK  status: ('A' for Active; 'I' for Inactive)
REMARK    1  A    between atoms: C2_2  and  C3_3 
ROOT
HETATM    1  C1  UNL     1     -33.049   7.829   4.693  1.00 20.00     0.064 C 
HETATM    2  C2  UNL     1     -34.057   6.770   4.839  1.00 20.00     0.194 C 
HETATM    3  N4  UNL     1     -32.254   8.666   4.576  1.00 20.00    -0.197 NA
ENDROOT
BRANCH   2   4
HETATM    4  C3  UNL     1     -34.168   6.304   6.278  1.00 20.00     0.366 C 
HETATM    5  F5  UNL     1     -35.112   5.337   6.388  1.00 20.00    -0.213 F 
HETATM    6  F6  UNL     1     -34.552   7.330   7.077  1.00 20.00    -0.213 F 
ENDBRANCH   2   4
TORSDOF 1
ENDMDL
MODEL 4
REMARK VINA RESULT:      -4.0      1.283      1.634
REMARK  1 active torsions:
REMARK  status: ('A' for Active; 'I' for Inactive)
REMARK    1  A    between atoms: C2_2  and  C3_3 
ROOT
HETATM    1  C1  UNL     1     -33.347   7.562   5.104  1.00 20.00     0.064 C 
HETATM    2  C2  UNL     1     -34.019   7.106   6.327  1.00 20.00     0.194 C 
HETATM    3  N4  UNL     1     -32.814   7.924   4.138  1.00 20.00    -0.197 NA
ENDROOT
BRANCH   2   4
HETATM    4  C3  UNL     1     -34.806   5.832   6.087  1.00 20.00     0.366 C 
HETATM    5  F5  UNL     1     -34.043   4.748   6.372  1.00 20.00    -0.213 F 
HETATM    6  F6  UNL     1     -35.163   5.738   4.783  1.00 20.00    -0.213 F 
ENDBRANCH   2   4
TORSDOF 1
ENDMDL
MODEL 5
REMARK VINA RESULT:      -4.0      2.574      2.900
REMARK  1 active torsions:
REMARK  status: ('A' for Active; 'I' for Inactive)
REMARK    1  A    between atoms: C2_2  and  C3_3 
ROOT
HETATM    1  C1  UNL     1     -34.508   5.518   5.480  1.00 20.00     0.064 C 
HETATM    2  C2  UNL     1     -34.204   6.700   6.297  1.00 20.00     0.194 C 
HETATM    3  N4  UNL     1     -34.751   4.584   4.836  1.00 20.00    -0.197 NA
ENDROOT
BRANCH   2   4
HETATM    4  C3  UNL     1     -33.312   7.675   5.553  1.00 20.00     0.366 C 
HETATM    5  F5  UNL     1     -33.881   8.905   5.524  1.00 20.00    -0.213 F 
HETATM    6  F6  UNL     1     -33.152   7.279   4.266  1.00 20.00    -0.213 F 
ENDBRANCH   2   4
TORSDOF 1
ENDMDL
MODEL 6
REMARK VINA RESULT:      -3.9      1.905      1.905
REMARK  1 active torsions:
REMARK  status: ('A' for Active; 'I' for Inactive)
REMARK    1  A    between atoms: C2_2  and  C3_3 
ROOT
HETATM    1  C1  UNL     1     -34.051   5.530   3.925  1.00 20.00     0.064 C 
HETATM    2  C2  UNL     1     -35.108   5.821   4.903  1.00 20.00     0.194 C 
HETATM    3  N4  UNL     1     -33.217   5.302   3.151  1.00 20.00    -0.197 NA
ENDROOT
BRANCH   2   4
HETATM    4  C3  UNL     1     -34.536   6.048   6.289  1.00 20.00     0.366 C 
HETATM    5  F5  UNL     1     -33.575   7.003   6.250  1.00 20.00    -0.213 F 
HETATM    6  F6  UNL     1     -33.954   4.914   6.750  1.00 20.00    -0.213 F 
ENDBRANCH   2   4
TORSDOF 1
ENDMDL
MODEL 7
REMARK VINA RESULT:      -3.9      2.723      3.252
REMARK  1 active torsions:
REMARK  status: ('A' for Active; 'I' for Inactive)
REMARK    1  A    between atoms: C2_2  and  C3_3 
ROOT
HETATM    1  C1  UNL     1     -34.437   5.808   5.399  1.00 20.00     0.064 C 
HETATM    2  C2  UNL     1     -33.924   7.086   5.909  1.00 20.00     0.194 C 
HETATM    3  N4  UNL     1     -34.845   4.798   4.998  1.00 20.00    -0.197 NA
ENDROOT
BRANCH   2   4
HETATM    4  C3  UNL     1     -33.333   7.931   4.796  1.00 20.00     0.366 C 
HETATM    5  F5  UNL     1     -32.772   7.138   3.851  1.00 20.00    -0.213 F 
HETATM    6  F6  UNL     1     -32.352   8.730   5.281  1.00 20.00    -0.213 F 
ENDBRANCH   2   4
TORSDOF 1
ENDMDL
MODEL 8
REMARK VINA RESULT:      -3.6      3.014      3.403
REMARK  1 active torsions:
REMARK  status: ('A' for Active; 'I' for Inactive)
REMARK    1  A    between atoms: C2_2  and  C3_3 
ROOT
HETATM    1  C1  UNL     1     -34.308   6.297   4.898  1.00 20.00     0.064 C 
HETATM    2  C2  UNL     1     -33.665   7.615   4.982  1.00 20.00     0.194 C 
HETATM    3  N4  UNL     1     -34.818   5.257   4.832  1.00 20.00    -0.197 NA
ENDROOT
BRANCH   2   4
HETATM    4  C3  UNL     1     -32.516   7.736   4.000  1.00 20.00     0.366 C 
HETATM    5  F5  UNL     1     -32.692   8.816   3.200  1.00 20.00    -0.213 F 
HETATM    6  F6  UNL     1     -32.467   6.647   3.195  1.00 20.00    -0.213 F 
ENDBRANCH   2   4
TORSDOF 1
ENDMDL
MODEL 9
REMARK VINA RESULT:      -3.6      2.862      3.325
REMARK  1 active torsions:
REMARK  status: ('A' for Active; 'I' for Inactive)
REMARK    1  A    between atoms: C2_2  and  C3_3 
ROOT
HETATM    1  C1  UNL     1     -32.651   6.321   2.993  1.00 20.00     0.064 C 
HETATM    2  C2  UNL     1     -32.206   7.668   3.375  1.00 20.00     0.194 C 
HETATM    3  N4  UNL     1     -33.000   5.257   2.690  1.00 20.00    -0.197 NA
ENDROOT
BRANCH   2   4
HETATM    4  C3  UNL     1     -32.718   8.053   4.750  1.00 20.00     0.366 C 
HETATM    5  F5  UNL     1     -34.071   8.134   4.742  1.00 20.00    -0.213 F 
HETATM    6  F6  UNL     1     -32.246   9.273   5.104  1.00 20.00    -0.213 F 
ENDBRANCH   2   4
TORSDOF 1
ENDMDL
