MODEL 1
REMARK VINA RESULT:      -3.7      0.000      0.000
REMARK  1 active torsions:
REMARK  status: ('A' for Active; 'I' for Inactive)
REMARK    1  A    between atoms: C3_3  and  C6_6 
ROOT
HETATM    1  C1  UNL     1     -33.852  14.741  -5.137  1.00 20.00     0.019 A 
HETATM    2  C2  UNL     1     -33.408  15.158  -3.848  1.00 20.00     0.028 A 
HETATM    3  C3  UNL     1     -34.470  15.761  -5.826  1.00 20.00     0.015 A 
HETATM    4  C4  UNL     1     -33.704  16.481  -3.603  1.00 20.00     0.051 A 
HETATM    5  S8  UNL     1     -34.513  17.214  -4.922  1.00 20.00    -0.085 SA
HETATM    6 BR9  UNL     1     -33.268  17.400  -1.998  1.00 20.00    -0.043 Br
ENDROOT
BRANCH   3   7
HETATM    7  C6  UNL     1     -35.050  15.620  -7.237  1.00 20.00     0.185 A 
HETATM    8  C5  UNL     1     -36.518  15.929  -7.450  1.00 20.00     0.206 A 
HETATM    9  O7  UNL     1     -36.011  14.598  -7.583  1.00 20.00    -0.376 OA
ENDBRANCH   3   7
TORSDOF 1
ENDMDL
MODEL 2
REMARK VINA RESULT:      -3.5      1.494      1.787
REMARK  1 active torsions:
REMARK  status: ('A' for Active; 'I' for Inactive)
REMARK    1  A    between atoms: C3_3  and  C6_6 
ROOT
HETATM    1  C1  UNL     1     -33.408  15.938  -3.749  1.00 20.00     0.019 A 
HETATM    2  C2  UNL     1     -33.334  16.601  -2.490  1.00 20.00     0.028 A 
HETATM    3  C3  UNL     1     -34.248  16.588  -4.627  1.00 20.00     0.015 A 
HETATM    4  C4  UNL     1     -34.119  17.732  -2.454  1.00 20.00     0.051 A 
HETATM    5  S8  UNL     1     -34.942  17.991  -3.933  1.00 20.00    -0.085 SA
HETATM    6 BR9  UNL     1     -34.279  18.882  -0.950  1.00 20.00    -0.043 Br
ENDROOT
BRANCH   3   7
HETATM    7  C6  UNL     1     -34.531  16.118  -6.057  1.00 20.00     0.185 A 
HETATM    8  C5  UNL     1     -35.510  14.981  -6.265  1.00 20.00     0.206 A 
HETATM    9  O7  UNL     1     -34.117  14.823  -6.545  1.00 20.00    -0.376 OA
ENDBRANCH   3   7
TORSDOF 1
ENDMDL
MODEL 3
REMARK VINA RESULT:      -3.5     18.230     19.095
REMARK  1 active torsions:
REMARK  status: ('A' for Active; 'I' for Inactive)
REMARK    1  A    between atoms: C3_3  and  C6_6 
ROOT
HETATM    1  C1  UNL     1     -24.871  19.193   9.335  1.00 20.00     0.019 A 
HETATM    2  C2  UNL     1     -23.954  19.074   8.251  1.00 20.00     0.028 A 
HETATM    3  C3  UNL     1     -24.346  18.706  10.513  1.00 20.00     0.015 A 
HETATM    4  C4  UNL     1     -22.763  18.501   8.641  1.00 20.00     0.051 A 
HETATM    5  S8  UNL     1     -22.754  18.110  10.308  1.00 20.00    -0.085 SA
HETATM    6 BR9  UNL     1     -21.293  18.181   7.481  1.00 20.00    -0.043 Br
ENDROOT
BRANCH   3   7
HETATM    7  C6  UNL     1     -25.091  18.699  11.850  1.00 20.00     0.185 A 
HETATM    8  C5  UNL     1     -25.879  17.464  12.233  1.00 20.00     0.206 A 
HETATM    9  O7  UNL     1     -26.533  18.700  11.936  1.00 20.00    -0.376 OA
ENDBRANCH   3   7
TORSDOF 1
ENDMDL
MODEL 4
REMARK VINA RESULT:      -3.3      3.350      4.562
REMARK  1 active torsions:
REMARK  status: ('A' for Active; 'I' for Inactive)
REMARK    1  A    between atoms: C3_3  and  C6_6 
ROOT
HETATM    1  C1  UNL     1     -33.287  15.370  -3.821  1.00 20.00     0.019 A 
HETATM    2  C2  UNL     1     -33.964  14.846  -4.959  1.00 20.00     0.028 A 
HETATM    3  C3  UNL     1     -33.594  16.695  -3.600  1.00 20.00     0.015 A 
HETATM    4  C4  UNL     1     -34.764  15.790  -5.565  1.00 20.00     0.051 A 
HETATM    5  S8  UNL     1     -34.695  17.301  -4.763  1.00 20.00    -0.085 SA
HETATM    6 BR9  UNL     1     -35.826  15.468  -7.107  1.00 20.00    -0.043 Br
ENDROOT
BRANCH   3   7
HETATM    7  C6  UNL     1     -33.024  17.532  -2.452  1.00 20.00     0.185 A 
HETATM    8  C5  UNL     1     -33.780  17.572  -1.140  1.00 20.00     0.206 A 
HETATM    9  O7  UNL     1     -33.669  18.731  -1.969  1.00 20.00    -0.376 OA
ENDBRANCH   3   7
TORSDOF 1
ENDMDL
MODEL 5
REMARK VINA RESULT:      -3.2      4.418      5.610
REMARK  1 active torsions:
REMARK  status: ('A' for Active; 'I' for Inactive)
REMARK    1  A    between atoms: C3_3  and  C6_6 
ROOT
HETATM    1  C1  UNL     1     -33.971  18.167   0.127  1.00 20.00     0.019 A 
HETATM    2  C2  UNL     1     -33.165  18.540   1.242  1.00 20.00     0.028 A 
HETATM    3  C3  UNL     1     -33.244  18.114  -1.042  1.00 20.00     0.015 A 
HETATM    4  C4  UNL     1     -31.853  18.756   0.883  1.00 20.00     0.051 A 
HETATM    5  S8  UNL     1     -31.597  18.512  -0.793  1.00 20.00    -0.085 SA
HETATM    6 BR9  UNL     1     -30.477  19.263   2.090  1.00 20.00    -0.043 Br
ENDROOT
BRANCH   3   7
HETATM    7  C6  UNL     1     -33.832  17.742  -2.406  1.00 20.00     0.185 A 
HETATM    8  C5  UNL     1     -33.478  16.395  -3.003  1.00 20.00     0.206 A 
HETATM    9  O7  UNL     1     -33.020  17.614  -3.593  1.00 20.00    -0.376 OA
ENDBRANCH   3   7
TORSDOF 1
ENDMDL
MODEL 6
REMARK VINA RESULT:      -3.2     11.394     12.417
REMARK  1 active torsions:
REMARK  status: ('A' for Active; 'I' for Inactive)
REMARK    1  A    between atoms: C3_3  and  C6_6 
ROOT
HETATM    1  C1  UNL     1     -32.628   8.622   4.433  1.00 20.00     0.019 A 
HETATM    2  C2  UNL     1     -33.300   7.883   5.449  1.00 20.00     0.028 A 
HETATM    3  C3  UNL     1     -32.555   7.924   3.247  1.00 20.00     0.015 A 
HETATM    4  C4  UNL     1     -33.715   6.648   5.001  1.00 20.00     0.051 A 
HETATM    5  S8  UNL     1     -33.295   6.385   3.362  1.00 20.00    -0.085 SA
HETATM    6 BR9  UNL     1     -34.649   5.378   6.061  1.00 20.00    -0.043 Br
ENDROOT
BRANCH   3   7
HETATM    7  C6  UNL     1     -31.894   8.458   1.973  1.00 20.00     0.185 A 
HETATM    8  C5  UNL     1     -32.707   9.344   1.053  1.00 20.00     0.206 A 
HETATM    9  O7  UNL     1     -32.297   8.034   0.653  1.00 20.00    -0.376 OA
ENDBRANCH   3   7
TORSDOF 1
ENDMDL
MODEL 7
REMARK VINA RESULT:      -3.0     12.669     13.433
REMARK  1 active torsions:
REMARK  status: ('A' for Active; 'I' for Inactive)
REMARK    1  A    between atoms: C3_3  and  C6_6 
ROOT
HETATM    1  C1  UNL     1     -41.566  13.672   5.023  1.00 20.00     0.019 A 
HETATM    2  C2  UNL     1     -42.205  14.857   5.490  1.00 20.00     0.028 A 
HETATM    3  C3  UNL     1     -40.717  13.136   5.967  1.00 20.00     0.015 A 
HETATM    4  C4  UNL     1     -41.820  15.181   6.773  1.00 20.00     0.051 A 
HETATM    5  S8  UNL     1     -40.693  14.059   7.408  1.00 20.00    -0.085 SA
HETATM    6 BR9  UNL     1     -42.458  16.687   7.738  1.00 20.00    -0.043 Br
ENDROOT
BRANCH   3   7
HETATM    7  C6  UNL     1     -39.891  11.863   5.758  1.00 20.00     0.185 A 
HETATM    8  C5  UNL     1     -38.448  12.001   5.317  1.00 20.00     0.206 A 
HETATM    9  O7  UNL     1     -39.439  11.435   4.455  1.00 20.00    -0.376 OA
ENDBRANCH   3   7
TORSDOF 1
ENDMDL
MODEL 8
REMARK VINA RESULT:      -3.0     25.171     25.854
REMARK  1 active torsions:
REMARK  status: ('A' for Active; 'I' for Inactive)
REMARK    1  A    between atoms: C3_3  and  C6_6 
ROOT
HETATM    1  C1  UNL     1     -25.584  -0.991  12.234  1.00 20.00     0.019 A 
HETATM    2  C2  UNL     1     -24.334  -1.612  11.949  1.00 20.00     0.028 A 
HETATM    3  C3  UNL     1     -26.594  -1.468  11.427  1.00 20.00     0.015 A 
HETATM    4  C4  UNL     1     -24.436  -2.539  10.934  1.00 20.00     0.051 A 
HETATM    5  S8  UNL     1     -26.034  -2.658  10.331  1.00 20.00    -0.085 SA
HETATM    6 BR9  UNL     1     -22.986  -3.573  10.275  1.00 20.00    -0.043 Br
ENDROOT
BRANCH   3   7
HETATM    7  C6  UNL     1     -28.049  -0.995  11.498  1.00 20.00     0.185 A 
HETATM    8  C5  UNL     1     -29.091  -1.941  12.060  1.00 20.00     0.206 A 
HETATM    9  O7  UNL     1     -29.093  -1.567  10.680  1.00 20.00    -0.376 OA
ENDBRANCH   3   7
TORSDOF 1
ENDMDL
MODEL 9
REMARK VINA RESULT:      -3.0     12.346     13.544
REMARK  1 active torsions:
REMARK  status: ('A' for Active; 'I' for Inactive)
REMARK    1  A    between atoms: C3_3  and  C6_6 
ROOT
HETATM    1  C1  UNL     1     -32.902   8.580   4.966  1.00 20.00     0.019 A 
HETATM    2  C2  UNL     1     -32.527   9.079   3.685  1.00 20.00     0.028 A 
HETATM    3  C3  UNL     1     -33.136   7.223   4.945  1.00 20.00     0.015 A 
HETATM    4  C4  UNL     1     -32.489   8.083   2.733  1.00 20.00     0.051 A 
HETATM    5  S8  UNL     1     -32.903   6.555   3.386  1.00 20.00    -0.085 SA
HETATM    6 BR9  UNL     1     -32.028   8.356   0.911  1.00 20.00    -0.043 Br
ENDROOT
BRANCH   3   7
HETATM    7  C6  UNL     1     -33.552   6.401   6.168  1.00 20.00     0.185 A 
HETATM    8  C5  UNL     1     -34.728   5.455   6.039  1.00 20.00     0.206 A 
HETATM    9  O7  UNL     1     -34.798   6.620   6.864  1.00 20.00    -0.376 OA
ENDBRANCH   3   7
TORSDOF 1
ENDMDL
