MODEL 1
REMARK VINA RESULT:      -4.2      0.000      0.000
REMARK  2 active torsions:
REMARK  status: ('A' for Active; 'I' for Inactive)
REMARK    1  A    between atoms: C7_7  and  C10_10 
REMARK    2  A    between atoms: C8_8  and  C9_9 
ROOT
HETATM    1  C1  UNL     1     -33.392  16.548  -2.574  1.00 20.00    -0.019 A 
HETATM    2  C3  UNL     1     -32.974  17.785  -2.278  1.00 20.00    -0.087 A 
HETATM    3  C5  UNL     1     -33.308  18.786  -3.345  1.00 20.00     0.039 A 
HETATM    4  C8  UNL     1     -34.086  16.488  -3.893  1.00 20.00     0.021 A 
HETATM    5  C10 UNL     1     -34.016  17.959  -4.422  1.00 20.00     0.005 A 
HETATM    6  C11 UNL     1     -32.249  18.201  -1.049  1.00 20.00     0.043 C 
ENDROOT
BRANCH   4   7
HETATM    7  C9  UNL     1     -33.411  15.678  -5.034  1.00 20.00     0.022 C 
HETATM    8  C4  UNL     1     -34.371  15.497  -6.193  1.00 20.00    -0.082 C 
HETATM    9  C2  UNL     1     -35.348  14.676  -5.779  1.00 20.00    -0.019 C 
HETATM   10  C12 UNL     1     -34.207  16.175  -7.498  1.00 20.00     0.043 C 
HETATM   11  C7  UNL     1     -35.044  14.301  -4.347  1.00 20.00     0.014 C 
HETATM   12  C6  UNL     1     -33.510  14.259  -4.451  1.00 20.00     0.018 C 
ENDBRANCH   4   7
TORSDOF 2
ENDMDL
MODEL 2
REMARK VINA RESULT:      -4.1     12.239     13.805
REMARK  2 active torsions:
REMARK  status: ('A' for Active; 'I' for Inactive)
REMARK    1  A    between atoms: C7_7  and  C10_10 
REMARK    2  A    between atoms: C8_8  and  C9_9 
ROOT
HETATM    1  C1  UNL     1     -40.582  12.646   5.003  1.00 20.00    -0.019 A 
HETATM    2  C3  UNL     1     -39.384  12.123   4.716  1.00 20.00    -0.087 A 
HETATM    3  C5  UNL     1     -38.499  11.991   5.921  1.00 20.00     0.039 A 
HETATM    4  C8  UNL     1     -40.728  12.960   6.453  1.00 20.00     0.021 A 
HETATM    5  C10 UNL     1     -39.348  12.552   7.067  1.00 20.00     0.005 A 
HETATM    6  C11 UNL     1     -38.904  11.698   3.375  1.00 20.00     0.043 C 
ENDROOT
BRANCH   4   7
HETATM    7  C9  UNL     1     -40.861  14.451   6.865  1.00 20.00     0.022 C 
HETATM    8  C4  UNL     1     -41.144  14.567   8.350  1.00 20.00    -0.082 C 
HETATM    9  C2  UNL     1     -42.379  14.085   8.561  1.00 20.00    -0.019 C 
HETATM   10  C12 UNL     1     -40.164  15.090   9.326  1.00 20.00     0.043 C 
HETATM   11  C7  UNL     1     -42.927  13.652   7.221  1.00 20.00     0.014 C 
HETATM   12  C6  UNL     1     -42.282  14.745   6.353  1.00 20.00     0.018 C 
ENDBRANCH   4   7
TORSDOF 2
ENDMDL
MODEL 3
REMARK VINA RESULT:      -4.1     11.636     13.269
REMARK  2 active torsions:
REMARK  status: ('A' for Active; 'I' for Inactive)
REMARK    1  A    between atoms: C7_7  and  C10_10 
REMARK    2  A    between atoms: C8_8  and  C9_9 
ROOT
HETATM    1  C1  UNL     1     -33.012   6.753   2.568  1.00 20.00    -0.019 A 
HETATM    2  C3  UNL     1     -32.379   7.857   2.152  1.00 20.00    -0.087 A 
HETATM    3  C5  UNL     1     -31.916   8.728   3.283  1.00 20.00     0.039 A 
HETATM    4  C8  UNL     1     -33.091   6.676   4.055  1.00 20.00     0.021 A 
HETATM    5  C10 UNL     1     -32.389   7.989   4.538  1.00 20.00     0.005 A 
HETATM    6  C11 UNL     1     -32.125   8.250   0.741  1.00 20.00     0.043 C 
ENDROOT
BRANCH   4   7
HETATM    7  C9  UNL     1     -34.493   6.771   4.716  1.00 20.00     0.022 C 
HETATM    8  C4  UNL     1     -34.431   6.312   6.159  1.00 20.00    -0.082 C 
HETATM    9  C2  UNL     1     -34.193   4.991   6.148  1.00 20.00    -0.019 C 
HETATM   10  C12 UNL     1     -34.575   7.228   7.311  1.00 20.00     0.043 C 
HETATM   11  C7  UNL     1     -34.101   4.562   4.702  1.00 20.00     0.014 C 
HETATM   12  C6  UNL     1     -35.157   5.518   4.121  1.00 20.00     0.018 C 
ENDBRANCH   4   7
TORSDOF 2
ENDMDL
MODEL 4
REMARK VINA RESULT:      -4.0      2.529      4.184
REMARK  2 active torsions:
REMARK  status: ('A' for Active; 'I' for Inactive)
REMARK    1  A    between atoms: C7_7  and  C10_10 
REMARK    2  A    between atoms: C8_8  and  C9_9 
ROOT
HETATM    1  C1  UNL     1     -31.738  18.457  -0.852  1.00 20.00    -0.019 A 
HETATM    2  C3  UNL     1     -31.709  18.642   0.474  1.00 20.00    -0.087 A 
HETATM    3  C5  UNL     1     -33.057  18.496   1.116  1.00 20.00     0.039 A 
HETATM    4  C8  UNL     1     -33.110  18.151  -1.348  1.00 20.00     0.021 A 
HETATM    5  C10 UNL     1     -33.995  18.196  -0.058  1.00 20.00     0.005 A 
HETATM    6  C11 UNL     1     -30.511  18.963   1.294  1.00 20.00     0.043 C 
ENDROOT
BRANCH   4   7
HETATM    7  C9  UNL     1     -33.798  19.190  -2.275  1.00 20.00     0.022 C 
HETATM    8  C4  UNL     1     -35.083  18.622  -2.843  1.00 20.00    -0.082 C 
HETATM    9  C2  UNL     1     -34.746  17.639  -3.692  1.00 20.00    -0.019 C 
HETATM   10  C12 UNL     1     -36.427  19.097  -2.448  1.00 20.00     0.043 C 
HETATM   11  C7  UNL     1     -33.237  17.549  -3.699  1.00 20.00     0.014 C 
HETATM   12  C6  UNL     1     -32.926  19.045  -3.533  1.00 20.00     0.018 C 
ENDBRANCH   4   7
TORSDOF 2
ENDMDL
MODEL 5
REMARK VINA RESULT:      -3.8      1.181      4.783
REMARK  2 active torsions:
REMARK  status: ('A' for Active; 'I' for Inactive)
REMARK    1  A    between atoms: C7_7  and  C10_10 
REMARK    2  A    between atoms: C8_8  and  C9_9 
ROOT
HETATM    1  C1  UNL     1     -34.725  16.703  -4.875  1.00 20.00    -0.019 A 
HETATM    2  C3  UNL     1     -34.181  15.625  -5.454  1.00 20.00    -0.087 A 
HETATM    3  C5  UNL     1     -33.225  14.897  -4.554  1.00 20.00     0.039 A 
HETATM    4  C8  UNL     1     -34.238  16.900  -3.480  1.00 20.00     0.021 A 
HETATM    5  C10 UNL     1     -33.229  15.724  -3.264  1.00 20.00     0.005 A 
HETATM    6  C11 UNL     1     -34.442  15.138  -6.834  1.00 20.00     0.043 C 
ENDROOT
BRANCH   4   7
HETATM    7  C9  UNL     1     -33.375  18.155  -3.180  1.00 20.00     0.022 C 
HETATM    8  C4  UNL     1     -33.248  18.365  -1.684  1.00 20.00    -0.082 C 
HETATM    9  C2  UNL     1     -34.459  18.716  -1.225  1.00 20.00    -0.019 C 
HETATM   10  C12 UNL     1     -31.988  18.158  -0.938  1.00 20.00     0.043 C 
HETATM   11  C7  UNL     1     -35.397  18.749  -2.410  1.00 20.00     0.014 C 
HETATM   12  C6  UNL     1     -34.403  19.263  -3.465  1.00 20.00     0.018 C 
ENDBRANCH   4   7
TORSDOF 2
ENDMDL
MODEL 6
REMARK VINA RESULT:      -3.7     13.456     14.577
REMARK  2 active torsions:
REMARK  status: ('A' for Active; 'I' for Inactive)
REMARK    1  A    between atoms: C7_7  and  C10_10 
REMARK    2  A    between atoms: C8_8  and  C9_9 
ROOT
HETATM    1  C1  UNL     1     -42.589  14.874   8.867  1.00 20.00    -0.019 A 
HETATM    2  C3  UNL     1     -41.901  15.008  10.008  1.00 20.00    -0.087 A 
HETATM    3  C5  UNL     1     -40.437  14.718   9.848  1.00 20.00     0.039 A 
HETATM    4  C8  UNL     1     -41.716  14.471   7.728  1.00 20.00     0.021 A 
HETATM    5  C10 UNL     1     -40.294  14.343   8.369  1.00 20.00     0.005 A 
HETATM    6  C11 UNL     1     -42.455  15.396  11.332  1.00 20.00     0.043 C 
ENDROOT
BRANCH   4   7
HETATM    7  C9  UNL     1     -41.939  13.068   7.100  1.00 20.00     0.022 C 
HETATM    8  C4  UNL     1     -41.021  12.869   5.910  1.00 20.00    -0.082 C 
HETATM    9  C2  UNL     1     -41.435  13.701   4.942  1.00 20.00    -0.019 C 
HETATM   10  C12 UNL     1     -39.874  11.935   5.915  1.00 20.00     0.043 C 
HETATM   11  C7  UNL     1     -42.632  14.453   5.477  1.00 20.00     0.014 C 
HETATM   12  C6  UNL     1     -43.242  13.325   6.325  1.00 20.00     0.018 C 
ENDBRANCH   4   7
TORSDOF 2
ENDMDL
MODEL 7
REMARK VINA RESULT:      -3.7      1.411      2.733
REMARK  2 active torsions:
REMARK  status: ('A' for Active; 'I' for Inactive)
REMARK    1  A    between atoms: C7_7  and  C10_10 
REMARK    2  A    between atoms: C8_8  and  C9_9 
ROOT
HETATM    1  C1  UNL     1     -34.425  18.447  -3.102  1.00 20.00    -0.019 A 
HETATM    2  C3  UNL     1     -33.954  17.821  -2.016  1.00 20.00    -0.087 A 
HETATM    3  C5  UNL     1     -33.414  16.454  -2.317  1.00 20.00     0.039 A 
HETATM    4  C8  UNL     1     -34.288  17.619  -4.334  1.00 20.00     0.021 A 
HETATM    5  C10 UNL     1     -33.642  16.289  -3.823  1.00 20.00     0.005 A 
HETATM    6  C11 UNL     1     -33.935  18.355  -0.628  1.00 20.00     0.043 C 
ENDROOT
BRANCH   4   7
HETATM    7  C9  UNL     1     -35.587  17.127  -5.028  1.00 20.00     0.022 C 
HETATM    8  C4  UNL     1     -35.252  16.302  -6.254  1.00 20.00    -0.082 C 
HETATM    9  C2  UNL     1     -34.722  17.134  -7.164  1.00 20.00    -0.019 C 
HETATM   10  C12 UNL     1     -35.464  14.840  -6.335  1.00 20.00     0.043 C 
HETATM   11  C7  UNL     1     -34.707  18.517  -6.553  1.00 20.00     0.014 C 
HETATM   12  C6  UNL     1     -36.013  18.417  -5.748  1.00 20.00     0.018 C 
ENDBRANCH   4   7
TORSDOF 2
ENDMDL
MODEL 8
REMARK VINA RESULT:      -3.6      2.341      4.217
REMARK  2 active torsions:
REMARK  status: ('A' for Active; 'I' for Inactive)
REMARK    1  A    between atoms: C7_7  and  C10_10 
REMARK    2  A    between atoms: C8_8  and  C9_9 
ROOT
HETATM    1  C1  UNL     1     -33.173  19.102   0.403  1.00 20.00    -0.019 A 
HETATM    2  C3  UNL     1     -32.052  18.860   1.094  1.00 20.00    -0.087 A 
HETATM    3  C5  UNL     1     -30.954  18.287   0.247  1.00 20.00     0.039 A 
HETATM    4  C8  UNL     1     -33.037  18.739  -1.037  1.00 20.00     0.021 A 
HETATM    5  C10 UNL     1     -31.580  18.177  -1.147  1.00 20.00     0.005 A 
HETATM    6  C11 UNL     1     -31.840  19.103   2.546  1.00 20.00     0.043 C 
ENDROOT
BRANCH   4   7
HETATM    7  C9  UNL     1     -33.900  17.566  -1.576  1.00 20.00     0.022 C 
HETATM    8  C4  UNL     1     -33.463  17.188  -2.978  1.00 20.00    -0.082 C 
HETATM    9  C2  UNL     1     -33.796  18.205  -3.788  1.00 20.00    -0.019 C 
HETATM   10  C12 UNL     1     -32.764  15.925  -3.299  1.00 20.00     0.043 C 
HETATM   11  C7  UNL     1     -34.460  19.261  -2.935  1.00 20.00     0.014 C 
HETATM   12  C6  UNL     1     -35.183  18.327  -1.950  1.00 20.00     0.018 C 
ENDBRANCH   4   7
TORSDOF 2
ENDMDL
MODEL 9
REMARK VINA RESULT:      -3.5     13.530     15.230
REMARK  2 active torsions:
REMARK  status: ('A' for Active; 'I' for Inactive)
REMARK    1  A    between atoms: C7_7  and  C10_10 
REMARK    2  A    between atoms: C8_8  and  C9_9 
ROOT
HETATM    1  C1  UNL     1     -40.085  13.716   6.865  1.00 20.00    -0.019 A 
HETATM    2  C3  UNL     1     -40.440  12.604   6.210  1.00 20.00    -0.087 A 
HETATM    3  C5  UNL     1     -41.883  12.243   6.408  1.00 20.00     0.039 A 
HETATM    4  C8  UNL     1     -41.223  14.311   7.622  1.00 20.00     0.021 A 
HETATM    5  C10 UNL     1     -42.412  13.332   7.345  1.00 20.00     0.005 A 
HETATM    6  C11 UNL     1     -39.557  11.760   5.362  1.00 20.00     0.043 C 
ENDROOT
BRANCH   4   7
HETATM    7  C9  UNL     1     -41.140  14.322   9.173  1.00 20.00     0.022 C 
HETATM    8  C4  UNL     1     -42.340  15.036   9.763  1.00 20.00    -0.082 C 
HETATM    9  C2  UNL     1     -42.227  16.336   9.446  1.00 20.00    -0.019 C 
HETATM   10  C12 UNL     1     -43.416  14.343  10.503  1.00 20.00     0.043 C 
HETATM   11  C7  UNL     1     -40.952  16.496   8.651  1.00 20.00     0.014 C 
HETATM   12  C6  UNL     1     -40.104  15.440   9.378  1.00 20.00     0.018 C 
ENDBRANCH   4   7
TORSDOF 2
ENDMDL
