MODEL 1
REMARK VINA RESULT:      -3.4      0.000      0.000
REMARK  2 active torsions:
REMARK  status: ('A' for Active; 'I' for Inactive)
REMARK    1  A    between atoms: C1_1  and  C4_4 
REMARK    2  A    between atoms: C4_4  and  N5_5 
ROOT
HETATM    1  C4  UNL     1     -34.296   6.614   4.227  1.00 20.00     0.367 C 
ENDROOT
BRANCH   1   2
HETATM    2  C1  UNL     1     -34.390   5.280   4.941  1.00 20.00     0.247 C 
HETATM    3  O6  UNL     1     -34.232   4.200   4.382  1.00 20.00    -0.278 OA
HETATM    4 CL7  UNL     1     -34.743   5.495   6.635  1.00 20.00    -0.042 Cl
ENDBRANCH   1   2
BRANCH   1   5
HETATM    5  N5  UNL     1     -32.943   7.149   4.383  1.00 20.00     0.088 N 
HETATM    6  C2  UNL     1     -32.979   8.436   5.075  1.00 20.00     0.310 C 
HETATM    7  C3  UNL     1     -32.296   7.287   3.079  1.00 20.00     0.310 C 
ENDBRANCH   1   5
TORSDOF 2
ENDMDL
MODEL 2
REMARK VINA RESULT:      -3.4      1.618      1.618
REMARK  2 active torsions:
REMARK  status: ('A' for Active; 'I' for Inactive)
REMARK    1  A    between atoms: C1_1  and  C4_4 
REMARK    2  A    between atoms: C4_4  and  N5_5 
ROOT
HETATM    1  C4  UNL     1     -34.098   7.420   4.567  1.00 20.00     0.367 C 
ENDROOT
BRANCH   1   2
HETATM    2  C1  UNL     1     -34.365   6.280   5.530  1.00 20.00     0.247 C 
HETATM    3  O6  UNL     1     -34.497   6.431   6.740  1.00 20.00    -0.278 OA
HETATM    4 CL7  UNL     1     -34.460   4.755   4.690  1.00 20.00    -0.042 Cl
ENDBRANCH   1   2
BRANCH   1   5
HETATM    5  N5  UNL     1     -32.654   7.612   4.439  1.00 20.00     0.088 N 
HETATM    6  C2  UNL     1     -32.283   8.972   4.828  1.00 20.00     0.310 C 
HETATM    7  C3  UNL     1     -32.221   7.336   3.071  1.00 20.00     0.310 C 
ENDBRANCH   1   5
TORSDOF 2
ENDMDL
MODEL 3
REMARK VINA RESULT:      -3.3      2.043      2.221
REMARK  2 active torsions:
REMARK  status: ('A' for Active; 'I' for Inactive)
REMARK    1  A    between atoms: C1_1  and  C4_4 
REMARK    2  A    between atoms: C4_4  and  N5_5 
ROOT
HETATM    1  C4  UNL     1     -34.453   6.353   4.373  1.00 20.00     0.367 C 
ENDROOT
BRANCH   1   2
HETATM    2  C1  UNL     1     -33.897   5.003   3.965  1.00 20.00     0.247 C 
HETATM    3  O6  UNL     1     -34.138   3.961   4.565  1.00 20.00    -0.278 OA
HETATM    4 CL7  UNL     1     -32.888   5.140   2.550  1.00 20.00    -0.042 Cl
ENDBRANCH   1   2
BRANCH   1   5
HETATM    5  N5  UNL     1     -33.565   6.959   5.365  1.00 20.00     0.088 N 
HETATM    6  C2  UNL     1     -34.218   7.007   6.673  1.00 20.00     0.310 C 
HETATM    7  C3  UNL     1     -33.168   8.301   4.943  1.00 20.00     0.310 C 
ENDBRANCH   1   5
TORSDOF 2
ENDMDL
MODEL 4
REMARK VINA RESULT:      -3.2      3.006      3.768
REMARK  2 active torsions:
REMARK  status: ('A' for Active; 'I' for Inactive)
REMARK    1  A    between atoms: C1_1  and  C4_4 
REMARK    2  A    between atoms: C4_4  and  N5_5 
ROOT
HETATM    1  C4  UNL     1     -34.094   7.830   4.664  1.00 20.00     0.367 C 
ENDROOT
BRANCH   1   2
HETATM    2  C1  UNL     1     -32.687   8.248   4.285  1.00 20.00     0.247 C 
HETATM    3  O6  UNL     1     -32.047   9.101   4.892  1.00 20.00    -0.278 OA
HETATM    4 CL7  UNL     1     -32.118   7.361   2.896  1.00 20.00    -0.042 Cl
ENDBRANCH   1   2
BRANCH   1   5
HETATM    5  N5  UNL     1     -34.066   6.461   5.178  1.00 20.00     0.088 N 
HETATM    6  C2  UNL     1     -35.070   5.640   4.502  1.00 20.00     0.310 C 
HETATM    7  C3  UNL     1     -34.290   6.454   6.623  1.00 20.00     0.310 C 
ENDBRANCH   1   5
TORSDOF 2
ENDMDL
MODEL 5
REMARK VINA RESULT:      -3.1      1.504      1.941
REMARK  2 active torsions:
REMARK  status: ('A' for Active; 'I' for Inactive)
REMARK    1  A    between atoms: C1_1  and  C4_4 
REMARK    2  A    between atoms: C4_4  and  N5_5 
ROOT
HETATM    1  C4  UNL     1     -33.748   6.820   5.313  1.00 20.00     0.367 C 
ENDROOT
BRANCH   1   2
HETATM    2  C1  UNL     1     -34.704   5.829   4.678  1.00 20.00     0.247 C 
HETATM    3  O6  UNL     1     -35.838   6.120   4.313  1.00 20.00    -0.278 OA
HETATM    4 CL7  UNL     1     -33.975   4.252   4.540  1.00 20.00    -0.042 Cl
ENDBRANCH   1   2
BRANCH   1   5
HETATM    5  N5  UNL     1     -33.279   7.757   4.293  1.00 20.00     0.088 N 
HETATM    6  C2  UNL     1     -32.495   7.056   3.277  1.00 20.00     0.310 C 
HETATM    7  C3  UNL     1     -32.487   8.823   4.905  1.00 20.00     0.310 C 
ENDBRANCH   1   5
TORSDOF 2
ENDMDL
MODEL 6
REMARK VINA RESULT:      -2.9      3.170      3.673
REMARK  2 active torsions:
REMARK  status: ('A' for Active; 'I' for Inactive)
REMARK    1  A    between atoms: C1_1  and  C4_4 
REMARK    2  A    between atoms: C4_4  and  N5_5 
ROOT
HETATM    1  C4  UNL     1     -33.035   6.608   4.164  1.00 20.00     0.367 C 
ENDROOT
BRANCH   1   2
HETATM    2  C1  UNL     1     -32.501   7.933   3.654  1.00 20.00     0.247 C 
HETATM    3  O6  UNL     1     -32.312   8.909   4.372  1.00 20.00    -0.278 OA
HETATM    4 CL7  UNL     1     -32.198   7.871   1.938  1.00 20.00    -0.042 Cl
ENDBRANCH   1   2
BRANCH   1   5
HETATM    5  N5  UNL     1     -34.275   6.842   4.903  1.00 20.00     0.088 N 
HETATM    6  C2  UNL     1     -34.015   6.860   6.343  1.00 20.00     0.310 C 
HETATM    7  C3  UNL     1     -35.266   5.819   4.575  1.00 20.00     0.310 C 
ENDBRANCH   1   5
TORSDOF 2
ENDMDL
MODEL 7
REMARK VINA RESULT:      -2.9      9.512      9.959
REMARK  2 active torsions:
REMARK  status: ('A' for Active; 'I' for Inactive)
REMARK    1  A    between atoms: C1_1  and  C4_4 
REMARK    2  A    between atoms: C4_4  and  N5_5 
ROOT
HETATM    1  C4  UNL     1     -40.853  12.941   5.541  1.00 20.00     0.367 C 
ENDROOT
BRANCH   1   2
HETATM    2  C1  UNL     1     -39.592  12.114   5.695  1.00 20.00     0.247 C 
HETATM    3  O6  UNL     1     -39.096  11.828   6.779  1.00 20.00    -0.278 OA
HETATM    4 CL7  UNL     1     -38.960  11.635   4.141  1.00 20.00    -0.042 Cl
ENDBRANCH   1   2
BRANCH   1   5
HETATM    5  N5  UNL     1     -41.447  13.161   6.859  1.00 20.00     0.088 N 
HETATM    6  C2  UNL     1     -42.686  12.396   6.996  1.00 20.00     0.310 C 
HETATM    7  C3  UNL     1     -41.699  14.585   7.074  1.00 20.00     0.310 C 
ENDBRANCH   1   5
TORSDOF 2
ENDMDL
MODEL 8
REMARK VINA RESULT:      -2.9     12.970     13.582
REMARK  2 active torsions:
REMARK  status: ('A' for Active; 'I' for Inactive)
REMARK    1  A    between atoms: C1_1  and  C4_4 
REMARK    2  A    between atoms: C4_4  and  N5_5 
ROOT
HETATM    1  C4  UNL     1     -32.553  18.761  -1.809  1.00 20.00     0.367 C 
ENDROOT
BRANCH   1   2
HETATM    2  C1  UNL     1     -31.772  18.625  -0.517  1.00 20.00     0.247 C 
HETATM    3  O6  UNL     1     -30.547  18.647  -0.460  1.00 20.00    -0.278 OA
HETATM    4 CL7  UNL     1     -32.840  18.438   0.849  1.00 20.00    -0.042 Cl
ENDBRANCH   1   2
BRANCH   1   5
HETATM    5  N5  UNL     1     -33.700  17.853  -1.775  1.00 20.00     0.088 N 
HETATM    6  C2  UNL     1     -33.392  16.614  -2.488  1.00 20.00     0.310 C 
HETATM    7  C3  UNL     1     -34.878  18.497  -2.353  1.00 20.00     0.310 C 
ENDBRANCH   1   5
TORSDOF 2
ENDMDL
MODEL 9
REMARK VINA RESULT:      -2.9     12.979     13.345
REMARK  2 active torsions:
REMARK  status: ('A' for Active; 'I' for Inactive)
REMARK    1  A    between atoms: C1_1  and  C4_4 
REMARK    2  A    between atoms: C4_4  and  N5_5 
ROOT
HETATM    1  C4  UNL     1     -30.598  18.044   1.835  1.00 20.00     0.367 C 
ENDROOT
BRANCH   1   2
HETATM    2  C1  UNL     1     -31.277  18.531   0.570  1.00 20.00     0.247 C 
HETATM    3  O6  UNL     1     -30.668  18.888  -0.432  1.00 20.00    -0.278 OA
HETATM    4 CL7  UNL     1     -33.012  18.507   0.738  1.00 20.00    -0.042 Cl
ENDBRANCH   1   2
BRANCH   1   5
HETATM    5  N5  UNL     1     -30.304  19.191   2.694  1.00 20.00     0.088 N 
HETATM    6  C2  UNL     1     -28.939  19.105   3.212  1.00 20.00     0.310 C 
HETATM    7  C3  UNL     1     -31.264  19.263   3.795  1.00 20.00     0.310 C 
ENDBRANCH   1   5
TORSDOF 2
ENDMDL
