MODEL 1
REMARK VINA RESULT:      -4.2      0.000      0.000
REMARK  1 active torsions:
REMARK  status: ('A' for Active; 'I' for Inactive)
REMARK    1  A    between atoms: C7_7  and  C8_8 
ROOT
HETATM    1  C1  UNL     1     -42.115  14.208   4.406  1.00 20.00     0.066 C 
HETATM    2  C4  UNL     1     -42.541  14.411   6.838  1.00 20.00     0.048 C 
HETATM    3  C5  UNL     1     -41.782  13.896   8.038  1.00 20.00     0.169 C 
HETATM    4  C6  UNL     1     -41.963  13.572   5.718  1.00 20.00     0.124 C 
HETATM    5  C8  UNL     1     -40.499  13.432   6.143  1.00 20.00     0.143 C 
HETATM    6  N9  UNL     1     -42.236  14.711   3.368  1.00 20.00    -0.197 NA
HETATM    7  O10 UNL     1     -40.459  13.603   7.573  1.00 20.00    -0.384 OA
ENDROOT
BRANCH   5   8
HETATM    8  C7  UNL     1     -39.910  12.100   5.788  1.00 20.00     0.016 A 
HETATM    9  C2  UNL     1     -39.342  11.865   4.416  1.00 20.00     0.007 A 
HETATM   10  C3  UNL     1     -38.425  11.955   5.604  1.00 20.00     0.007 A 
ENDBRANCH   5   8
TORSDOF 1
ENDMDL
MODEL 2
REMARK VINA RESULT:      -4.2      9.926     10.764
REMARK  1 active torsions:
REMARK  status: ('A' for Active; 'I' for Inactive)
REMARK    1  A    between atoms: C7_7  and  C8_8 
ROOT
HETATM    1  C1  UNL     1     -32.878   5.465   2.702  1.00 20.00     0.066 C 
HETATM    2  C4  UNL     1     -32.170   7.837   2.762  1.00 20.00     0.048 C 
HETATM    3  C5  UNL     1     -32.341   8.911   3.810  1.00 20.00     0.169 C 
HETATM    4  C6  UNL     1     -33.190   6.808   3.200  1.00 20.00     0.124 C 
HETATM    5  C8  UNL     1     -33.114   6.907   4.725  1.00 20.00     0.143 C 
HETATM    6  N9  UNL     1     -32.632   4.401   2.308  1.00 20.00    -0.197 NA
HETATM    7  O10 UNL     1     -32.625   8.226   5.036  1.00 20.00    -0.384 OA
ENDROOT
BRANCH   5   8
HETATM    8  C7  UNL     1     -34.441   6.702   5.392  1.00 20.00     0.016 A 
HETATM    9  C2  UNL     1     -34.762   5.389   6.051  1.00 20.00     0.007 A 
HETATM   10  C3  UNL     1     -34.528   6.614   6.891  1.00 20.00     0.007 A 
ENDBRANCH   5   8
TORSDOF 1
ENDMDL
MODEL 3
REMARK VINA RESULT:      -4.0     10.005     10.866
REMARK  1 active torsions:
REMARK  status: ('A' for Active; 'I' for Inactive)
REMARK    1  A    between atoms: C7_7  and  C8_8 
ROOT
HETATM    1  C1  UNL     1     -34.631   5.545   5.789  1.00 20.00     0.066 C 
HETATM    2  C4  UNL     1     -33.914   4.629   3.603  1.00 20.00     0.048 C 
HETATM    3  C5  UNL     1     -33.075   5.217   2.492  1.00 20.00     0.169 C 
HETATM    4  C6  UNL     1     -34.285   5.861   4.400  1.00 20.00     0.124 C 
HETATM    5  C8  UNL     1     -33.021   6.714   4.283  1.00 20.00     0.143 C 
HETATM    6  N9  UNL     1     -34.904   5.295   6.889  1.00 20.00    -0.197 NA
HETATM    7  O10 UNL     1     -32.345   6.300   3.079  1.00 20.00    -0.384 OA
ENDROOT
BRANCH   5   8
HETATM    8  C7  UNL     1     -33.309   8.183   4.207  1.00 20.00     0.016 A 
HETATM    9  C2  UNL     1     -32.349   9.176   4.801  1.00 20.00     0.007 A 
HETATM   10  C3  UNL     1     -32.491   9.069   3.309  1.00 20.00     0.007 A 
ENDBRANCH   5   8
TORSDOF 1
ENDMDL
MODEL 4
REMARK VINA RESULT:      -4.0      9.601     10.771
REMARK  1 active torsions:
REMARK  status: ('A' for Active; 'I' for Inactive)
REMARK    1  A    between atoms: C7_7  and  C8_8 
ROOT
HETATM    1  C1  UNL     1     -32.473   8.583   3.710  1.00 20.00     0.066 C 
HETATM    2  C4  UNL     1     -32.408   6.517   2.345  1.00 20.00     0.048 C 
HETATM    3  C5  UNL     1     -32.956   5.131   2.591  1.00 20.00     0.169 C 
HETATM    4  C6  UNL     1     -32.439   7.117   3.735  1.00 20.00     0.124 C 
HETATM    5  C8  UNL     1     -33.712   6.504   4.322  1.00 20.00     0.143 C 
HETATM    6  N9  UNL     1     -32.500   9.743   3.691  1.00 20.00    -0.197 NA
HETATM    7  O10 UNL     1     -33.954   5.276   3.608  1.00 20.00    -0.384 OA
ENDROOT
BRANCH   5   8
HETATM    8  C7  UNL     1     -33.599   6.210   5.787  1.00 20.00     0.016 A 
HETATM    9  C2  UNL     1     -34.475   6.931   6.774  1.00 20.00     0.007 A 
HETATM   10  C3  UNL     1     -34.699   5.471   6.497  1.00 20.00     0.007 A 
ENDBRANCH   5   8
TORSDOF 1
ENDMDL
MODEL 5
REMARK VINA RESULT:      -3.9     10.505     11.483
REMARK  1 active torsions:
REMARK  status: ('A' for Active; 'I' for Inactive)
REMARK    1  A    between atoms: C7_7  and  C8_8 
ROOT
HETATM    1  C1  UNL     1     -34.540  18.774   1.080  1.00 20.00     0.066 C 
HETATM    2  C4  UNL     1     -32.067  18.916   1.050  1.00 20.00     0.048 C 
HETATM    3  C5  UNL     1     -31.055  18.605  -0.027  1.00 20.00     0.169 C 
HETATM    4  C6  UNL     1     -33.302  18.210   0.532  1.00 20.00     0.124 C 
HETATM    5  C8  UNL     1     -33.178  18.411  -0.980  1.00 20.00     0.143 C 
HETATM    6  N9  UNL     1     -35.519  19.220   1.513  1.00 20.00    -0.197 NA
HETATM    7  O10 UNL     1     -31.778  18.609  -1.263  1.00 20.00    -0.384 OA
ENDROOT
BRANCH   5   8
HETATM    8  C7  UNL     1     -33.680  17.241  -1.771  1.00 20.00     0.016 A 
HETATM    9  C2  UNL     1     -34.251  17.446  -3.146  1.00 20.00     0.007 A 
HETATM   10  C3  UNL     1     -32.923  16.763  -2.978  1.00 20.00     0.007 A 
ENDBRANCH   5   8
TORSDOF 1
ENDMDL
MODEL 6
REMARK VINA RESULT:      -3.9      9.659     10.477
REMARK  1 active torsions:
REMARK  status: ('A' for Active; 'I' for Inactive)
REMARK    1  A    between atoms: C7_7  and  C8_8 
ROOT
HETATM    1  C1  UNL     1     -32.944   8.315   5.044  1.00 20.00     0.066 C 
HETATM    2  C4  UNL     1     -34.367   6.956   6.546  1.00 20.00     0.048 C 
HETATM    3  C5  UNL     1     -34.885   5.541   6.433  1.00 20.00     0.169 C 
HETATM    4  C6  UNL     1     -33.947   7.250   5.122  1.00 20.00     0.124 C 
HETATM    5  C8  UNL     1     -33.410   5.894   4.658  1.00 20.00     0.143 C 
HETATM    6  N9  UNL     1     -32.149   9.159   4.982  1.00 20.00    -0.197 NA
HETATM    7  O10 UNL     1     -34.048   4.889   5.471  1.00 20.00    -0.384 OA
ENDROOT
BRANCH   5   8
HETATM    8  C7  UNL     1     -33.695   5.614   3.213  1.00 20.00     0.016 A 
HETATM    9  C2  UNL     1     -32.705   6.015   2.155  1.00 20.00     0.007 A 
HETATM   10  C3  UNL     1     -32.913   4.562   2.478  1.00 20.00     0.007 A 
ENDBRANCH   5   8
TORSDOF 1
ENDMDL
MODEL 7
REMARK VINA RESULT:      -3.9      9.155     10.809
REMARK  1 active torsions:
REMARK  status: ('A' for Active; 'I' for Inactive)
REMARK    1  A    between atoms: C7_7  and  C8_8 
ROOT
HETATM    1  C1  UNL     1     -32.277   7.488   2.115  1.00 20.00     0.066 C 
HETATM    2  C4  UNL     1     -32.996   5.149   2.494  1.00 20.00     0.048 C 
HETATM    3  C5  UNL     1     -33.709   4.490   3.652  1.00 20.00     0.169 C 
HETATM    4  C6  UNL     1     -32.520   6.444   3.116  1.00 20.00     0.124 C 
HETATM    5  C8  UNL     1     -33.670   6.789   4.064  1.00 20.00     0.143 C 
HETATM    6  N9  UNL     1     -32.084   8.314   1.324  1.00 20.00    -0.197 NA
HETATM    7  O10 UNL     1     -34.335   5.550   4.385  1.00 20.00    -0.384 OA
ENDROOT
BRANCH   5   8
HETATM    8  C7  UNL     1     -33.210   7.444   5.331  1.00 20.00     0.016 A 
HETATM    9  C2  UNL     1     -33.930   8.652   5.864  1.00 20.00     0.007 A 
HETATM   10  C3  UNL     1     -34.036   7.336   6.582  1.00 20.00     0.007 A 
ENDBRANCH   5   8
TORSDOF 1
ENDMDL
MODEL 8
REMARK VINA RESULT:      -3.8      2.237      2.841
REMARK  1 active torsions:
REMARK  status: ('A' for Active; 'I' for Inactive)
REMARK    1  A    between atoms: C7_7  and  C8_8 
ROOT
HETATM    1  C1  UNL     1     -42.154  13.683   7.754  1.00 20.00     0.066 C 
HETATM    2  C4  UNL     1     -42.795  15.101   5.827  1.00 20.00     0.048 C 
HETATM    3  C5  UNL     1     -42.326  15.119   4.392  1.00 20.00     0.169 C 
HETATM    4  C6  UNL     1     -41.702  14.301   6.504  1.00 20.00     0.124 C 
HETATM    5  C8  UNL     1     -41.344  13.272   5.430  1.00 20.00     0.143 C 
HETATM    6  N9  UNL     1     -42.512  13.194   8.744  1.00 20.00    -0.197 NA
HETATM    7  O10 UNL     1     -41.714  13.845   4.160  1.00 20.00    -0.384 OA
ENDROOT
BRANCH   5   8
HETATM    8  C7  UNL     1     -39.886  12.928   5.410  1.00 20.00     0.016 A 
HETATM    9  C2  UNL     1     -39.402  11.643   6.024  1.00 20.00     0.007 A 
HETATM   10  C3  UNL     1     -39.382  11.817   4.531  1.00 20.00     0.007 A 
ENDBRANCH   5   8
TORSDOF 1
ENDMDL
MODEL 9
REMARK VINA RESULT:      -3.8      2.064      2.359
REMARK  1 active torsions:
REMARK  status: ('A' for Active; 'I' for Inactive)
REMARK    1  A    between atoms: C7_7  and  C8_8 
ROOT
HETATM    1  C1  UNL     1     -40.934  15.487   7.321  1.00 20.00     0.066 C 
HETATM    2  C4  UNL     1     -42.933  14.024   7.295  1.00 20.00     0.048 C 
HETATM    3  C5  UNL     1     -43.130  12.599   6.837  1.00 20.00     0.169 C 
HETATM    4  C6  UNL     1     -41.618  14.385   6.636  1.00 20.00     0.124 C 
HETATM    5  C8  UNL     1     -40.845  13.067   6.715  1.00 20.00     0.143 C 
HETATM    6  N9  UNL     1     -40.392  16.358   7.863  1.00 20.00    -0.197 NA
HETATM    7  O10 UNL     1     -41.823  12.012   6.798  1.00 20.00    -0.384 OA
ENDROOT
BRANCH   5   8
HETATM    8  C7  UNL     1     -39.964  12.832   5.525  1.00 20.00     0.016 A 
HETATM    9  C2  UNL     1     -38.606  12.211   5.700  1.00 20.00     0.007 A 
HETATM   10  C3  UNL     1     -39.709  11.433   5.038  1.00 20.00     0.007 A 
ENDBRANCH   5   8
TORSDOF 1
ENDMDL
