MODEL 1
REMARK VINA RESULT:      -4.5      0.000      0.000
REMARK  0 active torsions:
REMARK  status: ('A' for Active; 'I' for Inactive)
ROOT
HETATM    1  C1  UNL     1     -33.856   7.352   4.844  1.00 20.00     0.092 C 
HETATM    2  C2  UNL     1     -33.049   5.801   2.690  1.00 20.00     0.023 C 
HETATM    3  C3  UNL     1     -33.539   5.033   3.905  1.00 20.00     0.016 C 
HETATM    4  C4  UNL     1     -32.221   6.987   3.153  1.00 20.00     0.148 C 
HETATM    5  C5  UNL     1     -34.398   5.933   4.804  1.00 20.00    -0.014 C 
HETATM    6  C6  UNL     1     -34.414   5.380   6.234  1.00 20.00     0.020 C 
HETATM    7  C7  UNL     1     -35.840   6.016   4.279  1.00 20.00     0.020 C 
HETATM    8  N8  UNL     1     -32.918   7.841   4.112  1.00 20.00    -0.305 NA
ENDROOT
TORSDOF 0
ENDMDL
MODEL 2
REMARK VINA RESULT:      -4.4      0.940      2.213
REMARK  0 active torsions:
REMARK  status: ('A' for Active; 'I' for Inactive)
ROOT
HETATM    1  C1  UNL     1     -33.552   5.616   3.609  1.00 20.00     0.092 C 
HETATM    2  C2  UNL     1     -32.659   7.972   4.770  1.00 20.00     0.023 C 
HETATM    3  C3  UNL     1     -34.141   7.680   4.932  1.00 20.00     0.016 C 
HETATM    4  C4  UNL     1     -32.227   7.579   3.369  1.00 20.00     0.148 C 
HETATM    5  C5  UNL     1     -34.426   6.188   4.712  1.00 20.00    -0.014 C 
HETATM    6  C6  UNL     1     -35.895   5.989   4.319  1.00 20.00     0.020 C 
HETATM    7  C7  UNL     1     -34.131   5.380   5.985  1.00 20.00     0.020 C 
HETATM    8  N8  UNL     1     -32.567   6.200   3.023  1.00 20.00    -0.305 NA
ENDROOT
TORSDOF 0
ENDMDL
MODEL 3
REMARK VINA RESULT:      -3.7     16.165     17.156
REMARK  0 active torsions:
REMARK  status: ('A' for Active; 'I' for Inactive)
ROOT
HETATM    1  C1  UNL     1     -22.881  18.026  12.216  1.00 20.00     0.092 C 
HETATM    2  C2  UNL     1     -23.307  18.982   9.646  1.00 20.00     0.023 C 
HETATM    3  C3  UNL     1     -24.213  17.843  10.082  1.00 20.00     0.016 C 
HETATM    4  C4  UNL     1     -21.902  18.724  10.161  1.00 20.00     0.148 C 
HETATM    5  C5  UNL     1     -24.244  17.731  11.612  1.00 20.00    -0.014 C 
HETATM    6  C6  UNL     1     -24.660  16.313  12.024  1.00 20.00     0.020 C 
HETATM    7  C7  UNL     1     -25.231  18.742  12.216  1.00 20.00     0.020 C 
HETATM    8  N8  UNL     1     -21.847  18.484  11.601  1.00 20.00    -0.305 NA
ENDROOT
TORSDOF 0
ENDMDL
MODEL 4
REMARK VINA RESULT:      -3.7      1.639      3.195
REMARK  0 active torsions:
REMARK  status: ('A' for Active; 'I' for Inactive)
ROOT
HETATM    1  C1  UNL     1     -33.776   6.242   3.828  1.00 20.00     0.092 C 
HETATM    2  C2  UNL     1     -34.594   6.218   6.479  1.00 20.00     0.023 C 
HETATM    3  C3  UNL     1     -33.443   7.154   6.155  1.00 20.00     0.016 C 
HETATM    4  C4  UNL     1     -34.415   4.924   5.705  1.00 20.00     0.148 C 
HETATM    5  C5  UNL     1     -33.401   7.462   4.652  1.00 20.00    -0.014 C 
HETATM    6  C6  UNL     1     -31.989   7.905   4.248  1.00 20.00     0.020 C 
HETATM    7  C7  UNL     1     -34.400   8.572   4.292  1.00 20.00     0.020 C 
HETATM    8  N8  UNL     1     -34.245   5.127   4.268  1.00 20.00    -0.305 NA
ENDROOT
TORSDOF 0
ENDMDL
MODEL 5
REMARK VINA RESULT:      -3.7     16.050     17.091
REMARK  0 active torsions:
REMARK  status: ('A' for Active; 'I' for Inactive)
ROOT
HETATM    1  C1  UNL     1     -24.605  18.461   9.938  1.00 20.00     0.092 C 
HETATM    2  C2  UNL     1     -21.882  18.393  10.468  1.00 20.00     0.023 C 
HETATM    3  C3  UNL     1     -22.786  18.502  11.684  1.00 20.00     0.016 C 
HETATM    4  C4  UNL     1     -22.440  19.263   9.356  1.00 20.00     0.148 C 
HETATM    5  C5  UNL     1     -24.210  18.042  11.343  1.00 20.00    -0.014 C 
HETATM    6  C6  UNL     1     -25.208  18.657  12.332  1.00 20.00     0.020 C 
HETATM    7  C7  UNL     1     -24.320  16.510  11.404  1.00 20.00     0.020 C 
HETATM    8  N8  UNL     1     -23.838  18.977   9.042  1.00 20.00    -0.305 NA
ENDROOT
TORSDOF 0
ENDMDL
MODEL 6
REMARK VINA RESULT:      -3.4     16.086     17.351
REMARK  0 active torsions:
REMARK  status: ('A' for Active; 'I' for Inactive)
ROOT
HETATM    1  C1  UNL     1     -23.584  17.030   9.932  1.00 20.00     0.092 C 
HETATM    2  C2  UNL     1     -23.003  18.554  12.177  1.00 20.00     0.023 C 
HETATM    3  C3  UNL     1     -21.904  18.477  11.133  1.00 20.00     0.016 C 
HETATM    4  C4  UNL     1     -23.661  17.191  12.306  1.00 20.00     0.148 C 
HETATM    5  C5  UNL     1     -22.477  18.057   9.772  1.00 20.00    -0.014 C 
HETATM    6  C6  UNL     1     -21.369  17.446   8.905  1.00 20.00     0.020 C 
HETATM    7  C7  UNL     1     -23.084  19.263   9.038  1.00 20.00     0.020 C 
HETATM    8  N8  UNL     1     -24.135  16.653  11.033  1.00 20.00    -0.305 NA
ENDROOT
TORSDOF 0
ENDMDL
MODEL 7
REMARK VINA RESULT:      -3.4      8.645      9.508
REMARK  0 active torsions:
REMARK  status: ('A' for Active; 'I' for Inactive)
ROOT
HETATM    1  C1  UNL     1     -42.979   6.216  -0.412  1.00 20.00     0.092 C 
HETATM    2  C2  UNL     1     -41.170   8.307  -0.177  1.00 20.00     0.023 C 
HETATM    3  C3  UNL     1     -40.985   7.164   0.806  1.00 20.00     0.016 C 
HETATM    4  C4  UNL     1     -42.655   8.574  -0.353  1.00 20.00     0.148 C 
HETATM    5  C5  UNL     1     -41.673   5.892   0.294  1.00 20.00    -0.014 C 
HETATM    6  C6  UNL     1     -41.977   4.953   1.468  1.00 20.00     0.020 C 
HETATM    7  C7  UNL     1     -40.784   5.158  -0.722  1.00 20.00     0.020 C 
HETATM    8  N8  UNL     1     -43.417   7.385  -0.726  1.00 20.00    -0.305 NA
ENDROOT
TORSDOF 0
ENDMDL
MODEL 8
REMARK VINA RESULT:      -3.3     12.300     13.309
REMARK  0 active torsions:
REMARK  status: ('A' for Active; 'I' for Inactive)
ROOT
HETATM    1  C1  UNL     1     -35.155  16.743  -5.116  1.00 20.00     0.092 C 
HETATM    2  C2  UNL     1     -32.989  15.814  -3.652  1.00 20.00     0.023 C 
HETATM    3  C3  UNL     1     -33.951  14.749  -4.150  1.00 20.00     0.016 C 
HETATM    4  C4  UNL     1     -33.783  17.023  -3.190  1.00 20.00     0.148 C 
HETATM    5  C5  UNL     1     -34.791  15.282  -5.318  1.00 20.00    -0.014 C 
HETATM    6  C6  UNL     1     -36.088  14.472  -5.441  1.00 20.00     0.020 C 
HETATM    7  C7  UNL     1     -34.013  15.191  -6.640  1.00 20.00     0.020 C 
HETATM    8  N8  UNL     1     -34.706  17.531  -4.203  1.00 20.00    -0.305 NA
ENDROOT
TORSDOF 0
ENDMDL
MODEL 9
REMARK VINA RESULT:      -3.2      8.265      9.719
REMARK  0 active torsions:
REMARK  status: ('A' for Active; 'I' for Inactive)
ROOT
HETATM    1  C1  UNL     1     -43.127   6.295  -0.481  1.00 20.00     0.092 C 
HETATM    2  C2  UNL     1     -40.565   6.298   0.584  1.00 20.00     0.023 C 
HETATM    3  C3  UNL     1     -41.267   7.644   0.557  1.00 20.00     0.016 C 
HETATM    4  C4  UNL     1     -40.876   5.550  -0.700  1.00 20.00     0.148 C 
HETATM    5  C5  UNL     1     -42.785   7.462   0.430  1.00 20.00    -0.014 C 
HETATM    6  C6  UNL     1     -43.417   8.732  -0.152  1.00 20.00     0.020 C 
HETATM    7  C7  UNL     1     -43.417   7.164   1.798  1.00 20.00     0.020 C 
HETATM    8  N8  UNL     1     -42.307   5.430  -0.969  1.00 20.00    -0.305 NA
ENDROOT
TORSDOF 0
ENDMDL
