MODEL 1
REMARK VINA RESULT:      -4.2      0.000      0.000
REMARK  3 active torsions:
REMARK  status: ('A' for Active; 'I' for Inactive)
REMARK    1  A    between atoms: C2_2  and  C8_8 
REMARK    2  A    between atoms: C6_6  and  C7_7 
REMARK    3  A    between atoms: C6_6  and  C8_8 
ROOT
HETATM    1  C1  UNL     1     -31.775  18.435  -0.694  1.00 20.00     0.063 C 
HETATM    2  C4  UNL     1     -34.003  18.039   0.256  1.00 20.00     0.025 C 
HETATM    3  C7  UNL     1     -33.192  18.202  -1.031  1.00 20.00     0.089 C 
HETATM    4  N9  UNL     1     -30.660  18.621  -0.431  1.00 20.00    -0.197 NA
ENDROOT
BRANCH   3   5
HETATM    5  C6  UNL     1     -33.358  16.955  -1.923  1.00 20.00     0.030 C 
BRANCH   5   6
HETATM    6  C8  UNL     1     -33.278  17.245  -3.434  1.00 20.00     0.052 C 
HETATM    7  C5  UNL     1     -33.884  18.611  -3.754  1.00 20.00     0.018 C 
BRANCH   6   8
HETATM    8  C2  UNL     1     -34.015  16.190  -4.253  1.00 20.00     0.127 C 
HETATM    9  C3  UNL     1     -33.423  14.803  -4.259  1.00 20.00     0.091 C 
HETATM   10  O10 UNL     1     -35.025  16.451  -4.906  1.00 20.00    -0.298 OA
ENDBRANCH   6   8
ENDBRANCH   5   6
ENDBRANCH   3   5
TORSDOF 3
ENDMDL
MODEL 2
REMARK VINA RESULT:      -3.9     12.022     12.988
REMARK  3 active torsions:
REMARK  status: ('A' for Active; 'I' for Inactive)
REMARK    1  A    between atoms: C2_2  and  C8_8 
REMARK    2  A    between atoms: C6_6  and  C7_7 
REMARK    3  A    between atoms: C6_6  and  C8_8 
ROOT
HETATM    1  C1  UNL     1     -32.298   8.142   4.091  1.00 20.00     0.063 C 
HETATM    2  C4  UNL     1     -32.125   8.042   1.644  1.00 20.00     0.025 C 
HETATM    3  C7  UNL     1     -32.154   7.229   2.941  1.00 20.00     0.089 C 
HETATM    4  N9  UNL     1     -32.408   8.859   4.996  1.00 20.00    -0.197 NA
ENDROOT
BRANCH   3   5
HETATM    5  C6  UNL     1     -33.302   6.201   2.895  1.00 20.00     0.030 C 
BRANCH   5   6
HETATM    6  C8  UNL     1     -33.516   5.437   4.216  1.00 20.00     0.052 C 
HETATM    7  C5  UNL     1     -33.664   3.939   3.957  1.00 20.00     0.018 C 
BRANCH   6   8
HETATM    8  C2  UNL     1     -34.761   5.921   4.954  1.00 20.00     0.127 C 
HETATM    9  C3  UNL     1     -34.598   6.244   6.417  1.00 20.00     0.091 C 
HETATM   10  O10 UNL     1     -35.857   6.016   4.402  1.00 20.00    -0.298 OA
ENDBRANCH   6   8
ENDBRANCH   5   6
ENDBRANCH   3   5
TORSDOF 3
ENDMDL
MODEL 3
REMARK VINA RESULT:      -3.8      3.072      4.743
REMARK  3 active torsions:
REMARK  status: ('A' for Active; 'I' for Inactive)
REMARK    1  A    between atoms: C2_2  and  C8_8 
REMARK    2  A    between atoms: C6_6  and  C7_7 
REMARK    3  A    between atoms: C6_6  and  C8_8 
ROOT
HETATM    1  C1  UNL     1     -34.735  18.098  -3.676  1.00 20.00     0.063 C 
HETATM    2  C4  UNL     1     -33.286  16.313  -2.818  1.00 20.00     0.025 C 
HETATM    3  C7  UNL     1     -33.349  17.766  -3.292  1.00 20.00     0.089 C 
HETATM    4  N9  UNL     1     -35.824  18.360  -3.980  1.00 20.00    -0.197 NA
ENDROOT
BRANCH   3   5
HETATM    5  C6  UNL     1     -32.833  18.707  -2.186  1.00 20.00     0.030 C 
BRANCH   5   6
HETATM    6  C8  UNL     1     -32.862  18.093  -0.772  1.00 20.00     0.052 C 
HETATM    7  C5  UNL     1     -34.087  18.577   0.002  1.00 20.00     0.018 C 
BRANCH   6   8
HETATM    8  C2  UNL     1     -31.615  18.457   0.028  1.00 20.00     0.127 C 
HETATM    9  C3  UNL     1     -31.782  18.580   1.521  1.00 20.00     0.091 C 
HETATM   10  O10 UNL     1     -30.529  18.673  -0.509  1.00 20.00    -0.298 OA
ENDBRANCH   6   8
ENDBRANCH   5   6
ENDBRANCH   3   5
TORSDOF 3
ENDMDL
MODEL 4
REMARK VINA RESULT:      -3.8     12.013     12.730
REMARK  3 active torsions:
REMARK  status: ('A' for Active; 'I' for Inactive)
REMARK    1  A    between atoms: C2_2  and  C8_8 
REMARK    2  A    between atoms: C6_6  and  C7_7 
REMARK    3  A    between atoms: C6_6  and  C8_8 
ROOT
HETATM    1  C1  UNL     1     -32.505   8.358   2.788  1.00 20.00     0.063 C 
HETATM    2  C4  UNL     1     -32.065   9.515   4.907  1.00 20.00     0.025 C 
HETATM    3  C7  UNL     1     -32.956   8.503   4.185  1.00 20.00     0.089 C 
HETATM    4  N9  UNL     1     -32.152   8.245   1.688  1.00 20.00    -0.197 NA
ENDROOT
BRANCH   3   5
HETATM    5  C6  UNL     1     -32.930   7.151   4.925  1.00 20.00     0.030 C 
BRANCH   5   6
HETATM    6  C8  UNL     1     -34.196   6.297   4.723  1.00 20.00     0.052 C 
HETATM    7  C5  UNL     1     -34.865   5.996   6.063  1.00 20.00     0.018 C 
BRANCH   6   8
HETATM    8  C2  UNL     1     -33.881   4.972   4.036  1.00 20.00     0.127 C 
HETATM    9  C3  UNL     1     -33.159   5.049   2.715  1.00 20.00     0.091 C 
HETATM   10  O10 UNL     1     -34.221   3.888   4.510  1.00 20.00    -0.298 OA
ENDBRANCH   6   8
ENDBRANCH   5   6
ENDBRANCH   3   5
TORSDOF 3
ENDMDL
MODEL 5
REMARK VINA RESULT:      -3.7     12.164     12.865
REMARK  3 active torsions:
REMARK  status: ('A' for Active; 'I' for Inactive)
REMARK    1  A    between atoms: C2_2  and  C8_8 
REMARK    2  A    between atoms: C6_6  and  C7_7 
REMARK    3  A    between atoms: C6_6  and  C8_8 
ROOT
HETATM    1  C1  UNL     1     -34.067   4.984   4.878  1.00 20.00     0.063 C 
HETATM    2  C4  UNL     1     -35.061   6.108   6.820  1.00 20.00     0.025 C 
HETATM    3  C7  UNL     1     -33.917   6.123   5.804  1.00 20.00     0.089 C 
HETATM    4  N9  UNL     1     -34.181   4.087   4.151  1.00 20.00    -0.197 NA
ENDROOT
BRANCH   3   5
HETATM    5  C6  UNL     1     -33.903   7.464   5.043  1.00 20.00     0.030 C 
BRANCH   5   6
HETATM    6  C8  UNL     1     -32.517   7.867   4.504  1.00 20.00     0.052 C 
HETATM    7  C5  UNL     1     -32.187   9.310   4.885  1.00 20.00     0.018 C 
BRANCH   6   8
HETATM    8  C2  UNL     1     -32.443   7.744   2.985  1.00 20.00     0.127 C 
HETATM    9  C3  UNL     1     -32.610   9.017   2.194  1.00 20.00     0.091 C 
HETATM   10  O10 UNL     1     -32.289   6.662   2.419  1.00 20.00    -0.298 OA
ENDBRANCH   6   8
ENDBRANCH   5   6
ENDBRANCH   3   5
TORSDOF 3
ENDMDL
MODEL 6
REMARK VINA RESULT:      -3.7      2.523      3.994
REMARK  3 active torsions:
REMARK  status: ('A' for Active; 'I' for Inactive)
REMARK    1  A    between atoms: C2_2  and  C8_8 
REMARK    2  A    between atoms: C6_6  and  C7_7 
REMARK    3  A    between atoms: C6_6  and  C8_8 
ROOT
HETATM    1  C1  UNL     1     -33.518  16.379  -2.680  1.00 20.00     0.063 C 
HETATM    2  C4  UNL     1     -32.540  14.827  -4.311  1.00 20.00     0.025 C 
HETATM    3  C7  UNL     1     -33.832  15.461  -3.792  1.00 20.00     0.089 C 
HETATM    4  N9  UNL     1     -33.272  17.098  -1.803  1.00 20.00    -0.197 NA
ENDROOT
BRANCH   3   5
HETATM    5  C6  UNL     1     -34.557  16.197  -4.936  1.00 20.00     0.030 C 
BRANCH   5   6
HETATM    6  C8  UNL     1     -35.696  15.387  -5.584  1.00 20.00     0.052 C 
HETATM    7  C5  UNL     1     -35.895  14.058  -4.858  1.00 20.00     0.018 C 
BRANCH   6   8
HETATM    8  C2  UNL     1     -35.416  15.092  -7.055  1.00 20.00     0.127 C 
HETATM    9  C3  UNL     1     -34.174  15.711  -7.644  1.00 20.00     0.091 C 
HETATM   10  O10 UNL     1     -36.174  14.412  -7.746  1.00 20.00    -0.298 OA
ENDBRANCH   6   8
ENDBRANCH   5   6
ENDBRANCH   3   5
TORSDOF 3
ENDMDL
MODEL 7
REMARK VINA RESULT:      -3.6      3.393      5.261
REMARK  3 active torsions:
REMARK  status: ('A' for Active; 'I' for Inactive)
REMARK    1  A    between atoms: C2_2  and  C8_8 
REMARK    2  A    between atoms: C6_6  and  C7_7 
REMARK    3  A    between atoms: C6_6  and  C8_8 
ROOT
HETATM    1  C1  UNL     1     -35.864  14.190  -5.156  1.00 20.00     0.063 C 
HETATM    2  C4  UNL     1     -36.001  15.045  -7.453  1.00 20.00     0.025 C 
HETATM    3  C7  UNL     1     -35.857  15.417  -5.976  1.00 20.00     0.089 C 
HETATM    4  N9  UNL     1     -35.871  13.226  -4.510  1.00 20.00    -0.197 NA
ENDROOT
BRANCH   3   5
HETATM    5  C6  UNL     1     -34.565  16.229  -5.758  1.00 20.00     0.030 C 
BRANCH   5   6
HETATM    6  C8  UNL     1     -34.501  16.961  -4.404  1.00 20.00     0.052 C 
HETATM    7  C5  UNL     1     -34.122  18.428  -4.600  1.00 20.00     0.018 C 
BRANCH   6   8
HETATM    8  C2  UNL     1     -33.482  16.324  -3.464  1.00 20.00     0.127 C 
HETATM    9  C3  UNL     1     -33.390  16.901  -2.074  1.00 20.00     0.091 C 
HETATM   10  O10 UNL     1     -32.742  15.407  -3.820  1.00 20.00    -0.298 OA
ENDBRANCH   6   8
ENDBRANCH   5   6
ENDBRANCH   3   5
TORSDOF 3
ENDMDL
MODEL 8
REMARK VINA RESULT:      -3.6     12.192     13.208
REMARK  3 active torsions:
REMARK  status: ('A' for Active; 'I' for Inactive)
REMARK    1  A    between atoms: C2_2  and  C8_8 
REMARK    2  A    between atoms: C6_6  and  C7_7 
REMARK    3  A    between atoms: C6_6  and  C8_8 
ROOT
HETATM    1  C1  UNL     1     -32.280   7.706   1.897  1.00 20.00     0.063 C 
HETATM    2  C4  UNL     1     -32.757   5.362   2.445  1.00 20.00     0.025 C 
HETATM    3  C7  UNL     1     -32.435   6.748   3.008  1.00 20.00     0.089 C 
HETATM    4  N9  UNL     1     -32.155   8.461   1.024  1.00 20.00    -0.197 NA
ENDROOT
BRANCH   3   5
HETATM    5  C6  UNL     1     -33.545   7.195   3.982  1.00 20.00     0.030 C 
BRANCH   5   6
HETATM    6  C8  UNL     1     -34.342   6.032   4.604  1.00 20.00     0.052 C 
HETATM    7  C5  UNL     1     -35.806   6.089   4.171  1.00 20.00     0.018 C 
BRANCH   6   8
HETATM    8  C2  UNL     1     -34.291   6.063   6.128  1.00 20.00     0.127 C 
HETATM    9  C3  UNL     1     -33.988   7.394   6.768  1.00 20.00     0.091 C 
HETATM   10  O10 UNL     1     -34.455   5.053   6.812  1.00 20.00    -0.298 OA
ENDBRANCH   6   8
ENDBRANCH   5   6
ENDBRANCH   3   5
TORSDOF 3
ENDMDL
MODEL 9
REMARK VINA RESULT:      -3.6     11.819     12.876
REMARK  3 active torsions:
REMARK  status: ('A' for Active; 'I' for Inactive)
REMARK    1  A    between atoms: C2_2  and  C8_8 
REMARK    2  A    between atoms: C6_6  and  C7_7 
REMARK    3  A    between atoms: C6_6  and  C8_8 
ROOT
HETATM    1  C1  UNL     1     -40.756  14.423   9.888  1.00 20.00     0.063 C 
HETATM    2  C4  UNL     1     -40.630  16.160   8.159  1.00 20.00     0.025 C 
HETATM    3  C7  UNL     1     -40.353  14.694   8.495  1.00 20.00     0.089 C 
HETATM    4  N9  UNL     1     -41.071  14.209  10.984  1.00 20.00    -0.197 NA
ENDROOT
BRANCH   3   5
HETATM    5  C6  UNL     1     -41.099  13.774   7.507  1.00 20.00     0.030 C 
BRANCH   5   6
HETATM    6  C8  UNL     1     -40.431  13.662   6.123  1.00 20.00     0.052 C 
HETATM    7  C5  UNL     1     -41.483  13.631   5.016  1.00 20.00     0.018 C 
BRANCH   6   8
HETATM    8  C2  UNL     1     -39.576  12.404   6.008  1.00 20.00     0.127 C 
HETATM    9  C3  UNL     1     -39.383  11.841   4.623  1.00 20.00     0.091 C 
HETATM   10  O10 UNL     1     -39.089  11.847   6.992  1.00 20.00    -0.298 OA
ENDBRANCH   6   8
ENDBRANCH   5   6
ENDBRANCH   3   5
TORSDOF 3
ENDMDL
