MODEL 1
REMARK VINA RESULT:      -5.1      0.000      0.000
REMARK  2 active torsions:
REMARK  status: ('A' for Active; 'I' for Inactive)
REMARK    1  A    between atoms: C2_2  and  C3_3 
REMARK    2  A    between atoms: C3_3  and  O11_11 
ROOT
HETATM    1  C1  UNL     1     -33.646   7.470   4.758  1.00 20.00    -0.074 C 
HETATM    2  C2  UNL     1     -32.671   8.213   4.216  1.00 20.00     0.085 C 
HETATM    3  C4  UNL     1     -33.945   7.483   6.235  1.00 20.00     0.034 C 
HETATM    4  C5  UNL     1     -34.507   6.544   3.941  1.00 20.00     0.034 C 
HETATM    5  C6  UNL     1     -33.927   6.064   6.805  1.00 20.00     0.004 C 
HETATM    6  C7  UNL     1     -34.486   5.129   4.522  1.00 20.00     0.004 C 
HETATM    7  C8  UNL     1     -34.832   5.121   6.012  1.00 20.00     0.001 C 
ENDROOT
BRANCH   2   8
HETATM    8  C3  UNL     1     -32.428   8.156   2.762  1.00 20.00     0.282 C 
HETATM    9  O10 UNL     1     -31.991   7.193   2.153  1.00 20.00    -0.260 OA
BRANCH   8  10
HETATM   10  O11 UNL     1     -32.780   9.362   2.241  1.00 20.00    -0.323 OA
HETATM   11  C9  UNL     1     -32.767   9.442   0.812  1.00 20.00     0.213 C 
ENDBRANCH   8  10
ENDBRANCH   2   8
TORSDOF 2
ENDMDL
MODEL 2
REMARK VINA RESULT:      -4.2     11.830     12.836
REMARK  2 active torsions:
REMARK  status: ('A' for Active; 'I' for Inactive)
REMARK    1  A    between atoms: C2_2  and  C3_3 
REMARK    2  A    between atoms: C3_3  and  O11_11 
ROOT
HETATM    1  C1  UNL     1     -34.060  16.080  -4.162  1.00 20.00    -0.074 C 
HETATM    2  C2  UNL     1     -34.411  14.879  -4.644  1.00 20.00     0.085 C 
HETATM    3  C4  UNL     1     -33.017  16.246  -3.088  1.00 20.00     0.034 C 
HETATM    4  C5  UNL     1     -34.695  17.360  -4.639  1.00 20.00     0.034 C 
HETATM    5  C6  UNL     1     -33.570  17.059  -1.916  1.00 20.00     0.004 C 
HETATM    6  C7  UNL     1     -35.240  18.166  -3.460  1.00 20.00     0.004 C 
HETATM    7  C8  UNL     1     -34.179  18.383  -2.380  1.00 20.00     0.001 C 
ENDROOT
BRANCH   2   8
HETATM    8  C3  UNL     1     -35.440  14.782  -5.697  1.00 20.00     0.282 C 
HETATM    9  O10 UNL     1     -36.643  14.696  -5.507  1.00 20.00    -0.260 OA
BRANCH   8  10
HETATM   10  O11 UNL     1     -34.800  14.809  -6.896  1.00 20.00    -0.323 OA
HETATM   11  C9  UNL     1     -35.441  15.581  -7.917  1.00 20.00     0.213 C 
ENDBRANCH   8  10
ENDBRANCH   2   8
TORSDOF 2
ENDMDL
MODEL 3
REMARK VINA RESULT:      -3.9     11.293     12.616
REMARK  2 active torsions:
REMARK  status: ('A' for Active; 'I' for Inactive)
REMARK    1  A    between atoms: C2_2  and  C3_3 
REMARK    2  A    between atoms: C3_3  and  O11_11 
ROOT
HETATM    1  C1  UNL     1     -33.911  17.213  -3.816  1.00 20.00    -0.074 C 
HETATM    2  C2  UNL     1     -34.039  18.131  -2.847  1.00 20.00     0.085 C 
HETATM    3  C4  UNL     1     -34.571  17.360  -5.162  1.00 20.00     0.034 C 
HETATM    4  C5  UNL     1     -33.116  15.948  -3.631  1.00 20.00     0.034 C 
HETATM    5  C6  UNL     1     -35.412  16.126  -5.493  1.00 20.00     0.004 C 
HETATM    6  C7  UNL     1     -33.963  14.720  -3.969  1.00 20.00     0.004 C 
HETATM    7  C8  UNL     1     -34.604  14.835  -5.352  1.00 20.00     0.001 C 
ENDROOT
BRANCH   2   8
HETATM    8  C3  UNL     1     -33.367  17.929  -1.550  1.00 20.00     0.282 C 
HETATM    9  O10 UNL     1     -33.830  17.319  -0.599  1.00 20.00    -0.260 OA
BRANCH   8  10
HETATM   10  O11 UNL     1     -32.154  18.539  -1.619  1.00 20.00    -0.323 OA
HETATM   11  C9  UNL     1     -31.391  18.529  -0.407  1.00 20.00     0.213 C 
ENDBRANCH   8  10
ENDBRANCH   2   8
TORSDOF 2
ENDMDL
MODEL 4
REMARK VINA RESULT:      -3.9      2.099      4.458
REMARK  2 active torsions:
REMARK  status: ('A' for Active; 'I' for Inactive)
REMARK    1  A    between atoms: C2_2  and  C3_3 
REMARK    2  A    between atoms: C3_3  and  O11_11 
ROOT
HETATM    1  C1  UNL     1     -32.902   8.429   3.864  1.00 20.00    -0.074 C 
HETATM    2  C2  UNL     1     -33.753   8.333   4.896  1.00 20.00     0.085 C 
HETATM    3  C4  UNL     1     -32.695   9.714   3.104  1.00 20.00     0.034 C 
HETATM    4  C5  UNL     1     -32.100   7.257   3.365  1.00 20.00     0.034 C 
HETATM    5  C6  UNL     1     -32.907   9.498   1.605  1.00 20.00     0.004 C 
HETATM    6  C7  UNL     1     -32.315   7.053   1.864  1.00 20.00     0.004 C 
HETATM    7  C8  UNL     1     -32.064   8.338   1.074  1.00 20.00     0.001 C 
ENDROOT
BRANCH   2   8
HETATM    8  C3  UNL     1     -33.911   7.046   5.599  1.00 20.00     0.282 C 
HETATM    9  O10 UNL     1     -33.308   6.710   6.607  1.00 20.00    -0.260 OA
BRANCH   8  10
HETATM   10  O11 UNL     1     -34.841   6.322   4.922  1.00 20.00    -0.323 OA
HETATM   11  C9  UNL     1     -34.584   4.916   4.837  1.00 20.00     0.213 C 
ENDBRANCH   8  10
ENDBRANCH   2   8
TORSDOF 2
ENDMDL
MODEL 5
REMARK VINA RESULT:      -3.9     11.633     12.993
REMARK  2 active torsions:
REMARK  status: ('A' for Active; 'I' for Inactive)
REMARK    1  A    between atoms: C2_2  and  C3_3 
REMARK    2  A    between atoms: C3_3  and  O11_11 
ROOT
HETATM    1  C1  UNL     1     -34.036  16.085  -4.070  1.00 20.00    -0.074 C 
HETATM    2  C2  UNL     1     -33.199  16.231  -3.032  1.00 20.00     0.085 C 
HETATM    3  C4  UNL     1     -34.103  14.818  -4.882  1.00 20.00     0.034 C 
HETATM    4  C5  UNL     1     -34.962  17.182  -4.523  1.00 20.00     0.034 C 
HETATM    5  C6  UNL     1     -33.919  15.117  -6.371  1.00 20.00     0.004 C 
HETATM    6  C7  UNL     1     -34.773  17.470  -6.013  1.00 20.00     0.004 C 
HETATM    7  C8  UNL     1     -34.884  16.200  -6.856  1.00 20.00     0.001 C 
ENDROOT
BRANCH   2   8
HETATM    8  C3  UNL     1     -33.181  17.497  -2.276  1.00 20.00     0.282 C 
HETATM    9  O10 UNL     1     -32.619  18.523  -2.625  1.00 20.00    -0.260 OA
BRANCH   8  10
HETATM   10  O11 UNL     1     -33.900  17.303  -1.138  1.00 20.00    -0.323 OA
HETATM   11  C9  UNL     1     -33.565  18.164  -0.045  1.00 20.00     0.213 C 
ENDBRANCH   8  10
ENDBRANCH   2   8
TORSDOF 2
ENDMDL
MODEL 6
REMARK VINA RESULT:      -3.8     11.354     12.622
REMARK  2 active torsions:
REMARK  status: ('A' for Active; 'I' for Inactive)
REMARK    1  A    between atoms: C2_2  and  C3_3 
REMARK    2  A    between atoms: C3_3  and  O11_11 
ROOT
HETATM    1  C1  UNL     1     -33.973  16.976  -3.860  1.00 20.00    -0.074 C 
HETATM    2  C2  UNL     1     -34.021  16.026  -4.805  1.00 20.00     0.085 C 
HETATM    3  C4  UNL     1     -34.146  18.439  -4.174  1.00 20.00     0.034 C 
HETATM    4  C5  UNL     1     -33.720  16.661  -2.409  1.00 20.00     0.034 C 
HETATM    5  C6  UNL     1     -32.972  19.254  -3.628  1.00 20.00     0.004 C 
HETATM    6  C7  UNL     1     -32.548  17.484  -1.872  1.00 20.00     0.004 C 
HETATM    7  C8  UNL     1     -32.731  18.978  -2.144  1.00 20.00     0.001 C 
ENDROOT
BRANCH   2   8
HETATM    8  C3  UNL     1     -33.844  14.610  -4.432  1.00 20.00     0.282 C 
HETATM    9  O10 UNL     1     -32.773  14.053  -4.251  1.00 20.00    -0.260 OA
BRANCH   8  10
HETATM   10  O11 UNL     1     -35.083  14.057  -4.330  1.00 20.00    -0.323 OA
HETATM   11  C9  UNL     1     -35.980  14.356  -5.404  1.00 20.00     0.213 C 
ENDBRANCH   8  10
ENDBRANCH   2   8
TORSDOF 2
ENDMDL
MODEL 7
REMARK VINA RESULT:      -3.8      9.400     10.308
REMARK  2 active torsions:
REMARK  status: ('A' for Active; 'I' for Inactive)
REMARK    1  A    between atoms: C2_2  and  C3_3 
REMARK    2  A    between atoms: C3_3  and  O11_11 
ROOT
HETATM    1  C1  UNL     1     -41.197  13.492   6.272  1.00 20.00    -0.074 C 
HETATM    2  C2  UNL     1     -40.495  12.560   5.613  1.00 20.00     0.085 C 
HETATM    3  C4  UNL     1     -42.558  13.951   5.817  1.00 20.00     0.034 C 
HETATM    4  C5  UNL     1     -40.675  14.174   7.509  1.00 20.00     0.034 C 
HETATM    5  C6  UNL     1     -42.596  15.473   5.667  1.00 20.00     0.004 C 
HETATM    6  C7  UNL     1     -40.722  15.695   7.350  1.00 20.00     0.004 C 
HETATM    7  C8  UNL     1     -42.110  16.181   6.932  1.00 20.00     0.001 C 
ENDROOT
BRANCH   2   8
HETATM    8  C3  UNL     1     -39.167  12.153   6.110  1.00 20.00     0.282 C 
HETATM    9  O10 UNL     1     -38.894  11.894   7.272  1.00 20.00    -0.260 OA
BRANCH   8  10
HETATM   10  O11 UNL     1     -38.323  12.122   5.044  1.00 20.00    -0.323 OA
HETATM   11  C9  UNL     1     -38.901  11.669   3.815  1.00 20.00     0.213 C 
ENDBRANCH   8  10
ENDBRANCH   2   8
TORSDOF 2
ENDMDL
MODEL 8
REMARK VINA RESULT:      -3.8     11.237     12.373
REMARK  2 active torsions:
REMARK  status: ('A' for Active; 'I' for Inactive)
REMARK    1  A    between atoms: C2_2  and  C3_3 
REMARK    2  A    between atoms: C3_3  and  O11_11 
ROOT
HETATM    1  C1  UNL     1     -33.026  18.377  -2.006  1.00 20.00    -0.074 C 
HETATM    2  C2  UNL     1     -32.923  17.765  -3.194  1.00 20.00     0.085 C 
HETATM    3  C4  UNL     1     -31.933  19.253  -1.450  1.00 20.00     0.034 C 
HETATM    4  C5  UNL     1     -34.233  18.224  -1.118  1.00 20.00     0.034 C 
HETATM    5  C6  UNL     1     -31.532  18.797  -0.047  1.00 20.00     0.004 C 
HETATM    6  C7  UNL     1     -33.820  17.771   0.284  1.00 20.00     0.004 C 
HETATM    7  C8  UNL     1     -32.743  18.678   0.880  1.00 20.00     0.001 C 
ENDROOT
BRANCH   2   8
HETATM    8  C3  UNL     1     -34.029  16.920  -3.682  1.00 20.00     0.282 C 
HETATM    9  O10 UNL     1     -35.008  17.317  -4.294  1.00 20.00    -0.260 OA
BRANCH   8  10
HETATM   10  O11 UNL     1     -33.751  15.637  -3.327  1.00 20.00    -0.323 OA
HETATM   11  C9  UNL     1     -33.378  14.768  -4.401  1.00 20.00     0.213 C 
ENDBRANCH   8  10
ENDBRANCH   2   8
TORSDOF 2
ENDMDL
MODEL 9
REMARK VINA RESULT:      -3.7     12.017     13.514
REMARK  2 active torsions:
REMARK  status: ('A' for Active; 'I' for Inactive)
REMARK    1  A    between atoms: C2_2  and  C3_3 
REMARK    2  A    between atoms: C3_3  and  O11_11 
ROOT
HETATM    1  C1  UNL     1     -34.694  16.734  -5.265  1.00 20.00    -0.074 C 
HETATM    2  C2  UNL     1     -34.876  16.849  -6.589  1.00 20.00     0.085 C 
HETATM    3  C4  UNL     1     -34.650  17.930  -4.349  1.00 20.00     0.034 C 
HETATM    4  C5  UNL     1     -34.497  15.404  -4.588  1.00 20.00     0.034 C 
HETATM    5  C6  UNL     1     -33.372  17.922  -3.508  1.00 20.00     0.004 C 
HETATM    6  C7  UNL     1     -33.220  15.408  -3.746  1.00 20.00     0.004 C 
HETATM    7  C8  UNL     1     -33.181  16.592  -2.778  1.00 20.00     0.001 C 
ENDROOT
BRANCH   2   8
HETATM    8  C3  UNL     1     -34.910  15.639  -7.432  1.00 20.00     0.282 C 
HETATM    9  O10 UNL     1     -33.936  15.084  -7.916  1.00 20.00    -0.260 OA
BRANCH   8  10
HETATM   10  O11 UNL     1     -36.212  15.269  -7.563  1.00 20.00    -0.323 OA
HETATM   11  C9  UNL     1     -37.127  16.330  -7.858  1.00 20.00     0.213 C 
ENDBRANCH   8  10
ENDBRANCH   2   8
TORSDOF 2
ENDMDL
