MODEL 1
REMARK VINA RESULT:      -5.3      0.000      0.000
REMARK  1 active torsions:
REMARK  status: ('A' for Active; 'I' for Inactive)
REMARK    1  A    between atoms: C2_2  and  C3_3 
ROOT
HETATM    1  C1  UNL     1     -33.706   6.307   3.938  1.00 20.00    -0.077 C 
HETATM    2  C2  UNL     1     -32.834   6.129   2.934  1.00 20.00     0.044 C 
HETATM    3  C4  UNL     1     -34.636   5.217   4.404  1.00 20.00     0.034 C 
HETATM    4  C5  UNL     1     -33.809   7.603   4.698  1.00 20.00     0.034 C 
HETATM    5  C6  UNL     1     -34.492   4.988   5.909  1.00 20.00     0.004 C 
HETATM    6  C7  UNL     1     -33.669   7.362   6.202  1.00 20.00     0.004 C 
HETATM    7  C8  UNL     1     -34.641   6.289   6.699  1.00 20.00     0.001 C 
ENDROOT
BRANCH   2   8
HETATM    8  C3  UNL     1     -31.975   7.268   2.568  1.00 20.00     0.259 C 
HETATM    9  O9  UNL     1     -32.137   7.896   1.528  1.00 20.00    -0.302 OA
ENDBRANCH   2   8
TORSDOF 1
ENDMDL
MODEL 2
REMARK VINA RESULT:      -4.9      1.051      2.129
REMARK  1 active torsions:
REMARK  status: ('A' for Active; 'I' for Inactive)
REMARK    1  A    between atoms: C2_2  and  C3_3 
ROOT
HETATM    1  C1  UNL     1     -33.050   7.438   4.585  1.00 20.00    -0.077 C 
HETATM    2  C2  UNL     1     -32.783   8.600   3.972  1.00 20.00     0.044 C 
HETATM    3  C4  UNL     1     -33.191   7.327   6.081  1.00 20.00     0.034 C 
HETATM    4  C5  UNL     1     -33.254   6.152   3.828  1.00 20.00     0.034 C 
HETATM    5  C6  UNL     1     -34.522   6.672   6.453  1.00 20.00     0.004 C 
HETATM    6  C7  UNL     1     -34.585   5.503   4.211  1.00 20.00     0.004 C 
HETATM    7  C8  UNL     1     -34.724   5.341   5.726  1.00 20.00     0.001 C 
ENDROOT
BRANCH   2   8
HETATM    8  C3  UNL     1     -32.668   8.585   2.504  1.00 20.00     0.259 C 
HETATM    9  O9  UNL     1     -32.878   9.583   1.824  1.00 20.00    -0.302 OA
ENDBRANCH   2   8
TORSDOF 1
ENDMDL
MODEL 3
REMARK VINA RESULT:      -4.7      1.572      1.681
REMARK  1 active torsions:
REMARK  status: ('A' for Active; 'I' for Inactive)
REMARK    1  A    between atoms: C2_2  and  C3_3 
ROOT
HETATM    1  C1  UNL     1     -33.538   6.815   4.084  1.00 20.00    -0.077 C 
HETATM    2  C2  UNL     1     -32.535   7.437   3.447  1.00 20.00     0.044 C 
HETATM    3  C4  UNL     1     -33.947   5.402   3.760  1.00 20.00     0.034 C 
HETATM    4  C5  UNL     1     -34.322   7.469   5.191  1.00 20.00     0.034 C 
HETATM    5  C6  UNL     1     -33.951   4.536   5.021  1.00 20.00     0.004 C 
HETATM    6  C7  UNL     1     -34.323   6.593   6.445  1.00 20.00     0.004 C 
HETATM    7  C8  UNL     1     -34.782   5.166   6.141  1.00 20.00     0.001 C 
ENDROOT
BRANCH   2   8
HETATM    8  C3  UNL     1     -32.225   8.820   3.850  1.00 20.00     0.259 C 
HETATM    9  O9  UNL     1     -31.897   9.105   4.996  1.00 20.00    -0.302 OA
ENDBRANCH   2   8
TORSDOF 1
ENDMDL
MODEL 4
REMARK VINA RESULT:      -4.7      2.206      4.143
REMARK  1 active torsions:
REMARK  status: ('A' for Active; 'I' for Inactive)
REMARK    1  A    between atoms: C2_2  and  C3_3 
ROOT
HETATM    1  C1  UNL     1     -33.787   7.216   5.021  1.00 20.00    -0.077 C 
HETATM    2  C2  UNL     1     -34.078   6.921   6.296  1.00 20.00     0.044 C 
HETATM    3  C4  UNL     1     -33.090   8.492   4.625  1.00 20.00     0.034 C 
HETATM    4  C5  UNL     1     -34.112   6.286   3.882  1.00 20.00     0.034 C 
HETATM    5  C6  UNL     1     -31.848   8.193   3.785  1.00 20.00     0.004 C 
HETATM    6  C7  UNL     1     -32.865   5.998   3.045  1.00 20.00     0.004 C 
HETATM    7  C8  UNL     1     -32.171   7.285   2.596  1.00 20.00     0.001 C 
ENDROOT
BRANCH   2   8
HETATM    8  C3  UNL     1     -34.761   5.644   6.561  1.00 20.00     0.259 C 
HETATM    9  O9  UNL     1     -34.219   4.562   6.362  1.00 20.00    -0.302 OA
ENDBRANCH   2   8
TORSDOF 1
ENDMDL
MODEL 5
REMARK VINA RESULT:      -4.3      2.075      3.859
REMARK  1 active torsions:
REMARK  status: ('A' for Active; 'I' for Inactive)
REMARK    1  A    between atoms: C2_2  and  C3_3 
ROOT
HETATM    1  C1  UNL     1     -33.997   7.058   4.979  1.00 20.00    -0.077 C 
HETATM    2  C2  UNL     1     -34.471   6.191   5.886  1.00 20.00     0.044 C 
HETATM    3  C4  UNL     1     -33.577   8.459   5.342  1.00 20.00     0.034 C 
HETATM    4  C5  UNL     1     -33.825   6.696   3.527  1.00 20.00     0.034 C 
HETATM    5  C6  UNL     1     -32.150   8.736   4.870  1.00 20.00     0.004 C 
HETATM    6  C7  UNL     1     -32.395   6.982   3.064  1.00 20.00     0.004 C 
HETATM    7  C8  UNL     1     -31.970   8.416   3.384  1.00 20.00     0.001 C 
ENDROOT
BRANCH   2   8
HETATM    8  C3  UNL     1     -34.849   4.849   5.412  1.00 20.00     0.259 C 
HETATM    9  O9  UNL     1     -34.048   4.103   4.860  1.00 20.00    -0.302 OA
ENDBRANCH   2   8
TORSDOF 1
ENDMDL
MODEL 6
REMARK VINA RESULT:      -4.0      2.372      3.690
REMARK  1 active torsions:
REMARK  status: ('A' for Active; 'I' for Inactive)
REMARK    1  A    between atoms: C2_2  and  C3_3 
ROOT
HETATM    1  C1  UNL     1     -33.358   6.578   4.235  1.00 20.00    -0.077 C 
HETATM    2  C2  UNL     1     -34.255   5.606   4.015  1.00 20.00     0.044 C 
HETATM    3  C4  UNL     1     -32.380   7.029   3.182  1.00 20.00     0.034 C 
HETATM    4  C5  UNL     1     -33.272   7.316   5.545  1.00 20.00     0.034 C 
HETATM    5  C6  UNL     1     -32.468   8.541   2.971  1.00 20.00     0.004 C 
HETATM    6  C7  UNL     1     -33.356   8.828   5.322  1.00 20.00     0.004 C 
HETATM    7  C8  UNL     1     -32.336   9.308   4.289  1.00 20.00     0.001 C 
ENDROOT
BRANCH   2   8
HETATM    8  C3  UNL     1     -35.161   5.251   5.120  1.00 20.00     0.259 C 
HETATM    9  O9  UNL     1     -34.772   4.640   6.109  1.00 20.00    -0.302 OA
ENDBRANCH   2   8
TORSDOF 1
ENDMDL
MODEL 7
REMARK VINA RESULT:      -4.0     12.386     13.685
REMARK  1 active torsions:
REMARK  status: ('A' for Active; 'I' for Inactive)
REMARK    1  A    between atoms: C2_2  and  C3_3 
ROOT
HETATM    1  C1  UNL     1     -33.341  18.305  -2.276  1.00 20.00    -0.077 C 
HETATM    2  C2  UNL     1     -32.475  19.067  -1.592  1.00 20.00     0.044 C 
HETATM    3  C4  UNL     1     -34.230  18.864  -3.357  1.00 20.00     0.034 C 
HETATM    4  C5  UNL     1     -33.480  16.825  -2.038  1.00 20.00     0.034 C 
HETATM    5  C6  UNL     1     -34.063  18.077  -4.657  1.00 20.00     0.004 C 
HETATM    6  C7  UNL     1     -33.316  16.048  -3.345  1.00 20.00     0.004 C 
HETATM    7  C8  UNL     1     -34.246  16.573  -4.440  1.00 20.00     0.001 C 
ENDROOT
BRANCH   2   8
HETATM    8  C3  UNL     1     -31.658  18.409  -0.559  1.00 20.00     0.259 C 
HETATM    9  O9  UNL     1     -30.499  18.740  -0.337  1.00 20.00    -0.302 OA
ENDBRANCH   2   8
TORSDOF 1
ENDMDL
MODEL 8
REMARK VINA RESULT:      -3.7     12.183     12.726
REMARK  1 active torsions:
REMARK  status: ('A' for Active; 'I' for Inactive)
REMARK    1  A    between atoms: C2_2  and  C3_3 
ROOT
HETATM    1  C1  UNL     1     -33.222  18.138  -0.807  1.00 20.00    -0.077 C 
HETATM    2  C2  UNL     1     -33.855  17.169  -1.485  1.00 20.00     0.044 C 
HETATM    3  C4  UNL     1     -33.812  18.783   0.420  1.00 20.00     0.034 C 
HETATM    4  C5  UNL     1     -31.860  18.644  -1.201  1.00 20.00     0.034 C 
HETATM    5  C6  UNL     1     -32.835  18.710   1.595  1.00 20.00     0.004 C 
HETATM    6  C7  UNL     1     -30.892  18.571  -0.018  1.00 20.00     0.004 C 
HETATM    7  C8  UNL     1     -31.458  19.263   1.223  1.00 20.00     0.001 C 
ENDROOT
BRANCH   2   8
HETATM    8  C3  UNL     1     -33.178  16.614  -2.670  1.00 20.00     0.259 C 
HETATM    9  O9  UNL     1     -33.607  15.631  -3.263  1.00 20.00    -0.302 OA
ENDBRANCH   2   8
TORSDOF 1
ENDMDL
MODEL 9
REMARK VINA RESULT:      -3.7     12.172     13.358
REMARK  1 active torsions:
REMARK  status: ('A' for Active; 'I' for Inactive)
REMARK    1  A    between atoms: C2_2  and  C3_3 
ROOT
HETATM    1  C1  UNL     1     -33.708  16.585  -3.313  1.00 20.00    -0.077 C 
HETATM    2  C2  UNL     1     -33.564  15.349  -3.813  1.00 20.00     0.044 C 
HETATM    3  C4  UNL     1     -33.503  16.896  -1.853  1.00 20.00     0.034 C 
HETATM    4  C5  UNL     1     -34.063  17.769  -4.173  1.00 20.00     0.034 C 
HETATM    5  C6  UNL     1     -32.492  18.029  -1.676  1.00 20.00     0.004 C 
HETATM    6  C7  UNL     1     -33.049  18.899  -3.985  1.00 20.00     0.004 C 
HETATM    7  C8  UNL     1     -32.864  19.258  -2.509  1.00 20.00     0.001 C 
ENDROOT
BRANCH   2   8
HETATM    8  C3  UNL     1     -33.790  15.168  -5.257  1.00 20.00     0.259 C 
HETATM    9  O9  UNL     1     -34.833  14.700  -5.699  1.00 20.00    -0.302 OA
ENDBRANCH   2   8
TORSDOF 1
ENDMDL
