MODEL 1
REMARK VINA RESULT:      -4.6      0.000      0.000
REMARK  1 active torsions:
REMARK  status: ('A' for Active; 'I' for Inactive)
REMARK    1  A    between atoms: C2_2  and  C7_7 
ROOT
HETATM    1  C1  UNL     1     -33.879   7.125   5.641  1.00 20.00     0.141 C 
HETATM    2  C3  UNL     1     -33.335   8.470   5.204  1.00 20.00     0.079 C 
HETATM    3  C4  UNL     1     -32.190   8.300   4.218  1.00 20.00     0.007 C 
HETATM    4  C5  UNL     1     -32.586   7.414   3.043  1.00 20.00     0.002 C 
HETATM    5  C6  UNL     1     -33.054   6.042   3.530  1.00 20.00     0.024 C 
HETATM    6  C7  UNL     1     -34.209   6.109   4.545  1.00 20.00     0.070 C 
HETATM    7  C8  UNL     1     -35.531   6.516   3.883  1.00 20.00     0.031 C 
HETATM    8  O9  UNL     1     -34.123   6.907   6.829  1.00 20.00    -0.297 OA
ENDROOT
BRANCH   6   9
HETATM    9  C2  UNL     1     -34.376   4.717   5.100  1.00 20.00     0.248 C 
HETATM   10  O10 UNL     1     -33.948   3.711   4.543  1.00 20.00    -0.306 OA
ENDBRANCH   6   9
TORSDOF 1
ENDMDL
MODEL 2
REMARK VINA RESULT:      -4.6      1.928      3.785
REMARK  1 active torsions:
REMARK  status: ('A' for Active; 'I' for Inactive)
REMARK    1  A    between atoms: C2_2  and  C7_7 
ROOT
HETATM    1  C1  UNL     1     -33.391   6.327   3.891  1.00 20.00     0.141 C 
HETATM    2  C3  UNL     1     -34.405   5.229   4.132  1.00 20.00     0.079 C 
HETATM    3  C4  UNL     1     -34.436   4.827   5.598  1.00 20.00     0.007 C 
HETATM    4  C5  UNL     1     -34.645   6.032   6.508  1.00 20.00     0.002 C 
HETATM    5  C6  UNL     1     -33.553   7.078   6.284  1.00 20.00     0.024 C 
HETATM    6  C7  UNL     1     -33.436   7.543   4.821  1.00 20.00     0.070 C 
HETATM    7  C8  UNL     1     -34.613   8.433   4.406  1.00 20.00     0.031 C 
HETATM    8  O9  UNL     1     -32.626   6.270   2.927  1.00 20.00    -0.297 OA
ENDROOT
BRANCH   6   9
HETATM    9  C2  UNL     1     -32.176   8.367   4.731  1.00 20.00     0.248 C 
HETATM   10  O10 UNL     1     -32.135   9.487   4.232  1.00 20.00    -0.306 OA
ENDBRANCH   6   9
TORSDOF 1
ENDMDL
MODEL 3
REMARK VINA RESULT:      -4.5      1.225      1.475
REMARK  1 active torsions:
REMARK  status: ('A' for Active; 'I' for Inactive)
REMARK    1  A    between atoms: C2_2  and  C7_7 
ROOT
HETATM    1  C1  UNL     1     -33.760   7.378   4.921  1.00 20.00     0.141 C 
HETATM    2  C3  UNL     1     -33.105   7.980   3.695  1.00 20.00     0.079 C 
HETATM    3  C4  UNL     1     -32.235   6.955   2.984  1.00 20.00     0.007 C 
HETATM    4  C5  UNL     1     -33.008   5.679   2.673  1.00 20.00     0.002 C 
HETATM    5  C6  UNL     1     -33.583   5.068   3.950  1.00 20.00     0.024 C 
HETATM    6  C7  UNL     1     -34.475   6.035   4.749  1.00 20.00     0.070 C 
HETATM    7  C8  UNL     1     -35.820   6.281   4.056  1.00 20.00     0.031 C 
HETATM    8  O9  UNL     1     -33.784   8.000   5.984  1.00 20.00    -0.297 OA
ENDROOT
BRANCH   6   9
HETATM    9  C2  UNL     1     -34.750   5.371   6.075  1.00 20.00     0.248 C 
HETATM   10  O10 UNL     1     -33.868   4.950   6.816  1.00 20.00    -0.306 OA
ENDBRANCH   6   9
TORSDOF 1
ENDMDL
MODEL 4
REMARK VINA RESULT:      -4.1     12.290     13.248
REMARK  1 active torsions:
REMARK  status: ('A' for Active; 'I' for Inactive)
REMARK    1  A    between atoms: C2_2  and  C7_7 
ROOT
HETATM    1  C1  UNL     1     -35.422  16.569  -4.959  1.00 20.00     0.141 C 
HETATM    2  C3  UNL     1     -34.447  17.632  -4.496  1.00 20.00     0.079 C 
HETATM    3  C4  UNL     1     -33.629  17.142  -3.312  1.00 20.00     0.007 C 
HETATM    4  C5  UNL     1     -32.951  15.809  -3.609  1.00 20.00     0.002 C 
HETATM    5  C6  UNL     1     -33.982  14.749  -3.995  1.00 20.00     0.024 C 
HETATM    6  C7  UNL     1     -34.871  15.158  -5.183  1.00 20.00     0.070 C 
HETATM    7  C8  UNL     1     -34.100  15.139  -6.509  1.00 20.00     0.031 C 
HETATM    8  O9  UNL     1     -36.588  16.865  -5.224  1.00 20.00    -0.297 OA
ENDROOT
BRANCH   6   9
HETATM    9  C2  UNL     1     -35.972  14.132  -5.271  1.00 20.00     0.248 C 
HETATM   10  O10 UNL     1     -36.107  13.215  -4.467  1.00 20.00    -0.306 OA
ENDBRANCH   6   9
TORSDOF 1
ENDMDL
MODEL 5
REMARK VINA RESULT:      -3.9      1.212      1.506
REMARK  1 active torsions:
REMARK  status: ('A' for Active; 'I' for Inactive)
REMARK    1  A    between atoms: C2_2  and  C7_7 
ROOT
HETATM    1  C1  UNL     1     -34.156   5.990   5.990  1.00 20.00     0.141 C 
HETATM    2  C3  UNL     1     -34.163   7.370   6.616  1.00 20.00     0.079 C 
HETATM    3  C4  UNL     1     -33.192   8.297   5.902  1.00 20.00     0.007 C 
HETATM    4  C5  UNL     1     -33.447   8.330   4.399  1.00 20.00     0.002 C 
HETATM    5  C6  UNL     1     -33.352   6.926   3.801  1.00 20.00     0.024 C 
HETATM    6  C7  UNL     1     -34.294   5.907   4.467  1.00 20.00     0.070 C 
HETATM    7  C8  UNL     1     -35.761   6.154   4.095  1.00 20.00     0.031 C 
HETATM    8  O9  UNL     1     -34.129   4.984   6.699  1.00 20.00    -0.297 OA
ENDROOT
BRANCH   6   9
HETATM    9  C2  UNL     1     -33.903   4.550   3.941  1.00 20.00     0.248 C 
HETATM   10  O10 UNL     1     -33.148   4.387   2.987  1.00 20.00    -0.306 OA
ENDBRANCH   6   9
TORSDOF 1
ENDMDL
MODEL 6
REMARK VINA RESULT:      -3.6      1.415      2.470
REMARK  1 active torsions:
REMARK  status: ('A' for Active; 'I' for Inactive)
REMARK    1  A    between atoms: C2_2  and  C7_7 
ROOT
HETATM    1  C1  UNL     1     -33.058   6.420   3.691  1.00 20.00     0.141 C 
HETATM    2  C3  UNL     1     -31.900   7.390   3.587  1.00 20.00     0.079 C 
HETATM    3  C4  UNL     1     -32.376   8.826   3.741  1.00 20.00     0.007 C 
HETATM    4  C5  UNL     1     -33.190   9.015   5.016  1.00 20.00     0.002 C 
HETATM    5  C6  UNL     1     -34.390   8.068   5.040  1.00 20.00     0.024 C 
HETATM    6  C7  UNL     1     -34.010   6.586   4.879  1.00 20.00     0.070 C 
HETATM    7  C8  UNL     1     -33.328   6.029   6.134  1.00 20.00     0.031 C 
HETATM    8  O9  UNL     1     -33.163   5.485   2.895  1.00 20.00    -0.297 OA
ENDROOT
BRANCH   6   9
HETATM    9  C2  UNL     1     -35.299   5.830   4.676  1.00 20.00     0.248 C 
HETATM   10  O10 UNL     1     -35.462   4.666   5.025  1.00 20.00    -0.306 OA
ENDBRANCH   6   9
TORSDOF 1
ENDMDL
MODEL 7
REMARK VINA RESULT:      -3.6      8.523     10.014
REMARK  1 active torsions:
REMARK  status: ('A' for Active; 'I' for Inactive)
REMARK    1  A    between atoms: C2_2  and  C7_7 
ROOT
HETATM    1  C1  UNL     1     -41.081   5.915  -0.316  1.00 20.00     0.141 C 
HETATM    2  C3  UNL     1     -40.524   7.271   0.065  1.00 20.00     0.079 C 
HETATM    3  C4  UNL     1     -41.442   8.389  -0.404  1.00 20.00     0.007 C 
HETATM    4  C5  UNL     1     -42.873   8.182   0.080  1.00 20.00     0.002 C 
HETATM    5  C6  UNL     1     -43.417   6.835  -0.394  1.00 20.00     0.024 C 
HETATM    6  C7  UNL     1     -42.548   5.636   0.024  1.00 20.00     0.070 C 
HETATM    7  C8  UNL     1     -42.655   5.345   1.525  1.00 20.00     0.031 C 
HETATM    8  O9  UNL     1     -40.346   5.052  -0.798  1.00 20.00    -0.297 OA
ENDROOT
BRANCH   6   9
HETATM    9  C2  UNL     1     -43.079   4.438  -0.721  1.00 20.00     0.248 C 
HETATM   10  O10 UNL     1     -43.366   4.456  -1.913  1.00 20.00    -0.306 OA
ENDBRANCH   6   9
TORSDOF 1
ENDMDL
MODEL 8
REMARK VINA RESULT:      -3.5     15.534     16.869
REMARK  1 active torsions:
REMARK  status: ('A' for Active; 'I' for Inactive)
REMARK    1  A    between atoms: C2_2  and  C7_7 
ROOT
HETATM    1  C1  UNL     1     -22.055  18.491  11.192  1.00 20.00     0.141 C 
HETATM    2  C3  UNL     1     -21.369  19.230  10.062  1.00 20.00     0.079 C 
HETATM    3  C4  UNL     1     -21.293  18.365   8.813  1.00 20.00     0.007 C 
HETATM    4  C5  UNL     1     -22.662  17.824   8.419  1.00 20.00     0.002 C 
HETATM    5  C6  UNL     1     -23.279  17.021   9.563  1.00 20.00     0.024 C 
HETATM    6  C7  UNL     1     -23.391  17.810  10.880  1.00 20.00     0.070 C 
HETATM    7  C8  UNL     1     -24.483  18.883  10.815  1.00 20.00     0.031 C 
HETATM    8  O9  UNL     1     -21.588  18.522  12.332  1.00 20.00    -0.297 OA
ENDROOT
BRANCH   6   9
HETATM    9  C2  UNL     1     -23.778  16.817  11.946  1.00 20.00     0.248 C 
HETATM   10  O10 UNL     1     -24.614  15.935  11.778  1.00 20.00    -0.306 OA
ENDBRANCH   6   9
TORSDOF 1
ENDMDL
MODEL 9
REMARK VINA RESULT:      -3.4      9.796     10.826
REMARK  1 active torsions:
REMARK  status: ('A' for Active; 'I' for Inactive)
REMARK    1  A    between atoms: C2_2  and  C7_7 
ROOT
HETATM    1  C1  UNL     1     -40.957  13.952   7.580  1.00 20.00     0.141 C 
HETATM    2  C3  UNL     1     -41.728  15.219   7.887  1.00 20.00     0.079 C 
HETATM    3  C4  UNL     1     -41.972  16.027   6.622  1.00 20.00     0.007 C 
HETATM    4  C5  UNL     1     -42.630  15.186   5.534  1.00 20.00     0.002 C 
HETATM    5  C6  UNL     1     -41.778  13.960   5.206  1.00 20.00     0.024 C 
HETATM    6  C7  UNL     1     -41.465  13.080   6.429  1.00 20.00     0.070 C 
HETATM    7  C8  UNL     1     -42.699  12.306   6.908  1.00 20.00     0.031 C 
HETATM    8  O9  UNL     1     -40.015  13.606   8.295  1.00 20.00    -0.297 OA
ENDROOT
BRANCH   6   9
HETATM    9  C2  UNL     1     -40.431  12.077   5.985  1.00 20.00     0.248 C 
HETATM   10  O10 UNL     1     -39.950  12.056   4.857  1.00 20.00    -0.306 OA
ENDBRANCH   6   9
TORSDOF 1
ENDMDL
