MODEL 1
REMARK VINA RESULT:      -4.4      0.000      0.000
REMARK  3 active torsions:
REMARK  status: ('A' for Active; 'I' for Inactive)
REMARK    1  A    between atoms: C1_1  and  C4_4 
REMARK    2  A    between atoms: C2_2  and  C9_9 
REMARK    3  A    between atoms: C9_9  and  O10_10 
ROOT
HETATM    1  C3  UNL     1     -34.024  17.764  -0.414  1.00 20.00    -0.011 C 
HETATM    2  C4  UNL     1     -33.112  17.557  -1.369  1.00 20.00    -0.008 C 
HETATM    3  C5  UNL     1     -33.562  18.778   0.579  1.00 20.00     0.028 C 
HETATM    4  C6  UNL     1     -31.895  18.400  -1.166  1.00 20.00     0.048 C 
HETATM    5  C7  UNL     1     -32.071  18.903   0.267  1.00 20.00     0.009 C 
ENDROOT
BRANCH   2   6
HETATM    6  C1  UNL     1     -33.291  16.661  -2.449  1.00 20.00    -0.069 C 
HETATM    7  C2  UNL     1     -33.442  15.901  -3.366  1.00 20.00    -0.075 C 
BRANCH   7   8
HETATM    8  C9  UNL     1     -33.628  14.973  -4.481  1.00 20.00     0.261 C 
BRANCH   8   9
HETATM    9  O10 UNL     1     -34.479  13.907  -4.082  1.00 20.00    -0.384 OA
HETATM   10  C8  UNL     1     -35.696  13.906  -4.815  1.00 20.00     0.202 C 
ENDBRANCH   8   9
ENDBRANCH   7   8
ENDBRANCH   2   6
TORSDOF 3
ENDMDL
MODEL 2
REMARK VINA RESULT:      -4.3      0.184      1.262
REMARK  3 active torsions:
REMARK  status: ('A' for Active; 'I' for Inactive)
REMARK    1  A    between atoms: C1_1  and  C4_4 
REMARK    2  A    between atoms: C2_2  and  C9_9 
REMARK    3  A    between atoms: C9_9  and  O10_10 
ROOT
HETATM    1  C3  UNL     1     -31.920  18.322  -1.205  1.00 20.00    -0.011 C 
HETATM    2  C4  UNL     1     -33.032  17.595  -1.351  1.00 20.00    -0.008 C 
HETATM    3  C5  UNL     1     -31.952  19.132   0.049  1.00 20.00     0.028 C 
HETATM    4  C6  UNL     1     -33.984  17.802  -0.218  1.00 20.00     0.048 C 
HETATM    5  C7  UNL     1     -33.418  19.044   0.471  1.00 20.00     0.009 C 
ENDROOT
BRANCH   2   6
HETATM    6  C1  UNL     1     -33.265  16.721  -2.438  1.00 20.00    -0.069 C 
HETATM    7  C2  UNL     1     -33.463  15.979  -3.362  1.00 20.00    -0.075 C 
BRANCH   7   8
HETATM    8  C9  UNL     1     -33.701  15.077  -4.488  1.00 20.00     0.261 C 
BRANCH   8   9
HETATM    9  O10 UNL     1     -34.408  13.928  -4.040  1.00 20.00    -0.384 OA
HETATM   10  C8  UNL     1     -35.679  13.820  -4.666  1.00 20.00     0.202 C 
ENDBRANCH   8   9
ENDBRANCH   7   8
ENDBRANCH   2   6
TORSDOF 3
ENDMDL
MODEL 3
REMARK VINA RESULT:      -4.0     11.001     11.475
REMARK  3 active torsions:
REMARK  status: ('A' for Active; 'I' for Inactive)
REMARK    1  A    between atoms: C1_1  and  C4_4 
REMARK    2  A    between atoms: C2_2  and  C9_9 
REMARK    3  A    between atoms: C9_9  and  O10_10 
ROOT
HETATM    1  C3  UNL     1     -34.269   5.523   4.453  1.00 20.00    -0.011 C 
HETATM    2  C4  UNL     1     -33.632   6.695   4.369  1.00 20.00    -0.008 C 
HETATM    3  C5  UNL     1     -34.892   5.329   5.795  1.00 20.00     0.028 C 
HETATM    4  C6  UNL     1     -33.728   7.471   5.642  1.00 20.00     0.048 C 
HETATM    5  C7  UNL     1     -34.237   6.425   6.634  1.00 20.00     0.009 C 
ENDROOT
BRANCH   2   6
HETATM    6  C1  UNL     1     -32.965   7.149   3.207  1.00 20.00    -0.069 C 
HETATM    7  C2  UNL     1     -32.400   7.533   2.220  1.00 20.00    -0.075 C 
BRANCH   7   8
HETATM    8  C9  UNL     1     -31.713   8.001   1.016  1.00 20.00     0.261 C 
BRANCH   8   9
HETATM    9  O10 UNL     1     -32.586   8.823   0.255  1.00 20.00    -0.384 OA
HETATM   10  C8  UNL     1     -33.013   9.959   0.994  1.00 20.00     0.202 C 
ENDBRANCH   8   9
ENDBRANCH   7   8
ENDBRANCH   2   6
TORSDOF 3
ENDMDL
MODEL 4
REMARK VINA RESULT:      -4.0      2.580      5.631
REMARK  3 active torsions:
REMARK  status: ('A' for Active; 'I' for Inactive)
REMARK    1  A    between atoms: C1_1  and  C4_4 
REMARK    2  A    between atoms: C2_2  and  C9_9 
REMARK    3  A    between atoms: C9_9  and  O10_10 
ROOT
HETATM    1  C3  UNL     1     -33.274  15.375  -3.798  1.00 20.00    -0.011 C 
HETATM    2  C4  UNL     1     -33.616  16.662  -3.670  1.00 20.00    -0.008 C 
HETATM    3  C5  UNL     1     -33.987  14.727  -4.938  1.00 20.00     0.028 C 
HETATM    4  C6  UNL     1     -34.611  17.077  -4.704  1.00 20.00     0.048 C 
HETATM    5  C7  UNL     1     -35.083  15.738  -5.271  1.00 20.00     0.009 C 
ENDROOT
BRANCH   2   6
HETATM    6  C1  UNL     1     -33.082  17.525  -2.685  1.00 20.00    -0.069 C 
HETATM    7  C2  UNL     1     -32.629  18.258  -1.849  1.00 20.00    -0.075 C 
BRANCH   7   8
HETATM    8  C9  UNL     1     -32.077  19.153  -0.832  1.00 20.00     0.261 C 
BRANCH   8   9
HETATM    9  O10 UNL     1     -30.807  18.676  -0.411  1.00 20.00    -0.384 OA
HETATM   10  C8  UNL     1     -30.672  18.727   1.003  1.00 20.00     0.202 C 
ENDBRANCH   8   9
ENDBRANCH   7   8
ENDBRANCH   2   6
TORSDOF 3
ENDMDL
MODEL 5
REMARK VINA RESULT:      -3.8     10.778     11.411
REMARK  3 active torsions:
REMARK  status: ('A' for Active; 'I' for Inactive)
REMARK    1  A    between atoms: C1_1  and  C4_4 
REMARK    2  A    between atoms: C2_2  and  C9_9 
REMARK    3  A    between atoms: C9_9  and  O10_10 
ROOT
HETATM    1  C3  UNL     1     -32.135   7.613   1.851  1.00 20.00    -0.011 C 
HETATM    2  C4  UNL     1     -32.733   8.395   2.757  1.00 20.00    -0.008 C 
HETATM    3  C5  UNL     1     -31.913   8.334   0.563  1.00 20.00     0.028 C 
HETATM    4  C6  UNL     1     -33.005   9.761   2.217  1.00 20.00     0.048 C 
HETATM    5  C7  UNL     1     -32.786   9.578   0.715  1.00 20.00     0.009 C 
ENDROOT
BRANCH   2   6
HETATM    6  C1  UNL     1     -33.050   7.979   4.071  1.00 20.00    -0.069 C 
HETATM    7  C2  UNL     1     -33.319   7.625   5.186  1.00 20.00    -0.075 C 
BRANCH   7   8
HETATM    8  C9  UNL     1     -33.645   7.192   6.545  1.00 20.00     0.261 C 
BRANCH   8   9
HETATM    9  O10 UNL     1     -34.799   6.364   6.520  1.00 20.00    -0.384 OA
HETATM   10  C8  UNL     1     -34.553   5.145   5.831  1.00 20.00     0.202 C 
ENDBRANCH   8   9
ENDBRANCH   7   8
ENDBRANCH   2   6
TORSDOF 3
ENDMDL
MODEL 6
REMARK VINA RESULT:      -3.7      1.824      2.177
REMARK  3 active torsions:
REMARK  status: ('A' for Active; 'I' for Inactive)
REMARK    1  A    between atoms: C1_1  and  C4_4 
REMARK    2  A    between atoms: C2_2  and  C9_9 
REMARK    3  A    between atoms: C9_9  and  O10_10 
ROOT
HETATM    1  C3  UNL     1     -33.615  17.036  -1.502  1.00 20.00    -0.011 C 
HETATM    2  C4  UNL     1     -33.476  17.322  -2.801  1.00 20.00    -0.008 C 
HETATM    3  C5  UNL     1     -33.117  18.145  -0.636  1.00 20.00     0.028 C 
HETATM    4  C6  UNL     1     -32.863  18.669  -3.009  1.00 20.00     0.048 C 
HETATM    5  C7  UNL     1     -32.331  19.014  -1.617  1.00 20.00     0.009 C 
ENDROOT
BRANCH   2   6
HETATM    6  C1  UNL     1     -33.880  16.460  -3.846  1.00 20.00    -0.069 C 
HETATM    7  C2  UNL     1     -34.222  15.727  -4.734  1.00 20.00    -0.075 C 
BRANCH   7   8
HETATM    8  C9  UNL     1     -34.637  14.834  -5.815  1.00 20.00     0.261 C 
BRANCH   8   9
HETATM    9  O10 UNL     1     -33.766  14.990  -6.926  1.00 20.00    -0.384 OA
HETATM   10  C8  UNL     1     -34.152  16.086  -7.744  1.00 20.00     0.202 C 
ENDBRANCH   8   9
ENDBRANCH   7   8
ENDBRANCH   2   6
TORSDOF 3
ENDMDL
MODEL 7
REMARK VINA RESULT:      -3.3      1.844      2.866
REMARK  3 active torsions:
REMARK  status: ('A' for Active; 'I' for Inactive)
REMARK    1  A    between atoms: C1_1  and  C4_4 
REMARK    2  A    between atoms: C2_2  and  C9_9 
REMARK    3  A    between atoms: C9_9  and  O10_10 
ROOT
HETATM    1  C3  UNL     1     -30.959  18.417   0.530  1.00 20.00    -0.011 C 
HETATM    2  C4  UNL     1     -32.203  18.619   0.083  1.00 20.00    -0.008 C 
HETATM    3  C5  UNL     1     -30.875  18.568   2.012  1.00 20.00     0.028 C 
HETATM    4  C6  UNL     1     -33.147  18.937   1.197  1.00 20.00     0.048 C 
HETATM    5  C7  UNL     1     -32.203  19.237   2.361  1.00 20.00     0.009 C 
ENDROOT
BRANCH   2   6
HETATM    6  C1  UNL     1     -32.578  18.523  -1.277  1.00 20.00    -0.069 C 
HETATM    7  C2  UNL     1     -32.897  18.442  -2.432  1.00 20.00    -0.075 C 
BRANCH   7   8
HETATM    8  C9  UNL     1     -33.287  18.344  -3.838  1.00 20.00     0.261 C 
BRANCH   8   9
HETATM    9  O10 UNL     1     -34.453  17.542  -3.957  1.00 20.00    -0.384 OA
HETATM   10  C8  UNL     1     -34.145  16.237  -4.429  1.00 20.00     0.202 C 
ENDBRANCH   8   9
ENDBRANCH   7   8
ENDBRANCH   2   6
TORSDOF 3
ENDMDL
MODEL 8
REMARK VINA RESULT:      -3.3     11.844     13.250
REMARK  3 active torsions:
REMARK  status: ('A' for Active; 'I' for Inactive)
REMARK    1  A    between atoms: C1_1  and  C4_4 
REMARK    2  A    between atoms: C2_2  and  C9_9 
REMARK    3  A    between atoms: C9_9  and  O10_10 
ROOT
HETATM    1  C3  UNL     1     -39.120  12.119   6.426  1.00 20.00    -0.011 C 
HETATM    2  C4  UNL     1     -40.291  12.580   5.972  1.00 20.00    -0.008 C 
HETATM    3  C5  UNL     1     -38.166  11.849   5.311  1.00 20.00     0.028 C 
HETATM    4  C6  UNL     1     -40.303  12.692   4.483  1.00 20.00     0.048 C 
HETATM    5  C7  UNL     1     -39.065  11.893   4.076  1.00 20.00     0.009 C 
ENDROOT
BRANCH   2   6
HETATM    6  C1  UNL     1     -41.375  12.936   6.808  1.00 20.00    -0.069 C 
HETATM    7  C2  UNL     1     -42.295  13.238   7.517  1.00 20.00    -0.075 C 
BRANCH   7   8
HETATM    8  C9  UNL     1     -43.417  13.603   8.382  1.00 20.00     0.261 C 
BRANCH   8   9
HETATM    9  O10 UNL     1     -43.320  12.905   9.615  1.00 20.00    -0.384 OA
HETATM   10  C8  UNL     1     -42.513  13.607  10.551  1.00 20.00     0.202 C 
ENDBRANCH   8   9
ENDBRANCH   7   8
ENDBRANCH   2   6
TORSDOF 3
ENDMDL
MODEL 9
REMARK VINA RESULT:      -3.3     11.814     13.193
REMARK  3 active torsions:
REMARK  status: ('A' for Active; 'I' for Inactive)
REMARK    1  A    between atoms: C1_1  and  C4_4 
REMARK    2  A    between atoms: C2_2  and  C9_9 
REMARK    3  A    between atoms: C9_9  and  O10_10 
ROOT
HETATM    1  C3  UNL     1     -40.389  12.638   4.835  1.00 20.00    -0.011 C 
HETATM    2  C4  UNL     1     -40.190  12.751   6.153  1.00 20.00    -0.008 C 
HETATM    3  C5  UNL     1     -39.278  11.894   4.172  1.00 20.00     0.028 C 
HETATM    4  C6  UNL     1     -38.915  12.099   6.579  1.00 20.00     0.048 C 
HETATM    5  C7  UNL     1     -38.195  11.870   5.249  1.00 20.00     0.009 C 
ENDROOT
BRANCH   2   6
HETATM    6  C1  UNL     1     -41.090  13.393   7.034  1.00 20.00    -0.069 C 
HETATM    7  C2  UNL     1     -41.855  13.938   7.782  1.00 20.00    -0.075 C 
BRANCH   7   8
HETATM    8  C9  UNL     1     -42.788  14.600   8.694  1.00 20.00     0.261 C 
BRANCH   8   9
HETATM    9  O10 UNL     1     -42.746  13.969   9.965  1.00 20.00    -0.384 OA
HETATM   10  C8  UNL     1     -43.416  12.715   9.950  1.00 20.00     0.202 C 
ENDBRANCH   8   9
ENDBRANCH   7   8
ENDBRANCH   2   6
TORSDOF 3
ENDMDL
