MODEL 1
REMARK VINA RESULT:      -4.9      0.000      0.000
REMARK  0 active torsions:
REMARK  status: ('A' for Active; 'I' for Inactive)
ROOT
HETATM    1  C1  UNL     1     -32.054   7.649   1.747  1.00 20.00     0.015 C 
HETATM    2  C2  UNL     1     -32.256   7.789   2.921  1.00 20.00    -0.082 C 
HETATM    3  C3  UNL     1     -34.735   4.902   6.046  1.00 20.00     0.000 C 
HETATM    4  C4  UNL     1     -34.705   5.166   4.538  1.00 20.00     0.003 C 
HETATM    5  C5  UNL     1     -33.654   5.699   6.781  1.00 20.00     0.003 C 
HETATM    6  C6  UNL     1     -34.809   6.660   4.231  1.00 20.00     0.042 C 
HETATM    7  C7  UNL     1     -33.754   7.193   6.474  1.00 20.00     0.042 C 
HETATM    8  C8  UNL     1     -32.495   7.954   4.321  1.00 20.00     0.235 A 
HETATM    9  C9  UNL     1     -33.747   7.412   4.986  1.00 20.00     0.099 A 
HETATM   10  O10 UNL     1     -33.630   8.788   4.603  1.00 20.00    -0.356 OA
ENDROOT
TORSDOF 0
ENDMDL
MODEL 2
REMARK VINA RESULT:      -3.9      9.962     10.870
REMARK  0 active torsions:
REMARK  status: ('A' for Active; 'I' for Inactive)
ROOT
HETATM    1  C1  UNL     1     -38.403  12.040   5.542  1.00 20.00     0.015 C 
HETATM    2  C2  UNL     1     -39.555  12.372   5.589  1.00 20.00    -0.082 C 
HETATM    3  C3  UNL     1     -41.578  16.424   7.522  1.00 20.00     0.000 C 
HETATM    4  C4  UNL     1     -40.295  15.608   7.704  1.00 20.00     0.003 C 
HETATM    5  C5  UNL     1     -42.439  15.876   6.381  1.00 20.00     0.003 C 
HETATM    6  C6  UNL     1     -40.601  14.123   7.902  1.00 20.00     0.042 C 
HETATM    7  C7  UNL     1     -42.745  14.391   6.574  1.00 20.00     0.042 C 
HETATM    8  C8  UNL     1     -40.927  12.770   5.644  1.00 20.00     0.235 A 
HETATM    9  C9  UNL     1     -41.466  13.626   6.775  1.00 20.00     0.099 A 
HETATM   10  O10 UNL     1     -41.633  12.203   6.759  1.00 20.00    -0.356 OA
ENDROOT
TORSDOF 0
ENDMDL
MODEL 3
REMARK VINA RESULT:      -3.9     11.957     13.298
REMARK  0 active torsions:
REMARK  status: ('A' for Active; 'I' for Inactive)
ROOT
HETATM    1  C1  UNL     1     -33.703  17.678  -0.440  1.00 20.00     0.015 C 
HETATM    2  C2  UNL     1     -33.958  17.881  -1.595  1.00 20.00    -0.082 C 
HETATM    3  C3  UNL     1     -34.831  14.675  -5.229  1.00 20.00     0.000 C 
HETATM    4  C4  UNL     1     -34.105  14.680  -3.881  1.00 20.00     0.003 C 
HETATM    5  C5  UNL     1     -35.541  16.006  -5.493  1.00 20.00     0.003 C 
HETATM    6  C6  UNL     1     -33.137  15.859  -3.773  1.00 20.00     0.042 C 
HETATM    7  C7  UNL     1     -34.577  17.186  -5.383  1.00 20.00     0.042 C 
HETATM    8  C8  UNL     1     -34.263  18.122  -2.970  1.00 20.00     0.235 A 
HETATM    9  C9  UNL     1     -33.864  17.144  -4.060  1.00 20.00     0.099 A 
HETATM   10  O10 UNL     1     -33.092  18.320  -3.780  1.00 20.00    -0.356 OA
ENDROOT
TORSDOF 0
ENDMDL
MODEL 4
REMARK VINA RESULT:      -3.9     12.262     14.037
REMARK  0 active torsions:
REMARK  status: ('A' for Active; 'I' for Inactive)
ROOT
HETATM    1  C1  UNL     1     -33.348  17.000  -2.026  1.00 20.00     0.015 C 
HETATM    2  C2  UNL     1     -33.338  16.326  -3.018  1.00 20.00    -0.082 C 
HETATM    3  C3  UNL     1     -35.226  17.260  -7.469  1.00 20.00     0.000 C 
HETATM    4  C4  UNL     1     -35.463  17.715  -6.026  1.00 20.00     0.003 C 
HETATM    5  C5  UNL     1     -34.031  16.308  -7.572  1.00 20.00     0.003 C 
HETATM    6  C6  UNL     1     -35.620  16.521  -5.084  1.00 20.00     0.042 C 
HETATM    7  C7  UNL     1     -34.184  15.115  -6.629  1.00 20.00     0.042 C 
HETATM    8  C8  UNL     1     -33.326  15.523  -4.201  1.00 20.00     0.235 A 
HETATM    9  C9  UNL     1     -34.440  15.598  -5.228  1.00 20.00     0.099 A 
HETATM   10  O10 UNL     1     -34.393  14.562  -4.240  1.00 20.00    -0.356 OA
ENDROOT
TORSDOF 0
ENDMDL
MODEL 5
REMARK VINA RESULT:      -3.8      1.212      4.119
REMARK  0 active torsions:
REMARK  status: ('A' for Active; 'I' for Inactive)
ROOT
HETATM    1  C1  UNL     1     -34.734   5.407   5.185  1.00 20.00     0.015 C 
HETATM    2  C2  UNL     1     -34.344   6.529   5.020  1.00 20.00    -0.082 C 
HETATM    3  C3  UNL     1     -32.261   8.576   1.055  1.00 20.00     0.000 C 
HETATM    4  C4  UNL     1     -32.433   7.171   1.639  1.00 20.00     0.003 C 
HETATM    5  C5  UNL     1     -32.995   9.629   1.891  1.00 20.00     0.003 C 
HETATM    6  C6  UNL     1     -32.000   7.119   3.104  1.00 20.00     0.042 C 
HETATM    7  C7  UNL     1     -32.566   9.578   3.357  1.00 20.00     0.042 C 
HETATM    8  C8  UNL     1     -33.879   7.866   4.822  1.00 20.00     0.235 A 
HETATM    9  C9  UNL     1     -32.724   8.180   3.888  1.00 20.00     0.099 A 
HETATM   10  O10 UNL     1     -32.542   8.075   5.306  1.00 20.00    -0.356 OA
ENDROOT
TORSDOF 0
ENDMDL
MODEL 6
REMARK VINA RESULT:      -3.7     15.148     16.524
REMARK  0 active torsions:
REMARK  status: ('A' for Active; 'I' for Inactive)
ROOT
HETATM    1  C1  UNL     1     -24.303  15.808  12.315  1.00 20.00     0.015 C 
HETATM    2  C2  UNL     1     -24.496  16.642  11.474  1.00 20.00    -0.082 C 
HETATM    3  C3  UNL     1     -21.378  18.563   8.182  1.00 20.00     0.000 C 
HETATM    4  C4  UNL     1     -21.293  17.870   9.545  1.00 20.00     0.003 C 
HETATM    5  C5  UNL     1     -22.818  18.613   7.664  1.00 20.00     0.003 C 
HETATM    6  C6  UNL     1     -22.228  18.522  10.563  1.00 20.00     0.042 C 
HETATM    7  C7  UNL     1     -23.757  19.263   8.681  1.00 20.00     0.042 C 
HETATM    8  C8  UNL     1     -24.726  17.634  10.471  1.00 20.00     0.235 A 
HETATM    9  C9  UNL     1     -23.627  18.574  10.011  1.00 20.00     0.099 A 
HETATM   10  O10 UNL     1     -24.613  18.976  10.971  1.00 20.00    -0.356 OA
ENDROOT
TORSDOF 0
ENDMDL
MODEL 7
REMARK VINA RESULT:      -3.7     15.644     16.552
REMARK  0 active torsions:
REMARK  status: ('A' for Active; 'I' for Inactive)
ROOT
HETATM    1  C1  UNL     1     -21.481  17.764   7.029  1.00 20.00     0.015 C 
HETATM    2  C2  UNL     1     -21.429  17.829   8.227  1.00 20.00    -0.082 C 
HETATM    3  C3  UNL     1     -25.077  17.790  11.534  1.00 20.00     0.000 C 
HETATM    4  C4  UNL     1     -24.902  18.139  10.053  1.00 20.00     0.003 C 
HETATM    5  C5  UNL     1     -23.785  17.235  12.140  1.00 20.00     0.003 C 
HETATM    6  C6  UNL     1     -23.730  19.098   9.840  1.00 20.00     0.042 C 
HETATM    7  C7  UNL     1     -22.611  18.191  11.926  1.00 20.00     0.042 C 
HETATM    8  C8  UNL     1     -21.368  17.906   9.653  1.00 20.00     0.235 A 
HETATM    9  C9  UNL     1     -22.486  18.530  10.467  1.00 20.00     0.099 A 
HETATM   10  O10 UNL     1     -21.293  19.255  10.141  1.00 20.00    -0.356 OA
ENDROOT
TORSDOF 0
ENDMDL
MODEL 8
REMARK VINA RESULT:      -3.6     12.025     13.015
REMARK  0 active torsions:
REMARK  status: ('A' for Active; 'I' for Inactive)
ROOT
HETATM    1  C1  UNL     1     -35.917  14.388  -5.718  1.00 20.00     0.015 C 
HETATM    2  C2  UNL     1     -35.070  14.636  -4.904  1.00 20.00    -0.082 C 
HETATM    3  C3  UNL     1     -34.464  18.658  -2.129  1.00 20.00     0.000 C 
HETATM    4  C4  UNL     1     -35.141  18.294  -3.453  1.00 20.00     0.003 C 
HETATM    5  C5  UNL     1     -33.871  17.425  -1.441  1.00 20.00     0.003 C 
HETATM    6  C6  UNL     1     -34.186  17.543  -4.381  1.00 20.00     0.042 C 
HETATM    7  C7  UNL     1     -32.917  16.671  -2.366  1.00 20.00     0.042 C 
HETATM    8  C8  UNL     1     -34.063  14.931  -3.935  1.00 20.00     0.235 A 
HETATM    9  C9  UNL     1     -33.607  16.354  -3.664  1.00 20.00     0.099 A 
HETATM   10  O10 UNL     1     -32.864  15.471  -4.515  1.00 20.00    -0.356 OA
ENDROOT
TORSDOF 0
ENDMDL
MODEL 9
REMARK VINA RESULT:      -3.4     12.501     14.048
REMARK  0 active torsions:
REMARK  status: ('A' for Active; 'I' for Inactive)
ROOT
HETATM    1  C1  UNL     1     -36.685  19.255  -2.352  1.00 20.00     0.015 C 
HETATM    2  C2  UNL     1     -36.427  18.659  -3.362  1.00 20.00    -0.082 C 
HETATM    3  C3  UNL     1     -33.178  15.041  -4.131  1.00 20.00     0.000 C 
HETATM    4  C4  UNL     1     -33.376  16.184  -3.131  1.00 20.00     0.003 C 
HETATM    5  C5  UNL     1     -34.340  14.950  -5.123  1.00 20.00     0.003 C 
HETATM    6  C6  UNL     1     -33.604  17.516  -3.845  1.00 20.00     0.042 C 
HETATM    7  C7  UNL     1     -34.572  16.282  -5.836  1.00 20.00     0.042 C 
HETATM    8  C8  UNL     1     -36.121  17.949  -4.564  1.00 20.00     0.235 A 
HETATM    9  C9  UNL     1     -34.737  17.383  -4.826  1.00 20.00     0.099 A 
HETATM   10  O10 UNL     1     -35.163  18.629  -5.391  1.00 20.00    -0.356 OA
ENDROOT
TORSDOF 0
ENDMDL
