MODEL 1
REMARK VINA RESULT:      -5.8      0.000      0.000
REMARK  1 active torsions:
REMARK  status: ('A' for Active; 'I' for Inactive)
REMARK    1  A    between atoms: C3_3  and  C6_6 
ROOT
HETATM    1  C1  UNL     1     -32.583   8.885   2.537  1.00 20.00    -0.154 C 
HETATM    2  C5  UNL     1     -32.933   9.484   1.439  1.00 20.00     0.096 C 
HETATM    3  C6  UNL     1     -32.227   8.289   3.634  1.00 20.00     0.058 C 
ENDROOT
BRANCH   3   4
HETATM    4  C3  UNL     1     -33.077   7.343   4.296  1.00 20.00    -0.041 A 
HETATM    5  C2  UNL     1     -33.394   6.117   3.859  1.00 20.00    -0.009 A 
HETATM    6  C4  UNL     1     -34.286   5.551   4.892  1.00 20.00     0.156 A 
HETATM    7  C9  UNL     1     -33.017   5.359   2.643  1.00 20.00     0.052 C 
HETATM    8  C8  UNL     1     -34.516   6.510   6.022  1.00 20.00     0.088 A 
HETATM    9  O10 UNL     1     -34.775   4.432   4.824  1.00 20.00    -0.293 OA
HETATM   10  C7  UNL     1     -33.692   7.722   5.612  1.00 20.00     0.047 A 
ENDBRANCH   3   4
TORSDOF 1
ENDMDL
MODEL 2
REMARK VINA RESULT:      -5.3      1.440      2.275
REMARK  1 active torsions:
REMARK  status: ('A' for Active; 'I' for Inactive)
REMARK    1  A    between atoms: C3_3  and  C6_6 
ROOT
HETATM    1  C1  UNL     1     -32.363   8.098   1.551  1.00 20.00    -0.154 C 
HETATM    2  C5  UNL     1     -32.633   9.080   0.745  1.00 20.00     0.096 C 
HETATM    3  C6  UNL     1     -32.088   7.115   2.353  1.00 20.00     0.058 C 
ENDROOT
BRANCH   3   4
HETATM    4  C3  UNL     1     -32.906   6.807   3.489  1.00 20.00    -0.041 A 
HETATM    5  C2  UNL     1     -33.059   7.560   4.587  1.00 20.00    -0.009 A 
HETATM    6  C4  UNL     1     -33.994   6.810   5.450  1.00 20.00     0.156 A 
HETATM    7  C9  UNL     1     -32.489   8.867   4.992  1.00 20.00     0.052 C 
HETATM    8  C8  UNL     1     -34.428   5.519   4.820  1.00 20.00     0.088 A 
HETATM    9  O10 UNL     1     -34.366   7.202   6.546  1.00 20.00    -0.293 OA
HETATM   10  C7  UNL     1     -33.686   5.525   3.490  1.00 20.00     0.047 A 
ENDBRANCH   3   4
TORSDOF 1
ENDMDL
MODEL 3
REMARK VINA RESULT:      -4.3     11.822     12.539
REMARK  1 active torsions:
REMARK  status: ('A' for Active; 'I' for Inactive)
REMARK    1  A    between atoms: C3_3  and  C6_6 
ROOT
HETATM    1  C1  UNL     1     -33.299  17.399  -2.047  1.00 20.00    -0.154 C 
HETATM    2  C5  UNL     1     -33.296  16.289  -2.722  1.00 20.00     0.096 C 
HETATM    3  C6  UNL     1     -33.307  18.510  -1.377  1.00 20.00     0.058 C 
ENDROOT
BRANCH   3   4
HETATM    4  C3  UNL     1     -32.587  18.662  -0.146  1.00 20.00    -0.041 A 
HETATM    5  C2  UNL     1     -33.110  18.974   1.047  1.00 20.00    -0.009 A 
HETATM    6  C4  UNL     1     -31.965  19.008   1.981  1.00 20.00     0.156 A 
HETATM    7  C9  UNL     1     -34.496  19.249   1.492  1.00 20.00     0.052 C 
HETATM    8  C8  UNL     1     -30.670  18.696   1.291  1.00 20.00     0.088 A 
HETATM    9  O10 UNL     1     -32.070  19.262   3.172  1.00 20.00    -0.293 OA
HETATM   10  C7  UNL     1     -31.099  18.462  -0.150  1.00 20.00     0.047 A 
ENDBRANCH   3   4
TORSDOF 1
ENDMDL
MODEL 4
REMARK VINA RESULT:      -4.3      1.966      3.853
REMARK  1 active torsions:
REMARK  status: ('A' for Active; 'I' for Inactive)
REMARK    1  A    between atoms: C3_3  and  C6_6 
ROOT
HETATM    1  C1  UNL     1     -34.321   6.023   6.173  1.00 20.00    -0.154 C 
HETATM    2  C5  UNL     1     -35.091   4.979   6.219  1.00 20.00     0.096 C 
HETATM    3  C6  UNL     1     -33.551   7.068   6.134  1.00 20.00     0.058 C 
ENDROOT
BRANCH   3   4
HETATM    4  C3  UNL     1     -33.068   7.612   4.899  1.00 20.00    -0.041 A 
HETATM    5  C2  UNL     1     -32.923   6.952   3.742  1.00 20.00    -0.009 A 
HETATM    6  C4  UNL     1     -32.399   7.948   2.785  1.00 20.00     0.156 A 
HETATM    7  C9  UNL     1     -33.185   5.547   3.351  1.00 20.00     0.052 C 
HETATM    8  C8  UNL     1     -32.219   9.296   3.419  1.00 20.00     0.088 A 
HETATM    9  O10 UNL     1     -32.145   7.695   1.616  1.00 20.00    -0.293 OA
HETATM   10  C7  UNL     1     -32.675   9.060   4.853  1.00 20.00     0.047 A 
ENDBRANCH   3   4
TORSDOF 1
ENDMDL
MODEL 5
REMARK VINA RESULT:      -4.2     11.517     12.716
REMARK  1 active torsions:
REMARK  status: ('A' for Active; 'I' for Inactive)
REMARK    1  A    between atoms: C3_3  and  C6_6 
ROOT
HETATM    1  C1  UNL     1     -33.378  16.860  -2.339  1.00 20.00    -0.154 C 
HETATM    2  C5  UNL     1     -33.593  17.375  -1.167  1.00 20.00     0.096 C 
HETATM    3  C6  UNL     1     -33.156  16.346  -3.511  1.00 20.00     0.058 C 
ENDROOT
BRANCH   3   4
HETATM    4  C3  UNL     1     -34.198  15.736  -4.284  1.00 20.00    -0.041 A 
HETATM    5  C2  UNL     1     -35.003  16.351  -5.159  1.00 20.00    -0.009 A 
HETATM    6  C4  UNL     1     -35.893  15.295  -5.684  1.00 20.00     0.156 A 
HETATM    7  C9  UNL     1     -35.104  17.760  -5.608  1.00 20.00     0.052 C 
HETATM    8  C8  UNL     1     -35.595  13.957  -5.075  1.00 20.00     0.088 A 
HETATM    9  O10 UNL     1     -36.767  15.497  -6.515  1.00 20.00    -0.293 OA
HETATM   10  C7  UNL     1     -34.444  14.263  -4.127  1.00 20.00     0.047 A 
ENDBRANCH   3   4
TORSDOF 1
ENDMDL
MODEL 6
REMARK VINA RESULT:      -4.2      2.117      4.433
REMARK  1 active torsions:
REMARK  status: ('A' for Active; 'I' for Inactive)
REMARK    1  A    between atoms: C3_3  and  C6_6 
ROOT
HETATM    1  C1  UNL     1     -34.665   5.177   5.649  1.00 20.00    -0.154 C 
HETATM    2  C5  UNL     1     -34.884   4.986   6.914  1.00 20.00     0.096 C 
HETATM    3  C6  UNL     1     -34.449   5.363   4.382  1.00 20.00     0.058 C 
ENDROOT
BRANCH   3   4
HETATM    4  C3  UNL     1     -33.597   6.410   3.901  1.00 20.00    -0.041 A 
HETATM    5  C2  UNL     1     -33.439   7.622   4.449  1.00 20.00    -0.009 A 
HETATM    6  C4  UNL     1     -32.464   8.320   3.585  1.00 20.00     0.156 A 
HETATM    7  C9  UNL     1     -34.033   8.265   5.644  1.00 20.00     0.052 C 
HETATM    8  C8  UNL     1     -32.012   7.460   2.442  1.00 20.00     0.088 A 
HETATM    9  O10 UNL     1     -32.078   9.462   3.786  1.00 20.00    -0.293 OA
HETATM   10  C7  UNL     1     -32.784   6.167   2.663  1.00 20.00     0.047 A 
ENDBRANCH   3   4
TORSDOF 1
ENDMDL
MODEL 7
REMARK VINA RESULT:      -4.2      1.986      3.171
REMARK  1 active torsions:
REMARK  status: ('A' for Active; 'I' for Inactive)
REMARK    1  A    between atoms: C3_3  and  C6_6 
ROOT
HETATM    1  C1  UNL     1     -32.881   5.004   2.229  1.00 20.00    -0.154 C 
HETATM    2  C5  UNL     1     -32.858   3.896   1.552  1.00 20.00     0.096 C 
HETATM    3  C6  UNL     1     -32.900   6.115   2.901  1.00 20.00     0.058 C 
ENDROOT
BRANCH   3   4
HETATM    4  C3  UNL     1     -33.524   6.216   4.188  1.00 20.00    -0.041 A 
HETATM    5  C2  UNL     1     -33.429   7.245   5.039  1.00 20.00    -0.009 A 
HETATM    6  C4  UNL     1     -34.245   6.864   6.210  1.00 20.00     0.156 A 
HETATM    7  C9  UNL     1     -32.710   8.539   4.969  1.00 20.00     0.052 C 
HETATM    8  C8  UNL     1     -34.870   5.511   6.041  1.00 20.00     0.088 A 
HETATM    9  O10 UNL     1     -34.390   7.574   7.195  1.00 20.00    -0.293 OA
HETATM   10  C7  UNL     1     -34.376   5.077   4.668  1.00 20.00     0.047 A 
ENDBRANCH   3   4
TORSDOF 1
ENDMDL
MODEL 8
REMARK VINA RESULT:      -4.1     10.115     11.061
REMARK  1 active torsions:
REMARK  status: ('A' for Active; 'I' for Inactive)
REMARK    1  A    between atoms: C3_3  and  C6_6 
ROOT
HETATM    1  C1  UNL     1     -39.610  11.978   5.028  1.00 20.00    -0.154 C 
HETATM    2  C5  UNL     1     -38.928  11.644   3.975  1.00 20.00     0.096 C 
HETATM    3  C6  UNL     1     -40.290  12.306   6.084  1.00 20.00     0.058 C 
ENDROOT
BRANCH   3   4
HETATM    4  C3  UNL     1     -40.997  13.550   6.178  1.00 20.00    -0.041 A 
HETATM    5  C2  UNL     1     -40.987  14.393   7.219  1.00 20.00    -0.009 A 
HETATM    6  C4  UNL     1     -41.864  15.515   6.824  1.00 20.00     0.156 A 
HETATM    7  C9  UNL     1     -40.304  14.352   8.534  1.00 20.00     0.052 C 
HETATM    8  C8  UNL     1     -42.436  15.323   5.451  1.00 20.00     0.088 A 
HETATM    9  O10 UNL     1     -42.091  16.480   7.539  1.00 20.00    -0.293 OA
HETATM   10  C7  UNL     1     -41.843  13.989   5.019  1.00 20.00     0.047 A 
ENDBRANCH   3   4
TORSDOF 1
ENDMDL
MODEL 9
REMARK VINA RESULT:      -4.0     11.720     13.018
REMARK  1 active torsions:
REMARK  status: ('A' for Active; 'I' for Inactive)
REMARK    1  A    between atoms: C3_3  and  C6_6 
ROOT
HETATM    1  C1  UNL     1     -33.567  17.466  -1.270  1.00 20.00    -0.154 C 
HETATM    2  C5  UNL     1     -33.926  18.226  -0.281  1.00 20.00     0.096 C 
HETATM    3  C6  UNL     1     -33.205  16.702  -2.256  1.00 20.00     0.058 C 
ENDROOT
BRANCH   3   4
HETATM    4  C3  UNL     1     -33.729  16.868  -3.580  1.00 20.00    -0.041 A 
HETATM    5  C2  UNL     1     -34.089  15.890  -4.421  1.00 20.00    -0.009 A 
HETATM    6  C4  UNL     1     -34.559  16.575  -5.643  1.00 20.00     0.156 A 
HETATM    7  C9  UNL     1     -34.079  14.413  -4.301  1.00 20.00     0.052 C 
HETATM    8  C8  UNL     1     -34.471  18.067  -5.518  1.00 20.00     0.088 A 
HETATM    9  O10 UNL     1     -34.969  15.987  -6.633  1.00 20.00    -0.293 OA
HETATM   10  C7  UNL     1     -33.907  18.259  -4.117  1.00 20.00     0.047 A 
ENDBRANCH   3   4
TORSDOF 1
ENDMDL
