MODEL 1
REMARK VINA RESULT:      -3.1      0.000      0.000
REMARK  2 active torsions:
REMARK  status: ('A' for Active; 'I' for Inactive)
REMARK    1  A    between atoms: C4_4  and  O6_6 
REMARK    2  A    between atoms: C4_4  and  O7_7 
ROOT
HETATM    1  C1  UNL     1     -33.482   5.929   3.515  1.00 20.00     0.120 C 
HETATM    2  C4  UNL     1     -34.178   6.771   4.499  1.00 20.00     0.369 C 
HETATM    3  N5  UNL     1     -32.933   5.265   2.737  1.00 20.00    -0.192 NA
ENDROOT
BRANCH   2   4
HETATM    4  O6  UNL     1     -33.220   7.375   5.372  1.00 20.00    -0.354 OA
HETATM    5  C2  UNL     1     -32.482   8.418   4.746  1.00 20.00     0.206 C 
ENDBRANCH   2   4
BRANCH   2   6
HETATM    6  O7  UNL     1     -35.082   5.935   5.233  1.00 20.00    -0.354 OA
HETATM    7  C3  UNL     1     -34.480   5.381   6.396  1.00 20.00     0.206 C 
ENDBRANCH   2   6
TORSDOF 2
ENDMDL
MODEL 2
REMARK VINA RESULT:      -3.1      1.942      2.988
REMARK  2 active torsions:
REMARK  status: ('A' for Active; 'I' for Inactive)
REMARK    1  A    between atoms: C4_4  and  O6_6 
REMARK    2  A    between atoms: C4_4  and  O7_7 
ROOT
HETATM    1  C1  UNL     1     -34.320   6.086   5.468  1.00 20.00     0.120 C 
HETATM    2  C4  UNL     1     -33.959   7.095   4.461  1.00 20.00     0.369 C 
HETATM    3  N5  UNL     1     -34.606   5.288   6.261  1.00 20.00    -0.192 NA
ENDROOT
BRANCH   2   4
HETATM    4  O6  UNL     1     -32.849   6.624   3.691  1.00 20.00    -0.354 OA
HETATM    5  C2  UNL     1     -33.157   5.459   2.935  1.00 20.00     0.206 C 
ENDBRANCH   2   4
BRANCH   2   6
HETATM    6  O7  UNL     1     -33.624   8.305   5.153  1.00 20.00    -0.354 OA
HETATM    7  C3  UNL     1     -32.340   8.796   4.790  1.00 20.00     0.206 C 
ENDBRANCH   2   6
TORSDOF 2
ENDMDL
MODEL 3
REMARK VINA RESULT:      -3.1      1.797      2.908
REMARK  2 active torsions:
REMARK  status: ('A' for Active; 'I' for Inactive)
REMARK    1  A    between atoms: C4_4  and  O6_6 
REMARK    2  A    between atoms: C4_4  and  O7_7 
ROOT
HETATM    1  C1  UNL     1     -33.424   7.278   4.590  1.00 20.00     0.120 C 
HETATM    2  C4  UNL     1     -34.409   6.237   4.263  1.00 20.00     0.369 C 
HETATM    3  N5  UNL     1     -32.648   8.101   4.848  1.00 20.00    -0.192 NA
ENDROOT
BRANCH   2   4
HETATM    4  O6  UNL     1     -35.195   5.943   5.421  1.00 20.00    -0.354 OA
HETATM    5  C2  UNL     1     -34.436   5.350   6.468  1.00 20.00     0.206 C 
ENDBRANCH   2   4
BRANCH   2   6
HETATM    6  O7  UNL     1     -33.691   5.075   3.826  1.00 20.00    -0.354 OA
HETATM    7  C3  UNL     1     -32.933   5.320   2.648  1.00 20.00     0.206 C 
ENDBRANCH   2   6
TORSDOF 2
ENDMDL
MODEL 4
REMARK VINA RESULT:      -2.9      0.624      2.629
REMARK  2 active torsions:
REMARK  status: ('A' for Active; 'I' for Inactive)
REMARK    1  A    between atoms: C4_4  and  O6_6 
REMARK    2  A    between atoms: C4_4  and  O7_7 
ROOT
HETATM    1  C1  UNL     1     -33.205   5.964   3.488  1.00 20.00     0.120 C 
HETATM    2  C4  UNL     1     -33.574   6.712   4.698  1.00 20.00     0.369 C 
HETATM    3  N5  UNL     1     -32.913   5.371   2.534  1.00 20.00    -0.192 NA
ENDROOT
BRANCH   2   4
HETATM    4  O6  UNL     1     -34.843   6.254   5.174  1.00 20.00    -0.354 OA
HETATM    5  C2  UNL     1     -34.729   5.367   6.281  1.00 20.00     0.206 C 
ENDBRANCH   2   4
BRANCH   2   6
HETATM    6  O7  UNL     1     -33.631   8.103   4.355  1.00 20.00    -0.354 OA
HETATM    7  C3  UNL     1     -32.356   8.729   4.427  1.00 20.00     0.206 C 
ENDBRANCH   2   6
TORSDOF 2
ENDMDL
MODEL 5
REMARK VINA RESULT:      -2.9     12.313     12.818
REMARK  2 active torsions:
REMARK  status: ('A' for Active; 'I' for Inactive)
REMARK    1  A    between atoms: C4_4  and  O6_6 
REMARK    2  A    between atoms: C4_4  and  O7_7 
ROOT
HETATM    1  C1  UNL     1     -33.931  15.145  -6.086  1.00 20.00     0.120 C 
HETATM    2  C4  UNL     1     -34.202  15.237  -4.643  1.00 20.00     0.369 C 
HETATM    3  N5  UNL     1     -33.717  15.073  -7.224  1.00 20.00    -0.192 NA
ENDROOT
BRANCH   2   4
HETATM    4  O6  UNL     1     -33.021  15.673  -3.963  1.00 20.00    -0.354 OA
HETATM    5  C2  UNL     1     -33.306  16.433  -2.795  1.00 20.00     0.206 C 
ENDBRANCH   2   4
BRANCH   2   6
HETATM    6  O7  UNL     1     -34.603  13.939  -4.187  1.00 20.00    -0.354 OA
HETATM    7  C3  UNL     1     -35.922  13.605  -4.602  1.00 20.00     0.206 C 
ENDBRANCH   2   6
TORSDOF 2
ENDMDL
MODEL 6
REMARK VINA RESULT:      -2.9     12.698     13.210
REMARK  2 active torsions:
REMARK  status: ('A' for Active; 'I' for Inactive)
REMARK    1  A    between atoms: C4_4  and  O6_6 
REMARK    2  A    between atoms: C4_4  and  O7_7 
ROOT
HETATM    1  C1  UNL     1     -31.802  18.529  -0.818  1.00 20.00     0.120 C 
HETATM    2  C4  UNL     1     -33.166  18.460  -1.365  1.00 20.00     0.369 C 
HETATM    3  N5  UNL     1     -30.727  18.586  -0.387  1.00 20.00    -0.192 NA
ENDROOT
BRANCH   2   4
HETATM    4  O6  UNL     1     -34.052  19.214  -0.533  1.00 20.00    -0.354 OA
HETATM    5  C2  UNL     1     -34.218  18.641   0.759  1.00 20.00     0.206 C 
ENDBRANCH   2   4
BRANCH   2   6
HETATM    6  O7  UNL     1     -33.553  17.080  -1.404  1.00 20.00    -0.354 OA
HETATM    7  C3  UNL     1     -33.351  16.499  -2.686  1.00 20.00     0.206 C 
ENDBRANCH   2   6
TORSDOF 2
ENDMDL
MODEL 7
REMARK VINA RESULT:      -2.8     12.388     13.037
REMARK  2 active torsions:
REMARK  status: ('A' for Active; 'I' for Inactive)
REMARK    1  A    between atoms: C4_4  and  O6_6 
REMARK    2  A    between atoms: C4_4  and  O7_7 
ROOT
HETATM    1  C1  UNL     1     -33.931  15.022  -6.118  1.00 20.00     0.120 C 
HETATM    2  C4  UNL     1     -33.716  14.915  -4.667  1.00 20.00     0.369 C 
HETATM    3  N5  UNL     1     -34.099  15.105  -7.263  1.00 20.00    -0.192 NA
ENDROOT
BRANCH   2   4
HETATM    4  O6  UNL     1     -34.513  13.848  -4.145  1.00 20.00    -0.354 OA
HETATM    5  C2  UNL     1     -35.837  13.842  -4.665  1.00 20.00     0.206 C 
ENDBRANCH   2   4
BRANCH   2   6
HETATM    6  O7  UNL     1     -34.088  16.166  -4.075  1.00 20.00    -0.354 OA
HETATM    7  C3  UNL     1     -33.359  16.438  -2.885  1.00 20.00     0.206 C 
ENDBRANCH   2   6
TORSDOF 2
ENDMDL
MODEL 8
REMARK VINA RESULT:      -2.8     12.491     13.243
REMARK  2 active torsions:
REMARK  status: ('A' for Active; 'I' for Inactive)
REMARK    1  A    between atoms: C4_4  and  O6_6 
REMARK    2  A    between atoms: C4_4  and  O7_7 
ROOT
HETATM    1  C1  UNL     1     -35.184  14.022  -4.791  1.00 20.00     0.120 C 
HETATM    2  C4  UNL     1     -34.321  15.106  -5.283  1.00 20.00     0.369 C 
HETATM    3  N5  UNL     1     -35.866  13.168  -4.403  1.00 20.00    -0.192 NA
ENDROOT
BRANCH   2   4
HETATM    4  O6  UNL     1     -33.936  14.833  -6.634  1.00 20.00    -0.354 OA
HETATM    5  C2  UNL     1     -34.251  15.898  -7.523  1.00 20.00     0.206 C 
ENDBRANCH   2   4
BRANCH   2   6
HETATM    6  O7  UNL     1     -33.172  15.176  -4.429  1.00 20.00    -0.354 OA
HETATM    7  C3  UNL     1     -33.357  16.080  -3.347  1.00 20.00     0.206 C 
ENDBRANCH   2   6
TORSDOF 2
ENDMDL
MODEL 9
REMARK VINA RESULT:      -2.7      1.780      2.422
REMARK  2 active torsions:
REMARK  status: ('A' for Active; 'I' for Inactive)
REMARK    1  A    between atoms: C4_4  and  O6_6 
REMARK    2  A    between atoms: C4_4  and  O7_7 
ROOT
HETATM    1  C1  UNL     1     -32.895   7.848   4.113  1.00 20.00     0.120 C 
HETATM    2  C4  UNL     1     -33.293   6.567   4.715  1.00 20.00     0.369 C 
HETATM    3  N5  UNL     1     -32.579   8.858   3.637  1.00 20.00    -0.192 NA
ENDROOT
BRANCH   2   4
HETATM    4  O6  UNL     1     -33.900   5.739   3.718  1.00 20.00    -0.354 OA
HETATM    5  C2  UNL     1     -32.971   5.283   2.741  1.00 20.00     0.206 C 
ENDBRANCH   2   4
BRANCH   2   6
HETATM    6  O7  UNL     1     -34.216   6.848   5.775  1.00 20.00    -0.354 OA
HETATM    7  C3  UNL     1     -34.716   5.664   6.384  1.00 20.00     0.206 C 
ENDBRANCH   2   6
TORSDOF 2
ENDMDL
