MODEL 1
REMARK VINA RESULT:      -4.4      0.000      0.000
REMARK  4 active torsions:
REMARK  status: ('A' for Active; 'I' for Inactive)
REMARK    1  A    between atoms: C2_2  and  C6_6 
REMARK    2  A    between atoms: C3_3  and  C7_7 
REMARK    3  A    between atoms: C3_3  and  O9_9 
REMARK    4  A    between atoms: C6_6  and  C8_8 
ROOT
HETATM    1  C1  UNL     1     -33.640   8.755   4.968  1.00 20.00     0.045 A 
HETATM    2  C2  UNL     1     -32.436   8.012   4.449  1.00 20.00     0.023 A 
HETATM    3  C3  UNL     1     -33.474   7.288   5.278  1.00 20.00     0.062 A 
ENDROOT
BRANCH   3   4
HETATM    4  C7  UNL     1     -34.413   6.289   4.687  1.00 20.00     0.034 C 
HETATM    5  C4  UNL     1     -34.752   5.169   5.635  1.00 20.00     0.008 C 
ENDBRANCH   3   4
BRANCH   3   6
HETATM    6  O9  UNL     1     -33.078   6.973   6.626  1.00 20.00    -0.389 OA
HETATM    7  H25 UNL     1     -33.352   6.059   6.772  1.00 20.00     0.210 HD
ENDBRANCH   3   6
BRANCH   2   8
HETATM    8  C6  UNL     1     -32.275   7.772   2.987  1.00 20.00     0.007 C 
BRANCH   8   9
HETATM    9  C8  UNL     1     -32.644   9.005   2.143  1.00 20.00    -0.004 C 
HETATM   10  C5  UNL     1     -32.432   8.778   0.655  1.00 20.00     0.005 C 
ENDBRANCH   8   9
ENDBRANCH   2   8
TORSDOF 4
ENDMDL
MODEL 2
REMARK VINA RESULT:      -4.4      2.348      3.383
REMARK  4 active torsions:
REMARK  status: ('A' for Active; 'I' for Inactive)
REMARK    1  A    between atoms: C2_2  and  C6_6 
REMARK    2  A    between atoms: C3_3  and  C7_7 
REMARK    3  A    between atoms: C3_3  and  O9_9 
REMARK    4  A    between atoms: C6_6  and  C8_8 
ROOT
HETATM    1  C1  UNL     1     -35.352   6.049   4.629  1.00 20.00     0.045 A 
HETATM    2  C2  UNL     1     -34.367   5.908   5.761  1.00 20.00     0.023 A 
HETATM    3  C3  UNL     1     -34.080   5.265   4.422  1.00 20.00     0.062 A 
ENDROOT
BRANCH   3   4
HETATM    4  C7  UNL     1     -33.027   5.781   3.498  1.00 20.00     0.034 C 
HETATM    5  C4  UNL     1     -32.908   4.973   2.233  1.00 20.00     0.008 C 
ENDBRANCH   3   4
BRANCH   3   6
HETATM    6  O9  UNL     1     -34.226   3.833   4.380  1.00 20.00    -0.389 OA
HETATM    7  H25 UNL     1     -33.469   3.479   4.863  1.00 20.00     0.210 HD
ENDBRANCH   3   6
BRANCH   2   8
HETATM    8  C6  UNL     1     -33.614   7.096   6.253  1.00 20.00     0.007 C 
BRANCH   8   9
HETATM    9  C8  UNL     1     -33.804   8.329   5.352  1.00 20.00    -0.004 C 
HETATM   10  C5  UNL     1     -32.483   8.903   4.863  1.00 20.00     0.005 C 
ENDBRANCH   8   9
ENDBRANCH   2   8
TORSDOF 4
ENDMDL
MODEL 3
REMARK VINA RESULT:      -4.2      2.009      3.780
REMARK  4 active torsions:
REMARK  status: ('A' for Active; 'I' for Inactive)
REMARK    1  A    between atoms: C2_2  and  C6_6 
REMARK    2  A    between atoms: C3_3  and  C7_7 
REMARK    3  A    between atoms: C3_3  and  O9_9 
REMARK    4  A    between atoms: C6_6  and  C8_8 
ROOT
HETATM    1  C1  UNL     1     -32.152   9.084   4.954  1.00 20.00     0.045 A 
HETATM    2  C2  UNL     1     -33.475   8.362   4.984  1.00 20.00     0.023 A 
HETATM    3  C3  UNL     1     -32.606   8.302   3.747  1.00 20.00     0.062 A 
ENDROOT
BRANCH   3   4
HETATM    4  C7  UNL     1     -31.878   7.063   3.342  1.00 20.00     0.034 C 
HETATM    5  C4  UNL     1     -32.713   6.144   2.490  1.00 20.00     0.008 C 
ENDBRANCH   3   4
BRANCH   3   6
HETATM    6  O9  UNL     1     -33.068   9.085   2.630  1.00 20.00    -0.389 OA
HETATM    7  H25 UNL     1     -32.383   9.748   2.475  1.00 20.00     0.210 HD
ENDBRANCH   3   6
BRANCH   2   8
HETATM    8  C6  UNL     1     -33.669   7.187   5.880  1.00 20.00     0.007 C 
BRANCH   8   9
HETATM    9  C8  UNL     1     -34.872   6.322   5.466  1.00 20.00    -0.004 C 
HETATM   10  C5  UNL     1     -34.534   4.841   5.410  1.00 20.00     0.005 C 
ENDBRANCH   8   9
ENDBRANCH   2   8
TORSDOF 4
ENDMDL
MODEL 4
REMARK VINA RESULT:      -4.2      1.433      2.210
REMARK  4 active torsions:
REMARK  status: ('A' for Active; 'I' for Inactive)
REMARK    1  A    between atoms: C2_2  and  C6_6 
REMARK    2  A    between atoms: C3_3  and  C7_7 
REMARK    3  A    between atoms: C3_3  and  O9_9 
REMARK    4  A    between atoms: C6_6  and  C8_8 
ROOT
HETATM    1  C1  UNL     1     -34.760   6.928   6.897  1.00 20.00     0.045 A 
HETATM    2  C2  UNL     1     -33.498   7.206   6.121  1.00 20.00     0.023 A 
HETATM    3  C3  UNL     1     -34.173   5.856   6.013  1.00 20.00     0.062 A 
ENDROOT
BRANCH   3   4
HETATM    4  C7  UNL     1     -34.898   5.423   4.782  1.00 20.00     0.034 C 
HETATM    5  C4  UNL     1     -34.089   4.487   3.923  1.00 20.00     0.008 C 
ENDBRANCH   3   4
BRANCH   3   6
HETATM    6  O9  UNL     1     -33.507   4.776   6.694  1.00 20.00    -0.389 OA
HETATM    7  H25 UNL     1     -34.170   4.389   7.280  1.00 20.00     0.210 HD
ENDBRANCH   3   6
BRANCH   2   8
HETATM    8  C6  UNL     1     -33.504   8.193   5.005  1.00 20.00     0.007 C 
BRANCH   8   9
HETATM    9  C8  UNL     1     -32.155   8.257   4.266  1.00 20.00    -0.004 C 
HETATM   10  C5  UNL     1     -32.166   7.475   2.963  1.00 20.00     0.005 C 
ENDBRANCH   8   9
ENDBRANCH   2   8
TORSDOF 4
ENDMDL
MODEL 5
REMARK VINA RESULT:      -4.2      1.931      2.838
REMARK  4 active torsions:
REMARK  status: ('A' for Active; 'I' for Inactive)
REMARK    1  A    between atoms: C2_2  and  C6_6 
REMARK    2  A    between atoms: C3_3  and  C7_7 
REMARK    3  A    between atoms: C3_3  and  O9_9 
REMARK    4  A    between atoms: C6_6  and  C8_8 
ROOT
HETATM    1  C1  UNL     1     -33.816   4.599   3.609  1.00 20.00     0.045 A 
HETATM    2  C2  UNL     1     -33.749   6.089   3.395  1.00 20.00     0.023 A 
HETATM    3  C3  UNL     1     -34.491   5.527   4.587  1.00 20.00     0.062 A 
ENDROOT
BRANCH   3   4
HETATM    4  C7  UNL     1     -33.971   5.649   5.981  1.00 20.00     0.034 C 
HETATM    5  C4  UNL     1     -34.424   6.910   6.669  1.00 20.00     0.008 C 
ENDBRANCH   3   4
BRANCH   3   6
HETATM    6  O9  UNL     1     -35.928   5.588   4.505  1.00 20.00    -0.389 OA
HETATM    7  H25 UNL     1     -36.241   4.711   4.759  1.00 20.00     0.210 HD
ENDBRANCH   3   6
BRANCH   2   8
HETATM    8  C6  UNL     1     -32.451   6.809   3.531  1.00 20.00     0.007 C 
BRANCH   8   9
HETATM    9  C8  UNL     1     -32.621   8.339   3.515  1.00 20.00    -0.004 C 
HETATM   10  C5  UNL     1     -32.240   8.981   4.839  1.00 20.00     0.005 C 
ENDBRANCH   8   9
ENDBRANCH   2   8
TORSDOF 4
ENDMDL
MODEL 6
REMARK VINA RESULT:      -4.0      1.612      2.940
REMARK  4 active torsions:
REMARK  status: ('A' for Active; 'I' for Inactive)
REMARK    1  A    between atoms: C2_2  and  C6_6 
REMARK    2  A    between atoms: C3_3  and  C7_7 
REMARK    3  A    between atoms: C3_3  and  O9_9 
REMARK    4  A    between atoms: C6_6  and  C8_8 
ROOT
HETATM    1  C1  UNL     1     -32.649   8.795   2.926  1.00 20.00     0.045 A 
HETATM    2  C2  UNL     1     -32.262   7.350   3.112  1.00 20.00     0.023 A 
HETATM    3  C3  UNL     1     -32.745   8.165   4.292  1.00 20.00     0.062 A 
ENDROOT
BRANCH   3   4
HETATM    4  C7  UNL     1     -34.081   7.945   4.920  1.00 20.00     0.034 C 
HETATM    5  C4  UNL     1     -33.997   7.235   6.246  1.00 20.00     0.008 C 
ENDBRANCH   3   4
BRANCH   3   6
HETATM    6  O9  UNL     1     -31.727   8.551   5.234  1.00 20.00    -0.389 OA
HETATM    7  H25 UNL     1     -30.945   8.755   4.706  1.00 20.00     0.210 HD
ENDBRANCH   3   6
BRANCH   2   8
HETATM    8  C6  UNL     1     -33.084   6.269   2.500  1.00 20.00     0.007 C 
BRANCH   8   9
HETATM    9  C8  UNL     1     -32.790   4.887   3.112  1.00 20.00    -0.004 C 
HETATM   10  C5  UNL     1     -33.898   4.413   4.040  1.00 20.00     0.005 C 
ENDBRANCH   8   9
ENDBRANCH   2   8
TORSDOF 4
ENDMDL
MODEL 7
REMARK VINA RESULT:      -3.9     11.310     12.568
REMARK  4 active torsions:
REMARK  status: ('A' for Active; 'I' for Inactive)
REMARK    1  A    between atoms: C2_2  and  C6_6 
REMARK    2  A    between atoms: C3_3  and  C7_7 
REMARK    3  A    between atoms: C3_3  and  O9_9 
REMARK    4  A    between atoms: C6_6  and  C8_8 
ROOT
HETATM    1  C1  UNL     1     -34.096  14.355  -4.154  1.00 20.00     0.045 A 
HETATM    2  C2  UNL     1     -33.356  15.667  -4.211  1.00 20.00     0.023 A 
HETATM    3  C3  UNL     1     -34.098  15.161  -5.429  1.00 20.00     0.062 A 
ENDROOT
BRANCH   3   4
HETATM    4  C7  UNL     1     -35.362  15.791  -5.912  1.00 20.00     0.034 C 
HETATM    5  C4  UNL     1     -35.831  15.231  -7.229  1.00 20.00     0.008 C 
ENDBRANCH   3   4
BRANCH   3   6
HETATM    6  O9  UNL     1     -33.268  14.656  -6.492  1.00 20.00    -0.389 OA
HETATM    7  H25 UNL     1     -33.872  14.433  -7.211  1.00 20.00     0.210 HD
ENDBRANCH   3   6
BRANCH   2   8
HETATM    8  C6  UNL     1     -33.832  16.832  -3.414  1.00 20.00     0.007 C 
BRANCH   8   9
HETATM    9  C8  UNL     1     -33.077  16.984  -2.081  1.00 20.00    -0.004 C 
HETATM   10  C5  UNL     1     -33.876  17.756  -1.044  1.00 20.00     0.005 C 
ENDBRANCH   8   9
ENDBRANCH   2   8
TORSDOF 4
ENDMDL
MODEL 8
REMARK VINA RESULT:      -3.8      1.962      3.456
REMARK  4 active torsions:
REMARK  status: ('A' for Active; 'I' for Inactive)
REMARK    1  A    between atoms: C2_2  and  C6_6 
REMARK    2  A    between atoms: C3_3  and  C7_7 
REMARK    3  A    between atoms: C3_3  and  O9_9 
REMARK    4  A    between atoms: C6_6  and  C8_8 
ROOT
HETATM    1  C1  UNL     1     -33.268   6.046   6.323  1.00 20.00     0.045 A 
HETATM    2  C2  UNL     1     -34.707   5.949   5.883  1.00 20.00     0.023 A 
HETATM    3  C3  UNL     1     -34.038   7.302   5.997  1.00 20.00     0.062 A 
ENDROOT
BRANCH   3   4
HETATM    4  C7  UNL     1     -33.671   8.114   4.800  1.00 20.00     0.034 C 
HETATM    5  C4  UNL     1     -32.203   8.444   4.743  1.00 20.00     0.008 C 
ENDBRANCH   3   4
BRANCH   3   6
HETATM    6  O9  UNL     1     -34.445   8.098   7.126  1.00 20.00    -0.389 OA
HETATM    7  H25 UNL     1     -33.894   8.891   7.098  1.00 20.00     0.210 HD
ENDBRANCH   3   6
BRANCH   2   8
HETATM    8  C6  UNL     1     -35.051   5.338   4.568  1.00 20.00     0.007 C 
BRANCH   8   9
HETATM    9  C8  UNL     1     -33.913   4.465   4.008  1.00 20.00    -0.004 C 
HETATM   10  C5  UNL     1     -33.209   5.114   2.827  1.00 20.00     0.005 C 
ENDBRANCH   8   9
ENDBRANCH   2   8
TORSDOF 4
ENDMDL
MODEL 9
REMARK VINA RESULT:      -3.7     11.385     12.057
REMARK  4 active torsions:
REMARK  status: ('A' for Active; 'I' for Inactive)
REMARK    1  A    between atoms: C2_2  and  C6_6 
REMARK    2  A    between atoms: C3_3  and  C7_7 
REMARK    3  A    between atoms: C3_3  and  O9_9 
REMARK    4  A    between atoms: C6_6  and  C8_8 
ROOT
HETATM    1  C1  UNL     1     -32.656  19.263  -1.994  1.00 20.00     0.045 A 
HETATM    2  C2  UNL     1     -32.431  17.772  -1.997  1.00 20.00     0.023 A 
HETATM    3  C3  UNL     1     -32.054  18.594  -0.784  1.00 20.00     0.062 A 
ENDROOT
BRANCH   3   4
HETATM    4  C7  UNL     1     -32.823  18.531   0.494  1.00 20.00     0.034 C 
HETATM    5  C4  UNL     1     -31.942  18.597   1.713  1.00 20.00     0.008 C 
ENDBRANCH   3   4
BRANCH   3   6
HETATM    6  O9  UNL     1     -30.641  18.800  -0.592  1.00 20.00    -0.389 OA
HETATM    7  H25 UNL     1     -30.565  19.577  -0.025  1.00 20.00     0.210 HD
ENDBRANCH   3   6
BRANCH   2   8
HETATM    8  C6  UNL     1     -33.591  16.838  -1.998  1.00 20.00     0.007 C 
BRANCH   8   9
HETATM    9  C8  UNL     1     -33.561  15.861  -3.187  1.00 20.00    -0.004 C 
HETATM   10  C5  UNL     1     -34.069  16.492  -4.473  1.00 20.00     0.005 C 
ENDBRANCH   8   9
ENDBRANCH   2   8
TORSDOF 4
ENDMDL
