MODEL 1
REMARK VINA RESULT:      -4.1      0.000      0.000
REMARK  1 active torsions:
REMARK  status: ('A' for Active; 'I' for Inactive)
REMARK    1  A    between atoms: C1_1  and  C6_6 
ROOT
HETATM    1  C1  UNL     1     -33.306   7.545   5.052  1.00 20.00     0.149 C 
HETATM    2  C2  UNL     1     -34.377   6.114   6.315  1.00 20.00     0.209 C 
HETATM    3  C3  UNL     1     -34.463   5.713   4.847  1.00 20.00     0.070 C 
HETATM    4  C4  UNL     1     -34.025   4.271   4.616  1.00 20.00     0.042 C 
HETATM    5  C5  UNL     1     -35.865   5.948   4.273  1.00 20.00     0.042 C 
HETATM    6  N7  UNL     1     -33.526   6.628   4.165  1.00 20.00    -0.257 NA
HETATM    7  O8  UNL     1     -33.848   7.433   6.285  1.00 20.00    -0.335 OA
ENDROOT
BRANCH   1   8
HETATM    8  C6  UNL     1     -32.477   8.758   4.841  1.00 20.00     0.200 C 
HETATM    9 CL9  UNL     1     -32.475   9.100   3.107  1.00 20.00    -0.122 Cl
ENDBRANCH   1   8
TORSDOF 1
ENDMDL
MODEL 2
REMARK VINA RESULT:      -3.7      9.213      9.812
REMARK  1 active torsions:
REMARK  status: ('A' for Active; 'I' for Inactive)
REMARK    1  A    between atoms: C1_1  and  C6_6 
ROOT
HETATM    1  C1  UNL     1     -40.096  12.685   5.906  1.00 20.00     0.149 C 
HETATM    2  C2  UNL     1     -41.870  13.905   5.504  1.00 20.00     0.209 C 
HETATM    3  C3  UNL     1     -41.889  13.371   6.932  1.00 20.00     0.070 C 
HETATM    4  C4  UNL     1     -42.095  14.479   7.958  1.00 20.00     0.042 C 
HETATM    5  C5  UNL     1     -42.937  12.268   7.113  1.00 20.00     0.042 C 
HETATM    6  N7  UNL     1     -40.552  12.772   7.114  1.00 20.00    -0.257 NA
HETATM    7  O8  UNL     1     -40.819  13.180   4.876  1.00 20.00    -0.335 OA
ENDROOT
BRANCH   1   8
HETATM    8  C6  UNL     1     -38.799  12.075   5.522  1.00 20.00     0.200 C 
HETATM    9 CL9  UNL     1     -38.903  11.646   3.811  1.00 20.00    -0.122 Cl
ENDBRANCH   1   8
TORSDOF 1
ENDMDL
MODEL 3
REMARK VINA RESULT:      -3.5     12.451     13.098
REMARK  1 active torsions:
REMARK  status: ('A' for Active; 'I' for Inactive)
REMARK    1  A    between atoms: C1_1  and  C6_6 
ROOT
HETATM    1  C1  UNL     1     -31.636  18.510   0.380  1.00 20.00     0.149 C 
HETATM    2  C2  UNL     1     -32.184  19.147  -1.641  1.00 20.00     0.209 C 
HETATM    3  C3  UNL     1     -33.348  18.436  -0.962  1.00 20.00     0.070 C 
HETATM    4  C4  UNL     1     -34.629  19.263  -0.999  1.00 20.00     0.042 C 
HETATM    5  C5  UNL     1     -33.589  17.044  -1.553  1.00 20.00     0.042 C 
HETATM    6  N7  UNL     1     -32.908  18.273   0.438  1.00 20.00    -0.257 NA
HETATM    7  O8  UNL     1     -31.075  18.892  -0.789  1.00 20.00    -0.335 OA
ENDROOT
BRANCH   1   8
HETATM    8  C6  UNL     1     -30.694  18.405   1.522  1.00 20.00     0.200 C 
HETATM    9 CL9  UNL     1     -31.527  19.022   2.952  1.00 20.00    -0.122 Cl
ENDBRANCH   1   8
TORSDOF 1
ENDMDL
MODEL 4
REMARK VINA RESULT:      -3.5     15.782     16.689
REMARK  1 active torsions:
REMARK  status: ('A' for Active; 'I' for Inactive)
REMARK    1  A    between atoms: C1_1  and  C6_6 
ROOT
HETATM    1  C1  UNL     1     -22.570  18.764   9.690  1.00 20.00     0.149 C 
HETATM    2  C2  UNL     1     -24.755  18.696   9.813  1.00 20.00     0.209 C 
HETATM    3  C3  UNL     1     -24.122  18.201  11.108  1.00 20.00     0.070 C 
HETATM    4  C4  UNL     1     -24.673  18.924  12.332  1.00 20.00     0.042 C 
HETATM    5  C5  UNL     1     -24.267  16.684  11.269  1.00 20.00     0.042 C 
HETATM    6  N7  UNL     1     -22.687  18.513  10.955  1.00 20.00    -0.257 NA
HETATM    7  O8  UNL     1     -23.667  18.769   8.900  1.00 20.00    -0.335 OA
ENDROOT
BRANCH   1   8
HETATM    8  C6  UNL     1     -21.295  19.066   8.992  1.00 20.00     0.200 C 
HETATM    9 CL9  UNL     1     -21.294  18.154   7.479  1.00 20.00    -0.122 Cl
ENDBRANCH   1   8
TORSDOF 1
ENDMDL
MODEL 5
REMARK VINA RESULT:      -3.5     12.611     13.209
REMARK  1 active torsions:
REMARK  status: ('A' for Active; 'I' for Inactive)
REMARK    1  A    between atoms: C1_1  and  C6_6 
ROOT
HETATM    1  C1  UNL     1     -34.043  16.687  -3.937  1.00 20.00     0.149 C 
HETATM    2  C2  UNL     1     -33.427  14.704  -4.632  1.00 20.00     0.209 C 
HETATM    3  C3  UNL     1     -34.463  15.311  -5.570  1.00 20.00     0.070 C 
HETATM    4  C4  UNL     1     -33.998  15.307  -7.022  1.00 20.00     0.042 C 
HETATM    5  C5  UNL     1     -35.824  14.620  -5.439  1.00 20.00     0.042 C 
HETATM    6  N7  UNL     1     -34.606  16.704  -5.102  1.00 20.00    -0.257 NA
HETATM    7  O8  UNL     1     -33.445  15.558  -3.495  1.00 20.00    -0.335 OA
ENDROOT
BRANCH   1   8
HETATM    8  C6  UNL     1     -33.980  17.835  -2.999  1.00 20.00     0.200 C 
HETATM    9 CL9  UNL     1     -33.634  17.186  -1.392  1.00 20.00    -0.122 Cl
ENDBRANCH   1   8
TORSDOF 1
ENDMDL
MODEL 6
REMARK VINA RESULT:      -3.4      9.637     10.319
REMARK  1 active torsions:
REMARK  status: ('A' for Active; 'I' for Inactive)
REMARK    1  A    between atoms: C1_1  and  C6_6 
ROOT
HETATM    1  C1  UNL     1     -40.831  12.536   5.941  1.00 20.00     0.149 C 
HETATM    2  C2  UNL     1     -42.830  13.056   6.668  1.00 20.00     0.209 C 
HETATM    3  C3  UNL     1     -42.295  14.133   5.731  1.00 20.00     0.070 C 
HETATM    4  C4  UNL     1     -43.272  14.455   4.606  1.00 20.00     0.042 C 
HETATM    5  C5  UNL     1     -41.908  15.407   6.489  1.00 20.00     0.042 C 
HETATM    6  N7  UNL     1     -41.066  13.543   5.163  1.00 20.00    -0.257 NA
HETATM    7  O8  UNL     1     -41.701  12.231   6.930  1.00 20.00    -0.335 OA
ENDROOT
BRANCH   1   8
HETATM    8  C6  UNL     1     -39.652  11.639   5.849  1.00 20.00     0.200 C 
HETATM    9 CL9  UNL     1     -39.086  11.684   4.175  1.00 20.00    -0.122 Cl
ENDBRANCH   1   8
TORSDOF 1
ENDMDL
MODEL 7
REMARK VINA RESULT:      -3.4      9.571     10.197
REMARK  1 active torsions:
REMARK  status: ('A' for Active; 'I' for Inactive)
REMARK    1  A    between atoms: C1_1  and  C6_6 
ROOT
HETATM    1  C1  UNL     1     -40.612  12.697   6.269  1.00 20.00     0.149 C 
HETATM    2  C2  UNL     1     -42.263  13.393   7.528  1.00 20.00     0.209 C 
HETATM    3  C3  UNL     1     -41.129  14.412   7.506  1.00 20.00     0.070 C 
HETATM    4  C4  UNL     1     -41.616  15.808   7.132  1.00 20.00     0.042 C 
HETATM    5  C5  UNL     1     -40.368  14.446   8.835  1.00 20.00     0.042 C 
HETATM    6  N7  UNL     1     -40.212  13.913   6.462  1.00 20.00    -0.257 NA
HETATM    7  O8  UNL     1     -41.701  12.235   6.923  1.00 20.00    -0.335 OA
ENDROOT
BRANCH   1   8
HETATM    8  C6  UNL     1     -39.969  11.719   5.357  1.00 20.00     0.200 C 
HETATM    9 CL9  UNL     1     -38.233  12.047   5.372  1.00 20.00    -0.122 Cl
ENDBRANCH   1   8
TORSDOF 1
ENDMDL
MODEL 8
REMARK VINA RESULT:      -3.3      9.757     10.342
REMARK  1 active torsions:
REMARK  status: ('A' for Active; 'I' for Inactive)
REMARK    1  A    between atoms: C1_1  and  C6_6 
ROOT
HETATM    1  C1  UNL     1     -40.547  13.091   6.350  1.00 20.00     0.149 C 
HETATM    2  C2  UNL     1     -41.443  15.053   6.724  1.00 20.00     0.209 C 
HETATM    3  C3  UNL     1     -41.060  14.373   8.033  1.00 20.00     0.070 C 
HETATM    4  C4  UNL     1     -40.192  15.265   8.914  1.00 20.00     0.042 C 
HETATM    5  C5  UNL     1     -42.291  13.887   8.805  1.00 20.00     0.042 C 
HETATM    6  N7  UNL     1     -40.282  13.189   7.613  1.00 20.00    -0.257 NA
HETATM    7  O8  UNL     1     -41.314  14.028   5.748  1.00 20.00    -0.335 OA
ENDROOT
BRANCH   1   8
HETATM    8  C6  UNL     1     -40.066  12.008   5.457  1.00 20.00     0.200 C 
HETATM    9 CL9  UNL     1     -38.300  12.075   5.450  1.00 20.00    -0.122 Cl
ENDBRANCH   1   8
TORSDOF 1
ENDMDL
MODEL 9
REMARK VINA RESULT:      -3.3     12.563     13.436
REMARK  1 active torsions:
REMARK  status: ('A' for Active; 'I' for Inactive)
REMARK    1  A    between atoms: C1_1  and  C6_6 
ROOT
HETATM    1  C1  UNL     1     -33.566  16.299  -3.470  1.00 20.00     0.149 C 
HETATM    2  C2  UNL     1     -33.146  18.443  -3.615  1.00 20.00     0.209 C 
HETATM    3  C3  UNL     1     -33.346  18.026  -2.163  1.00 20.00     0.070 C 
HETATM    4  C4  UNL     1     -32.190  18.468  -1.272  1.00 20.00     0.042 C 
HETATM    5  C5  UNL     1     -34.680  18.531  -1.603  1.00 20.00     0.042 C 
HETATM    6  N7  UNL     1     -33.394  16.551  -2.212  1.00 20.00    -0.257 NA
HETATM    7  O8  UNL     1     -33.576  17.313  -4.364  1.00 20.00    -0.335 OA
ENDROOT
BRANCH   1   8
HETATM    8  C6  UNL     1     -33.756  14.948  -4.054  1.00 20.00     0.200 C 
HETATM    9 CL9  UNL     1     -33.963  15.152  -5.797  1.00 20.00    -0.122 Cl
ENDBRANCH   1   8
TORSDOF 1
ENDMDL
