MODEL 1
REMARK VINA RESULT:      -4.2      0.000      0.000
REMARK  2 active torsions:
REMARK  status: ('A' for Active; 'I' for Inactive)
REMARK    1  A    between atoms: C6_6  and  C7_7 
REMARK    2  A    between atoms: C7_7  and  N8_8 
ROOT
HETATM    1  C7  UNL     1     -33.926   7.453   4.870  1.00 20.00     0.443 C 
HETATM    2  F9  UNL     1     -34.776   8.211   4.110  1.00 20.00    -0.172 F 
HETATM    3  F10 UNL     1     -34.085   7.915   6.143  1.00 20.00    -0.172 F 
ENDROOT
BRANCH   1   4
HETATM    4  C6  UNL     1     -34.426   5.982   4.797  1.00 20.00     0.046 C 
HETATM    5  C1  UNL     1     -33.527   5.109   3.905  1.00 20.00     0.023 C 
HETATM    6  C2  UNL     1     -34.417   5.382   6.218  1.00 20.00     0.023 C 
HETATM    7  C3  UNL     1     -35.868   5.927   4.258  1.00 20.00     0.023 C 
ENDBRANCH   1   4
BRANCH   1   8
HETATM    8  N8  UNL     1     -32.535   7.641   4.419  1.00 20.00     0.152 N 
HETATM    9  C4  UNL     1     -32.422   7.662   2.961  1.00 20.00     0.317 C 
HETATM   10  C5  UNL     1     -31.926   8.853   4.971  1.00 20.00     0.317 C 
ENDBRANCH   1   8
TORSDOF 2
ENDMDL
MODEL 2
REMARK VINA RESULT:      -4.2      0.052      1.366
REMARK  2 active torsions:
REMARK  status: ('A' for Active; 'I' for Inactive)
REMARK    1  A    between atoms: C6_6  and  C7_7 
REMARK    2  A    between atoms: C7_7  and  N8_8 
ROOT
HETATM    1  C7  UNL     1     -33.925   7.468   4.845  1.00 20.00     0.443 C 
HETATM    2  F9  UNL     1     -34.791   8.203   4.082  1.00 20.00    -0.172 F 
HETATM    3  F10 UNL     1     -34.074   7.952   6.112  1.00 20.00    -0.172 F 
ENDROOT
BRANCH   1   4
HETATM    4  C6  UNL     1     -34.409   5.991   4.804  1.00 20.00     0.046 C 
HETATM    5  C1  UNL     1     -34.414   5.345   6.200  1.00 20.00     0.023 C 
HETATM    6  C2  UNL     1     -35.850   5.954   4.255  1.00 20.00     0.023 C 
HETATM    7  C3  UNL     1     -33.514   5.154   3.871  1.00 20.00     0.023 C 
ENDBRANCH   1   4
BRANCH   1   8
HETATM    8  N8  UNL     1     -32.540   7.663   4.374  1.00 20.00     0.152 N 
HETATM    9  C4  UNL     1     -32.458   7.760   2.918  1.00 20.00     0.317 C 
HETATM   10  C5  UNL     1     -31.903   8.836   4.977  1.00 20.00     0.317 C 
ENDBRANCH   1   8
TORSDOF 2
ENDMDL
MODEL 3
REMARK VINA RESULT:      -3.9      8.566     10.132
REMARK  2 active torsions:
REMARK  status: ('A' for Active; 'I' for Inactive)
REMARK    1  A    between atoms: C6_6  and  C7_7 
REMARK    2  A    between atoms: C7_7  and  N8_8 
ROOT
HETATM    1  C7  UNL     1     -41.921   5.611   0.301  1.00 20.00     0.443 C 
HETATM    2  F9  UNL     1     -41.156   5.428  -0.820  1.00 20.00    -0.172 F 
HETATM    3  F10 UNL     1     -41.203   5.043   1.313  1.00 20.00    -0.172 F 
ENDROOT
BRANCH   1   4
HETATM    4  C6  UNL     1     -42.024   7.143   0.548  1.00 20.00     0.046 C 
HETATM    5  C1  UNL     1     -42.196   7.930  -0.761  1.00 20.00     0.023 C 
HETATM    6  C2  UNL     1     -43.250   7.422   1.440  1.00 20.00     0.023 C 
HETATM    7  C3  UNL     1     -40.768   7.658   1.278  1.00 20.00     0.023 C 
ENDBRANCH   1   4
BRANCH   1   8
HETATM    8  N8  UNL     1     -43.223   4.936   0.145  1.00 20.00     0.152 N 
HETATM    9  C4  UNL     1     -43.417   4.409  -1.205  1.00 20.00     0.317 C 
HETATM   10  C5  UNL     1     -43.417   3.859   1.119  1.00 20.00     0.317 C 
ENDBRANCH   1   8
TORSDOF 2
ENDMDL
MODEL 4
REMARK VINA RESULT:      -3.8     15.798     16.451
REMARK  2 active torsions:
REMARK  status: ('A' for Active; 'I' for Inactive)
REMARK    1  A    between atoms: C6_6  and  C7_7 
REMARK    2  A    between atoms: C7_7  and  N8_8 
ROOT
HETATM    1  C7  UNL     1     -23.817  17.927  10.083  1.00 20.00     0.443 C 
HETATM    2  F9  UNL     1     -25.049  18.225   9.566  1.00 20.00    -0.172 F 
HETATM    3  F10 UNL     1     -23.796  16.567  10.179  1.00 20.00    -0.172 F 
ENDROOT
BRANCH   1   4
HETATM    4  C6  UNL     1     -22.755  18.380   9.042  1.00 20.00     0.046 C 
HETATM    5  C1  UNL     1     -21.665  19.263   9.673  1.00 20.00     0.023 C 
HETATM    6  C2  UNL     1     -22.074  17.129   8.449  1.00 20.00     0.023 C 
HETATM    7  C3  UNL     1     -23.422  19.159   7.892  1.00 20.00     0.023 C 
ENDBRANCH   1   4
BRANCH   1   8
HETATM    8  N8  UNL     1     -23.661  18.545  11.414  1.00 20.00     0.152 N 
HETATM    9  C4  UNL     1     -24.946  18.875  12.027  1.00 20.00     0.317 C 
HETATM   10  C5  UNL     1     -22.885  17.708  12.332  1.00 20.00     0.317 C 
ENDBRANCH   1   8
TORSDOF 2
ENDMDL
MODEL 5
REMARK VINA RESULT:      -3.6     10.120     10.828
REMARK  2 active torsions:
REMARK  status: ('A' for Active; 'I' for Inactive)
REMARK    1  A    between atoms: C6_6  and  C7_7 
REMARK    2  A    between atoms: C7_7  and  N8_8 
ROOT
HETATM    1  C7  UNL     1     -40.825  14.087   7.541  1.00 20.00     0.443 C 
HETATM    2  F9  UNL     1     -39.746  13.457   8.101  1.00 20.00    -0.172 F 
HETATM    3  F10 UNL     1     -40.317  15.219   6.975  1.00 20.00    -0.172 F 
ENDROOT
BRANCH   1   4
HETATM    4  C6  UNL     1     -41.373  13.159   6.419  1.00 20.00     0.046 C 
HETATM    5  C1  UNL     1     -41.789  13.948   5.167  1.00 20.00     0.023 C 
HETATM    6  C2  UNL     1     -40.267  12.163   6.012  1.00 20.00     0.023 C 
HETATM    7  C3  UNL     1     -42.585  12.355   6.927  1.00 20.00     0.023 C 
ENDBRANCH   1   4
BRANCH   1   8
HETATM    8  N8  UNL     1     -41.815  14.425   8.581  1.00 20.00     0.152 N 
HETATM    9  C4  UNL     1     -41.277  14.262   9.931  1.00 20.00     0.317 C 
HETATM   10  C5  UNL     1     -42.346  15.781   8.430  1.00 20.00     0.317 C 
ENDBRANCH   1   8
TORSDOF 2
ENDMDL
MODEL 6
REMARK VINA RESULT:      -3.6     11.914     12.866
REMARK  2 active torsions:
REMARK  status: ('A' for Active; 'I' for Inactive)
REMARK    1  A    between atoms: C6_6  and  C7_7 
REMARK    2  A    between atoms: C7_7  and  N8_8 
ROOT
HETATM    1  C7  UNL     1     -33.826  15.656  -4.053  1.00 20.00     0.443 C 
HETATM    2  F9  UNL     1     -34.024  14.637  -3.160  1.00 20.00    -0.172 F 
HETATM    3  F10 UNL     1     -32.557  15.474  -4.519  1.00 20.00    -0.172 F 
ENDROOT
BRANCH   1   4
HETATM    4  C6  UNL     1     -34.831  15.449  -5.222  1.00 20.00     0.046 C 
HETATM    5  C1  UNL     1     -34.122  15.340  -6.582  1.00 20.00     0.023 C 
HETATM    6  C2  UNL     1     -35.611  14.140  -4.982  1.00 20.00     0.023 C 
HETATM    7  C3  UNL     1     -35.841  16.611  -5.278  1.00 20.00     0.023 C 
ENDBRANCH   1   4
BRANCH   1   8
HETATM    8  N8  UNL     1     -33.949  16.960  -3.375  1.00 20.00     0.152 N 
HETATM    9  C4  UNL     1     -33.576  16.888  -1.963  1.00 20.00     0.317 C 
HETATM   10  C5  UNL     1     -33.166  18.009  -4.032  1.00 20.00     0.317 C 
ENDBRANCH   1   8
TORSDOF 2
ENDMDL
MODEL 7
REMARK VINA RESULT:      -3.6      1.096      3.423
REMARK  2 active torsions:
REMARK  status: ('A' for Active; 'I' for Inactive)
REMARK    1  A    between atoms: C6_6  and  C7_7 
REMARK    2  A    between atoms: C7_7  and  N8_8 
ROOT
HETATM    1  C7  UNL     1     -34.011   7.868   4.682  1.00 20.00     0.443 C 
HETATM    2  F9  UNL     1     -34.023   8.659   5.800  1.00 20.00    -0.172 F 
HETATM    3  F10 UNL     1     -35.117   8.243   3.976  1.00 20.00    -0.172 F 
ENDROOT
BRANCH   1   4
HETATM    4  C6  UNL     1     -32.739   8.236   3.868  1.00 20.00     0.046 C 
HETATM    5  C1  UNL     1     -33.021   9.314   2.808  1.00 20.00     0.023 C 
HETATM    6  C2  UNL     1     -31.669   8.783   4.835  1.00 20.00     0.023 C 
HETATM    7  C3  UNL     1     -32.166   6.988   3.168  1.00 20.00     0.023 C 
ENDBRANCH   1   4
BRANCH   1   8
HETATM    8  N8  UNL     1     -34.095   6.446   5.063  1.00 20.00     0.152 N 
HETATM    9  C4  UNL     1     -34.091   6.258   6.513  1.00 20.00     0.317 C 
HETATM   10  C5  UNL     1     -35.267   5.780   4.490  1.00 20.00     0.317 C 
ENDBRANCH   1   8
TORSDOF 2
ENDMDL
MODEL 8
REMARK VINA RESULT:      -3.5     12.384     13.823
REMARK  2 active torsions:
REMARK  status: ('A' for Active; 'I' for Inactive)
REMARK    1  A    between atoms: C6_6  and  C7_7 
REMARK    2  A    between atoms: C7_7  and  N8_8 
ROOT
HETATM    1  C7  UNL     1     -36.140  15.064  -5.746  1.00 20.00     0.443 C 
HETATM    2  F9  UNL     1     -36.104  14.442  -6.965  1.00 20.00    -0.172 F 
HETATM    3  F10 UNL     1     -36.674  14.141  -4.896  1.00 20.00    -0.172 F 
ENDROOT
BRANCH   1   4
HETATM    4  C6  UNL     1     -34.670  15.351  -5.328  1.00 20.00     0.046 C 
HETATM    5  C1  UNL     1     -34.181  14.388  -4.234  1.00 20.00     0.023 C 
HETATM    6  C2  UNL     1     -33.759  15.177  -6.561  1.00 20.00     0.023 C 
HETATM    7  C3  UNL     1     -34.525  16.798  -4.820  1.00 20.00     0.023 C 
ENDBRANCH   1   4
BRANCH   1   8
HETATM    8  N8  UNL     1     -36.994  16.265  -5.812  1.00 20.00     0.152 N 
HETATM    9  C4  UNL     1     -37.314  16.643  -7.188  1.00 20.00     0.317 C 
HETATM   10  C5  UNL     1     -38.235  16.113  -5.049  1.00 20.00     0.317 C 
ENDBRANCH   1   8
TORSDOF 2
ENDMDL
MODEL 9
REMARK VINA RESULT:      -3.5     12.117     13.121
REMARK  2 active torsions:
REMARK  status: ('A' for Active; 'I' for Inactive)
REMARK    1  A    between atoms: C6_6  and  C7_7 
REMARK    2  A    between atoms: C7_7  and  N8_8 
ROOT
HETATM    1  C7  UNL     1     -33.861  15.796  -4.073  1.00 20.00     0.443 C 
HETATM    2  F9  UNL     1     -32.554  15.628  -4.445  1.00 20.00    -0.172 F 
HETATM    3  F10 UNL     1     -34.077  14.852  -3.111  1.00 20.00    -0.172 F 
ENDROOT
BRANCH   1   4
HETATM    4  C6  UNL     1     -33.984  17.209  -3.436  1.00 20.00     0.046 C 
HETATM    5  C1  UNL     1     -35.407  17.779  -3.562  1.00 20.00     0.023 C 
HETATM    6  C2  UNL     1     -33.639  17.111  -1.936  1.00 20.00     0.023 C 
HETATM    7  C3  UNL     1     -32.995  18.188  -4.097  1.00 20.00     0.023 C 
ENDBRANCH   1   4
BRANCH   1   8
HETATM    8  N8  UNL     1     -34.752  15.574  -5.227  1.00 20.00     0.152 N 
HETATM    9  C4  UNL     1     -34.013  15.452  -6.483  1.00 20.00     0.317 C 
HETATM   10  C5  UNL     1     -35.613  14.401  -5.054  1.00 20.00     0.317 C 
ENDBRANCH   1   8
TORSDOF 2
ENDMDL
