MODEL 1
REMARK VINA RESULT:      -5.4      0.000      0.000
REMARK  1 active torsions:
REMARK  status: ('A' for Active; 'I' for Inactive)
REMARK    1  A    between atoms: C4_4  and  C6_6 
ROOT
HETATM    1  C1  UNL     1     -31.967   8.522   3.809  1.00 20.00     0.135 A 
HETATM    2  C2  UNL     1     -32.149   7.406   3.022  1.00 20.00     0.136 A 
HETATM    3  C3  UNL     1     -33.513   7.725   5.294  1.00 20.00     0.149 A 
HETATM    4  C4  UNL     1     -33.695   6.609   4.506  1.00 20.00     0.122 A 
HETATM    5  N7  UNL     1     -32.646   8.701   4.959  1.00 20.00    -0.269 NA
HETATM    6  N8  UNL     1     -33.016   6.430   3.356  1.00 20.00    -0.256 NA
ENDROOT
BRANCH   4   7
HETATM    7  C6  UNL     1     -34.662   5.551   4.908  1.00 20.00     0.285 C 
HETATM    8  C5  UNL     1     -34.760   5.410   6.427  1.00 20.00     0.097 C 
HETATM    9  F9  UNL     1     -34.341   4.312   4.412  1.00 20.00    -0.200 F 
HETATM   10  F10 UNL     1     -35.933   5.779   4.445  1.00 20.00    -0.200 F 
ENDBRANCH   4   7
TORSDOF 1
ENDMDL
MODEL 2
REMARK VINA RESULT:      -5.3      0.847      1.511
REMARK  1 active torsions:
REMARK  status: ('A' for Active; 'I' for Inactive)
REMARK    1  A    between atoms: C4_4  and  C6_6 
ROOT
HETATM    1  C1  UNL     1     -31.934   8.401   3.642  1.00 20.00     0.135 A 
HETATM    2  C2  UNL     1     -32.604   8.536   4.838  1.00 20.00     0.136 A 
HETATM    3  C3  UNL     1     -33.013   6.421   3.261  1.00 20.00     0.149 A 
HETATM    4  C4  UNL     1     -33.683   6.556   4.457  1.00 20.00     0.122 A 
HETATM    5  N7  UNL     1     -32.127   7.342   2.832  1.00 20.00    -0.269 NA
HETATM    6  N8  UNL     1     -33.490   7.616   5.267  1.00 20.00    -0.256 NA
ENDROOT
BRANCH   4   7
HETATM    7  C6  UNL     1     -34.655   5.519   4.899  1.00 20.00     0.285 C 
HETATM    8  C5  UNL     1     -34.721   5.406   6.422  1.00 20.00     0.097 C 
HETATM    9  F9  UNL     1     -34.362   4.266   4.420  1.00 20.00    -0.200 F 
HETATM   10  F10 UNL     1     -35.934   5.756   4.461  1.00 20.00    -0.200 F 
ENDBRANCH   4   7
TORSDOF 1
ENDMDL
MODEL 3
REMARK VINA RESULT:      -5.1      0.893      1.228
REMARK  1 active torsions:
REMARK  status: ('A' for Active; 'I' for Inactive)
REMARK    1  A    between atoms: C4_4  and  C6_6 
ROOT
HETATM    1  C1  UNL     1     -32.081   8.752   4.103  1.00 20.00     0.135 A 
HETATM    2  C2  UNL     1     -32.188   7.636   3.303  1.00 20.00     0.136 A 
HETATM    3  C3  UNL     1     -33.695   7.913   5.488  1.00 20.00     0.149 A 
HETATM    4  C4  UNL     1     -33.802   6.797   4.688  1.00 20.00     0.122 A 
HETATM    5  N7  UNL     1     -32.833   8.910   5.210  1.00 20.00    -0.269 NA
HETATM    6  N8  UNL     1     -33.051   6.638   3.581  1.00 20.00    -0.256 NA
ENDROOT
BRANCH   4   7
HETATM    7  C6  UNL     1     -34.767   5.714   5.027  1.00 20.00     0.285 C 
HETATM    8  C5  UNL     1     -34.248   4.335   4.620  1.00 20.00     0.097 C 
HETATM    9  F9  UNL     1     -35.989   5.874   4.424  1.00 20.00    -0.200 F 
HETATM   10  F10 UNL     1     -35.058   5.651   6.367  1.00 20.00    -0.200 F 
ENDBRANCH   4   7
TORSDOF 1
ENDMDL
MODEL 4
REMARK VINA RESULT:      -5.0      2.419      3.644
REMARK  1 active torsions:
REMARK  status: ('A' for Active; 'I' for Inactive)
REMARK    1  A    between atoms: C4_4  and  C6_6 
ROOT
HETATM    1  C1  UNL     1     -34.891   5.374   6.048  1.00 20.00     0.135 A 
HETATM    2  C2  UNL     1     -34.588   5.044   4.745  1.00 20.00     0.136 A 
HETATM    3  C3  UNL     1     -33.685   7.305   5.840  1.00 20.00     0.149 A 
HETATM    4  C4  UNL     1     -33.382   6.976   4.537  1.00 20.00     0.122 A 
HETATM    5  N7  UNL     1     -34.446   6.510   6.618  1.00 20.00    -0.269 NA
HETATM    6  N8  UNL     1     -33.827   5.840   3.967  1.00 20.00    -0.256 NA
ENDROOT
BRANCH   4   7
HETATM    7  C6  UNL     1     -32.538   7.879   3.707  1.00 20.00     0.285 C 
HETATM    8  C5  UNL     1     -32.119   7.223   2.391  1.00 20.00     0.097 C 
HETATM    9  F9  UNL     1     -31.385   8.273   4.341  1.00 20.00    -0.200 F 
HETATM   10  F10 UNL     1     -33.164   9.057   3.385  1.00 20.00    -0.200 F 
ENDBRANCH   4   7
TORSDOF 1
ENDMDL
MODEL 5
REMARK VINA RESULT:      -5.0      2.400      3.930
REMARK  1 active torsions:
REMARK  status: ('A' for Active; 'I' for Inactive)
REMARK    1  A    between atoms: C4_4  and  C6_6 
ROOT
HETATM    1  C1  UNL     1     -34.902   5.201   5.968  1.00 20.00     0.135 A 
HETATM    2  C2  UNL     1     -34.445   6.381   6.511  1.00 20.00     0.136 A 
HETATM    3  C3  UNL     1     -33.866   5.710   3.994  1.00 20.00     0.149 A 
HETATM    4  C4  UNL     1     -33.409   6.890   4.538  1.00 20.00     0.122 A 
HETATM    5  N7  UNL     1     -34.620   4.845   4.699  1.00 20.00    -0.269 NA
HETATM    6  N8  UNL     1     -33.690   7.247   5.806  1.00 20.00    -0.256 NA
ENDROOT
BRANCH   4   7
HETATM    7  C6  UNL     1     -32.578   7.823   3.728  1.00 20.00     0.285 C 
HETATM    8  C5  UNL     1     -32.133   7.195   2.407  1.00 20.00     0.097 C 
HETATM    9  F9  UNL     1     -31.440   8.233   4.377  1.00 20.00    -0.200 F 
HETATM   10  F10 UNL     1     -33.227   8.991   3.416  1.00 20.00    -0.200 F 
ENDBRANCH   4   7
TORSDOF 1
ENDMDL
MODEL 6
REMARK VINA RESULT:      -4.9      1.223      1.941
REMARK  1 active torsions:
REMARK  status: ('A' for Active; 'I' for Inactive)
REMARK    1  A    between atoms: C4_4  and  C6_6 
ROOT
HETATM    1  C1  UNL     1     -32.061   8.722   4.091  1.00 20.00     0.135 A 
HETATM    2  C2  UNL     1     -32.841   8.799   5.224  1.00 20.00     0.136 A 
HETATM    3  C3  UNL     1     -33.023   6.715   3.566  1.00 20.00     0.149 A 
HETATM    4  C4  UNL     1     -33.803   6.792   4.699  1.00 20.00     0.122 A 
HETATM    5  N7  UNL     1     -32.139   7.679   3.242  1.00 20.00    -0.269 NA
HETATM    6  N8  UNL     1     -33.726   7.835   5.548  1.00 20.00    -0.256 NA
ENDROOT
BRANCH   4   7
HETATM    7  C6  UNL     1     -34.769   5.708   5.025  1.00 20.00     0.285 C 
HETATM    8  C5  UNL     1     -34.252   4.332   4.604  1.00 20.00     0.097 C 
HETATM    9  F9  UNL     1     -35.991   5.876   4.422  1.00 20.00    -0.200 F 
HETATM   10  F10 UNL     1     -35.062   5.631   6.363  1.00 20.00    -0.200 F 
ENDBRANCH   4   7
TORSDOF 1
ENDMDL
MODEL 7
REMARK VINA RESULT:      -4.9      2.291      3.939
REMARK  1 active torsions:
REMARK  status: ('A' for Active; 'I' for Inactive)
REMARK    1  A    between atoms: C4_4  and  C6_6 
ROOT
HETATM    1  C1  UNL     1     -34.885   5.067   5.838  1.00 20.00     0.135 A 
HETATM    2  C2  UNL     1     -34.510   6.210   6.508  1.00 20.00     0.136 A 
HETATM    3  C3  UNL     1     -33.809   5.813   3.964  1.00 20.00     0.149 A 
HETATM    4  C4  UNL     1     -33.434   6.957   4.634  1.00 20.00     0.122 A 
HETATM    5  N7  UNL     1     -34.540   4.847   4.554  1.00 20.00    -0.269 NA
HETATM    6  N8  UNL     1     -33.779   7.176   5.918  1.00 20.00    -0.256 NA
ENDROOT
BRANCH   4   7
HETATM    7  C6  UNL     1     -32.626   8.003   3.949  1.00 20.00     0.285 C 
HETATM    8  C5  UNL     1     -32.136   9.076   4.920  1.00 20.00     0.097 C 
HETATM    9  F9  UNL     1     -33.315   8.651   2.954  1.00 20.00    -0.200 F 
HETATM   10  F10 UNL     1     -31.517   7.499   3.317  1.00 20.00    -0.200 F 
ENDBRANCH   4   7
TORSDOF 1
ENDMDL
MODEL 8
REMARK VINA RESULT:      -4.0      8.952      9.739
REMARK  1 active torsions:
REMARK  status: ('A' for Active; 'I' for Inactive)
REMARK    1  A    between atoms: C4_4  and  C6_6 
ROOT
HETATM    1  C1  UNL     1     -42.110  14.956   6.061  1.00 20.00     0.135 A 
HETATM    2  C2  UNL     1     -42.045  14.363   4.820  1.00 20.00     0.136 A 
HETATM    3  C3  UNL     1     -40.417  13.605   6.795  1.00 20.00     0.149 A 
HETATM    4  C4  UNL     1     -40.352  13.011   5.553  1.00 20.00     0.122 A 
HETATM    5  N7  UNL     1     -41.297  14.587   7.071  1.00 20.00    -0.269 NA
HETATM    6  N8  UNL     1     -41.165  13.380   4.543  1.00 20.00    -0.256 NA
ENDROOT
BRANCH   4   7
HETATM    7  C6  UNL     1     -39.367  11.928   5.285  1.00 20.00     0.285 C 
HETATM    8  C5  UNL     1     -39.080  11.771   3.791  1.00 20.00     0.097 C 
HETATM    9  F9  UNL     1     -39.778  10.700   5.742  1.00 20.00    -0.200 F 
HETATM   10  F10 UNL     1     -38.160  12.130   5.904  1.00 20.00    -0.200 F 
ENDBRANCH   4   7
TORSDOF 1
ENDMDL
MODEL 9
REMARK VINA RESULT:      -3.9      8.900      9.806
REMARK  1 active torsions:
REMARK  status: ('A' for Active; 'I' for Inactive)
REMARK    1  A    between atoms: C4_4  and  C6_6 
ROOT
HETATM    1  C1  UNL     1     -41.951  14.847   6.917  1.00 20.00     0.135 A 
HETATM    2  C2  UNL     1     -41.060  14.240   7.774  1.00 20.00     0.136 A 
HETATM    3  C3  UNL     1     -41.186  13.546   5.200  1.00 20.00     0.149 A 
HETATM    4  C4  UNL     1     -40.295  12.939   6.057  1.00 20.00     0.122 A 
HETATM    5  N7  UNL     1     -42.030  14.511   5.615  1.00 20.00    -0.269 NA
HETATM    6  N8  UNL     1     -40.216  13.275   7.359  1.00 20.00    -0.256 NA
ENDROOT
BRANCH   4   7
HETATM    7  C6  UNL     1     -39.376  11.876   5.562  1.00 20.00     0.285 C 
HETATM    8  C5  UNL     1     -39.201  11.930   4.045  1.00 20.00     0.097 C 
HETATM    9  F9  UNL     1     -39.805  10.608   5.869  1.00 20.00    -0.200 F 
HETATM   10  F10 UNL     1     -38.121  11.950   6.112  1.00 20.00    -0.200 F 
ENDBRANCH   4   7
TORSDOF 1
ENDMDL
