MODEL 1
REMARK VINA RESULT:      -4.6      0.000      0.000
REMARK  0 active torsions:
REMARK  status: ('A' for Active; 'I' for Inactive)
ROOT
HETATM    1  C1  UNL     1     -31.708  18.546  -0.802  1.00 20.00     0.097 C 
HETATM    2  C2  UNL     1     -34.853  16.653  -4.635  1.00 20.00     0.008 C 
HETATM    3  C3  UNL     1     -35.279  17.858  -4.221  1.00 20.00     0.029 C 
HETATM    4  C4  UNL     1     -32.887  16.608  -3.198  1.00 20.00    -0.004 C 
HETATM    5  C5  UNL     1     -34.002  19.247  -1.227  1.00 20.00     0.136 C 
HETATM    6  C6  UNL     1     -32.884  18.607  -1.584  1.00 20.00     0.053 C 
HETATM    7  C7  UNL     1     -33.738  15.948  -4.010  1.00 20.00    -0.065 C 
HETATM    8  C8  UNL     1     -34.520  18.424  -3.091  1.00 20.00     0.047 C 
HETATM    9  C9  UNL     1     -33.041  18.077  -2.968  1.00 20.00     0.106 C 
HETATM   10  C10 UNL     1     -33.593  14.492  -4.328  1.00 20.00     0.048 C 
HETATM   11  N11 UNL     1     -30.742  18.496  -0.160  1.00 20.00    -0.192 NA
HETATM   12  N12 UNL     1     -35.015  19.162  -2.145  1.00 20.00    -0.263 NA
ENDROOT
TORSDOF 0
ENDMDL
MODEL 2
REMARK VINA RESULT:      -4.5     13.312     16.357
REMARK  0 active torsions:
REMARK  status: ('A' for Active; 'I' for Inactive)
ROOT
HETATM    1  C1  UNL     1     -24.918  19.167   7.277  1.00 20.00     0.097 C 
HETATM    2  C2  UNL     1     -22.937  17.908  12.037  1.00 20.00     0.008 C 
HETATM    3  C3  UNL     1     -22.017  18.538  11.290  1.00 20.00     0.029 C 
HETATM    4  C4  UNL     1     -24.723  18.094  10.390  1.00 20.00    -0.004 C 
HETATM    5  C5  UNL     1     -22.551  18.961   7.817  1.00 20.00     0.136 C 
HETATM    6  C6  UNL     1     -23.835  19.052   8.178  1.00 20.00     0.053 C 
HETATM    7  C7  UNL     1     -24.256  17.540  11.528  1.00 20.00    -0.065 C 
HETATM    8  C8  UNL     1     -22.447  18.846   9.914  1.00 20.00     0.047 C 
HETATM    9  C9  UNL     1     -23.923  19.127   9.664  1.00 20.00     0.106 C 
HETATM   10  C10 UNL     1     -25.040  16.550  12.332  1.00 20.00     0.048 C 
HETATM   11  N11 UNL     1     -25.807  19.262   6.537  1.00 20.00    -0.192 NA
HETATM   12  N12 UNL     1     -21.679  18.850   8.868  1.00 20.00    -0.263 NA
ENDROOT
TORSDOF 0
ENDMDL
MODEL 3
REMARK VINA RESULT:      -4.4      1.686      2.421
REMARK  0 active torsions:
REMARK  status: ('A' for Active; 'I' for Inactive)
ROOT
HETATM    1  C1  UNL     1     -31.284  18.575   1.406  1.00 20.00     0.097 C 
HETATM    2  C2  UNL     1     -34.665  18.117  -2.659  1.00 20.00     0.008 C 
HETATM    3  C3  UNL     1     -35.150  18.955  -1.729  1.00 20.00     0.029 C 
HETATM    4  C4  UNL     1     -32.550  17.720  -1.518  1.00 20.00    -0.004 C 
HETATM    5  C5  UNL     1     -33.667  19.076   1.483  1.00 20.00     0.136 C 
HETATM    6  C6  UNL     1     -32.544  18.809   0.809  1.00 20.00     0.053 C 
HETATM    7  C7  UNL     1     -33.424  17.368  -2.482  1.00 20.00    -0.065 C 
HETATM    8  C8  UNL     1     -34.320  19.075  -0.516  1.00 20.00     0.047 C 
HETATM    9  C9  UNL     1     -32.812  18.912  -0.654  1.00 20.00     0.106 C 
HETATM   10  C10 UNL     1     -33.184  16.225  -3.419  1.00 20.00     0.048 C 
HETATM   11  N11 UNL     1     -30.250  18.383   1.897  1.00 20.00    -0.192 NA
HETATM   12  N12 UNL     1     -34.768  19.259   0.688  1.00 20.00    -0.263 NA
ENDROOT
TORSDOF 0
ENDMDL
MODEL 4
REMARK VINA RESULT:      -4.2      2.714      5.159
REMARK  0 active torsions:
REMARK  status: ('A' for Active; 'I' for Inactive)
ROOT
HETATM    1  C1  UNL     1     -35.431  14.983  -6.571  1.00 20.00     0.097 C 
HETATM    2  C2  UNL     1     -34.390  18.504  -2.739  1.00 20.00     0.008 C 
HETATM    3  C3  UNL     1     -33.361  17.656  -2.898  1.00 20.00     0.029 C 
HETATM    4  C4  UNL     1     -35.722  17.579  -4.556  1.00 20.00    -0.004 C 
HETATM    5  C5  UNL     1     -33.792  14.696  -4.792  1.00 20.00     0.136 C 
HETATM    6  C6  UNL     1     -34.634  15.453  -5.503  1.00 20.00     0.053 C 
HETATM    7  C7  UNL     1     -35.649  18.369  -3.466  1.00 20.00    -0.065 C 
HETATM    8  C8  UNL     1     -33.596  16.581  -3.880  1.00 20.00     0.047 C 
HETATM    9  C9  UNL     1     -34.507  16.873  -5.066  1.00 20.00     0.106 C 
HETATM   10  C10 UNL     1     -36.817  19.152  -2.949  1.00 20.00     0.048 C 
HETATM   11  N11 UNL     1     -36.085  14.596  -7.448  1.00 20.00    -0.192 NA
HETATM   12  N12 UNL     1     -33.131  15.372  -3.799  1.00 20.00    -0.263 NA
ENDROOT
TORSDOF 0
ENDMDL
MODEL 5
REMARK VINA RESULT:      -4.1      3.138      5.112
REMARK  0 active torsions:
REMARK  status: ('A' for Active; 'I' for Inactive)
ROOT
HETATM    1  C1  UNL     1     -36.896  18.281  -6.181  1.00 20.00     0.097 C 
HETATM    2  C2  UNL     1     -33.106  15.437  -3.790  1.00 20.00     0.008 C 
HETATM    3  C3  UNL     1     -33.583  14.788  -4.864  1.00 20.00     0.029 C 
HETATM    4  C4  UNL     1     -34.470  17.430  -4.114  1.00 20.00    -0.004 C 
HETATM    5  C5  UNL     1     -36.582  15.875  -6.398  1.00 20.00     0.136 C 
HETATM    6  C6  UNL     1     -36.160  17.086  -6.018  1.00 20.00     0.053 C 
HETATM    7  C7  UNL     1     -33.663  16.701  -3.315  1.00 20.00    -0.065 C 
HETATM    8  C8  UNL     1     -34.706  15.460  -5.542  1.00 20.00     0.047 C 
HETATM    9  C9  UNL     1     -34.762  16.982  -5.510  1.00 20.00     0.106 C 
HETATM   10  C10 UNL     1     -33.283  17.132  -1.933  1.00 20.00     0.048 C 
HETATM   11  N11 UNL     1     -37.500  19.263  -6.315  1.00 20.00    -0.192 NA
HETATM   12  N12 UNL     1     -35.697  14.863  -6.130  1.00 20.00    -0.263 NA
ENDROOT
TORSDOF 0
ENDMDL
MODEL 6
REMARK VINA RESULT:      -4.1     11.564     12.844
REMARK  0 active torsions:
REMARK  status: ('A' for Active; 'I' for Inactive)
ROOT
HETATM    1  C1  UNL     1     -32.445   8.589   1.972  1.00 20.00     0.097 C 
HETATM    2  C2  UNL     1     -34.395   5.952   6.145  1.00 20.00     0.008 C 
HETATM    3  C3  UNL     1     -34.104   7.220   6.476  1.00 20.00     0.029 C 
HETATM    4  C4  UNL     1     -33.801   6.197   3.795  1.00 20.00    -0.004 C 
HETATM    5  C5  UNL     1     -32.130   9.203   4.308  1.00 20.00     0.136 C 
HETATM    6  C6  UNL     1     -32.736   8.493   3.352  1.00 20.00     0.053 C 
HETATM    7  C7  UNL     1     -34.095   5.387   4.832  1.00 20.00    -0.065 C 
HETATM    8  C8  UNL     1     -33.469   8.007   5.403  1.00 20.00     0.047 C 
HETATM    9  C9  UNL     1     -33.830   7.682   3.959  1.00 20.00     0.106 C 
HETATM   10  C10 UNL     1     -34.145   3.895   4.710  1.00 20.00     0.048 C 
HETATM   11  N11 UNL     1     -32.205   8.668   0.839  1.00 20.00    -0.192 NA
HETATM   12  N12 UNL     1     -32.576   8.933   5.576  1.00 20.00    -0.263 NA
ENDROOT
TORSDOF 0
ENDMDL
MODEL 7
REMARK VINA RESULT:      -3.9     24.086     25.593
REMARK  0 active torsions:
REMARK  status: ('A' for Active; 'I' for Inactive)
ROOT
HETATM    1  C1  UNL     1     -28.874  -3.600  10.057  1.00 20.00     0.097 C 
HETATM    2  C2  UNL     1     -24.076  -1.923  11.586  1.00 20.00     0.008 C 
HETATM    3  C3  UNL     1     -25.038  -1.119  12.067  1.00 20.00     0.029 C 
HETATM    4  C4  UNL     1     -25.610  -3.492  10.528  1.00 20.00    -0.004 C 
HETATM    5  C5  UNL     1     -28.330  -1.341  10.786  1.00 20.00     0.136 C 
HETATM    6  C6  UNL     1     -28.030  -2.636  10.653  1.00 20.00     0.053 C 
HETATM    7  C7  UNL     1     -24.352  -3.032  10.676  1.00 20.00    -0.065 C 
HETATM    8  C8  UNL     1     -26.401  -1.453  11.618  1.00 20.00     0.047 C 
HETATM    9  C9  UNL     1     -26.731  -2.912  11.331  1.00 20.00     0.106 C 
HETATM   10  C10 UNL     1     -23.181  -3.617   9.948  1.00 20.00     0.048 C 
HETATM   11  N11 UNL     1     -29.567  -4.392   9.567  1.00 20.00    -0.192 NA
HETATM   12  N12 UNL     1     -27.351  -0.597  11.392  1.00 20.00    -0.263 NA
ENDROOT
TORSDOF 0
ENDMDL
MODEL 8
REMARK VINA RESULT:      -3.8      2.776      4.890
REMARK  0 active torsions:
REMARK  status: ('A' for Active; 'I' for Inactive)
ROOT
HETATM    1  C1  UNL     1     -36.670  18.448  -5.966  1.00 20.00     0.097 C 
HETATM    2  C2  UNL     1     -33.202  16.664  -2.366  1.00 20.00     0.008 C 
HETATM    3  C3  UNL     1     -33.234  15.856  -3.438  1.00 20.00     0.029 C 
HETATM    4  C4  UNL     1     -34.782  18.286  -3.266  1.00 20.00    -0.004 C 
HETATM    5  C5  UNL     1     -35.854  16.159  -5.799  1.00 20.00     0.136 C 
HETATM    6  C6  UNL     1     -35.792  17.455  -5.477  1.00 20.00     0.053 C 
HETATM    7  C7  UNL     1     -34.098  17.807  -2.207  1.00 20.00    -0.065 C 
HETATM    8  C8  UNL     1     -34.238  16.221  -4.454  1.00 20.00     0.047 C 
HETATM    9  C9  UNL     1     -34.592  17.692  -4.625  1.00 20.00     0.106 C 
HETATM   10  C10 UNL     1     -34.199  18.402  -0.837  1.00 20.00     0.048 C 
HETATM   11  N11 UNL     1     -37.393  19.263  -6.367  1.00 20.00    -0.192 NA
HETATM   12  N12 UNL     1     -34.898  15.384  -5.194  1.00 20.00    -0.263 NA
ENDROOT
TORSDOF 0
ENDMDL
MODEL 9
REMARK VINA RESULT:      -3.8      2.659      4.017
REMARK  0 active torsions:
REMARK  status: ('A' for Active; 'I' for Inactive)
ROOT
HETATM    1  C1  UNL     1     -33.331  16.878  -2.608  1.00 20.00     0.097 C 
HETATM    2  C2  UNL     1     -35.077  16.815  -7.620  1.00 20.00     0.008 C 
HETATM    3  C3  UNL     1     -34.983  15.568  -7.133  1.00 20.00     0.029 C 
HETATM    4  C4  UNL     1     -34.418  17.912  -5.547  1.00 20.00    -0.004 C 
HETATM    5  C5  UNL     1     -33.211  14.976  -4.126  1.00 20.00     0.136 C 
HETATM    6  C6  UNL     1     -33.667  16.188  -3.795  1.00 20.00     0.053 C 
HETATM    7  C7  UNL     1     -34.641  17.993  -6.874  1.00 20.00    -0.065 C 
HETATM    8  C8  UNL     1     -34.417  15.479  -5.774  1.00 20.00     0.047 C 
HETATM    9  C9  UNL     1     -34.663  16.633  -4.812  1.00 20.00     0.106 C 
HETATM   10  C10 UNL     1     -34.476  19.263  -7.650  1.00 20.00     0.048 C 
HETATM   11  N11 UNL     1     -33.054  17.444  -1.633  1.00 20.00    -0.192 NA
HETATM   12  N12 UNL     1     -33.672  14.513  -5.331  1.00 20.00    -0.263 NA
ENDROOT
TORSDOF 0
ENDMDL
