MODEL 1
REMARK VINA RESULT:      -4.9      0.000      0.000
REMARK  3 active torsions:
REMARK  status: ('A' for Active; 'I' for Inactive)
REMARK    1  A    between atoms: C6_6  and  C8_8 
REMARK    2  A    between atoms: C7_7  and  O11_11 
REMARK    3  A    between atoms: C9_9  and  C10_10 
ROOT
HETATM    1  C1  UNL     1     -32.108   8.726   4.843  1.00 20.00    -0.023 C 
HETATM    2  C2  UNL     1     -31.808   8.070   3.700  1.00 20.00     0.001 C 
HETATM    3  C6  UNL     1     -33.549   8.493   5.114  1.00 20.00     0.019 C 
HETATM    4  C7  UNL     1     -32.974   7.195   3.234  1.00 20.00     0.145 C 
HETATM    5  C10 UNL     1     -33.615   7.051   4.595  1.00 20.00     0.030 C 
ENDROOT
BRANCH   4   6
HETATM    6  O11 UNL     1     -32.511   5.952   2.748  1.00 20.00    -0.391 OA
HETATM    7  H25 UNL     1     -33.104   5.265   3.101  1.00 20.00     0.210 HD
ENDBRANCH   4   6
BRANCH   5   8
HETATM    8  C9  UNL     1     -35.014   6.594   5.043  1.00 20.00    -0.007 C 
HETATM    9  C4  UNL     1     -35.116   5.125   4.554  1.00 20.00     0.005 C 
HETATM   10  C3  UNL     1     -33.966   4.437   5.336  1.00 20.00     0.005 C 
HETATM   11  C8  UNL     1     -33.541   5.500   6.370  1.00 20.00    -0.006 C 
HETATM   12  C5  UNL     1     -34.869   6.285   6.545  1.00 20.00     0.010 C 
ENDBRANCH   5   8
TORSDOF 3
ENDMDL
MODEL 2
REMARK VINA RESULT:      -3.8      1.520      3.852
REMARK  3 active torsions:
REMARK  status: ('A' for Active; 'I' for Inactive)
REMARK    1  A    between atoms: C6_6  and  C8_8 
REMARK    2  A    between atoms: C7_7  and  O11_11 
REMARK    3  A    between atoms: C9_9  and  C10_10 
ROOT
HETATM    1  C1  UNL     1     -34.931   5.062   4.787  1.00 20.00    -0.023 C 
HETATM    2  C2  UNL     1     -34.437   5.171   6.042  1.00 20.00     0.001 C 
HETATM    3  C6  UNL     1     -35.107   6.440   4.266  1.00 20.00     0.019 C 
HETATM    4  C7  UNL     1     -34.065   6.617   6.372  1.00 20.00     0.145 C 
HETATM    5  C10 UNL     1     -33.877   7.062   4.939  1.00 20.00     0.030 C 
ENDROOT
BRANCH   4   6
HETATM    6  O11 UNL     1     -32.852   6.675   7.093  1.00 20.00    -0.391 OA
HETATM    7  H25 UNL     1     -32.188   6.179   6.582  1.00 20.00     0.210 HD
ENDBRANCH   4   6
BRANCH   5   8
HETATM    8  C9  UNL     1     -33.798   8.451   4.283  1.00 20.00    -0.007 C 
HETATM    9  C4  UNL     1     -32.445   9.034   4.772  1.00 20.00     0.005 C 
HETATM   10  C3  UNL     1     -31.422   8.022   4.191  1.00 20.00     0.005 C 
HETATM   11  C8  UNL     1     -32.264   7.166   3.222  1.00 20.00    -0.006 C 
HETATM   12  C5  UNL     1     -33.374   8.179   2.828  1.00 20.00     0.010 C 
ENDBRANCH   5   8
TORSDOF 3
ENDMDL
MODEL 3
REMARK VINA RESULT:      -3.8     12.342     13.839
REMARK  3 active torsions:
REMARK  status: ('A' for Active; 'I' for Inactive)
REMARK    1  A    between atoms: C6_6  and  C8_8 
REMARK    2  A    between atoms: C7_7  and  O11_11 
REMARK    3  A    between atoms: C9_9  and  C10_10 
ROOT
HETATM    1  C1  UNL     1     -33.927  17.133  -2.925  1.00 20.00    -0.023 C 
HETATM    2  C2  UNL     1     -33.310  15.931  -2.965  1.00 20.00     0.001 C 
HETATM    3  C6  UNL     1     -34.001  17.633  -4.321  1.00 20.00     0.019 C 
HETATM    4  C7  UNL     1     -33.106  15.455  -4.405  1.00 20.00     0.145 C 
HETATM    5  C10 UNL     1     -34.226  16.276  -5.002  1.00 20.00     0.030 C 
ENDROOT
BRANCH   4   6
HETATM    6  O11 UNL     1     -33.364  14.070  -4.521  1.00 20.00    -0.391 OA
HETATM    7  H25 UNL     1     -33.783  13.784  -3.691  1.00 20.00     0.210 HD
ENDBRANCH   4   6
BRANCH   5   8
HETATM    8  C9  UNL     1     -34.566  16.675  -6.448  1.00 20.00    -0.007 C 
HETATM    9  C4  UNL     1     -34.757  15.324  -7.188  1.00 20.00     0.005 C 
HETATM   10  C3  UNL     1     -35.956  14.699  -6.425  1.00 20.00     0.005 C 
HETATM   11  C8  UNL     1     -36.480  15.859  -5.554  1.00 20.00    -0.006 C 
HETATM   12  C5  UNL     1     -36.051  17.083  -6.408  1.00 20.00     0.010 C 
ENDBRANCH   5   8
TORSDOF 3
ENDMDL
MODEL 4
REMARK VINA RESULT:      -3.7     12.228     13.501
REMARK  3 active torsions:
REMARK  status: ('A' for Active; 'I' for Inactive)
REMARK    1  A    between atoms: C6_6  and  C8_8 
REMARK    2  A    between atoms: C7_7  and  O11_11 
REMARK    3  A    between atoms: C9_9  and  C10_10 
ROOT
HETATM    1  C1  UNL     1     -33.837  14.513  -4.076  1.00 20.00    -0.023 C 
HETATM    2  C2  UNL     1     -34.955  14.971  -4.685  1.00 20.00     0.001 C 
HETATM    3  C6  UNL     1     -32.885  15.649  -4.001  1.00 20.00     0.019 C 
HETATM    4  C7  UNL     1     -34.904  16.487  -4.881  1.00 20.00     0.145 C 
HETATM    5  C10 UNL     1     -33.920  16.757  -3.765  1.00 20.00     0.030 C 
ENDROOT
BRANCH   4   6
HETATM    6  O11 UNL     1     -36.160  17.074  -4.614  1.00 20.00    -0.391 OA
HETATM    7  H25 UNL     1     -36.129  17.423  -3.706  1.00 20.00     0.210 HD
ENDBRANCH   4   6
BRANCH   5   8
HETATM    8  C9  UNL     1     -33.043  17.973  -3.423  1.00 20.00    -0.007 C 
HETATM    9  C4  UNL     1     -34.055  19.084  -3.037  1.00 20.00     0.005 C 
HETATM   10  C3  UNL     1     -34.762  18.469  -1.800  1.00 20.00     0.005 C 
HETATM   11  C8  UNL     1     -33.895  17.240  -1.458  1.00 20.00    -0.006 C 
HETATM   12  C5  UNL     1     -32.514  17.694  -2.004  1.00 20.00     0.010 C 
ENDBRANCH   5   8
TORSDOF 3
ENDMDL
MODEL 5
REMARK VINA RESULT:      -3.6     13.093     14.696
REMARK  3 active torsions:
REMARK  status: ('A' for Active; 'I' for Inactive)
REMARK    1  A    between atoms: C6_6  and  C8_8 
REMARK    2  A    between atoms: C7_7  and  O11_11 
REMARK    3  A    between atoms: C9_9  and  C10_10 
ROOT
HETATM    1  C1  UNL     1     -33.732  14.459  -4.284  1.00 20.00    -0.023 C 
HETATM    2  C2  UNL     1     -33.296  15.646  -3.804  1.00 20.00     0.001 C 
HETATM    3  C6  UNL     1     -35.024  14.713  -4.970  1.00 20.00     0.019 C 
HETATM    4  C7  UNL     1     -34.164  16.803  -4.303  1.00 20.00     0.145 C 
HETATM    5  C10 UNL     1     -34.674  16.095  -5.537  1.00 20.00     0.030 C 
ENDROOT
BRANCH   4   6
HETATM    6  O11 UNL     1     -33.369  17.921  -4.642  1.00 20.00    -0.391 OA
HETATM    7  H25 UNL     1     -33.760  18.322  -5.438  1.00 20.00     0.210 HD
ENDBRANCH   4   6
BRANCH   5   8
HETATM    8  C9  UNL     1     -35.852  16.378  -6.487  1.00 20.00    -0.007 C 
HETATM    9  C4  UNL     1     -35.480  17.718  -7.175  1.00 20.00     0.005 C 
HETATM   10  C3  UNL     1     -34.167  17.353  -7.917  1.00 20.00     0.005 C 
HETATM   11  C8  UNL     1     -34.100  15.816  -7.807  1.00 20.00    -0.006 C 
HETATM   12  C5  UNL     1     -35.609  15.464  -7.703  1.00 20.00     0.010 C 
ENDBRANCH   5   8
TORSDOF 3
ENDMDL
MODEL 6
REMARK VINA RESULT:      -3.5     10.126     11.254
REMARK  3 active torsions:
REMARK  status: ('A' for Active; 'I' for Inactive)
REMARK    1  A    between atoms: C6_6  and  C8_8 
REMARK    2  A    between atoms: C7_7  and  O11_11 
REMARK    3  A    between atoms: C9_9  and  C10_10 
ROOT
HETATM    1  C1  UNL     1     -41.445  13.729   4.664  1.00 20.00    -0.023 C 
HETATM    2  C2  UNL     1     -40.465  12.895   5.078  1.00 20.00     0.001 C 
HETATM    3  C6  UNL     1     -42.395  13.881   5.794  1.00 20.00     0.019 C 
HETATM    4  C7  UNL     1     -40.585  12.590   6.572  1.00 20.00     0.145 C 
HETATM    5  C10 UNL     1     -41.360  13.838   6.926  1.00 20.00     0.030 C 
ENDROOT
BRANCH   4   6
HETATM    6  O11 UNL     1     -39.314  12.579   7.190  1.00 20.00    -0.391 OA
HETATM    7  H25 UNL     1     -39.238  11.742   7.680  1.00 20.00     0.210 HD
ENDBRANCH   4   6
BRANCH   5   8
HETATM    8  C9  UNL     1     -42.191  14.233   8.160  1.00 20.00    -0.007 C 
HETATM    9  C4  UNL     1     -41.153  14.331   9.309  1.00 20.00     0.005 C 
HETATM   10  C3  UNL     1     -40.217  15.464   8.811  1.00 20.00     0.005 C 
HETATM   11  C8  UNL     1     -40.975  16.062   7.608  1.00 20.00    -0.006 C 
HETATM   12  C5  UNL     1     -42.444  15.744   8.001  1.00 20.00     0.010 C 
ENDBRANCH   5   8
TORSDOF 3
ENDMDL
MODEL 7
REMARK VINA RESULT:      -3.4     12.939     14.418
REMARK  3 active torsions:
REMARK  status: ('A' for Active; 'I' for Inactive)
REMARK    1  A    between atoms: C6_6  and  C8_8 
REMARK    2  A    between atoms: C7_7  and  O11_11 
REMARK    3  A    between atoms: C9_9  and  C10_10 
ROOT
HETATM    1  C1  UNL     1     -33.668  15.588  -3.418  1.00 20.00    -0.023 C 
HETATM    2  C2  UNL     1     -33.802  14.595  -4.326  1.00 20.00     0.001 C 
HETATM    3  C6  UNL     1     -33.611  16.865  -4.173  1.00 20.00     0.019 C 
HETATM    4  C7  UNL     1     -34.042  15.150  -5.731  1.00 20.00     0.145 C 
HETATM    5  C10 UNL     1     -34.602  16.480  -5.280  1.00 20.00     0.030 C 
ENDROOT
BRANCH   4   6
HETATM    6  O11 UNL     1     -35.014  14.388  -6.417  1.00 20.00    -0.391 OA
HETATM    7  H25 UNL     1     -35.070  13.524  -5.972  1.00 20.00     0.210 HD
ENDBRANCH   4   6
BRANCH   5   8
HETATM    8  C9  UNL     1     -34.828  17.815  -6.011  1.00 20.00    -0.007 C 
HETATM    9  C4  UNL     1     -35.838  17.473  -7.138  1.00 20.00     0.005 C 
HETATM   10  C3  UNL     1     -37.077  16.995  -6.336  1.00 20.00     0.005 C 
HETATM   11  C8  UNL     1     -36.742  17.384  -4.881  1.00 20.00    -0.006 C 
HETATM   12  C5  UNL     1     -35.803  18.599  -5.112  1.00 20.00     0.010 C 
ENDBRANCH   5   8
TORSDOF 3
ENDMDL
MODEL 8
REMARK VINA RESULT:      -3.3      1.490      2.493
REMARK  3 active torsions:
REMARK  status: ('A' for Active; 'I' for Inactive)
REMARK    1  A    between atoms: C6_6  and  C8_8 
REMARK    2  A    between atoms: C7_7  and  O11_11 
REMARK    3  A    between atoms: C9_9  and  C10_10 
ROOT
HETATM    1  C1  UNL     1     -32.612   7.777   2.326  1.00 20.00    -0.023 C 
HETATM    2  C2  UNL     1     -32.603   8.698   3.315  1.00 20.00     0.001 C 
HETATM    3  C6  UNL     1     -32.391   6.453   2.960  1.00 20.00     0.019 C 
HETATM    4  C7  UNL     1     -32.574   8.037   4.694  1.00 20.00     0.145 C 
HETATM    5  C10 UNL     1     -33.175   6.723   4.251  1.00 20.00     0.030 C 
ENDROOT
BRANCH   4   6
HETATM    6  O11 UNL     1     -33.424   8.714   5.598  1.00 20.00    -0.391 OA
HETATM    7  H25 UNL     1     -32.868   9.041   6.327  1.00 20.00     0.210 HD
ENDBRANCH   4   6
BRANCH   5   8
HETATM    8  C9  UNL     1     -33.234   5.332   4.907  1.00 20.00    -0.007 C 
HETATM    9  C4  UNL     1     -33.762   5.603   6.341  1.00 20.00     0.005 C 
HETATM   10  C3  UNL     1     -35.163   6.213   6.066  1.00 20.00     0.005 C 
HETATM   11  C8  UNL     1     -35.383   5.957   4.561  1.00 20.00    -0.006 C 
HETATM   12  C5  UNL     1     -34.517   4.686   4.351  1.00 20.00     0.010 C 
ENDBRANCH   5   8
TORSDOF 3
ENDMDL
MODEL 9
REMARK VINA RESULT:      -3.3     13.146     14.172
REMARK  3 active torsions:
REMARK  status: ('A' for Active; 'I' for Inactive)
REMARK    1  A    between atoms: C6_6  and  C8_8 
REMARK    2  A    between atoms: C7_7  and  O11_11 
REMARK    3  A    between atoms: C9_9  and  C10_10 
ROOT
HETATM    1  C1  UNL     1     -35.043  18.821  -3.496  1.00 20.00    -0.023 C 
HETATM    2  C2  UNL     1     -34.369  17.909  -2.759  1.00 20.00     0.001 C 
HETATM    3  C6  UNL     1     -34.731  18.547  -4.921  1.00 20.00     0.019 C 
HETATM    4  C7  UNL     1     -33.720  16.844  -3.645  1.00 20.00     0.145 C 
HETATM    5  C10 UNL     1     -34.660  17.018  -4.815  1.00 20.00     0.030 C 
ENDROOT
BRANCH   4   6
HETATM    6  O11 UNL     1     -33.846  15.561  -3.068  1.00 20.00    -0.391 OA
HETATM    7  H25 UNL     1     -33.667  14.910  -3.769  1.00 20.00     0.210 HD
ENDBRANCH   4   6
BRANCH   5   8
HETATM    8  C9  UNL     1     -34.581  16.580  -6.288  1.00 20.00    -0.007 C 
HETATM    9  C4  UNL     1     -34.545  15.030  -6.229  1.00 20.00     0.005 C 
HETATM   10  C3  UNL     1     -35.906  14.695  -5.561  1.00 20.00     0.005 C 
HETATM   11  C8  UNL     1     -36.663  16.038  -5.582  1.00 20.00    -0.006 C 
HETATM   12  C5  UNL     1     -36.019  16.718  -6.821  1.00 20.00     0.010 C 
ENDBRANCH   5   8
TORSDOF 3
ENDMDL
