MODEL 1
REMARK VINA RESULT:      -3.8      0.000      0.000
REMARK  2 active torsions:
REMARK  status: ('A' for Active; 'I' for Inactive)
REMARK    1  A    between atoms: C1_1  and  C4_4 
REMARK    2  A    between atoms: C2_2  and  C3_3 
ROOT
HETATM    1  C1  UNL     1     -33.981   7.304   5.152  1.00 20.00     0.015 C 
HETATM    2  C3  UNL     1     -32.943   7.792   4.456  1.00 20.00     0.069 C 
HETATM    3 CL6  UNL     1     -32.104   9.239   4.851  1.00 20.00    -0.081 Cl
ENDROOT
BRANCH   2   4
HETATM    4  C2  UNL     1     -32.472   7.039   3.270  1.00 20.00     0.282 C 
HETATM    5  O5  UNL     1     -32.150   7.572   2.215  1.00 20.00    -0.301 OA
ENDBRANCH   2   4
BRANCH   1   6
HETATM    6  C4  UNL     1     -34.744   6.050   4.862  1.00 20.00     0.143 C 
HETATM    7 CL7  UNL     1     -34.508   4.884   6.182  1.00 20.00    -0.126 Cl
ENDBRANCH   1   6
TORSDOF 2
ENDMDL
MODEL 2
REMARK VINA RESULT:      -3.8      2.236      3.646
REMARK  2 active torsions:
REMARK  status: ('A' for Active; 'I' for Inactive)
REMARK    1  A    between atoms: C1_1  and  C4_4 
REMARK    2  A    between atoms: C2_2  and  C3_3 
ROOT
HETATM    1  C1  UNL     1     -32.921   7.681   4.494  1.00 20.00     0.015 C 
HETATM    2  C3  UNL     1     -33.762   6.800   5.056  1.00 20.00     0.069 C 
HETATM    3 CL6  UNL     1     -34.406   6.949   6.642  1.00 20.00    -0.081 Cl
ENDROOT
BRANCH   2   4
HETATM    4  C2  UNL     1     -34.179   5.618   4.265  1.00 20.00     0.282 C 
HETATM    5  O5  UNL     1     -34.727   4.637   4.754  1.00 20.00    -0.301 OA
ENDBRANCH   2   4
BRANCH   1   6
HETATM    6  C4  UNL     1     -32.334   7.608   3.119  1.00 20.00     0.143 C 
HETATM    7 CL7  UNL     1     -32.699   9.102   2.230  1.00 20.00    -0.126 Cl
ENDBRANCH   1   6
TORSDOF 2
ENDMDL
MODEL 3
REMARK VINA RESULT:      -3.7      1.778      1.989
REMARK  2 active torsions:
REMARK  status: ('A' for Active; 'I' for Inactive)
REMARK    1  A    between atoms: C1_1  and  C4_4 
REMARK    2  A    between atoms: C2_2  and  C3_3 
ROOT
HETATM    1  C1  UNL     1     -34.034   6.060   4.045  1.00 20.00     0.015 C 
HETATM    2  C3  UNL     1     -33.169   7.081   3.956  1.00 20.00     0.069 C 
HETATM    3 CL6  UNL     1     -32.033   7.283   2.682  1.00 20.00    -0.081 Cl
ENDROOT
BRANCH   2   4
HETATM    4  C2  UNL     1     -33.187   8.117   5.015  1.00 20.00     0.282 C 
HETATM    5  O5  UNL     1     -32.405   9.060   5.053  1.00 20.00    -0.301 OA
ENDBRANCH   2   4
BRANCH   1   6
HETATM    6  C4  UNL     1     -35.048   5.836   5.123  1.00 20.00     0.143 C 
HETATM    7 CL7  UNL     1     -34.250   5.190   6.573  1.00 20.00    -0.126 Cl
ENDBRANCH   1   6
TORSDOF 2
ENDMDL
MODEL 4
REMARK VINA RESULT:      -3.5      1.642      3.356
REMARK  2 active torsions:
REMARK  status: ('A' for Active; 'I' for Inactive)
REMARK    1  A    between atoms: C1_1  and  C4_4 
REMARK    2  A    between atoms: C2_2  and  C3_3 
ROOT
HETATM    1  C1  UNL     1     -33.756   7.443   5.742  1.00 20.00     0.015 C 
HETATM    2  C3  UNL     1     -34.254   6.217   5.524  1.00 20.00     0.069 C 
HETATM    3 CL6  UNL     1     -34.655   5.097   6.764  1.00 20.00    -0.081 Cl
ENDROOT
BRANCH   2   4
HETATM    4  C2  UNL     1     -34.489   5.789   4.125  1.00 20.00     0.282 C 
HETATM    5  O5  UNL     1     -33.661   5.181   3.456  1.00 20.00    -0.301 OA
ENDBRANCH   2   4
BRANCH   1   6
HETATM    6  C4  UNL     1     -33.396   8.462   4.707  1.00 20.00     0.143 C 
HETATM    7 CL7  UNL     1     -31.811   8.072   4.005  1.00 20.00    -0.126 Cl
ENDBRANCH   1   6
TORSDOF 2
ENDMDL
MODEL 5
REMARK VINA RESULT:      -3.4      2.523      3.754
REMARK  2 active torsions:
REMARK  status: ('A' for Active; 'I' for Inactive)
REMARK    1  A    between atoms: C1_1  and  C4_4 
REMARK    2  A    between atoms: C2_2  and  C3_3 
ROOT
HETATM    1  C1  UNL     1     -32.887   7.153   3.918  1.00 20.00     0.015 C 
HETATM    2  C3  UNL     1     -33.455   5.969   3.646  1.00 20.00     0.069 C 
HETATM    3 CL6  UNL     1     -32.905   4.883   2.433  1.00 20.00    -0.081 Cl
ENDROOT
BRANCH   2   4
HETATM    4  C2  UNL     1     -34.633   5.552   4.442  1.00 20.00     0.282 C 
HETATM    5  O5  UNL     1     -34.685   4.502   5.073  1.00 20.00    -0.301 OA
ENDBRANCH   2   4
BRANCH   1   6
HETATM    6  C4  UNL     1     -33.316   8.134   4.963  1.00 20.00     0.143 C 
HETATM    7 CL7  UNL     1     -32.100   9.421   5.114  1.00 20.00    -0.126 Cl
ENDBRANCH   1   6
TORSDOF 2
ENDMDL
MODEL 6
REMARK VINA RESULT:      -3.4      2.515      4.069
REMARK  2 active torsions:
REMARK  status: ('A' for Active; 'I' for Inactive)
REMARK    1  A    between atoms: C1_1  and  C4_4 
REMARK    2  A    between atoms: C2_2  and  C3_3 
ROOT
HETATM    1  C1  UNL     1     -33.102   6.540   3.476  1.00 20.00     0.015 C 
HETATM    2  C3  UNL     1     -33.836   6.319   4.576  1.00 20.00     0.069 C 
HETATM    3 CL6  UNL     1     -34.875   4.967   4.794  1.00 20.00    -0.081 Cl
ENDROOT
BRANCH   2   4
HETATM    4  C2  UNL     1     -33.751   7.292   5.690  1.00 20.00     0.282 C 
HETATM    5  O5  UNL     1     -34.342   7.155   6.754  1.00 20.00    -0.301 OA
ENDBRANCH   2   4
BRANCH   1   6
HETATM    6  C4  UNL     1     -32.176   7.691   3.232  1.00 20.00     0.143 C 
HETATM    7 CL7  UNL     1     -32.110   8.050   1.494  1.00 20.00    -0.126 Cl
ENDBRANCH   1   6
TORSDOF 2
ENDMDL
MODEL 7
REMARK VINA RESULT:      -3.3     12.006     12.302
REMARK  2 active torsions:
REMARK  status: ('A' for Active; 'I' for Inactive)
REMARK    1  A    between atoms: C1_1  and  C4_4 
REMARK    2  A    between atoms: C2_2  and  C3_3 
ROOT
HETATM    1  C1  UNL     1     -33.655  17.192  -1.728  1.00 20.00     0.015 C 
HETATM    2  C3  UNL     1     -33.141  18.010  -0.798  1.00 20.00     0.069 C 
HETATM    3 CL6  UNL     1     -33.780  18.202   0.786  1.00 20.00    -0.081 Cl
ENDROOT
BRANCH   2   4
HETATM    4  C2  UNL     1     -31.935  18.800  -1.141  1.00 20.00     0.282 C 
HETATM    5  O5  UNL     1     -30.838  18.616  -0.627  1.00 20.00    -0.301 OA
ENDBRANCH   2   4
BRANCH   1   6
HETATM    6  C4  UNL     1     -33.139  16.978  -3.117  1.00 20.00     0.143 C 
HETATM    7 CL7  UNL     1     -33.539  15.334  -3.659  1.00 20.00    -0.126 Cl
ENDBRANCH   1   6
TORSDOF 2
ENDMDL
MODEL 8
REMARK VINA RESULT:      -3.2      1.616      1.648
REMARK  2 active torsions:
REMARK  status: ('A' for Active; 'I' for Inactive)
REMARK    1  A    between atoms: C1_1  and  C4_4 
REMARK    2  A    between atoms: C2_2  and  C3_3 
ROOT
HETATM    1  C1  UNL     1     -33.919   7.111   4.855  1.00 20.00     0.015 C 
HETATM    2  C3  UNL     1     -33.172   6.740   3.804  1.00 20.00     0.069 C 
HETATM    3 CL6  UNL     1     -31.984   7.733   3.059  1.00 20.00    -0.081 Cl
ENDROOT
BRANCH   2   4
HETATM    4  C2  UNL     1     -33.368   5.382   3.243  1.00 20.00     0.282 C 
HETATM    5  O5  UNL     1     -32.735   4.949   2.287  1.00 20.00    -0.301 OA
ENDBRANCH   2   4
BRANCH   1   6
HETATM    6  C4  UNL     1     -34.959   6.290   5.550  1.00 20.00     0.143 C 
HETATM    7 CL7  UNL     1     -34.181   5.167   6.685  1.00 20.00    -0.126 Cl
ENDBRANCH   1   6
TORSDOF 2
ENDMDL
MODEL 9
REMARK VINA RESULT:      -3.2      1.930      2.446
REMARK  2 active torsions:
REMARK  status: ('A' for Active; 'I' for Inactive)
REMARK    1  A    between atoms: C1_1  and  C4_4 
REMARK    2  A    between atoms: C2_2  and  C3_3 
ROOT
HETATM    1  C1  UNL     1     -34.404   5.251   4.122  1.00 20.00     0.015 C 
HETATM    2  C3  UNL     1     -33.379   5.650   3.354  1.00 20.00     0.069 C 
HETATM    3 CL6  UNL     1     -32.684   4.708   2.096  1.00 20.00    -0.081 Cl
ENDROOT
BRANCH   2   4
HETATM    4  C2  UNL     1     -32.802   6.994   3.589  1.00 20.00     0.282 C 
HETATM    5  O5  UNL     1     -32.144   7.603   2.753  1.00 20.00    -0.301 OA
ENDBRANCH   2   4
BRANCH   1   6
HETATM    6  C4  UNL     1     -35.054   6.028   5.224  1.00 20.00     0.143 C 
HETATM    7 CL7  UNL     1     -34.162   5.781   6.741  1.00 20.00    -0.126 Cl
ENDBRANCH   1   6
TORSDOF 2
ENDMDL
