MODEL 1
REMARK VINA RESULT:      -4.7      0.000      0.000
REMARK  3 active torsions:
REMARK  status: ('A' for Active; 'I' for Inactive)
REMARK    1  A    between atoms: C3_3  and  C7_7 
REMARK    2  A    between atoms: C7_7  and  C8_8 
REMARK    3  A    between atoms: C8_8  and  C9_9 
ROOT
HETATM    1  C1  UNL     1     -32.829   9.435   1.349  1.00 20.00     0.088 C 
HETATM    2  C2  UNL     1     -32.870   9.355   2.768  1.00 20.00     0.096 C 
HETATM    3  C3  UNL     1     -32.537   8.256   3.471  1.00 20.00    -0.074 C 
HETATM    4  C4  UNL     1     -32.087   7.009   2.756  1.00 20.00     0.044 C 
HETATM    5  N10 UNL     1     -32.799   9.506   0.191  1.00 20.00    -0.192 NA
ENDROOT
BRANCH   3   6
HETATM    6  C7  UNL     1     -32.602   8.152   4.982  1.00 20.00     0.034 C 
BRANCH   6   7
HETATM    7  C8  UNL     1     -33.985   7.702   5.470  1.00 20.00     0.008 C 
BRANCH   7   8
HETATM    8  C9  UNL     1     -34.237   6.194   5.284  1.00 20.00    -0.023 C 
HETATM    9  C5  UNL     1     -35.439   5.978   4.361  1.00 20.00     0.009 C 
HETATM   10  C6  UNL     1     -34.471   5.473   6.613  1.00 20.00     0.009 C 
ENDBRANCH   7   8
ENDBRANCH   6   7
ENDBRANCH   3   6
TORSDOF 3
ENDMDL
MODEL 2
REMARK VINA RESULT:      -4.3     10.966     11.821
REMARK  3 active torsions:
REMARK  status: ('A' for Active; 'I' for Inactive)
REMARK    1  A    between atoms: C3_3  and  C7_7 
REMARK    2  A    between atoms: C7_7  and  C8_8 
REMARK    3  A    between atoms: C8_8  and  C9_9 
ROOT
HETATM    1  C1  UNL     1     -30.916  18.582   1.167  1.00 20.00     0.088 C 
HETATM    2  C2  UNL     1     -31.263  18.415  -0.202  1.00 20.00     0.096 C 
HETATM    3  C3  UNL     1     -32.517  18.191  -0.640  1.00 20.00    -0.074 C 
HETATM    4  C4  UNL     1     -33.657  18.105   0.341  1.00 20.00     0.044 C 
HETATM    5  N10 UNL     1     -30.627  18.718   2.283  1.00 20.00    -0.192 NA
ENDROOT
BRANCH   3   6
HETATM    6  C7  UNL     1     -32.892  17.986  -2.094  1.00 20.00     0.034 C 
BRANCH   6   7
HETATM    7  C8  UNL     1     -33.466  16.586  -2.349  1.00 20.00     0.008 C 
BRANCH   7   8
HETATM    8  C9  UNL     1     -33.461  16.186  -3.837  1.00 20.00    -0.023 C 
HETATM    9  C5  UNL     1     -34.422  17.086  -4.620  1.00 20.00     0.009 C 
HETATM   10  C6  UNL     1     -33.840  14.720  -4.049  1.00 20.00     0.009 C 
ENDBRANCH   7   8
ENDBRANCH   6   7
ENDBRANCH   3   6
TORSDOF 3
ENDMDL
MODEL 3
REMARK VINA RESULT:      -4.2     11.056     11.795
REMARK  3 active torsions:
REMARK  status: ('A' for Active; 'I' for Inactive)
REMARK    1  A    between atoms: C3_3  and  C7_7 
REMARK    2  A    between atoms: C7_7  and  C8_8 
REMARK    3  A    between atoms: C8_8  and  C9_9 
ROOT
HETATM    1  C1  UNL     1     -33.866  15.078  -5.305  1.00 20.00     0.088 C 
HETATM    2  C2  UNL     1     -33.668  15.365  -3.926  1.00 20.00     0.096 C 
HETATM    3  C3  UNL     1     -33.656  16.607  -3.409  1.00 20.00    -0.074 C 
HETATM    4  C4  UNL     1     -33.860  17.802  -4.304  1.00 20.00     0.044 C 
HETATM    5  N10 UNL     1     -34.025  14.839  -6.430  1.00 20.00    -0.192 NA
ENDROOT
BRANCH   3   6
HETATM    6  C7  UNL     1     -33.420  16.924  -1.945  1.00 20.00     0.034 C 
BRANCH   6   7
HETATM    7  C8  UNL     1     -32.482  18.124  -1.758  1.00 20.00     0.008 C 
BRANCH   7   8
HETATM    8  C9  UNL     1     -32.555  18.742  -0.349  1.00 20.00    -0.023 C 
HETATM    9  C5  UNL     1     -31.231  18.515   0.387  1.00 20.00     0.009 C 
HETATM   10  C6  UNL     1     -33.708  18.173   0.478  1.00 20.00     0.009 C 
ENDBRANCH   7   8
ENDBRANCH   6   7
ENDBRANCH   3   6
TORSDOF 3
ENDMDL
MODEL 4
REMARK VINA RESULT:      -4.2     11.009     12.022
REMARK  3 active torsions:
REMARK  status: ('A' for Active; 'I' for Inactive)
REMARK    1  A    between atoms: C3_3  and  C7_7 
REMARK    2  A    between atoms: C7_7  and  C8_8 
REMARK    3  A    between atoms: C8_8  and  C9_9 
ROOT
HETATM    1  C1  UNL     1     -35.546  15.213  -6.406  1.00 20.00     0.088 C 
HETATM    2  C2  UNL     1     -34.988  16.221  -5.573  1.00 20.00     0.096 C 
HETATM    3  C3  UNL     1     -34.111  15.978  -4.581  1.00 20.00    -0.074 C 
HETATM    4  C4  UNL     1     -33.661  14.569  -4.297  1.00 20.00     0.044 C 
HETATM    5  N10 UNL     1     -36.007  14.395  -7.088  1.00 20.00    -0.192 NA
ENDROOT
BRANCH   3   6
HETATM    6  C7  UNL     1     -33.530  17.043  -3.671  1.00 20.00     0.034 C 
BRANCH   6   7
HETATM    7  C8  UNL     1     -33.451  16.574  -2.212  1.00 20.00     0.008 C 
BRANCH   7   8
HETATM    8  C9  UNL     1     -33.515  17.729  -1.195  1.00 20.00    -0.023 C 
HETATM    9  C5  UNL     1     -34.602  18.725  -1.609  1.00 20.00     0.009 C 
HETATM   10  C6  UNL     1     -32.177  18.456  -1.053  1.00 20.00     0.009 C 
ENDBRANCH   7   8
ENDBRANCH   6   7
ENDBRANCH   3   6
TORSDOF 3
ENDMDL
MODEL 5
REMARK VINA RESULT:      -4.0      1.083      1.869
REMARK  3 active torsions:
REMARK  status: ('A' for Active; 'I' for Inactive)
REMARK    1  A    between atoms: C3_3  and  C7_7 
REMARK    2  A    between atoms: C7_7  and  C8_8 
REMARK    3  A    between atoms: C8_8  and  C9_9 
ROOT
HETATM    1  C1  UNL     1     -32.174   7.820   1.849  1.00 20.00     0.088 C 
HETATM    2  C2  UNL     1     -32.420   7.269   3.137  1.00 20.00     0.096 C 
HETATM    3  C3  UNL     1     -32.575   8.005   4.254  1.00 20.00    -0.074 C 
HETATM    4  C4  UNL     1     -32.493   9.507   4.188  1.00 20.00     0.044 C 
HETATM    5  N10 UNL     1     -31.971   8.264   0.796  1.00 20.00    -0.192 NA
ENDROOT
BRANCH   3   6
HETATM    6  C7  UNL     1     -32.812   7.426   5.635  1.00 20.00     0.034 C 
BRANCH   6   7
HETATM    7  C8  UNL     1     -34.299   7.422   6.012  1.00 20.00     0.008 C 
BRANCH   7   8
HETATM    8  C9  UNL     1     -34.944   6.025   5.938  1.00 20.00    -0.023 C 
HETATM    9  C5  UNL     1     -33.951   4.968   6.428  1.00 20.00     0.009 C 
HETATM   10  C6  UNL     1     -35.416   5.674   4.526  1.00 20.00     0.009 C 
ENDBRANCH   7   8
ENDBRANCH   6   7
ENDBRANCH   3   6
TORSDOF 3
ENDMDL
MODEL 6
REMARK VINA RESULT:      -4.0     11.499     12.256
REMARK  3 active torsions:
REMARK  status: ('A' for Active; 'I' for Inactive)
REMARK    1  A    between atoms: C3_3  and  C7_7 
REMARK    2  A    between atoms: C7_7  and  C8_8 
REMARK    3  A    between atoms: C8_8  and  C9_9 
ROOT
HETATM    1  C1  UNL     1     -27.771  18.600   4.713  1.00 20.00     0.088 C 
HETATM    2  C2  UNL     1     -28.351  18.689   3.418  1.00 20.00     0.096 C 
HETATM    3  C3  UNL     1     -29.647  18.973   3.190  1.00 20.00    -0.074 C 
HETATM    4  C4  UNL     1     -30.582  19.220   4.345  1.00 20.00     0.044 C 
HETATM    5  N10 UNL     1     -27.293  18.524   5.768  1.00 20.00    -0.192 NA
ENDROOT
BRANCH   3   6
HETATM    6  C7  UNL     1     -30.279  19.045   1.814  1.00 20.00     0.034 C 
BRANCH   6   7
HETATM    7  C8  UNL     1     -31.753  18.619   1.833  1.00 20.00     0.008 C 
BRANCH   7   8
HETATM    8  C9  UNL     1     -32.478  18.867   0.497  1.00 20.00    -0.023 C 
HETATM    9  C5  UNL     1     -33.805  18.105   0.476  1.00 20.00     0.009 C 
HETATM   10  C6  UNL     1     -31.631  18.460  -0.710  1.00 20.00     0.009 C 
ENDBRANCH   7   8
ENDBRANCH   6   7
ENDBRANCH   3   6
TORSDOF 3
ENDMDL
MODEL 7
REMARK VINA RESULT:      -3.9     10.960     12.066
REMARK  3 active torsions:
REMARK  status: ('A' for Active; 'I' for Inactive)
REMARK    1  A    between atoms: C3_3  and  C7_7 
REMARK    2  A    between atoms: C7_7  and  C8_8 
REMARK    3  A    between atoms: C8_8  and  C9_9 
ROOT
HETATM    1  C1  UNL     1     -33.819  17.913  -1.158  1.00 20.00     0.088 C 
HETATM    2  C2  UNL     1     -33.477  16.750  -1.902  1.00 20.00     0.096 C 
HETATM    3  C3  UNL     1     -33.405  16.710  -3.246  1.00 20.00    -0.074 C 
HETATM    4  C4  UNL     1     -33.695  17.946  -4.056  1.00 20.00     0.044 C 
HETATM    5  N10 UNL     1     -34.099  18.858  -0.545  1.00 20.00    -0.192 NA
ENDROOT
BRANCH   3   6
HETATM    6  C7  UNL     1     -33.067  15.470  -4.049  1.00 20.00     0.034 C 
BRANCH   6   7
HETATM    7  C8  UNL     1     -34.272  14.533  -4.199  1.00 20.00     0.008 C 
BRANCH   7   8
HETATM    8  C9  UNL     1     -34.977  14.659  -5.563  1.00 20.00    -0.023 C 
HETATM    9  C5  UNL     1     -33.999  15.209  -6.604  1.00 20.00     0.009 C 
HETATM   10  C6  UNL     1     -36.218  15.551  -5.498  1.00 20.00     0.009 C 
ENDBRANCH   7   8
ENDBRANCH   6   7
ENDBRANCH   3   6
TORSDOF 3
ENDMDL
MODEL 8
REMARK VINA RESULT:      -3.8      2.782      5.065
REMARK  3 active torsions:
REMARK  status: ('A' for Active; 'I' for Inactive)
REMARK    1  A    between atoms: C3_3  and  C7_7 
REMARK    2  A    between atoms: C7_7  and  C8_8 
REMARK    3  A    between atoms: C8_8  and  C9_9 
ROOT
HETATM    1  C1  UNL     1     -34.323   6.211   6.114  1.00 20.00     0.088 C 
HETATM    2  C2  UNL     1     -33.668   7.240   5.384  1.00 20.00     0.096 C 
HETATM    3  C3  UNL     1     -33.195   7.092   4.132  1.00 20.00    -0.074 C 
HETATM    4  C4  UNL     1     -33.345   5.775   3.418  1.00 20.00     0.044 C 
HETATM    5  N10 UNL     1     -34.857   5.374   6.716  1.00 20.00    -0.192 NA
ENDROOT
BRANCH   3   6
HETATM    6  C7  UNL     1     -32.473   8.175   3.355  1.00 20.00     0.034 C 
BRANCH   6   7
HETATM    7  C8  UNL     1     -32.121   7.727   1.931  1.00 20.00     0.008 C 
BRANCH   7   8
HETATM    8  C9  UNL     1     -32.245   8.854   0.888  1.00 20.00    -0.023 C 
HETATM    9  C5  UNL     1     -33.045  10.019   1.476  1.00 20.00     0.009 C 
HETATM   10  C6  UNL     1     -32.901   8.380  -0.409  1.00 20.00     0.009 C 
ENDBRANCH   7   8
ENDBRANCH   6   7
ENDBRANCH   3   6
TORSDOF 3
ENDMDL
MODEL 9
REMARK VINA RESULT:      -3.7      9.554     10.544
REMARK  3 active torsions:
REMARK  status: ('A' for Active; 'I' for Inactive)
REMARK    1  A    between atoms: C3_3  and  C7_7 
REMARK    2  A    between atoms: C7_7  and  C8_8 
REMARK    3  A    between atoms: C8_8  and  C9_9 
ROOT
HETATM    1  C1  UNL     1     -39.487  11.879   4.733  1.00 20.00     0.088 C 
HETATM    2  C2  UNL     1     -40.190  12.158   5.937  1.00 20.00     0.096 C 
HETATM    3  C3  UNL     1     -41.195  13.047   6.034  1.00 20.00    -0.074 C 
HETATM    4  C4  UNL     1     -41.640  13.821   4.821  1.00 20.00     0.044 C 
HETATM    5  N10 UNL     1     -38.908  11.649   3.754  1.00 20.00    -0.192 NA
ENDROOT
BRANCH   3   6
HETATM    6  C7  UNL     1     -41.933  13.370   7.319  1.00 20.00     0.034 C 
BRANCH   6   7
HETATM    7  C8  UNL     1     -41.997  14.880   7.584  1.00 20.00     0.008 C 
BRANCH   7   8
HETATM    8  C9  UNL     1     -40.621  15.505   7.884  1.00 20.00    -0.023 C 
HETATM    9  C5  UNL     1     -40.181  15.136   9.303  1.00 20.00     0.009 C 
HETATM   10  C6  UNL     1     -40.625  17.026   7.725  1.00 20.00     0.009 C 
ENDBRANCH   7   8
ENDBRANCH   6   7
ENDBRANCH   3   6
TORSDOF 3
ENDMDL
