MODEL 1
REMARK VINA RESULT:      -4.2      0.000      0.000
REMARK  4 active torsions:
REMARK  status: ('A' for Active; 'I' for Inactive)
REMARK    1  A    between atoms: C7_7  and  C9_9 
REMARK    2  A    between atoms: C9_9  and  C11_11 
REMARK    3  A    between atoms: C10_10  and  C12_12 
REMARK    4  A    between atoms: C11_11  and  C12_12 
ROOT
HETATM    1  C1  UNL     1     -34.386  16.221  -7.806  1.00 20.00     0.004 C 
HETATM    2  C2  UNL     1     -34.524  17.515  -7.012  1.00 20.00     0.008 C 
HETATM    3  C3  UNL     1     -33.872  15.218  -6.784  1.00 20.00     0.038 C 
HETATM    4  C4  UNL     1     -36.235  17.310  -5.118  1.00 20.00     0.034 C 
HETATM    5  C5  UNL     1     -36.933  16.068  -5.621  1.00 20.00     0.169 C 
HETATM    6  C6  UNL     1     -34.801  17.104  -5.555  1.00 20.00     0.022 C 
HETATM    7  C7  UNL     1     -34.644  15.579  -5.515  1.00 20.00     0.064 C 
HETATM    8  O13 UNL     1     -35.968  15.011  -5.578  1.00 20.00    -0.380 OA
ENDROOT
BRANCH   7   9
HETATM    9  C9  UNL     1     -33.972  15.060  -4.252  1.00 20.00     0.038 C 
BRANCH   9  10
HETATM   10  C11 UNL     1     -33.087  16.127  -3.611  1.00 20.00     0.003 C 
BRANCH  10  11
HETATM   11  C12 UNL     1     -33.569  16.474  -2.200  1.00 20.00    -0.000 C 
BRANCH  11  12
HETATM   12  C10 UNL     1     -32.897  17.744  -1.680  1.00 20.00    -0.005 C 
HETATM   13  C8  UNL     1     -33.493  18.189  -0.354  1.00 20.00     0.005 C 
ENDBRANCH  11  12
ENDBRANCH  10  11
ENDBRANCH   9  10
ENDBRANCH   7   9
TORSDOF 4
ENDMDL
MODEL 2
REMARK VINA RESULT:      -4.1      1.192      2.552
REMARK  4 active torsions:
REMARK  status: ('A' for Active; 'I' for Inactive)
REMARK    1  A    between atoms: C7_7  and  C9_9 
REMARK    2  A    between atoms: C9_9  and  C11_11 
REMARK    3  A    between atoms: C10_10  and  C12_12 
REMARK    4  A    between atoms: C11_11  and  C12_12 
ROOT
HETATM    1  C1  UNL     1     -37.110  16.263  -5.641  1.00 20.00     0.004 C 
HETATM    2  C2  UNL     1     -36.310  14.973  -5.499  1.00 20.00     0.008 C 
HETATM    3  C3  UNL     1     -36.282  17.290  -4.883  1.00 20.00     0.038 C 
HETATM    4  C4  UNL     1     -33.999  15.142  -6.589  1.00 20.00     0.034 C 
HETATM    5  C5  UNL     1     -34.276  16.357  -7.443  1.00 20.00     0.169 C 
HETATM    6  C6  UNL     1     -34.835  15.388  -5.353  1.00 20.00     0.022 C 
HETATM    7  C7  UNL     1     -34.843  16.917  -5.239  1.00 20.00     0.064 C 
HETATM    8  O13 UNL     1     -34.516  17.444  -6.541  1.00 20.00    -0.380 OA
ENDROOT
BRANCH   7   9
HETATM    9  C9  UNL     1     -33.831  17.469  -4.245  1.00 20.00     0.038 C 
BRANCH   9  10
HETATM   10  C11 UNL     1     -33.479  16.436  -3.176  1.00 20.00     0.003 C 
BRANCH  10  11
HETATM   11  C12 UNL     1     -33.438  17.070  -1.783  1.00 20.00    -0.000 C 
BRANCH  11  12
HETATM   12  C10 UNL     1     -32.632  18.369  -1.788  1.00 20.00    -0.005 C 
HETATM   13  C8  UNL     1     -31.680  18.439  -0.606  1.00 20.00     0.005 C 
ENDBRANCH  11  12
ENDBRANCH  10  11
ENDBRANCH   9  10
ENDBRANCH   7   9
TORSDOF 4
ENDMDL
MODEL 3
REMARK VINA RESULT:      -4.1     11.870     14.308
REMARK  4 active torsions:
REMARK  status: ('A' for Active; 'I' for Inactive)
REMARK    1  A    between atoms: C7_7  and  C9_9 
REMARK    2  A    between atoms: C9_9  and  C11_11 
REMARK    3  A    between atoms: C10_10  and  C12_12 
REMARK    4  A    between atoms: C11_11  and  C12_12 
ROOT
HETATM    1  C1  UNL     1     -41.652  16.623   7.097  1.00 20.00     0.004 C 
HETATM    2  C2  UNL     1     -40.371  16.182   7.797  1.00 20.00     0.008 C 
HETATM    3  C3  UNL     1     -42.166  15.349   6.440  1.00 20.00     0.038 C 
HETATM    4  C4  UNL     1     -40.813  14.432   9.613  1.00 20.00     0.034 C 
HETATM    5  C5  UNL     1     -42.299  14.668   9.752  1.00 20.00     0.169 C 
HETATM    6  C6  UNL     1     -40.555  14.695   8.146  1.00 20.00     0.022 C 
HETATM    7  C7  UNL     1     -41.871  14.270   7.482  1.00 20.00     0.064 C 
HETATM    8  O13 UNL     1     -42.890  14.294   8.502  1.00 20.00    -0.380 OA
ENDROOT
BRANCH   7   9
HETATM    9  C9  UNL     1     -41.840  12.871   6.885  1.00 20.00     0.038 C 
BRANCH   9  10
HETATM   10  C11 UNL     1     -40.819  12.770   5.753  1.00 20.00     0.003 C 
BRANCH  10  11
HETATM   11  C12 UNL     1     -39.694  11.793   6.104  1.00 20.00    -0.000 C 
BRANCH  11  12
HETATM   12  C10 UNL     1     -38.511  11.942   5.148  1.00 20.00    -0.005 C 
HETATM   13  C8  UNL     1     -38.922  11.683   3.708  1.00 20.00     0.005 C 
ENDBRANCH  11  12
ENDBRANCH  10  11
ENDBRANCH   9  10
ENDBRANCH   7   9
TORSDOF 4
ENDMDL
MODEL 4
REMARK VINA RESULT:      -3.8      1.260      1.814
REMARK  4 active torsions:
REMARK  status: ('A' for Active; 'I' for Inactive)
REMARK    1  A    between atoms: C7_7  and  C9_9 
REMARK    2  A    between atoms: C9_9  and  C11_11 
REMARK    3  A    between atoms: C10_10  and  C12_12 
REMARK    4  A    between atoms: C11_11  and  C12_12 
ROOT
HETATM    1  C1  UNL     1     -35.175  14.819  -6.094  1.00 20.00     0.004 C 
HETATM    2  C2  UNL     1     -34.669  15.839  -7.108  1.00 20.00     0.008 C 
HETATM    3  C3  UNL     1     -34.552  15.270  -4.781  1.00 20.00     0.038 C 
HETATM    4  C4  UNL     1     -35.475  18.212  -6.579  1.00 20.00     0.034 C 
HETATM    5  C5  UNL     1     -36.592  17.831  -5.635  1.00 20.00     0.169 C 
HETATM    6  C6  UNL     1     -34.431  17.146  -6.330  1.00 20.00     0.022 C 
HETATM    7  C7  UNL     1     -34.641  16.795  -4.852  1.00 20.00     0.064 C 
HETATM    8  O13 UNL     1     -35.974  17.217  -4.499  1.00 20.00    -0.380 OA
ENDROOT
BRANCH   7   9
HETATM    9  C9  UNL     1     -33.667  17.484  -3.908  1.00 20.00     0.038 C 
BRANCH   9  10
HETATM   10  C11 UNL     1     -33.373  16.622  -2.682  1.00 20.00     0.003 C 
BRANCH  10  11
HETATM   11  C12 UNL     1     -33.448  17.444  -1.393  1.00 20.00    -0.000 C 
BRANCH  11  12
HETATM   12  C10 UNL     1     -32.441  18.593  -1.407  1.00 20.00    -0.005 C 
HETATM   13  C8  UNL     1     -31.357  18.398  -0.359  1.00 20.00     0.005 C 
ENDBRANCH  11  12
ENDBRANCH  10  11
ENDBRANCH   9  10
ENDBRANCH   7   9
TORSDOF 4
ENDMDL
MODEL 5
REMARK VINA RESULT:      -3.7      1.242      1.963
REMARK  4 active torsions:
REMARK  status: ('A' for Active; 'I' for Inactive)
REMARK    1  A    between atoms: C7_7  and  C9_9 
REMARK    2  A    between atoms: C9_9  and  C11_11 
REMARK    3  A    between atoms: C10_10  and  C12_12 
REMARK    4  A    between atoms: C11_11  and  C12_12 
ROOT
HETATM    1  C1  UNL     1     -35.080  18.087  -7.352  1.00 20.00     0.004 C 
HETATM    2  C2  UNL     1     -35.614  18.582  -6.013  1.00 20.00     0.008 C 
HETATM    3  C3  UNL     1     -34.772  16.618  -7.101  1.00 20.00     0.038 C 
HETATM    4  C4  UNL     1     -37.774  17.387  -5.331  1.00 20.00     0.034 C 
HETATM    5  C5  UNL     1     -38.124  16.829  -6.690  1.00 20.00     0.169 C 
HETATM    6  C6  UNL     1     -36.261  17.366  -5.326  1.00 20.00     0.022 C 
HETATM    7  C7  UNL     1     -35.929  16.160  -6.212  1.00 20.00     0.064 C 
HETATM    8  O13 UNL     1     -37.089  15.898  -7.028  1.00 20.00    -0.380 OA
ENDROOT
BRANCH   7   9
HETATM    9  C9  UNL     1     -35.607  14.892  -5.437  1.00 20.00     0.038 C 
BRANCH   9  10
HETATM   10  C11 UNL     1     -34.100  14.714  -5.258  1.00 20.00     0.003 C 
BRANCH  10  11
HETATM   11  C12 UNL     1     -33.682  14.948  -3.804  1.00 20.00    -0.000 C 
BRANCH  11  12
HETATM   12  C10 UNL     1     -33.279  16.403  -3.569  1.00 20.00    -0.005 C 
HETATM   13  C8  UNL     1     -33.472  16.808  -2.117  1.00 20.00     0.005 C 
ENDBRANCH  11  12
ENDBRANCH  10  11
ENDBRANCH   9  10
ENDBRANCH   7   9
TORSDOF 4
ENDMDL
MODEL 6
REMARK VINA RESULT:      -3.7      2.423      3.804
REMARK  4 active torsions:
REMARK  status: ('A' for Active; 'I' for Inactive)
REMARK    1  A    between atoms: C7_7  and  C9_9 
REMARK    2  A    between atoms: C9_9  and  C11_11 
REMARK    3  A    between atoms: C10_10  and  C12_12 
REMARK    4  A    between atoms: C11_11  and  C12_12 
ROOT
HETATM    1  C1  UNL     1     -34.036  15.825  -3.594  1.00 20.00     0.004 C 
HETATM    2  C2  UNL     1     -34.063  16.743  -4.811  1.00 20.00     0.008 C 
HETATM    3  C3  UNL     1     -33.170  16.574  -2.591  1.00 20.00     0.038 C 
HETATM    4  C4  UNL     1     -35.154  19.002  -4.296  1.00 20.00     0.034 C 
HETATM    5  C5  UNL     1     -35.850  18.594  -3.020  1.00 20.00     0.169 C 
HETATM    6  C6  UNL     1     -33.886  18.176  -4.280  1.00 20.00     0.022 C 
HETATM    7  C7  UNL     1     -33.587  18.032  -2.782  1.00 20.00     0.064 C 
HETATM    8  O13 UNL     1     -34.820  18.278  -2.076  1.00 20.00    -0.380 OA
ENDROOT
BRANCH   7   9
HETATM    9  C9  UNL     1     -32.547  19.014  -2.262  1.00 20.00     0.038 C 
BRANCH   9  10
HETATM   10  C11 UNL     1     -32.631  19.162  -0.744  1.00 20.00     0.003 C 
BRANCH  10  11
HETATM   11  C12 UNL     1     -31.349  18.673  -0.066  1.00 20.00    -0.000 C 
BRANCH  11  12
HETATM   12  C10 UNL     1     -31.543  18.514   1.441  1.00 20.00    -0.005 C 
HETATM   13  C8  UNL     1     -30.214  18.525   2.180  1.00 20.00     0.005 C 
ENDBRANCH  11  12
ENDBRANCH  10  11
ENDBRANCH   9  10
ENDBRANCH   7   9
TORSDOF 4
ENDMDL
MODEL 7
REMARK VINA RESULT:      -3.7     12.400     13.815
REMARK  4 active torsions:
REMARK  status: ('A' for Active; 'I' for Inactive)
REMARK    1  A    between atoms: C7_7  and  C9_9 
REMARK    2  A    between atoms: C9_9  and  C11_11 
REMARK    3  A    between atoms: C10_10  and  C12_12 
REMARK    4  A    between atoms: C11_11  and  C12_12 
ROOT
HETATM    1  C1  UNL     1     -40.114  12.124   5.361  1.00 20.00     0.004 C 
HETATM    2  C2  UNL     1     -40.923  13.250   4.727  1.00 20.00     0.008 C 
HETATM    3  C3  UNL     1     -39.688  12.694   6.707  1.00 20.00     0.038 C 
HETATM    4  C4  UNL     1     -43.017  13.821   6.087  1.00 20.00     0.034 C 
HETATM    5  C5  UNL     1     -43.062  12.557   6.912  1.00 20.00     0.169 C 
HETATM    6  C6  UNL     1     -41.535  14.054   5.889  1.00 20.00     0.022 C 
HETATM    7  C7  UNL     1     -40.920  13.473   7.167  1.00 20.00     0.064 C 
HETATM    8  O13 UNL     1     -41.885  12.559   7.728  1.00 20.00    -0.380 OA
ENDROOT
BRANCH   7   9
HETATM    9  C9  UNL     1     -40.593  14.515   8.226  1.00 20.00     0.038 C 
BRANCH   9  10
HETATM   10  C11 UNL     1     -40.287  15.873   7.596  1.00 20.00     0.003 C 
BRANCH  10  11
HETATM   11  C12 UNL     1     -41.050  16.997   8.301  1.00 20.00    -0.000 C 
BRANCH  11  12
HETATM   12  C10 UNL     1     -42.395  17.263   7.625  1.00 20.00    -0.005 C 
HETATM   13  C8  UNL     1     -42.216  17.734   6.191  1.00 20.00     0.005 C 
ENDBRANCH  11  12
ENDBRANCH  10  11
ENDBRANCH   9  10
ENDBRANCH   7   9
TORSDOF 4
ENDMDL
MODEL 8
REMARK VINA RESULT:      -3.7     13.466     15.218
REMARK  4 active torsions:
REMARK  status: ('A' for Active; 'I' for Inactive)
REMARK    1  A    between atoms: C7_7  and  C9_9 
REMARK    2  A    between atoms: C9_9  and  C11_11 
REMARK    3  A    between atoms: C10_10  and  C12_12 
REMARK    4  A    between atoms: C11_11  and  C12_12 
ROOT
HETATM    1  C1  UNL     1     -43.035   5.844   2.131  1.00 20.00     0.004 C 
HETATM    2  C2  UNL     1     -43.416   7.140   1.424  1.00 20.00     0.008 C 
HETATM    3  C3  UNL     1     -43.228   4.776   1.064  1.00 20.00     0.038 C 
HETATM    4  C4  UNL     1     -41.871   7.654  -0.552  1.00 20.00     0.034 C 
HETATM    5  C5  UNL     1     -40.748   6.720  -0.168  1.00 20.00     0.169 C 
HETATM    6  C6  UNL     1     -43.107   6.929  -0.069  1.00 20.00     0.022 C 
HETATM    7  C7  UNL     1     -42.718   5.452  -0.209  1.00 20.00     0.064 C 
HETATM    8  O13 UNL     1     -41.277   5.392  -0.243  1.00 20.00    -0.380 OA
ENDROOT
BRANCH   7   9
HETATM    9  C9  UNL     1     -43.243   4.791  -1.475  1.00 20.00     0.038 C 
BRANCH   9  10
HETATM   10  C11 UNL     1     -42.114   4.150  -2.280  1.00 20.00     0.003 C 
BRANCH  10  11
HETATM   11  C12 UNL     1     -42.656   3.122  -3.276  1.00 20.00    -0.000 C 
BRANCH  11  12
HETATM   12  C10 UNL     1     -41.525   2.314  -3.910  1.00 20.00    -0.005 C 
HETATM   13  C8  UNL     1     -41.800   0.820  -3.842  1.00 20.00     0.005 C 
ENDBRANCH  11  12
ENDBRANCH  10  11
ENDBRANCH   9  10
ENDBRANCH   7   9
TORSDOF 4
ENDMDL
MODEL 9
REMARK VINA RESULT:      -3.7     11.894     14.661
REMARK  4 active torsions:
REMARK  status: ('A' for Active; 'I' for Inactive)
REMARK    1  A    between atoms: C7_7  and  C9_9 
REMARK    2  A    between atoms: C9_9  and  C11_11 
REMARK    3  A    between atoms: C10_10  and  C12_12 
REMARK    4  A    between atoms: C11_11  and  C12_12 
ROOT
HETATM    1  C1  UNL     1     -40.138  15.214  10.098  1.00 20.00     0.004 C 
HETATM    2  C2  UNL     1     -41.482  15.902  10.309  1.00 20.00     0.008 C 
HETATM    3  C3  UNL     1     -40.356  14.362   8.855  1.00 20.00     0.038 C 
HETATM    4  C4  UNL     1     -42.103  17.434   8.353  1.00 20.00     0.034 C 
HETATM    5  C5  UNL     1     -40.725  17.536   7.743  1.00 20.00     0.169 C 
HETATM    6  C6  UNL     1     -42.129  16.030   8.919  1.00 20.00     0.022 C 
HETATM    7  C7  UNL     1     -41.216  15.255   7.961  1.00 20.00     0.064 C 
HETATM    8  O13 UNL     1     -40.378  16.221   7.294  1.00 20.00    -0.380 OA
ENDROOT
BRANCH   7   9
HETATM    9  C9  UNL     1     -41.964  14.470   6.893  1.00 20.00     0.038 C 
BRANCH   9  10
HETATM   10  C11 UNL     1     -41.365  13.078   6.701  1.00 20.00     0.003 C 
BRANCH  10  11
HETATM   11  C12 UNL     1     -40.601  12.980   5.379  1.00 20.00    -0.000 C 
BRANCH  11  12
HETATM   12  C10 UNL     1     -39.636  11.795   5.381  1.00 20.00    -0.005 C 
HETATM   13  C8  UNL     1     -38.956  11.626   4.032  1.00 20.00     0.005 C 
ENDBRANCH  11  12
ENDBRANCH  10  11
ENDBRANCH   9  10
ENDBRANCH   7   9
TORSDOF 4
ENDMDL
