MODEL 1
REMARK VINA RESULT:      -6.0      0.000      0.000
REMARK  0 active torsions:
REMARK  status: ('A' for Active; 'I' for Inactive)
ROOT
HETATM    1  C1  UNL     1     -34.743   5.025   5.223  1.00 20.00     0.002 C 
HETATM    2  C2  UNL     1     -34.280   5.400   4.019  1.00 20.00     0.030 C 
HETATM    3  C3  UNL     1     -34.454   5.768   6.439  1.00 20.00    -0.001 C 
HETATM    4  C4  UNL     1     -33.974   7.023   6.391  1.00 20.00     0.006 C 
HETATM    5  C5  UNL     1     -31.975   8.079   3.888  1.00 20.00     0.228 C 
HETATM    6  C6  UNL     1     -33.485   6.637   4.037  1.00 20.00     0.064 C 
HETATM    7  C7  UNL     1     -33.772   7.691   5.072  1.00 20.00     0.184 C 
HETATM    8  N8  UNL     1     -32.568   8.530   4.955  1.00 20.00    -0.268 NA
HETATM    9  N9  UNL     1     -32.488   6.953   3.289  1.00 20.00    -0.244 NA
ENDROOT
TORSDOF 0
ENDMDL
MODEL 2
REMARK VINA RESULT:      -5.8      1.730      3.556
REMARK  0 active torsions:
REMARK  status: ('A' for Active; 'I' for Inactive)
ROOT
HETATM    1  C1  UNL     1     -32.592   8.231   3.933  1.00 20.00     0.002 C 
HETATM    2  C2  UNL     1     -33.382   8.223   5.020  1.00 20.00     0.030 C 
HETATM    3  C3  UNL     1     -32.339   7.039   3.141  1.00 20.00    -0.001 C 
HETATM    4  C4  UNL     1     -33.111   5.944   3.262  1.00 20.00     0.006 C 
HETATM    5  C5  UNL     1     -34.573   5.103   6.184  1.00 20.00     0.228 C 
HETATM    6  C6  UNL     1     -33.986   6.916   5.317  1.00 20.00     0.064 C 
HETATM    7  C7  UNL     1     -34.278   5.958   4.193  1.00 20.00     0.184 C 
HETATM    8  N8  UNL     1     -34.516   4.715   4.943  1.00 20.00    -0.268 NA
HETATM    9  N9  UNL     1     -34.276   6.415   6.465  1.00 20.00    -0.244 NA
ENDROOT
TORSDOF 0
ENDMDL
MODEL 3
REMARK VINA RESULT:      -5.3      0.523      2.048
REMARK  0 active torsions:
REMARK  status: ('A' for Active; 'I' for Inactive)
ROOT
HETATM    1  C1  UNL     1     -34.760   5.795   6.147  1.00 20.00     0.002 C 
HETATM    2  C2  UNL     1     -34.008   6.876   6.415  1.00 20.00     0.030 C 
HETATM    3  C3  UNL     1     -34.873   5.231   4.812  1.00 20.00    -0.001 C 
HETATM    4  C4  UNL     1     -34.004   5.562   3.840  1.00 20.00     0.006 C 
HETATM    5  C5  UNL     1     -32.562   8.607   3.691  1.00 20.00     0.228 C 
HETATM    6  C6  UNL     1     -33.291   7.415   5.249  1.00 20.00     0.064 C 
HETATM    7  C7  UNL     1     -32.874   6.490   4.138  1.00 20.00     0.184 C 
HETATM    8  N8  UNL     1     -32.542   7.458   3.081  1.00 20.00    -0.268 NA
HETATM    9  N9  UNL     1     -32.991   8.640   4.996  1.00 20.00    -0.244 NA
ENDROOT
TORSDOF 0
ENDMDL
MODEL 4
REMARK VINA RESULT:      -5.3      1.717      3.249
REMARK  0 active torsions:
REMARK  status: ('A' for Active; 'I' for Inactive)
ROOT
HETATM    1  C1  UNL     1     -32.334   6.776   2.727  1.00 20.00     0.002 C 
HETATM    2  C2  UNL     1     -32.622   7.647   3.709  1.00 20.00     0.030 C 
HETATM    3  C3  UNL     1     -32.826   5.408   2.725  1.00 20.00    -0.001 C 
HETATM    4  C4  UNL     1     -33.834   5.029   3.530  1.00 20.00     0.006 C 
HETATM    5  C5  UNL     1     -34.329   6.431   6.558  1.00 20.00     0.228 C 
HETATM    6  C6  UNL     1     -33.497   7.104   4.759  1.00 20.00     0.064 C 
HETATM    7  C7  UNL     1     -34.496   6.032   4.415  1.00 20.00     0.184 C 
HETATM    8  N8  UNL     1     -34.868   5.559   5.757  1.00 20.00    -0.268 NA
HETATM    9  N9  UNL     1     -33.506   7.388   6.013  1.00 20.00    -0.244 NA
ENDROOT
TORSDOF 0
ENDMDL
MODEL 5
REMARK VINA RESULT:      -4.9      1.630      3.010
REMARK  0 active torsions:
REMARK  status: ('A' for Active; 'I' for Inactive)
ROOT
HETATM    1  C1  UNL     1     -32.278   7.690   3.038  1.00 20.00     0.002 C 
HETATM    2  C2  UNL     1     -32.722   6.423   3.086  1.00 20.00     0.030 C 
HETATM    3  C3  UNL     1     -32.613   8.675   4.054  1.00 20.00    -0.001 C 
HETATM    4  C4  UNL     1     -33.121   8.306   5.243  1.00 20.00     0.006 C 
HETATM    5  C5  UNL     1     -35.086   5.585   5.579  1.00 20.00     0.228 C 
HETATM    6  C6  UNL     1     -33.546   6.116   4.264  1.00 20.00     0.064 C 
HETATM    7  C7  UNL     1     -33.308   6.857   5.552  1.00 20.00     0.184 C 
HETATM    8  N8  UNL     1     -34.528   6.513   6.300  1.00 20.00    -0.268 NA
HETATM    9  N9  UNL     1     -34.533   5.296   4.354  1.00 20.00    -0.244 NA
ENDROOT
TORSDOF 0
ENDMDL
MODEL 6
REMARK VINA RESULT:      -4.7      1.408      2.564
REMARK  0 active torsions:
REMARK  status: ('A' for Active; 'I' for Inactive)
ROOT
HETATM    1  C1  UNL     1     -34.345   6.821   6.558  1.00 20.00     0.002 C 
HETATM    2  C2  UNL     1     -34.799   5.710   5.956  1.00 20.00     0.030 C 
HETATM    3  C3  UNL     1     -33.331   7.675   5.963  1.00 20.00    -0.001 C 
HETATM    4  C4  UNL     1     -33.016   7.578   4.659  1.00 20.00     0.006 C 
HETATM    5  C5  UNL     1     -33.187   4.651   2.991  1.00 20.00     0.228 C 
HETATM    6  C6  UNL     1     -34.204   5.453   4.636  1.00 20.00     0.064 C 
HETATM    7  C7  UNL     1     -33.745   6.609   3.789  1.00 20.00     0.184 C 
HETATM    8  N8  UNL     1     -32.930   5.910   2.783  1.00 20.00    -0.268 NA
HETATM    9  N9  UNL     1     -33.957   4.320   4.081  1.00 20.00    -0.244 NA
ENDROOT
TORSDOF 0
ENDMDL
MODEL 7
REMARK VINA RESULT:      -4.4      1.649      2.968
REMARK  0 active torsions:
REMARK  status: ('A' for Active; 'I' for Inactive)
ROOT
HETATM    1  C1  UNL     1     -32.524   8.607   4.202  1.00 20.00     0.002 C 
HETATM    2  C2  UNL     1     -32.531   7.393   3.628  1.00 20.00     0.030 C 
HETATM    3  C3  UNL     1     -33.327   8.925   5.371  1.00 20.00    -0.001 C 
HETATM    4  C4  UNL     1     -33.878   7.956   6.122  1.00 20.00     0.006 C 
HETATM    5  C5  UNL     1     -34.873   5.016   4.801  1.00 20.00     0.228 C 
HETATM    6  C6  UNL     1     -33.395   6.412   4.303  1.00 20.00     0.064 C 
HETATM    7  C7  UNL     1     -33.631   6.523   5.785  1.00 20.00     0.184 C 
HETATM    8  N8  UNL     1     -34.778   5.617   5.951  1.00 20.00    -0.268 NA
HETATM    9  N9  UNL     1     -34.059   5.443   3.779  1.00 20.00    -0.244 NA
ENDROOT
TORSDOF 0
ENDMDL
MODEL 8
REMARK VINA RESULT:      -3.9     15.533     16.178
REMARK  0 active torsions:
REMARK  status: ('A' for Active; 'I' for Inactive)
ROOT
HETATM    1  C1  UNL     1     -23.679  19.129   8.182  1.00 20.00     0.002 C 
HETATM    2  C2  UNL     1     -24.709  19.262   9.034  1.00 20.00     0.030 C 
HETATM    3  C3  UNL     1     -22.510  18.321   8.489  1.00 20.00    -0.001 C 
HETATM    4  C4  UNL     1     -22.525  17.425   9.491  1.00 20.00     0.006 C 
HETATM    5  C5  UNL     1     -24.372  17.889  12.276  1.00 20.00     0.228 C 
HETATM    6  C6  UNL     1     -24.563  18.498  10.282  1.00 20.00     0.064 C 
HETATM    7  C7  UNL     1     -23.773  17.217  10.283  1.00 20.00     0.184 C 
HETATM    8  N8  UNL     1     -23.590  17.005  11.727  1.00 20.00    -0.268 NA
HETATM    9  N9  UNL     1     -24.991  18.802  11.456  1.00 20.00    -0.244 NA
ENDROOT
TORSDOF 0
ENDMDL
MODEL 9
REMARK VINA RESULT:      -3.8     15.838     16.735
REMARK  0 active torsions:
REMARK  status: ('A' for Active; 'I' for Inactive)
ROOT
HETATM    1  C1  UNL     1     -24.264  18.483  12.315  1.00 20.00     0.002 C 
HETATM    2  C2  UNL     1     -22.956  18.208  12.186  1.00 20.00     0.030 C 
HETATM    3  C3  UNL     1     -25.106  18.830  11.182  1.00 20.00    -0.001 C 
HETATM    4  C4  UNL     1     -24.706  18.598   9.919  1.00 20.00     0.006 C 
HETATM    5  C5  UNL     1     -21.456  18.715   9.023  1.00 20.00     0.228 C 
HETATM    6  C6  UNL     1     -22.462  18.259  10.801  1.00 20.00     0.064 C 
HETATM    7  C7  UNL     1     -23.394  17.933   9.666  1.00 20.00     0.184 C 
HETATM    8  N8  UNL     1     -22.625  18.444   8.520  1.00 20.00    -0.268 NA
HETATM    9  N9  UNL     1     -21.297  18.610  10.384  1.00 20.00    -0.244 NA
ENDROOT
TORSDOF 0
ENDMDL
