MODEL 1
REMARK VINA RESULT:      -4.9      0.000      0.000
REMARK  2 active torsions:
REMARK  status: ('A' for Active; 'I' for Inactive)
REMARK    1  A    between atoms: C1_1  and  C5_5 
REMARK    2  A    between atoms: C1_1  and  C6_6 
ROOT
HETATM    1  C2  UNL     1     -34.740   5.639   6.344  1.00 20.00     0.029 C 
HETATM    2  C3  UNL     1     -33.911   6.894   6.249  1.00 20.00     0.042 C 
HETATM    3  C4  UNL     1     -34.433   4.962   5.027  1.00 20.00     0.168 C 
HETATM    4  C5  UNL     1     -34.005   7.234   4.773  1.00 20.00     0.192 C 
HETATM    5  O8  UNL     1     -34.263   6.014   4.068  1.00 20.00    -0.378 OA
ENDROOT
BRANCH   4   6
HETATM    6  C1  UNL     1     -32.728   7.774   4.221  1.00 20.00     0.169 C 
HETATM    7  O7  UNL     1     -32.171   8.733   4.754  1.00 20.00    -0.294 OA
BRANCH   6   8
HETATM    8  C6  UNL     1     -32.196   7.072   2.993  1.00 20.00     0.195 C 
HETATM    9 CL9  UNL     1     -32.219   8.155   1.594  1.00 20.00    -0.122 Cl
ENDBRANCH   6   8
ENDBRANCH   4   6
TORSDOF 2
ENDMDL
MODEL 2
REMARK VINA RESULT:      -4.4      1.594      1.664
REMARK  2 active torsions:
REMARK  status: ('A' for Active; 'I' for Inactive)
REMARK    1  A    between atoms: C1_1  and  C5_5 
REMARK    2  A    between atoms: C1_1  and  C6_6 
ROOT
HETATM    1  C2  UNL     1     -34.443   6.523   6.639  1.00 20.00     0.029 C 
HETATM    2  C3  UNL     1     -33.672   7.233   5.555  1.00 20.00     0.042 C 
HETATM    3  C4  UNL     1     -34.480   5.105   6.118  1.00 20.00     0.168 C 
HETATM    4  C5  UNL     1     -34.142   6.518   4.302  1.00 20.00     0.192 C 
HETATM    5  O8  UNL     1     -34.566   5.206   4.691  1.00 20.00    -0.378 OA
ENDROOT
BRANCH   4   6
HETATM    6  C1  UNL     1     -33.052   6.327   3.302  1.00 20.00     0.169 C 
HETATM    7  O7  UNL     1     -32.952   5.271   2.679  1.00 20.00    -0.294 OA
BRANCH   6   8
HETATM    8  C6  UNL     1     -32.111   7.496   3.125  1.00 20.00     0.195 C 
HETATM    9 CL9  UNL     1     -32.078   8.023   1.436  1.00 20.00    -0.122 Cl
ENDBRANCH   6   8
ENDBRANCH   4   6
TORSDOF 2
ENDMDL
MODEL 3
REMARK VINA RESULT:      -3.8      2.184      3.688
REMARK  2 active torsions:
REMARK  status: ('A' for Active; 'I' for Inactive)
REMARK    1  A    between atoms: C1_1  and  C5_5 
REMARK    2  A    between atoms: C1_1  and  C6_6 
ROOT
HETATM    1  C2  UNL     1     -32.048   8.374   3.477  1.00 20.00     0.029 C 
HETATM    2  C3  UNL     1     -32.839   7.098   3.613  1.00 20.00     0.042 C 
HETATM    3  C4  UNL     1     -32.198   8.982   4.853  1.00 20.00     0.168 C 
HETATM    4  C5  UNL     1     -33.974   7.516   4.529  1.00 20.00     0.192 C 
HETATM    5  O8  UNL     1     -33.511   8.627   5.306  1.00 20.00    -0.378 OA
ENDROOT
BRANCH   4   6
HETATM    6  C1  UNL     1     -34.351   6.452   5.505  1.00 20.00     0.169 C 
HETATM    7  O7  UNL     1     -34.078   6.571   6.699  1.00 20.00    -0.294 OA
BRANCH   6   8
HETATM    8  C6  UNL     1     -35.070   5.255   4.925  1.00 20.00     0.195 C 
HETATM    9 CL9  UNL     1     -33.911   4.031   4.385  1.00 20.00    -0.122 Cl
ENDBRANCH   6   8
ENDBRANCH   4   6
TORSDOF 2
ENDMDL
MODEL 4
REMARK VINA RESULT:      -3.8      2.493      3.772
REMARK  2 active torsions:
REMARK  status: ('A' for Active; 'I' for Inactive)
REMARK    1  A    between atoms: C1_1  and  C5_5 
REMARK    2  A    between atoms: C1_1  and  C6_6 
ROOT
HETATM    1  C2  UNL     1     -32.662   9.160   4.613  1.00 20.00     0.029 C 
HETATM    2  C3  UNL     1     -33.486   7.994   5.099  1.00 20.00     0.042 C 
HETATM    3  C4  UNL     1     -32.368   8.761   3.185  1.00 20.00     0.168 C 
HETATM    4  C5  UNL     1     -32.845   6.823   4.379  1.00 20.00     0.192 C 
HETATM    5  O8  UNL     1     -32.231   7.334   3.190  1.00 20.00    -0.378 OA
ENDROOT
BRANCH   4   6
HETATM    6  C1  UNL     1     -33.839   5.804   3.931  1.00 20.00     0.169 C 
HETATM    7  O7  UNL     1     -33.604   5.082   2.963  1.00 20.00    -0.294 OA
BRANCH   6   8
HETATM    8  C6  UNL     1     -35.117   5.737   4.736  1.00 20.00     0.195 C 
HETATM    9 CL9  UNL     1     -34.779   5.261   6.407  1.00 20.00    -0.122 Cl
ENDBRANCH   6   8
ENDBRANCH   4   6
TORSDOF 2
ENDMDL
MODEL 5
REMARK VINA RESULT:      -3.7     12.429     13.066
REMARK  2 active torsions:
REMARK  status: ('A' for Active; 'I' for Inactive)
REMARK    1  A    between atoms: C1_1  and  C5_5 
REMARK    2  A    between atoms: C1_1  and  C6_6 
ROOT
HETATM    1  C2  UNL     1     -34.155  17.810  -2.310  1.00 20.00     0.029 C 
HETATM    2  C3  UNL     1     -33.661  17.723  -0.888  1.00 20.00     0.042 C 
HETATM    3  C4  UNL     1     -32.949  18.371  -3.027  1.00 20.00     0.168 C 
HETATM    4  C5  UNL     1     -32.770  18.947  -0.780  1.00 20.00     0.192 C 
HETATM    5  O8  UNL     1     -32.314  19.263  -2.101  1.00 20.00    -0.378 OA
ENDROOT
BRANCH   4   6
HETATM    6  C1  UNL     1     -31.546  18.701   0.037  1.00 20.00     0.169 C 
HETATM    7  O7  UNL     1     -30.454  18.530  -0.505  1.00 20.00    -0.294 OA
BRANCH   6   8
HETATM    8  C6  UNL     1     -31.750  18.678   1.534  1.00 20.00     0.195 C 
HETATM    9 CL9  UNL     1     -30.220  18.374   2.370  1.00 20.00    -0.122 Cl
ENDBRANCH   6   8
ENDBRANCH   4   6
TORSDOF 2
ENDMDL
MODEL 6
REMARK VINA RESULT:      -3.6      2.259      3.991
REMARK  2 active torsions:
REMARK  status: ('A' for Active; 'I' for Inactive)
REMARK    1  A    between atoms: C1_1  and  C5_5 
REMARK    2  A    between atoms: C1_1  and  C6_6 
ROOT
HETATM    1  C2  UNL     1     -32.094   7.170   2.585  1.00 20.00     0.029 C 
HETATM    2  C3  UNL     1     -32.734   5.821   2.789  1.00 20.00     0.042 C 
HETATM    3  C4  UNL     1     -32.439   7.879   3.874  1.00 20.00     0.168 C 
HETATM    4  C5  UNL     1     -33.989   6.172   3.566  1.00 20.00     0.192 C 
HETATM    5  O8  UNL     1     -33.736   7.401   4.257  1.00 20.00    -0.378 OA
ENDROOT
BRANCH   4   6
HETATM    6  C1  UNL     1     -34.323   5.164   4.614  1.00 20.00     0.169 C 
HETATM    7  O7  UNL     1     -34.067   3.973   4.442  1.00 20.00    -0.294 OA
BRANCH   6   8
HETATM    8  C6  UNL     1     -34.981   5.708   5.861  1.00 20.00     0.195 C 
HETATM    9 CL9  UNL     1     -33.798   6.544   6.879  1.00 20.00    -0.122 Cl
ENDBRANCH   6   8
ENDBRANCH   4   6
TORSDOF 2
ENDMDL
MODEL 7
REMARK VINA RESULT:      -3.6     11.932     12.500
REMARK  2 active torsions:
REMARK  status: ('A' for Active; 'I' for Inactive)
REMARK    1  A    between atoms: C1_1  and  C5_5 
REMARK    2  A    between atoms: C1_1  and  C6_6 
ROOT
HETATM    1  C2  UNL     1     -30.741  19.168   3.846  1.00 20.00     0.029 C 
HETATM    2  C3  UNL     1     -31.804  19.260   2.782  1.00 20.00     0.042 C 
HETATM    3  C4  UNL     1     -29.508  18.853   3.030  1.00 20.00     0.168 C 
HETATM    4  C5  UNL     1     -31.364  18.197   1.792  1.00 20.00     0.192 C 
HETATM    5  O8  UNL     1     -29.949  18.032   1.941  1.00 20.00    -0.378 OA
ENDROOT
BRANCH   4   6
HETATM    6  C1  UNL     1     -31.590  18.599   0.373  1.00 20.00     0.169 C 
HETATM    7  O7  UNL     1     -30.640  18.765  -0.391  1.00 20.00    -0.294 OA
BRANCH   6   8
HETATM    8  C6  UNL     1     -33.034  18.783  -0.035  1.00 20.00     0.195 C 
HETATM    9 CL9  UNL     1     -33.529  17.520  -1.171  1.00 20.00    -0.122 Cl
ENDBRANCH   6   8
ENDBRANCH   4   6
TORSDOF 2
ENDMDL
MODEL 8
REMARK VINA RESULT:      -3.6     15.193     16.194
REMARK  2 active torsions:
REMARK  status: ('A' for Active; 'I' for Inactive)
REMARK    1  A    between atoms: C1_1  and  C5_5 
REMARK    2  A    between atoms: C1_1  and  C6_6 
ROOT
HETATM    1  C2  UNL     1     -25.521  17.444  12.332  1.00 20.00     0.029 C 
HETATM    2  C3  UNL     1     -24.615  18.609  12.028  1.00 20.00     0.042 C 
HETATM    3  C4  UNL     1     -24.662  16.267  11.928  1.00 20.00     0.168 C 
HETATM    4  C5  UNL     1     -23.886  18.137  10.784  1.00 20.00     0.192 C 
HETATM    5  O8  UNL     1     -23.890  16.705  10.803  1.00 20.00    -0.378 OA
ENDROOT
BRANCH   4   6
HETATM    6  C1  UNL     1     -22.453  18.551  10.760  1.00 20.00     0.169 C 
HETATM    7  O7  UNL     1     -21.779  18.536  11.790  1.00 20.00    -0.294 OA
BRANCH   6   8
HETATM    8  C6  UNL     1     -21.915  18.979   9.414  1.00 20.00     0.195 C 
HETATM    9 CL9  UNL     1     -23.184  18.906   8.182  1.00 20.00    -0.122 Cl
ENDBRANCH   6   8
ENDBRANCH   4   6
TORSDOF 2
ENDMDL
MODEL 9
REMARK VINA RESULT:      -3.5      2.283      3.486
REMARK  2 active torsions:
REMARK  status: ('A' for Active; 'I' for Inactive)
REMARK    1  A    between atoms: C1_1  and  C5_5 
REMARK    2  A    between atoms: C1_1  and  C6_6 
ROOT
HETATM    1  C2  UNL     1     -32.287   9.191   4.064  1.00 20.00     0.029 C 
HETATM    2  C3  UNL     1     -33.020   8.732   5.300  1.00 20.00     0.042 C 
HETATM    3  C4  UNL     1     -32.721   8.164   3.044  1.00 20.00     0.168 C 
HETATM    4  C5  UNL     1     -32.985   7.222   5.154  1.00 20.00     0.192 C 
HETATM    5  O8  UNL     1     -32.864   6.929   3.757  1.00 20.00    -0.378 OA
ENDROOT
BRANCH   4   6
HETATM    6  C1  UNL     1     -34.246   6.568   5.611  1.00 20.00     0.169 C 
HETATM    7  O7  UNL     1     -34.670   6.752   6.751  1.00 20.00    -0.294 OA
BRANCH   6   8
HETATM    8  C6  UNL     1     -34.934   5.687   4.594  1.00 20.00     0.195 C 
HETATM    9 CL9  UNL     1     -34.078   4.148   4.417  1.00 20.00    -0.122 Cl
ENDBRANCH   6   8
ENDBRANCH   4   6
TORSDOF 2
ENDMDL
