MODEL 1
REMARK VINA RESULT:      -3.8      0.000      0.000
REMARK  1 active torsions:
REMARK  status: ('A' for Active; 'I' for Inactive)
REMARK    1  A    between atoms: C3_3  and  C7_7 
ROOT
HETATM    1  C1  UNL     1     -40.963   6.014   1.043  1.00 20.00    -0.025 C 
HETATM    2  C2  UNL     1     -40.948   5.825  -0.285  1.00 20.00    -0.024 C 
HETATM    3  C4  UNL     1     -43.400   6.010   1.129  1.00 20.00     0.021 C 
HETATM    4  C5  UNL     1     -42.151   6.907   1.347  1.00 20.00     0.017 C 
HETATM    5  C6  UNL     1     -42.134   6.584  -0.859  1.00 20.00     0.027 C 
HETATM    6  C7  UNL     1     -43.412   5.817  -0.418  1.00 20.00     0.056 C 
HETATM    7  C8  UNL     1     -42.141   7.817   0.089  1.00 20.00    -0.033 C 
HETATM    8  C9  UNL     1     -40.896   8.728  -0.037  1.00 20.00     0.016 C 
HETATM    9  C10 UNL     1     -43.363   8.744  -0.047  1.00 20.00     0.016 C 
ENDROOT
BRANCH   6  10
HETATM   10  C3  UNL     1     -43.417   4.374  -0.827  1.00 20.00     0.236 C 
HETATM   11  O11 UNL     1     -43.417   4.002  -1.995  1.00 20.00    -0.306 OA
ENDBRANCH   6  10
TORSDOF 1
ENDMDL
MODEL 2
REMARK VINA RESULT:      -3.7      2.266      3.631
REMARK  1 active torsions:
REMARK  status: ('A' for Active; 'I' for Inactive)
REMARK    1  A    between atoms: C3_3  and  C7_7 
ROOT
HETATM    1  C1  UNL     1     -42.329   5.417  -1.105  1.00 20.00    -0.025 C 
HETATM    2  C2  UNL     1     -41.132   5.516  -0.508  1.00 20.00    -0.024 C 
HETATM    3  C4  UNL     1     -43.169   7.427  -0.010  1.00 20.00     0.021 C 
HETATM    4  C5  UNL     1     -43.362   5.888  -0.101  1.00 20.00     0.017 C 
HETATM    5  C6  UNL     1     -41.373   6.067   0.889  1.00 20.00     0.027 C 
HETATM    6  C7  UNL     1     -41.796   7.553   0.718  1.00 20.00     0.056 C 
HETATM    7  C8  UNL     1     -42.724   5.370   1.217  1.00 20.00    -0.033 C 
HETATM    8  C9  UNL     1     -42.639   3.829   1.328  1.00 20.00     0.016 C 
HETATM    9  C10 UNL     1     -43.417   5.854   2.504  1.00 20.00     0.016 C 
ENDROOT
BRANCH   6  10
HETATM   10  C3  UNL     1     -40.803   8.376  -0.047  1.00 20.00     0.236 C 
HETATM   11  O11 UNL     1     -40.394   9.468   0.333  1.00 20.00    -0.306 OA
ENDBRANCH   6  10
TORSDOF 1
ENDMDL
MODEL 3
REMARK VINA RESULT:      -3.7     19.377     20.556
REMARK  1 active torsions:
REMARK  status: ('A' for Active; 'I' for Inactive)
REMARK    1  A    between atoms: C3_3  and  C7_7 
ROOT
HETATM    1  C1  UNL     1     -27.658  -0.568  10.662  1.00 20.00    -0.025 C 
HETATM    2  C2  UNL     1     -27.914  -0.742  11.968  1.00 20.00    -0.024 C 
HETATM    3  C4  UNL     1     -28.500  -2.782  10.085  1.00 20.00     0.021 C 
HETATM    4  C5  UNL     1     -27.214  -1.911  10.117  1.00 20.00     0.017 C 
HETATM    5  C6  UNL     1     -27.651  -2.207  12.283  1.00 20.00     0.027 C 
HETATM    6  C7  UNL     1     -28.784  -3.023  11.599  1.00 20.00     0.056 C 
HETATM    7  C8  UNL     1     -26.439  -2.465  11.344  1.00 20.00    -0.033 C 
HETATM    8  C9  UNL     1     -25.163  -1.670  11.712  1.00 20.00     0.016 C 
HETATM    9  C10 UNL     1     -26.004  -3.937  11.222  1.00 20.00     0.016 C 
ENDROOT
BRANCH   6  10
HETATM   10  C3  UNL     1     -30.162  -2.598  12.010  1.00 20.00     0.236 C 
HETATM   11  O11 UNL     1     -31.063  -2.363  11.212  1.00 20.00    -0.306 OA
ENDBRANCH   6  10
TORSDOF 1
ENDMDL
MODEL 4
REMARK VINA RESULT:      -3.4      1.450      1.724
REMARK  1 active torsions:
REMARK  status: ('A' for Active; 'I' for Inactive)
REMARK    1  A    between atoms: C3_3  and  C7_7 
ROOT
HETATM    1  C1  UNL     1     -40.769   5.568  -0.503  1.00 20.00    -0.025 C 
HETATM    2  C2  UNL     1     -41.871   5.382  -1.247  1.00 20.00    -0.024 C 
HETATM    3  C4  UNL     1     -41.937   5.025   1.567  1.00 20.00     0.021 C 
HETATM    4  C5  UNL     1     -41.222   6.177   0.810  1.00 20.00     0.017 C 
HETATM    5  C6  UNL     1     -43.055   5.857  -0.418  1.00 20.00     0.027 C 
HETATM    6  C7  UNL     1     -43.239   4.827   0.731  1.00 20.00     0.056 C 
HETATM    7  C8  UNL     1     -42.398   7.062   0.313  1.00 20.00    -0.033 C 
HETATM    8  C9  UNL     1     -41.979   8.225  -0.617  1.00 20.00     0.016 C 
HETATM    9  C10 UNL     1     -43.247   7.694   1.432  1.00 20.00     0.016 C 
ENDROOT
BRANCH   6  10
HETATM   10  C3  UNL     1     -43.417   3.417   0.252  1.00 20.00     0.236 C 
HETATM   11  O11 UNL     1     -43.382   2.442   0.994  1.00 20.00    -0.306 OA
ENDBRANCH   6  10
TORSDOF 1
ENDMDL
MODEL 5
REMARK VINA RESULT:      -3.4      9.003     10.130
REMARK  1 active torsions:
REMARK  status: ('A' for Active; 'I' for Inactive)
REMARK    1  A    between atoms: C3_3  and  C7_7 
ROOT
HETATM    1  C1  UNL     1     -41.599  13.974   8.359  1.00 20.00    -0.025 C 
HETATM    2  C2  UNL     1     -40.509  14.405   7.705  1.00 20.00    -0.024 C 
HETATM    3  C4  UNL     1     -42.100  12.301   6.658  1.00 20.00     0.021 C 
HETATM    4  C5  UNL     1     -42.628  13.609   7.308  1.00 20.00     0.017 C 
HETATM    5  C6  UNL     1     -40.815  14.311   6.218  1.00 20.00     0.027 C 
HETATM    6  C7  UNL     1     -40.854  12.798   5.863  1.00 20.00     0.056 C 
HETATM    7  C8  UNL     1     -42.323  14.690   6.235  1.00 20.00    -0.033 C 
HETATM    8  C9  UNL     1     -42.615  16.142   6.684  1.00 20.00     0.016 C 
HETATM    9  C10 UNL     1     -43.064  14.499   4.898  1.00 20.00     0.016 C 
ENDROOT
BRANCH   6  10
HETATM   10  C3  UNL     1     -39.598  12.064   6.225  1.00 20.00     0.236 C 
HETATM   11  O11 UNL     1     -38.577  12.096   5.548  1.00 20.00    -0.306 OA
ENDBRANCH   6  10
TORSDOF 1
ENDMDL
MODEL 6
REMARK VINA RESULT:      -3.3      8.813     10.117
REMARK  1 active torsions:
REMARK  status: ('A' for Active; 'I' for Inactive)
REMARK    1  A    between atoms: C3_3  and  C7_7 
ROOT
HETATM    1  C1  UNL     1     -43.417  13.058   6.353  1.00 20.00    -0.025 C 
HETATM    2  C2  UNL     1     -42.567  12.527   7.245  1.00 20.00    -0.024 C 
HETATM    3  C4  UNL     1     -41.606  13.982   5.007  1.00 20.00     0.021 C 
HETATM    4  C5  UNL     1     -42.815  14.374   5.901  1.00 20.00     0.017 C 
HETATM    5  C6  UNL     1     -41.395  13.488   7.372  1.00 20.00     0.027 C 
HETATM    6  C7  UNL     1     -40.596  13.399   6.042  1.00 20.00     0.056 C 
HETATM    7  C8  UNL     1     -42.146  14.841   7.222  1.00 20.00    -0.033 C 
HETATM    8  C9  UNL     1     -43.137  15.155   8.369  1.00 20.00     0.016 C 
HETATM    9  C10 UNL     1     -41.244  16.082   7.086  1.00 20.00     0.016 C 
ENDROOT
BRANCH   6  10
HETATM   10  C3  UNL     1     -40.149  12.008   5.702  1.00 20.00     0.236 C 
HETATM   11  O11 UNL     1     -39.613  11.711   4.641  1.00 20.00    -0.306 OA
ENDBRANCH   6  10
TORSDOF 1
ENDMDL
MODEL 7
REMARK VINA RESULT:      -3.2      9.049     10.312
REMARK  1 active torsions:
REMARK  status: ('A' for Active; 'I' for Inactive)
REMARK    1  A    between atoms: C3_3  and  C7_7 
ROOT
HETATM    1  C1  UNL     1     -40.732  14.976   7.129  1.00 20.00    -0.025 C 
HETATM    2  C2  UNL     1     -41.887  15.596   6.844  1.00 20.00    -0.024 C 
HETATM    3  C4  UNL     1     -41.111  13.251   5.449  1.00 20.00     0.021 C 
HETATM    4  C5  UNL     1     -40.982  13.488   6.978  1.00 20.00     0.017 C 
HETATM    5  C6  UNL     1     -42.899  14.516   6.491  1.00 20.00     0.027 C 
HETATM    6  C7  UNL     1     -42.472  13.935   5.114  1.00 20.00     0.056 C 
HETATM    7  C8  UNL     1     -42.450  13.402   7.479  1.00 20.00    -0.033 C 
HETATM    8  C9  UNL     1     -42.642  13.755   8.973  1.00 20.00     0.016 C 
HETATM    9  C10 UNL     1     -43.122  12.032   7.273  1.00 20.00     0.016 C 
ENDROOT
BRANCH   6  10
HETATM   10  C3  UNL     1     -42.356  14.970   4.035  1.00 20.00     0.236 C 
HETATM   11  O11 UNL     1     -42.002  14.716   2.890  1.00 20.00    -0.306 OA
ENDBRANCH   6  10
TORSDOF 1
ENDMDL
MODEL 8
REMARK VINA RESULT:      -3.2      9.754     10.916
REMARK  1 active torsions:
REMARK  status: ('A' for Active; 'I' for Inactive)
REMARK    1  A    between atoms: C3_3  and  C7_7 
ROOT
HETATM    1  C1  UNL     1     -41.083  12.672   6.566  1.00 20.00    -0.025 C 
HETATM    2  C2  UNL     1     -42.402  12.531   6.768  1.00 20.00    -0.024 C 
HETATM    3  C4  UNL     1     -40.920  14.511   8.158  1.00 20.00     0.021 C 
HETATM    4  C5  UNL     1     -40.780  14.155   6.653  1.00 20.00     0.017 C 
HETATM    5  C6  UNL     1     -42.969  13.923   7.001  1.00 20.00     0.027 C 
HETATM    6  C7  UNL     1     -42.457  14.388   8.393  1.00 20.00     0.056 C 
HETATM    7  C8  UNL     1     -42.075  14.739   6.025  1.00 20.00    -0.033 C 
HETATM    8  C9  UNL     1     -42.277  14.395   4.530  1.00 20.00     0.016 C 
HETATM    9  C10 UNL     1     -42.210  16.270   6.133  1.00 20.00     0.016 C 
ENDROOT
BRANCH   6  10
HETATM   10  C3  UNL     1     -42.805  13.446   9.506  1.00 20.00     0.236 C 
HETATM   11  O11 UNL     1     -41.999  13.071  10.351  1.00 20.00    -0.306 OA
ENDBRANCH   6  10
TORSDOF 1
ENDMDL
MODEL 9
REMARK VINA RESULT:      -3.2     11.450     13.520
REMARK  1 active torsions:
REMARK  status: ('A' for Active; 'I' for Inactive)
REMARK    1  A    between atoms: C3_3  and  C7_7 
ROOT
HETATM    1  C1  UNL     1     -35.833  16.330  -7.688  1.00 20.00    -0.025 C 
HETATM    2  C2  UNL     1     -36.794  16.253  -6.754  1.00 20.00    -0.024 C 
HETATM    3  C4  UNL     1     -34.165  15.329  -6.219  1.00 20.00     0.021 C 
HETATM    4  C5  UNL     1     -34.538  16.640  -6.964  1.00 20.00     0.017 C 
HETATM    5  C6  UNL     1     -36.129  16.500  -5.408  1.00 20.00     0.027 C 
HETATM    6  C7  UNL     1     -35.254  15.251  -5.105  1.00 20.00     0.056 C 
HETATM    7  C8  UNL     1     -35.069  17.558  -5.828  1.00 20.00    -0.033 C 
HETATM    8  C9  UNL     1     -35.662  18.902  -6.312  1.00 20.00     0.016 C 
HETATM    9  C10 UNL     1     -34.031  17.913  -4.747  1.00 20.00     0.016 C 
ENDROOT
BRANCH   6  10
HETATM   10  C3  UNL     1     -36.020  13.962  -5.126  1.00 20.00     0.236 C 
HETATM   11  O11 UNL     1     -35.830  13.050  -4.329  1.00 20.00    -0.306 OA
ENDBRANCH   6  10
TORSDOF 1
ENDMDL
