MODEL 1
REMARK VINA RESULT:      -4.9      0.000      0.000
REMARK  1 active torsions:
REMARK  status: ('A' for Active; 'I' for Inactive)
REMARK    1  A    between atoms: C6_6  and  N12_12 
ROOT
HETATM    1  C1  UNL     1     -32.923   8.685   5.767  1.00 20.00     0.026 A 
HETATM    2  C2  UNL     1     -32.499   9.139   4.535  1.00 20.00     0.097 A 
HETATM    3  C3  UNL     1     -33.504   7.409   5.567  1.00 20.00    -0.034 A 
HETATM    4  C4  UNL     1     -33.410   7.128   4.219  1.00 20.00     0.022 A 
HETATM    5  C7  UNL     1     -34.104   6.458   6.543  1.00 20.00     0.040 C 
HETATM    6  C8  UNL     1     -33.912   5.905   3.538  1.00 20.00     0.058 C 
HETATM    7  C9  UNL     1     -34.934   5.377   5.824  1.00 20.00     0.005 C 
HETATM    8  C10 UNL     1     -34.210   4.814   4.585  1.00 20.00     0.006 C 
HETATM    9  N12 UNL     1     -32.803   8.182   3.598  1.00 20.00    -0.330 N 
ENDROOT
BRANCH   9  10
HETATM   10  C6  UNL     1     -32.519   8.290   2.248  1.00 20.00     0.003 C 
HETATM   11  C5  UNL     1     -31.926   7.327   1.516  1.00 20.00     0.038 C 
HETATM   12  C11 UNL     1     -32.892   9.565   1.520  1.00 20.00     0.068 C 
ENDBRANCH   9  10
TORSDOF 1
ENDMDL
MODEL 2
REMARK VINA RESULT:      -4.7      0.952      2.516
REMARK  1 active torsions:
REMARK  status: ('A' for Active; 'I' for Inactive)
REMARK    1  A    between atoms: C6_6  and  N12_12 
ROOT
HETATM    1  C1  UNL     1     -32.984   5.416   2.701  1.00 20.00     0.026 A 
HETATM    2  C2  UNL     1     -32.509   6.684   2.441  1.00 20.00     0.097 A 
HETATM    3  C3  UNL     1     -33.590   5.448   3.980  1.00 20.00    -0.034 A 
HETATM    4  C4  UNL     1     -33.467   6.738   4.455  1.00 20.00     0.022 A 
HETATM    5  C7  UNL     1     -34.277   4.375   4.750  1.00 20.00     0.040 C 
HETATM    6  C8  UNL     1     -33.936   7.240   5.774  1.00 20.00     0.058 C 
HETATM    7  C9  UNL     1     -34.442   4.773   6.230  1.00 20.00     0.005 C 
HETATM    8  C10 UNL     1     -34.921   6.229   6.392  1.00 20.00     0.006 C 
HETATM    9  N12 UNL     1     -32.807   7.482   3.518  1.00 20.00    -0.330 N 
ENDROOT
BRANCH   9  10
HETATM   10  C6  UNL     1     -32.488   8.826   3.611  1.00 20.00     0.003 C 
HETATM   11  C5  UNL     1     -31.939   9.405   4.697  1.00 20.00     0.038 C 
HETATM   12  C11 UNL     1     -32.764   9.728   2.425  1.00 20.00     0.068 C 
ENDBRANCH   9  10
TORSDOF 1
ENDMDL
MODEL 3
REMARK VINA RESULT:      -4.4     11.458     13.254
REMARK  1 active torsions:
REMARK  status: ('A' for Active; 'I' for Inactive)
REMARK    1  A    between atoms: C6_6  and  N12_12 
ROOT
HETATM    1  C1  UNL     1     -33.505  14.776  -4.135  1.00 20.00     0.026 A 
HETATM    2  C2  UNL     1     -34.043  14.779  -5.405  1.00 20.00     0.097 A 
HETATM    3  C3  UNL     1     -33.668  16.080  -3.607  1.00 20.00    -0.034 A 
HETATM    4  C4  UNL     1     -34.305  16.832  -4.575  1.00 20.00     0.022 A 
HETATM    5  C7  UNL     1     -33.293  16.638  -2.280  1.00 20.00     0.040 C 
HETATM    6  C8  UNL     1     -34.663  18.272  -4.476  1.00 20.00     0.058 C 
HETATM    7  C9  UNL     1     -33.326  18.179  -2.296  1.00 20.00     0.005 C 
HETATM    8  C10 UNL     1     -34.580  18.727  -3.006  1.00 20.00     0.006 C 
HETATM    9  N12 UNL     1     -34.526  16.037  -5.664  1.00 20.00    -0.330 N 
ENDROOT
BRANCH   9  10
HETATM   10  C6  UNL     1     -35.143  16.414  -6.844  1.00 20.00     0.003 C 
HETATM   11  C5  UNL     1     -34.496  16.908  -7.918  1.00 20.00     0.038 C 
HETATM   12  C11 UNL     1     -36.647  16.269  -6.963  1.00 20.00     0.068 C 
ENDBRANCH   9  10
TORSDOF 1
ENDMDL
MODEL 4
REMARK VINA RESULT:      -4.3     11.416     13.010
REMARK  1 active torsions:
REMARK  status: ('A' for Active; 'I' for Inactive)
REMARK    1  A    between atoms: C6_6  and  N12_12 
ROOT
HETATM    1  C1  UNL     1     -35.388  18.579  -4.609  1.00 20.00     0.026 A 
HETATM    2  C2  UNL     1     -34.864  19.102  -3.445  1.00 20.00     0.097 A 
HETATM    3  C3  UNL     1     -34.852  17.278  -4.764  1.00 20.00    -0.034 A 
HETATM    4  C4  UNL     1     -34.020  17.051  -3.686  1.00 20.00     0.022 A 
HETATM    5  C7  UNL     1     -35.084  16.258  -5.823  1.00 20.00     0.040 C 
HETATM    6  C8  UNL     1     -33.217  15.825  -3.435  1.00 20.00     0.058 C 
HETATM    7  C9  UNL     1     -34.009  15.154  -5.774  1.00 20.00     0.005 C 
HETATM    8  C10 UNL     1     -33.724  14.682  -4.335  1.00 20.00     0.006 C 
HETATM    9  N12 UNL     1     -34.029  18.163  -2.891  1.00 20.00    -0.330 N 
ENDROOT
BRANCH   9  10
HETATM   10  C6  UNL     1     -33.328  18.336  -1.710  1.00 20.00     0.003 C 
HETATM   11  C5  UNL     1     -32.141  18.966  -1.615  1.00 20.00     0.038 C 
HETATM   12  C11 UNL     1     -33.914  17.790  -0.424  1.00 20.00     0.068 C 
ENDBRANCH   9  10
TORSDOF 1
ENDMDL
MODEL 5
REMARK VINA RESULT:      -4.1     11.859     13.165
REMARK  1 active torsions:
REMARK  status: ('A' for Active; 'I' for Inactive)
REMARK    1  A    between atoms: C6_6  and  N12_12 
ROOT
HETATM    1  C1  UNL     1     -36.021  18.714  -4.598  1.00 20.00     0.026 A 
HETATM    2  C2  UNL     1     -36.063  17.730  -5.564  1.00 20.00     0.097 A 
HETATM    3  C3  UNL     1     -35.112  18.285  -3.601  1.00 20.00    -0.034 A 
HETATM    4  C4  UNL     1     -34.627  17.054  -3.997  1.00 20.00     0.022 A 
HETATM    5  C7  UNL     1     -34.668  18.954  -2.348  1.00 20.00     0.040 C 
HETATM    6  C8  UNL     1     -33.661  16.207  -3.249  1.00 20.00     0.058 C 
HETATM    7  C9  UNL     1     -33.965  17.957  -1.406  1.00 20.00     0.005 C 
HETATM    8  C10 UNL     1     -32.972  17.047  -2.157  1.00 20.00     0.006 C 
HETATM    9  N12 UNL     1     -35.211  16.722  -5.186  1.00 20.00    -0.330 N 
ENDROOT
BRANCH   9  10
HETATM   10  C6  UNL     1     -34.990  15.567  -5.917  1.00 20.00     0.003 C 
HETATM   11  C5  UNL     1     -34.057  15.444  -6.881  1.00 20.00     0.038 C 
HETATM   12  C11 UNL     1     -35.839  14.346  -5.632  1.00 20.00     0.068 C 
ENDBRANCH   9  10
TORSDOF 1
ENDMDL
MODEL 6
REMARK VINA RESULT:      -4.1     11.581     13.235
REMARK  1 active torsions:
REMARK  status: ('A' for Active; 'I' for Inactive)
REMARK    1  A    between atoms: C6_6  and  N12_12 
ROOT
HETATM    1  C1  UNL     1     -33.664  14.768  -4.816  1.00 20.00     0.026 A 
HETATM    2  C2  UNL     1     -33.060  15.507  -3.821  1.00 20.00     0.097 A 
HETATM    3  C3  UNL     1     -34.743  15.538  -5.314  1.00 20.00    -0.034 A 
HETATM    4  C4  UNL     1     -34.756  16.723  -4.607  1.00 20.00     0.022 A 
HETATM    5  C7  UNL     1     -35.720  15.243  -6.398  1.00 20.00     0.040 C 
HETATM    6  C8  UNL     1     -35.731  17.834  -4.768  1.00 20.00     0.058 C 
HETATM    7  C9  UNL     1     -36.927  16.200  -6.333  1.00 20.00     0.005 C 
HETATM    8  C10 UNL     1     -36.499  17.661  -6.093  1.00 20.00     0.006 C 
HETATM    9  N12 UNL     1     -33.734  16.697  -3.700  1.00 20.00    -0.330 N 
ENDROOT
BRANCH   9  10
HETATM   10  C6  UNL     1     -33.406  17.697  -2.802  1.00 20.00     0.003 C 
HETATM   11  C5  UNL     1     -32.859  18.879  -3.146  1.00 20.00     0.038 C 
HETATM   12  C11 UNL     1     -33.670  17.473  -1.327  1.00 20.00     0.068 C 
ENDBRANCH   9  10
TORSDOF 1
ENDMDL
MODEL 7
REMARK VINA RESULT:      -3.8     13.067     14.205
REMARK  1 active torsions:
REMARK  status: ('A' for Active; 'I' for Inactive)
REMARK    1  A    between atoms: C6_6  and  N12_12 
ROOT
HETATM    1  C1  UNL     1     -24.564  -1.000  12.332  1.00 20.00     0.026 A 
HETATM    2  C2  UNL     1     -23.713  -1.820  11.620  1.00 20.00     0.097 A 
HETATM    3  C3  UNL     1     -25.868  -1.200  11.818  1.00 20.00    -0.034 A 
HETATM    4  C4  UNL     1     -25.767  -2.139  10.811  1.00 20.00     0.022 A 
HETATM    5  C7  UNL     1     -27.167  -0.594  12.219  1.00 20.00     0.040 C 
HETATM    6  C8  UNL     1     -26.880  -2.646   9.966  1.00 20.00     0.058 C 
HETATM    7  C9  UNL     1     -28.244  -0.829  11.143  1.00 20.00     0.005 C 
HETATM    8  C10 UNL     1     -28.230  -2.275  10.609  1.00 20.00     0.006 C 
HETATM    9  N12 UNL     1     -24.457  -2.508  10.694  1.00 20.00    -0.330 N 
ENDROOT
BRANCH   9  10
HETATM   10  C6  UNL     1     -23.939  -3.431   9.802  1.00 20.00     0.003 C 
HETATM   11  C5  UNL     1     -23.756  -4.737  10.078  1.00 20.00     0.038 C 
HETATM   12  C11 UNL     1     -23.545  -2.967   8.414  1.00 20.00     0.068 C 
ENDBRANCH   9  10
TORSDOF 1
ENDMDL
MODEL 8
REMARK VINA RESULT:      -3.8     10.560     11.494
REMARK  1 active torsions:
REMARK  status: ('A' for Active; 'I' for Inactive)
REMARK    1  A    between atoms: C6_6  and  N12_12 
ROOT
HETATM    1  C1  UNL     1     -43.393  12.706   8.495  1.00 20.00     0.026 A 
HETATM    2  C2  UNL     1     -43.041  12.445   7.187  1.00 20.00     0.097 A 
HETATM    3  C3  UNL     1     -42.445  13.623   9.011  1.00 20.00    -0.034 A 
HETATM    4  C4  UNL     1     -41.548  13.892   7.996  1.00 20.00     0.022 A 
HETATM    5  C7  UNL     1     -42.347  14.258  10.354  1.00 20.00     0.040 C 
HETATM    6  C8  UNL     1     -40.362  14.785   8.083  1.00 20.00     0.058 C 
HETATM    7  C9  UNL     1     -40.956  14.885  10.570  1.00 20.00     0.005 C 
HETATM    8  C10 UNL     1     -40.474  15.673   9.337  1.00 20.00     0.006 C 
HETATM    9  N12 UNL     1     -41.914  13.172   6.894  1.00 20.00    -0.330 N 
ENDROOT
BRANCH   9  10
HETATM   10  C6  UNL     1     -41.274  13.167   5.666  1.00 20.00     0.003 C 
HETATM   11  C5  UNL     1     -41.618  13.949   4.625  1.00 20.00     0.038 C 
HETATM   12  C11 UNL     1     -40.105  12.226   5.454  1.00 20.00     0.068 C 
ENDBRANCH   9  10
TORSDOF 1
ENDMDL
MODEL 9
REMARK VINA RESULT:      -3.8     11.618     13.692
REMARK  1 active torsions:
REMARK  status: ('A' for Active; 'I' for Inactive)
REMARK    1  A    between atoms: C6_6  and  N12_12 
ROOT
HETATM    1  C1  UNL     1     -35.916  14.817  -6.064  1.00 20.00     0.026 A 
HETATM    2  C2  UNL     1     -36.632  15.923  -6.471  1.00 20.00     0.097 A 
HETATM    3  C3  UNL     1     -34.943  15.264  -5.138  1.00 20.00    -0.034 A 
HETATM    4  C4  UNL     1     -35.103  16.630  -5.009  1.00 20.00     0.022 A 
HETATM    5  C7  UNL     1     -33.916  14.504  -4.374  1.00 20.00     0.040 C 
HETATM    6  C8  UNL     1     -34.286  17.536  -4.160  1.00 20.00     0.058 C 
HETATM    7  C9  UNL     1     -32.852  15.450  -3.783  1.00 20.00     0.005 C 
HETATM    8  C10 UNL     1     -33.478  16.705  -3.144  1.00 20.00     0.006 C 
HETATM    9  N12 UNL     1     -36.128  17.023  -5.823  1.00 20.00    -0.330 N 
ENDROOT
BRANCH   9  10
HETATM   10  C6  UNL     1     -36.605  18.313  -5.979  1.00 20.00     0.003 C 
HETATM   11  C5  UNL     1     -36.172  19.176  -6.918  1.00 20.00     0.038 C 
HETATM   12  C11 UNL     1     -37.687  18.812  -5.043  1.00 20.00     0.068 C 
ENDBRANCH   9  10
TORSDOF 1
ENDMDL
