MODEL 1
REMARK VINA RESULT:      -3.6      0.000      0.000
REMARK  1 active torsions:
REMARK  status: ('A' for Active; 'I' for Inactive)
REMARK    1  A    between atoms: C7_7  and  N8_8 
ROOT
HETATM    1  C1  UNL     1     -32.856   9.496   1.318  1.00 20.00     0.013 C 
HETATM    2  C2  UNL     1     -32.527   8.656   2.111  1.00 20.00    -0.087 C 
HETATM    3  C7  UNL     1     -32.121   7.631   3.076  1.00 20.00     0.364 C 
ENDROOT
BRANCH   3   4
HETATM    4  N8  UNL     1     -33.260   7.234   3.923  1.00 20.00     0.100 N 
HETATM    5  C3  UNL     1     -33.489   5.791   3.766  1.00 20.00     0.283 C 
HETATM    6  C5  UNL     1     -34.736   5.314   4.506  1.00 20.00     0.104 C 
HETATM    7  S9  UNL     1     -34.593   5.577   6.295  1.00 20.00    -0.166 SA
HETATM    8  C6  UNL     1     -34.146   7.334   6.249  1.00 20.00     0.104 C 
HETATM    9  C4  UNL     1     -32.962   7.590   5.318  1.00 20.00     0.283 C 
ENDBRANCH   3   4
TORSDOF 1
ENDMDL
MODEL 2
REMARK VINA RESULT:      -3.5     12.230     13.222
REMARK  1 active torsions:
REMARK  status: ('A' for Active; 'I' for Inactive)
REMARK    1  A    between atoms: C7_7  and  N8_8 
ROOT
HETATM    1  C1  UNL     1     -33.500  17.272  -1.467  1.00 20.00     0.013 C 
HETATM    2  C2  UNL     1     -33.380  16.626  -2.472  1.00 20.00    -0.087 C 
HETATM    3  C7  UNL     1     -33.227  15.837  -3.697  1.00 20.00     0.364 C 
ENDROOT
BRANCH   3   4
HETATM    4  N8  UNL     1     -34.463  15.880  -4.500  1.00 20.00     0.100 N 
HETATM    5  C3  UNL     1     -34.686  17.260  -4.956  1.00 20.00     0.283 C 
HETATM    6  C5  UNL     1     -36.017  17.424  -5.686  1.00 20.00     0.104 C 
HETATM    7  S9  UNL     1     -36.083  16.414  -7.191  1.00 20.00    -0.166 SA
HETATM    8  C6  UNL     1     -35.615  14.829  -6.443  1.00 20.00     0.104 C 
HETATM    9  C4  UNL     1     -34.328  14.949  -5.630  1.00 20.00     0.283 C 
ENDBRANCH   3   4
TORSDOF 1
ENDMDL
MODEL 3
REMARK VINA RESULT:      -3.4     15.665     16.675
REMARK  1 active torsions:
REMARK  status: ('A' for Active; 'I' for Inactive)
REMARK    1  A    between atoms: C7_7  and  N8_8 
ROOT
HETATM    1  C1  UNL     1     -24.582  15.974  11.945  1.00 20.00     0.013 C 
HETATM    2  C2  UNL     1     -24.494  17.168  11.856  1.00 20.00    -0.087 C 
HETATM    3  C7  UNL     1     -24.390  18.626  11.753  1.00 20.00     0.364 C 
ENDROOT
BRANCH   3   4
HETATM    4  N8  UNL     1     -23.563  19.007  10.593  1.00 20.00     0.100 N 
HETATM    5  C3  UNL     1     -22.264  18.329  10.691  1.00 20.00     0.283 C 
HETATM    6  C5  UNL     1     -21.293  18.770   9.599  1.00 20.00     0.104 C 
HETATM    7  S9  UNL     1     -21.914  18.358   7.946  1.00 20.00    -0.166 SA
HETATM    8  C6  UNL     1     -23.553  19.120   8.104  1.00 20.00     0.104 C 
HETATM    9  C4  UNL     1     -24.277  18.641   9.361  1.00 20.00     0.283 C 
ENDBRANCH   3   4
TORSDOF 1
ENDMDL
MODEL 4
REMARK VINA RESULT:      -3.4      9.907     10.659
REMARK  1 active torsions:
REMARK  status: ('A' for Active; 'I' for Inactive)
REMARK    1  A    between atoms: C7_7  and  N8_8 
ROOT
HETATM    1  C1  UNL     1     -38.933  11.662   4.043  1.00 20.00     0.013 C 
HETATM    2  C2  UNL     1     -39.687  11.924   4.940  1.00 20.00    -0.087 C 
HETATM    3  C7  UNL     1     -40.607  12.238   6.036  1.00 20.00     0.364 C 
ENDROOT
BRANCH   3   4
HETATM    4  N8  UNL     1     -40.758  13.697   6.185  1.00 20.00     0.100 N 
HETATM    5  C3  UNL     1     -42.124  14.077   5.801  1.00 20.00     0.283 C 
HETATM    6  C5  UNL     1     -42.330  15.590   5.799  1.00 20.00     0.104 C 
HETATM    7  S9  UNL     1     -42.092  16.298   7.451  1.00 20.00    -0.166 SA
HETATM    8  C6  UNL     1     -40.464  15.576   7.795  1.00 20.00     0.104 C 
HETATM    9  C4  UNL     1     -40.462  14.064   7.578  1.00 20.00     0.283 C 
ENDBRANCH   3   4
TORSDOF 1
ENDMDL
MODEL 5
REMARK VINA RESULT:      -3.3     12.348     13.542
REMARK  1 active torsions:
REMARK  status: ('A' for Active; 'I' for Inactive)
REMARK    1  A    between atoms: C7_7  and  N8_8 
ROOT
HETATM    1  C1  UNL     1     -33.337  17.052  -2.021  1.00 20.00     0.013 C 
HETATM    2  C2  UNL     1     -33.497  16.276  -2.923  1.00 20.00    -0.087 C 
HETATM    3  C7  UNL     1     -33.692  15.324  -4.020  1.00 20.00     0.364 C 
ENDROOT
BRANCH   3   4
HETATM    4  N8  UNL     1     -34.092  16.027  -5.253  1.00 20.00     0.100 N 
HETATM    5  C3  UNL     1     -34.026  15.086  -6.380  1.00 20.00     0.283 C 
HETATM    6  C5  UNL     1     -34.298  15.764  -7.721  1.00 20.00     0.104 C 
HETATM    7  S9  UNL     1     -35.968  16.466  -7.789  1.00 20.00    -0.166 SA
HETATM    8  C6  UNL     1     -35.893  17.428  -6.254  1.00 20.00     0.104 C 
HETATM    9  C4  UNL     1     -35.447  16.568  -5.072  1.00 20.00     0.283 C 
ENDBRANCH   3   4
TORSDOF 1
ENDMDL
MODEL 6
REMARK VINA RESULT:      -3.2     12.101     13.082
REMARK  1 active torsions:
REMARK  status: ('A' for Active; 'I' for Inactive)
REMARK    1  A    between atoms: C7_7  and  N8_8 
ROOT
HETATM    1  C1  UNL     1     -30.968  18.435   0.140  1.00 20.00     0.013 C 
HETATM    2  C2  UNL     1     -31.914  18.726  -0.539  1.00 20.00    -0.087 C 
HETATM    3  C7  UNL     1     -33.070  19.085  -1.364  1.00 20.00     0.364 C 
ENDROOT
BRANCH   3   4
HETATM    4  N8  UNL     1     -33.083  18.298  -2.612  1.00 20.00     0.100 N 
HETATM    5  C3  UNL     1     -33.378  16.896  -2.287  1.00 20.00     0.283 C 
HETATM    6  C5  UNL     1     -33.281  15.983  -3.507  1.00 20.00     0.104 C 
HETATM    7  S9  UNL     1     -34.490  16.436  -4.780  1.00 20.00    -0.166 SA
HETATM    8  C6  UNL     1     -34.076  18.198  -4.895  1.00 20.00     0.104 C 
HETATM    9  C4  UNL     1     -34.086  18.870  -3.522  1.00 20.00     0.283 C 
ENDBRANCH   3   4
TORSDOF 1
ENDMDL
MODEL 7
REMARK VINA RESULT:      -3.1      9.865     10.759
REMARK  1 active torsions:
REMARK  status: ('A' for Active; 'I' for Inactive)
REMARK    1  A    between atoms: C7_7  and  N8_8 
ROOT
HETATM    1  C1  UNL     1     -39.120  11.763   4.731  1.00 20.00     0.013 C 
HETATM    2  C2  UNL     1     -40.042  12.448   5.077  1.00 20.00    -0.087 C 
HETATM    3  C7  UNL     1     -41.169  13.287   5.494  1.00 20.00     0.364 C 
ENDROOT
BRANCH   3   4
HETATM    4  N8  UNL     1     -41.289  13.302   6.964  1.00 20.00     0.100 N 
HETATM    5  C3  UNL     1     -40.460  14.392   7.498  1.00 20.00     0.283 C 
HETATM    6  C5  UNL     1     -40.419  14.399   9.024  1.00 20.00     0.104 C 
HETATM    7  S9  UNL     1     -42.065  14.669   9.735  1.00 20.00    -0.166 SA
HETATM    8  C6  UNL     1     -42.941  13.364   8.829  1.00 20.00     0.104 C 
HETATM    9  C4  UNL     1     -42.705  13.470   7.323  1.00 20.00     0.283 C 
ENDBRANCH   3   4
TORSDOF 1
ENDMDL
MODEL 8
REMARK VINA RESULT:      -3.0     15.118     15.835
REMARK  1 active torsions:
REMARK  status: ('A' for Active; 'I' for Inactive)
REMARK    1  A    between atoms: C7_7  and  N8_8 
ROOT
HETATM    1  C1  UNL     1     -26.836  19.263   7.102  1.00 20.00     0.013 C 
HETATM    2  C2  UNL     1     -25.674  19.261   7.406  1.00 20.00    -0.087 C 
HETATM    3  C7  UNL     1     -24.255  19.261   7.772  1.00 20.00     0.364 C 
ENDROOT
BRANCH   3   4
HETATM    4  N8  UNL     1     -24.048  18.557   9.051  1.00 20.00     0.100 N 
HETATM    5  C3  UNL     1     -22.665  18.774   9.495  1.00 20.00     0.283 C 
HETATM    6  C5  UNL     1     -22.322  17.970  10.747  1.00 20.00     0.104 C 
HETATM    7  S9  UNL     1     -23.351  18.459  12.157  1.00 20.00    -0.166 SA
HETATM    8  C6  UNL     1     -24.967  18.291  11.351  1.00 20.00     0.104 C 
HETATM    9  C4  UNL     1     -25.021  19.060  10.032  1.00 20.00     0.283 C 
ENDBRANCH   3   4
TORSDOF 1
ENDMDL
MODEL 9
REMARK VINA RESULT:      -3.0     10.157     11.128
REMARK  1 active torsions:
REMARK  status: ('A' for Active; 'I' for Inactive)
REMARK    1  A    between atoms: C7_7  and  N8_8 
ROOT
HETATM    1  C1  UNL     1     -39.053  12.116   5.451  1.00 20.00     0.013 C 
HETATM    2  C2  UNL     1     -40.147  12.253   5.926  1.00 20.00    -0.087 C 
HETATM    3  C7  UNL     1     -41.484  12.416   6.504  1.00 20.00     0.364 C 
ENDROOT
BRANCH   3   4
HETATM    4  N8  UNL     1     -41.631  13.755   7.103  1.00 20.00     0.100 N 
HETATM    5  C3  UNL     1     -40.445  14.044   7.921  1.00 20.00     0.283 C 
HETATM    6  C5  UNL     1     -40.572  15.359   8.687  1.00 20.00     0.104 C 
HETATM    7  S9  UNL     1     -40.726  16.774   7.565  1.00 20.00    -0.166 SA
HETATM    8  C6  UNL     1     -42.097  16.142   6.559  1.00 20.00     0.104 C 
HETATM    9  C4  UNL     1     -41.803  14.741   6.026  1.00 20.00     0.283 C 
ENDBRANCH   3   4
TORSDOF 1
ENDMDL
