MODEL 1
REMARK VINA RESULT:      -3.5      0.000      0.000
REMARK  2 active torsions:
REMARK  status: ('A' for Active; 'I' for Inactive)
REMARK    1  A    between atoms: C5_5  and  C6_6 
REMARK    2  A    between atoms: C6_6  and  N7_7 
ROOT
HETATM    1  C1  UNL     1     -34.717   4.985   6.338  1.00 20.00     0.012 C 
HETATM    2  C2  UNL     1     -34.286   6.089   6.146  1.00 20.00    -0.116 C 
HETATM    3  C5  UNL     1     -33.759   7.443   5.914  1.00 20.00     0.123 C 
ENDROOT
BRANCH   3   4
HETATM    4  C6  UNL     1     -34.066   7.944   4.507  1.00 20.00     0.283 C 
BRANCH   4   5
HETATM    5  N7  UNL     1     -32.858   8.452   3.859  1.00 20.00     0.080 N 
HETATM    6  C3  UNL     1     -32.144   7.368   3.186  1.00 20.00     0.309 C 
HETATM    7  C4  UNL     1     -31.989   9.106   4.837  1.00 20.00     0.309 C 
ENDBRANCH   4   5
ENDBRANCH   3   4
TORSDOF 2
ENDMDL
MODEL 2
REMARK VINA RESULT:      -3.5      1.547      3.535
REMARK  2 active torsions:
REMARK  status: ('A' for Active; 'I' for Inactive)
REMARK    1  A    between atoms: C5_5  and  C6_6 
REMARK    2  A    between atoms: C6_6  and  N7_7 
ROOT
HETATM    1  C1  UNL     1     -32.187   7.525   2.666  1.00 20.00     0.012 C 
HETATM    2  C2  UNL     1     -32.465   7.798   3.801  1.00 20.00    -0.116 C 
HETATM    3  C5  UNL     1     -32.803   8.134   5.193  1.00 20.00     0.123 C 
ENDROOT
BRANCH   3   4
HETATM    4  C6  UNL     1     -34.151   7.557   5.610  1.00 20.00     0.283 C 
BRANCH   4   5
HETATM    5  N7  UNL     1     -34.231   6.133   5.289  1.00 20.00     0.080 N 
HETATM    6  C3  UNL     1     -35.411   5.858   4.470  1.00 20.00     0.309 C 
HETATM    7  C4  UNL     1     -34.260   5.333   6.512  1.00 20.00     0.309 C 
ENDBRANCH   4   5
ENDBRANCH   3   4
TORSDOF 2
ENDMDL
MODEL 3
REMARK VINA RESULT:      -3.5      1.123      1.663
REMARK  2 active torsions:
REMARK  status: ('A' for Active; 'I' for Inactive)
REMARK    1  A    between atoms: C5_5  and  C6_6 
REMARK    2  A    between atoms: C6_6  and  N7_7 
ROOT
HETATM    1  C1  UNL     1     -34.770   5.502   6.368  1.00 20.00     0.012 C 
HETATM    2  C2  UNL     1     -34.104   6.441   6.026  1.00 20.00    -0.116 C 
HETATM    3  C5  UNL     1     -33.287   7.592   5.611  1.00 20.00     0.123 C 
ENDROOT
BRANCH   3   4
HETATM    4  C6  UNL     1     -33.454   7.906   4.128  1.00 20.00     0.283 C 
BRANCH   4   5
HETATM    5  N7  UNL     1     -32.421   7.241   3.335  1.00 20.00     0.080 N 
HETATM    6  C3  UNL     1     -32.085   8.041   2.158  1.00 20.00     0.309 C 
HETATM    7  C4  UNL     1     -32.864   5.906   2.935  1.00 20.00     0.309 C 
ENDBRANCH   4   5
ENDBRANCH   3   4
TORSDOF 2
ENDMDL
MODEL 4
REMARK VINA RESULT:      -3.4      1.932      3.755
REMARK  2 active torsions:
REMARK  status: ('A' for Active; 'I' for Inactive)
REMARK    1  A    between atoms: C5_5  and  C6_6 
REMARK    2  A    between atoms: C6_6  and  N7_7 
ROOT
HETATM    1  C1  UNL     1     -32.152   8.792   4.453  1.00 20.00     0.012 C 
HETATM    2  C2  UNL     1     -32.985   8.162   5.045  1.00 20.00    -0.116 C 
HETATM    3  C5  UNL     1     -34.004   7.391   5.774  1.00 20.00     0.123 C 
ENDROOT
BRANCH   3   4
HETATM    4  C6  UNL     1     -34.905   6.599   4.831  1.00 20.00     0.283 C 
BRANCH   4   5
HETATM    5  N7  UNL     1     -34.855   5.171   5.140  1.00 20.00     0.080 N 
HETATM    6  C3  UNL     1     -34.399   4.961   6.514  1.00 20.00     0.309 C 
HETATM    7  C4  UNL     1     -33.982   4.473   4.199  1.00 20.00     0.309 C 
ENDBRANCH   4   5
ENDBRANCH   3   4
TORSDOF 2
ENDMDL
MODEL 5
REMARK VINA RESULT:      -3.3     11.996     12.651
REMARK  2 active torsions:
REMARK  status: ('A' for Active; 'I' for Inactive)
REMARK    1  A    between atoms: C5_5  and  C6_6 
REMARK    2  A    between atoms: C6_6  and  N7_7 
ROOT
HETATM    1  C1  UNL     1     -33.648  17.175  -1.656  1.00 20.00     0.012 C 
HETATM    2  C2  UNL     1     -33.343  16.517  -2.613  1.00 20.00    -0.116 C 
HETATM    3  C5  UNL     1     -32.968  15.712  -3.786  1.00 20.00     0.123 C 
ENDROOT
BRANCH   3   4
HETATM    4  C6  UNL     1     -34.032  14.675  -4.133  1.00 20.00     0.283 C 
BRANCH   4   5
HETATM    5  N7  UNL     1     -34.897  15.157  -5.208  1.00 20.00     0.080 N 
HETATM    6  C3  UNL     1     -36.079  14.304  -5.335  1.00 20.00     0.309 C 
HETATM    7  C4  UNL     1     -34.165  15.206  -6.472  1.00 20.00     0.309 C 
ENDBRANCH   4   5
ENDBRANCH   3   4
TORSDOF 2
ENDMDL
MODEL 6
REMARK VINA RESULT:      -3.1      8.454      9.469
REMARK  2 active torsions:
REMARK  status: ('A' for Active; 'I' for Inactive)
REMARK    1  A    between atoms: C5_5  and  C6_6 
REMARK    2  A    between atoms: C6_6  and  N7_7 
ROOT
HETATM    1  C1  UNL     1     -38.963  11.664   3.690  1.00 20.00     0.012 C 
HETATM    2  C2  UNL     1     -39.124  11.834   4.867  1.00 20.00    -0.116 C 
HETATM    3  C5  UNL     1     -39.320  12.039   6.311  1.00 20.00     0.123 C 
ENDROOT
BRANCH   3   4
HETATM    4  C6  UNL     1     -40.263  13.202   6.600  1.00 20.00     0.283 C 
BRANCH   4   5
HETATM    5  N7  UNL     1     -41.560  12.993   5.958  1.00 20.00     0.080 N 
HETATM    6  C3  UNL     1     -42.016  14.225   5.315  1.00 20.00     0.309 C 
HETATM    7  C4  UNL     1     -42.546  12.530   6.933  1.00 20.00     0.309 C 
ENDBRANCH   4   5
ENDBRANCH   3   4
TORSDOF 2
ENDMDL
MODEL 7
REMARK VINA RESULT:      -3.1      1.709      3.303
REMARK  2 active torsions:
REMARK  status: ('A' for Active; 'I' for Inactive)
REMARK    1  A    between atoms: C5_5  and  C6_6 
REMARK    2  A    between atoms: C6_6  and  N7_7 
ROOT
HETATM    1  C1  UNL     1     -32.825   5.038   2.248  1.00 20.00     0.012 C 
HETATM    2  C2  UNL     1     -32.682   6.079   2.829  1.00 20.00    -0.116 C 
HETATM    3  C5  UNL     1     -32.504   7.355   3.539  1.00 20.00     0.123 C 
ENDROOT
BRANCH   3   4
HETATM    4  C6  UNL     1     -33.685   7.672   4.451  1.00 20.00     0.283 C 
BRANCH   4   5
HETATM    5  N7  UNL     1     -34.074   6.496   5.228  1.00 20.00     0.080 N 
HETATM    6  C3  UNL     1     -35.342   5.957   4.738  1.00 20.00     0.309 C 
HETATM    7  C4  UNL     1     -34.175   6.830   6.647  1.00 20.00     0.309 C 
ENDBRANCH   4   5
ENDBRANCH   3   4
TORSDOF 2
ENDMDL
MODEL 8
REMARK VINA RESULT:      -3.1      1.620      4.092
REMARK  2 active torsions:
REMARK  status: ('A' for Active; 'I' for Inactive)
REMARK    1  A    between atoms: C5_5  and  C6_6 
REMARK    2  A    between atoms: C6_6  and  N7_7 
ROOT
HETATM    1  C1  UNL     1     -32.253   8.532   0.930  1.00 20.00     0.012 C 
HETATM    2  C2  UNL     1     -32.274   7.927   1.967  1.00 20.00    -0.116 C 
HETATM    3  C5  UNL     1     -32.299   7.183   3.236  1.00 20.00     0.123 C 
ENDROOT
BRANCH   3   4
HETATM    4  C6  UNL     1     -33.101   7.911   4.310  1.00 20.00     0.283 C 
BRANCH   4   5
HETATM    5  N7  UNL     1     -34.122   7.034   4.883  1.00 20.00     0.080 N 
HETATM    6  C3  UNL     1     -33.904   6.867   6.319  1.00 20.00     0.309 C 
HETATM    7  C4  UNL     1     -34.117   5.737   4.210  1.00 20.00     0.309 C 
ENDBRANCH   4   5
ENDBRANCH   3   4
TORSDOF 2
ENDMDL
MODEL 9
REMARK VINA RESULT:      -3.1      2.033      4.034
REMARK  2 active torsions:
REMARK  status: ('A' for Active; 'I' for Inactive)
REMARK    1  A    between atoms: C5_5  and  C6_6 
REMARK    2  A    between atoms: C6_6  and  N7_7 
ROOT
HETATM    1  C1  UNL     1     -32.208   7.862   3.474  1.00 20.00     0.012 C 
HETATM    2  C2  UNL     1     -32.562   6.751   3.189  1.00 20.00    -0.116 C 
HETATM    3  C5  UNL     1     -32.994   5.390   2.836  1.00 20.00     0.123 C 
ENDROOT
BRANCH   3   4
HETATM    4  C6  UNL     1     -33.798   4.737   3.955  1.00 20.00     0.283 C 
BRANCH   4   5
HETATM    5  N7  UNL     1     -34.460   5.747   4.779  1.00 20.00     0.080 N 
HETATM    6  C3  UNL     1     -34.459   5.341   6.185  1.00 20.00     0.309 C 
HETATM    7  C4  UNL     1     -35.827   5.972   4.314  1.00 20.00     0.309 C 
ENDBRANCH   4   5
ENDBRANCH   3   4
TORSDOF 2
ENDMDL
