MODEL 1
REMARK VINA RESULT:      -4.8      0.000      0.000
REMARK  0 active torsions:
REMARK  status: ('A' for Active; 'I' for Inactive)
ROOT
HETATM    1  C1  UNL     1     -32.902   7.425   4.156  1.00 20.00     0.131 C 
HETATM    2  C2  UNL     1     -33.582   4.805   4.097  1.00 20.00     0.059 C 
HETATM    3  C3  UNL     1     -33.115   5.446   2.806  1.00 20.00     0.179 C 
HETATM    4  C4  UNL     1     -34.450   5.785   4.891  1.00 20.00     0.051 C 
HETATM    5  C5  UNL     1     -32.172   8.725   4.249  1.00 20.00     0.099 C 
HETATM    6  C6  UNL     1     -35.803   6.049   4.214  1.00 20.00     0.040 C 
HETATM    7  C7  UNL     1     -34.696   5.226   6.298  1.00 20.00     0.040 C 
HETATM    8  N8  UNL     1     -33.758   7.069   5.048  1.00 20.00    -0.261 NA
HETATM    9  O9  UNL     1     -32.522   6.730   3.052  1.00 20.00    -0.338 OA
ENDROOT
TORSDOF 0
ENDMDL
MODEL 2
REMARK VINA RESULT:      -4.1     15.870     16.891
REMARK  0 active torsions:
REMARK  status: ('A' for Active; 'I' for Inactive)
ROOT
HETATM    1  C1  UNL     1     -23.581  18.729   9.631  1.00 20.00     0.131 C 
HETATM    2  C2  UNL     1     -23.440  18.591  12.331  1.00 20.00     0.059 C 
HETATM    3  C3  UNL     1     -22.154  18.441  11.544  1.00 20.00     0.179 C 
HETATM    4  C4  UNL     1     -24.589  17.885  11.605  1.00 20.00     0.051 C 
HETATM    5  C5  UNL     1     -23.580  19.181   8.207  1.00 20.00     0.099 C 
HETATM    6  C6  UNL     1     -24.439  16.357  11.618  1.00 20.00     0.040 C 
HETATM    7  C7  UNL     1     -25.920  18.263  12.268  1.00 20.00     0.040 C 
HETATM    8  N8  UNL     1     -24.658  18.327  10.208  1.00 20.00    -0.261 NA
HETATM    9  O9  UNL     1     -22.339  18.824  10.174  1.00 20.00    -0.338 OA
ENDROOT
TORSDOF 0
ENDMDL
MODEL 3
REMARK VINA RESULT:      -3.6     12.519     13.469
REMARK  0 active torsions:
REMARK  status: ('A' for Active; 'I' for Inactive)
ROOT
HETATM    1  C1  UNL     1     -33.295  16.825  -3.072  1.00 20.00     0.131 C 
HETATM    2  C2  UNL     1     -33.760  19.263  -1.991  1.00 20.00     0.059 C 
HETATM    3  C3  UNL     1     -33.180  19.206  -3.389  1.00 20.00     0.179 C 
HETATM    4  C4  UNL     1     -33.148  18.162  -1.119  1.00 20.00     0.051 C 
HETATM    5  C5  UNL     1     -33.395  15.532  -3.814  1.00 20.00     0.099 C 
HETATM    6  C6  UNL     1     -31.667  18.417  -0.808  1.00 20.00     0.040 C 
HETATM    7  C7  UNL     1     -33.926  18.065   0.200  1.00 20.00     0.040 C 
HETATM    8  N8  UNL     1     -33.260  16.861  -1.787  1.00 20.00    -0.261 NA
HETATM    9  O9  UNL     1     -33.264  17.878  -3.929  1.00 20.00    -0.338 OA
ENDROOT
TORSDOF 0
ENDMDL
MODEL 4
REMARK VINA RESULT:      -3.6     16.021     16.657
REMARK  0 active torsions:
REMARK  status: ('A' for Active; 'I' for Inactive)
ROOT
HETATM    1  C1  UNL     1     -22.763  17.974   9.128  1.00 20.00     0.131 C 
HETATM    2  C2  UNL     1     -25.049  18.106  10.571  1.00 20.00     0.059 C 
HETATM    3  C3  UNL     1     -24.724  19.263   9.648  1.00 20.00     0.179 C 
HETATM    4  C4  UNL     1     -23.772  17.587  11.238  1.00 20.00     0.051 C 
HETATM    5  C5  UNL     1     -21.738  17.748   8.063  1.00 20.00     0.099 C 
HETATM    6  C6  UNL     1     -23.193  18.586  12.250  1.00 20.00     0.040 C 
HETATM    7  C7  UNL     1     -24.073  16.265  11.957  1.00 20.00     0.040 C 
HETATM    8  N8  UNL     1     -22.745  17.309  10.229  1.00 20.00    -0.261 NA
HETATM    9  O9  UNL     1     -23.657  18.923   8.750  1.00 20.00    -0.338 OA
ENDROOT
TORSDOF 0
ENDMDL
MODEL 5
REMARK VINA RESULT:      -3.5     12.790     13.603
REMARK  0 active torsions:
REMARK  status: ('A' for Active; 'I' for Inactive)
ROOT
HETATM    1  C1  UNL     1     -31.821  18.753   0.181  1.00 20.00     0.131 C 
HETATM    2  C2  UNL     1     -34.181  19.090  -1.102  1.00 20.00     0.059 C 
HETATM    3  C3  UNL     1     -34.213  18.542   0.310  1.00 20.00     0.179 C 
HETATM    4  C4  UNL     1     -32.989  18.509  -1.868  1.00 20.00     0.051 C 
HETATM    5  C5  UNL     1     -30.598  18.924   1.023  1.00 20.00     0.099 C 
HETATM    6  C6  UNL     1     -33.156  17.012  -2.163  1.00 20.00     0.040 C 
HETATM    7  C7  UNL     1     -32.817  19.263  -3.194  1.00 20.00     0.040 C 
HETATM    8  N8  UNL     1     -31.751  18.690  -1.101  1.00 20.00    -0.261 NA
HETATM    9  O9  UNL     1     -32.938  18.694   0.952  1.00 20.00    -0.338 OA
ENDROOT
TORSDOF 0
ENDMDL
MODEL 6
REMARK VINA RESULT:      -3.4      1.534      3.055
REMARK  0 active torsions:
REMARK  status: ('A' for Active; 'I' for Inactive)
ROOT
HETATM    1  C1  UNL     1     -33.401   5.723   3.632  1.00 20.00     0.131 C 
HETATM    2  C2  UNL     1     -33.725   6.885   6.056  1.00 20.00     0.059 C 
HETATM    3  C3  UNL     1     -34.701   5.798   5.653  1.00 20.00     0.179 C 
HETATM    4  C4  UNL     1     -33.379   7.759   4.847  1.00 20.00     0.051 C 
HETATM    5  C5  UNL     1     -33.015   4.825   2.502  1.00 20.00     0.099 C 
HETATM    6  C6  UNL     1     -34.566   8.618   4.387  1.00 20.00     0.040 C 
HETATM    7  C7  UNL     1     -32.204   8.680   5.202  1.00 20.00     0.040 C 
HETATM    8  N8  UNL     1     -32.952   6.925   3.719  1.00 20.00    -0.261 NA
HETATM    9  O9  UNL     1     -34.235   5.088   4.496  1.00 20.00    -0.338 OA
ENDROOT
TORSDOF 0
ENDMDL
MODEL 7
REMARK VINA RESULT:      -3.4      9.949     10.964
REMARK  0 active torsions:
REMARK  status: ('A' for Active; 'I' for Inactive)
ROOT
HETATM    1  C1  UNL     1     -40.770  12.635   5.598  1.00 20.00     0.131 C 
HETATM    2  C2  UNL     1     -43.258  13.638   5.957  1.00 20.00     0.059 C 
HETATM    3  C3  UNL     1     -42.305  14.406   5.065  1.00 20.00     0.179 C 
HETATM    4  C4  UNL     1     -42.506  13.055   7.157  1.00 20.00     0.051 C 
HETATM    5  C5  UNL     1     -39.562  11.917   5.088  1.00 20.00     0.099 C 
HETATM    6  C6  UNL     1     -42.035  14.141   8.135  1.00 20.00     0.040 C 
HETATM    7  C7  UNL     1     -43.417  12.072   7.903  1.00 20.00     0.040 C 
HETATM    8  N8  UNL     1     -41.330  12.303   6.707  1.00 20.00    -0.261 NA
HETATM    9  O9  UNL     1     -41.151  13.617   4.741  1.00 20.00    -0.338 OA
ENDROOT
TORSDOF 0
ENDMDL
MODEL 8
REMARK VINA RESULT:      -3.4     10.108     11.026
REMARK  0 active torsions:
REMARK  status: ('A' for Active; 'I' for Inactive)
ROOT
HETATM    1  C1  UNL     1     -40.261  12.882   6.224  1.00 20.00     0.131 C 
HETATM    2  C2  UNL     1     -42.436  14.382   6.815  1.00 20.00     0.059 C 
HETATM    3  C3  UNL     1     -41.972  14.343   5.373  1.00 20.00     0.179 C 
HETATM    4  C4  UNL     1     -41.230  14.409   7.758  1.00 20.00     0.051 C 
HETATM    5  C5  UNL     1     -39.331  11.784   5.823  1.00 20.00     0.099 C 
HETATM    6  C6  UNL     1     -40.459  15.734   7.685  1.00 20.00     0.040 C 
HETATM    7  C7  UNL     1     -41.705  14.186   9.200  1.00 20.00     0.040 C 
HETATM    8  N8  UNL     1     -40.303  13.320   7.433  1.00 20.00    -0.261 NA
HETATM    9  O9  UNL     1     -41.010  13.297   5.169  1.00 20.00    -0.338 OA
ENDROOT
TORSDOF 0
ENDMDL
MODEL 9
REMARK VINA RESULT:      -3.4     10.213     11.205
REMARK  0 active torsions:
REMARK  status: ('A' for Active; 'I' for Inactive)
ROOT
HETATM    1  C1  UNL     1     -40.644  12.653   6.323  1.00 20.00     0.131 C 
HETATM    2  C2  UNL     1     -42.156  13.865   8.213  1.00 20.00     0.059 C 
HETATM    3  C3  UNL     1     -42.788  12.749   7.408  1.00 20.00     0.179 C 
HETATM    4  C4  UNL     1     -41.253  14.718   7.317  1.00 20.00     0.051 C 
HETATM    5  C5  UNL     1     -39.734  11.737   5.571  1.00 20.00     0.099 C 
HETATM    6  C6  UNL     1     -42.050  15.539   6.294  1.00 20.00     0.040 C 
HETATM    7  C7  UNL     1     -40.424  15.673   8.188  1.00 20.00     0.040 C 
HETATM    8  N8  UNL     1     -40.309  13.867   6.586  1.00 20.00    -0.261 NA
HETATM    9  O9  UNL     1     -41.796  12.022   6.667  1.00 20.00    -0.338 OA
ENDROOT
TORSDOF 0
ENDMDL
