MODEL 1
REMARK VINA RESULT:      -5.6      0.000      0.000
REMARK  0 active torsions:
REMARK  status: ('A' for Active; 'I' for Inactive)
ROOT
HETATM    1  C1  UNL     1     -32.855   8.521   4.855  1.00 20.00     0.011 A 
HETATM    2  C2  UNL     1     -32.323   8.722   3.582  1.00 20.00     0.024 A 
HETATM    3  C3  UNL     1     -33.098   6.534   2.909  1.00 20.00     0.031 A 
HETATM    4  C4  UNL     1     -33.518   7.327   5.164  1.00 20.00    -0.028 A 
HETATM    5  C5  UNL     1     -33.625   6.320   4.189  1.00 20.00    -0.046 A 
HETATM    6  C6  UNL     1     -32.447   7.731   2.610  1.00 20.00     0.034 A 
HETATM    7  C7  UNL     1     -34.360   5.045   4.507  1.00 20.00     0.065 C 
HETATM    8  C8  UNL     1     -34.064   7.102   6.550  1.00 20.00     0.206 C 
HETATM    9  C9  UNL     1     -34.462   4.834   6.013  1.00 20.00     0.172 C 
HETATM   10  O10 UNL     1     -34.993   6.013   6.617  1.00 20.00    -0.386 OA
HETATM   11 CL11 UNL     1     -31.797   7.984   1.037  1.00 20.00    -0.084 Cl
ENDROOT
TORSDOF 0
ENDMDL
MODEL 2
REMARK VINA RESULT:      -4.7      0.903      2.202
REMARK  0 active torsions:
REMARK  status: ('A' for Active; 'I' for Inactive)
ROOT
HETATM    1  C1  UNL     1     -33.391   5.154   2.914  1.00 20.00     0.011 A 
HETATM    2  C2  UNL     1     -32.793   5.979   1.963  1.00 20.00     0.024 A 
HETATM    3  C3  UNL     1     -32.741   7.791   3.560  1.00 20.00     0.031 A 
HETATM    4  C4  UNL     1     -33.663   5.640   4.199  1.00 20.00    -0.028 A 
HETATM    5  C5  UNL     1     -33.352   6.972   4.519  1.00 20.00    -0.046 A 
HETATM    6  C6  UNL     1     -32.466   7.295   2.286  1.00 20.00     0.034 A 
HETATM    7  C7  UNL     1     -33.618   7.491   5.906  1.00 20.00     0.065 C 
HETATM    8  C8  UNL     1     -34.337   4.754   5.215  1.00 20.00     0.206 C 
HETATM    9  C9  UNL     1     -34.645   6.625   6.627  1.00 20.00     0.172 C 
HETATM   10  O10 UNL     1     -34.239   5.258   6.552  1.00 20.00    -0.386 OA
HETATM   11 CL11 UNL     1     -31.721   8.309   1.113  1.00 20.00    -0.084 Cl
ENDROOT
TORSDOF 0
ENDMDL
MODEL 3
REMARK VINA RESULT:      -4.3     12.284     13.267
REMARK  0 active torsions:
REMARK  status: ('A' for Active; 'I' for Inactive)
ROOT
HETATM    1  C1  UNL     1     -35.155  18.433  -3.451  1.00 20.00     0.011 A 
HETATM    2  C2  UNL     1     -34.797  18.707  -2.131  1.00 20.00     0.024 A 
HETATM    3  C3  UNL     1     -33.402  16.735  -2.095  1.00 20.00     0.031 A 
HETATM    4  C4  UNL     1     -34.634  17.309  -4.105  1.00 20.00    -0.028 A 
HETATM    5  C5  UNL     1     -33.766  16.445  -3.416  1.00 20.00    -0.046 A 
HETATM    6  C6  UNL     1     -33.919  17.861  -1.456  1.00 20.00     0.034 A 
HETATM    7  C7  UNL     1     -33.182  15.251  -4.123  1.00 20.00     0.065 C 
HETATM    8  C8  UNL     1     -35.048  16.999  -5.520  1.00 20.00     0.206 C 
HETATM    9  C9  UNL     1     -34.011  14.882  -5.348  1.00 20.00     0.172 C 
HETATM   10  O10 UNL     1     -34.193  16.043  -6.158  1.00 20.00    -0.386 OA
HETATM   11 CL11 UNL     1     -33.472  18.207   0.170  1.00 20.00    -0.084 Cl
ENDROOT
TORSDOF 0
ENDMDL
MODEL 4
REMARK VINA RESULT:      -4.3      1.798      2.562
REMARK  0 active torsions:
REMARK  status: ('A' for Active; 'I' for Inactive)
ROOT
HETATM    1  C1  UNL     1     -32.461   6.978   3.009  1.00 20.00     0.011 A 
HETATM    2  C2  UNL     1     -31.987   8.244   3.349  1.00 20.00     0.024 A 
HETATM    3  C3  UNL     1     -33.170   8.126   5.453  1.00 20.00     0.031 A 
HETATM    4  C4  UNL     1     -33.289   6.272   3.892  1.00 20.00    -0.028 A 
HETATM    5  C5  UNL     1     -33.660   6.858   5.114  1.00 20.00    -0.046 A 
HETATM    6  C6  UNL     1     -32.339   8.816   4.571  1.00 20.00     0.034 A 
HETATM    7  C7  UNL     1     -34.527   6.093   6.078  1.00 20.00     0.065 C 
HETATM    8  C8  UNL     1     -33.823   4.917   3.507  1.00 20.00     0.206 C 
HETATM    9  C9  UNL     1     -35.282   4.977   5.367  1.00 20.00     0.172 C 
HETATM   10  O10 UNL     1     -34.356   4.188   4.619  1.00 20.00    -0.386 OA
HETATM   11 CL11 UNL     1     -31.747  10.376   4.991  1.00 20.00    -0.084 Cl
ENDROOT
TORSDOF 0
ENDMDL
MODEL 5
REMARK VINA RESULT:      -4.1     12.387     13.444
REMARK  0 active torsions:
REMARK  status: ('A' for Active; 'I' for Inactive)
ROOT
HETATM    1  C1  UNL     1     -25.210  -1.073  12.211  1.00 20.00     0.011 A 
HETATM    2  C2  UNL     1     -24.067  -1.749  11.787  1.00 20.00     0.024 A 
HETATM    3  C3  UNL     1     -25.377  -2.941  10.143  1.00 20.00     0.031 A 
HETATM    4  C4  UNL     1     -26.446  -1.321  11.600  1.00 20.00    -0.028 A 
HETATM    5  C5  UNL     1     -26.533  -2.274  10.571  1.00 20.00    -0.046 A 
HETATM    6  C6  UNL     1     -24.150  -2.680  10.752  1.00 20.00     0.034 A 
HETATM    7  C7  UNL     1     -27.853  -2.525   9.893  1.00 20.00     0.065 C 
HETATM    8  C8  UNL     1     -27.684  -0.610  12.082  1.00 20.00     0.206 C 
HETATM    9  C9  UNL     1     -29.012  -2.052  10.761  1.00 20.00     0.172 C 
HETATM   10  O10 UNL     1     -28.778  -0.703  11.161  1.00 20.00    -0.386 OA
HETATM   11 CL11 UNL     1     -22.737  -3.508  10.226  1.00 20.00    -0.084 Cl
ENDROOT
TORSDOF 0
ENDMDL
MODEL 6
REMARK VINA RESULT:      -4.1     12.466     13.727
REMARK  0 active torsions:
REMARK  status: ('A' for Active; 'I' for Inactive)
ROOT
HETATM    1  C1  UNL     1     -33.348  15.913  -3.342  1.00 20.00     0.011 A 
HETATM    2  C2  UNL     1     -33.511  16.930  -2.401  1.00 20.00     0.024 A 
HETATM    3  C3  UNL     1     -35.080  18.039  -3.867  1.00 20.00     0.031 A 
HETATM    4  C4  UNL     1     -34.054  15.948  -4.550  1.00 20.00    -0.028 A 
HETATM    5  C5  UNL     1     -34.913  17.028  -4.821  1.00 20.00    -0.046 A 
HETATM    6  C6  UNL     1     -34.378  17.989  -2.662  1.00 20.00     0.034 A 
HETATM    7  C7  UNL     1     -35.695  17.057  -6.107  1.00 20.00     0.065 C 
HETATM    8  C8  UNL     1     -33.852  14.864  -5.576  1.00 20.00     0.206 C 
HETATM    9  C9  UNL     1     -35.065  16.143  -7.151  1.00 20.00     0.172 C 
HETATM   10  O10 UNL     1     -34.870  14.848  -6.584  1.00 20.00    -0.386 OA
HETATM   11 CL11 UNL     1     -34.584  19.239  -1.497  1.00 20.00    -0.084 Cl
ENDROOT
TORSDOF 0
ENDMDL
MODEL 7
REMARK VINA RESULT:      -4.0     12.668     13.167
REMARK  0 active torsions:
REMARK  status: ('A' for Active; 'I' for Inactive)
ROOT
HETATM    1  C1  UNL     1     -31.192  18.319  -0.365  1.00 20.00     0.011 A 
HETATM    2  C2  UNL     1     -30.833  18.514   0.969  1.00 20.00     0.024 A 
HETATM    3  C3  UNL     1     -33.118  19.092   1.503  1.00 20.00     0.031 A 
HETATM    4  C4  UNL     1     -32.519  18.503  -0.774  1.00 20.00    -0.028 A 
HETATM    5  C5  UNL     1     -33.484  18.909   0.163  1.00 20.00    -0.046 A 
HETATM    6  C6  UNL     1     -31.796  18.897   1.901  1.00 20.00     0.034 A 
HETATM    7  C7  UNL     1     -34.917  19.082  -0.265  1.00 20.00     0.065 C 
HETATM    8  C8  UNL     1     -32.896  18.320  -2.221  1.00 20.00     0.206 C 
HETATM    9  C9  UNL     1     -35.018  19.263  -1.775  1.00 20.00     0.172 C 
HETATM   10  O10 UNL     1     -34.310  18.206  -2.422  1.00 20.00    -0.386 OA
HETATM   11 CL11 UNL     1     -31.352  19.130   3.547  1.00 20.00    -0.084 Cl
ENDROOT
TORSDOF 0
ENDMDL
MODEL 8
REMARK VINA RESULT:      -3.8     12.247     13.354
REMARK  0 active torsions:
REMARK  status: ('A' for Active; 'I' for Inactive)
ROOT
HETATM    1  C1  UNL     1     -33.349  15.385  -3.838  1.00 20.00     0.011 A 
HETATM    2  C2  UNL     1     -33.726  15.017  -5.129  1.00 20.00     0.024 A 
HETATM    3  C3  UNL     1     -34.944  17.090  -5.368  1.00 20.00     0.031 A 
HETATM    4  C4  UNL     1     -33.762  16.612  -3.304  1.00 20.00    -0.028 A 
HETATM    5  C5  UNL     1     -34.579  17.462  -4.067  1.00 20.00    -0.046 A 
HETATM    6  C6  UNL     1     -34.521  15.870  -5.893  1.00 20.00     0.034 A 
HETATM    7  C7  UNL     1     -35.003  18.794  -3.508  1.00 20.00     0.065 C 
HETATM    8  C8  UNL     1     -33.377  16.992  -1.897  1.00 20.00     0.206 C 
HETATM    9  C9  UNL     1     -34.881  18.813  -1.989  1.00 20.00     0.172 C 
HETATM   10  O10 UNL     1     -33.571  18.383  -1.619  1.00 20.00    -0.386 OA
HETATM   11 CL11 UNL     1     -34.979  15.417  -7.489  1.00 20.00    -0.084 Cl
ENDROOT
TORSDOF 0
ENDMDL
MODEL 9
REMARK VINA RESULT:      -3.8     12.470     12.650
REMARK  0 active torsions:
REMARK  status: ('A' for Active; 'I' for Inactive)
ROOT
HETATM    1  C1  UNL     1     -33.931  18.972   0.693  1.00 20.00     0.011 A 
HETATM    2  C2  UNL     1     -34.009  18.679  -0.668  1.00 20.00     0.024 A 
HETATM    3  C3  UNL     1     -31.627  18.279  -0.723  1.00 20.00     0.031 A 
HETATM    4  C4  UNL     1     -32.700  18.914   1.358  1.00 20.00    -0.028 A 
HETATM    5  C5  UNL     1     -31.538  18.583   0.641  1.00 20.00    -0.046 A 
HETATM    6  C6  UNL     1     -32.859  18.330  -1.375  1.00 20.00     0.034 A 
HETATM    7  C7  UNL     1     -30.216  18.494   1.357  1.00 20.00     0.065 C 
HETATM    8  C8  UNL     1     -32.615  19.261   2.822  1.00 20.00     0.206 C 
HETATM    9  C9  UNL     1     -30.255  19.259   2.674  1.00 20.00     0.172 C 
HETATM   10  O10 UNL     1     -31.390  18.835   3.429  1.00 20.00    -0.386 OA
HETATM   11 CL11 UNL     1     -32.960  17.962  -3.052  1.00 20.00    -0.084 Cl
ENDROOT
TORSDOF 0
ENDMDL
