MODEL 1
REMARK VINA RESULT:      -3.8      0.000      0.000
REMARK  1 active torsions:
REMARK  status: ('A' for Active; 'I' for Inactive)
REMARK    1  A    between atoms: C4_4  and  C10_10 
ROOT
HETATM    1  C1  UNL     1     -32.878  19.263  -2.507  1.00 20.00     0.092 C 
HETATM    2  C2  UNL     1     -33.188  16.517  -2.816  1.00 20.00     0.029 C 
HETATM    3  C3  UNL     1     -33.674  17.094  -1.495  1.00 20.00     0.016 C 
HETATM    4  C4  UNL     1     -33.485  17.470  -3.971  1.00 20.00     0.110 C 
HETATM    5  C5  UNL     1     -33.030  18.460  -1.229  1.00 20.00    -0.014 C 
HETATM    6  C6  UNL     1     -33.899  19.263  -0.253  1.00 20.00     0.020 C 
HETATM    7  C7  UNL     1     -31.623  18.296  -0.632  1.00 20.00     0.020 C 
HETATM    8  N11 UNL     1     -33.049  18.842  -3.711  1.00 20.00    -0.299 NA
ENDROOT
BRANCH   4   9
HETATM    9  C10 UNL     1     -34.965  17.502  -4.350  1.00 20.00     0.002 C 
HETATM   10  C8  UNL     1     -35.305  18.797  -5.086  1.00 20.00     0.011 C 
HETATM   11  C9  UNL     1     -35.328  16.289  -5.205  1.00 20.00     0.011 C 
ENDBRANCH   4   9
TORSDOF 1
ENDMDL
MODEL 2
REMARK VINA RESULT:      -3.8      1.647      4.567
REMARK  1 active torsions:
REMARK  status: ('A' for Active; 'I' for Inactive)
REMARK    1  A    between atoms: C4_4  and  C10_10 
ROOT
HETATM    1  C1  UNL     1     -33.656  15.175  -4.368  1.00 20.00     0.092 C 
HETATM    2  C2  UNL     1     -34.164  17.842  -4.967  1.00 20.00     0.029 C 
HETATM    3  C3  UNL     1     -35.268  16.860  -5.328  1.00 20.00     0.016 C 
HETATM    4  C4  UNL     1     -33.495  17.452  -3.651  1.00 20.00     0.110 C 
HETATM    5  C5  UNL     1     -34.717  15.432  -5.422  1.00 20.00    -0.014 C 
HETATM    6  C6  UNL     1     -35.853  14.422  -5.224  1.00 20.00     0.020 C 
HETATM    7  C7  UNL     1     -34.060  15.187  -6.790  1.00 20.00     0.020 C 
HETATM    8  N11 UNL     1     -33.096  16.045  -3.604  1.00 20.00    -0.299 NA
ENDROOT
BRANCH   4   9
HETATM    9  C10 UNL     1     -34.368  17.742  -2.431  1.00 20.00     0.002 C 
HETATM   10  C8  UNL     1     -33.625  17.396  -1.142  1.00 20.00     0.011 C 
HETATM   11  C9  UNL     1     -34.807  19.206  -2.419  1.00 20.00     0.011 C 
ENDBRANCH   4   9
TORSDOF 1
ENDMDL
MODEL 3
REMARK VINA RESULT:      -3.3     24.974     26.296
REMARK  1 active torsions:
REMARK  status: ('A' for Active; 'I' for Inactive)
REMARK    1  A    between atoms: C4_4  and  C10_10 
ROOT
HETATM    1  C1  UNL     1     -24.792  -3.949  10.403  1.00 20.00     0.092 C 
HETATM    2  C2  UNL     1     -25.072  -1.967  12.332  1.00 20.00     0.029 C 
HETATM    3  C3  UNL     1     -23.909  -1.793  11.368  1.00 20.00     0.016 C 
HETATM    4  C4  UNL     1     -26.294  -2.536  11.617  1.00 20.00     0.110 C 
HETATM    5  C5  UNL     1     -23.552  -3.126  10.699  1.00 20.00    -0.014 C 
HETATM    6  C6  UNL     1     -22.816  -2.866   9.380  1.00 20.00     0.020 C 
HETATM    7  C7  UNL     1     -22.658  -3.977  11.616  1.00 20.00     0.020 C 
HETATM    8  N11 UNL     1     -25.990  -3.721  10.813  1.00 20.00    -0.299 NA
ENDROOT
BRANCH   4   9
HETATM    9  C10 UNL     1     -26.988  -1.514  10.717  1.00 20.00     0.002 C 
HETATM   10  C8  UNL     1     -28.238  -2.117  10.080  1.00 20.00     0.011 C 
HETATM   11  C9  UNL     1     -27.343  -0.255  11.508  1.00 20.00     0.011 C 
ENDBRANCH   4   9
TORSDOF 1
ENDMDL
MODEL 4
REMARK VINA RESULT:      -3.2     12.910     14.521
REMARK  1 active torsions:
REMARK  status: ('A' for Active; 'I' for Inactive)
REMARK    1  A    between atoms: C4_4  and  C10_10 
ROOT
HETATM    1  C1  UNL     1     -40.436  14.288   6.938  1.00 20.00     0.092 C 
HETATM    2  C2  UNL     1     -43.083  13.891   7.690  1.00 20.00     0.029 C 
HETATM    3  C3  UNL     1     -42.414  12.723   6.983  1.00 20.00     0.016 C 
HETATM    4  C4  UNL     1     -42.105  14.597   8.625  1.00 20.00     0.110 C 
HETATM    5  C5  UNL     1     -41.184  13.195   6.197  1.00 20.00    -0.014 C 
HETATM    6  C6  UNL     1     -40.228  12.018   5.972  1.00 20.00     0.020 C 
HETATM    7  C7  UNL     1     -41.595  13.776   4.835  1.00 20.00     0.020 C 
HETATM    8  N11 UNL     1     -40.831  14.926   7.983  1.00 20.00    -0.299 NA
ENDROOT
BRANCH   4   9
HETATM    9  C10 UNL     1     -41.808  13.796   9.892  1.00 20.00     0.002 C 
HETATM   10  C8  UNL     1     -40.681  14.449  10.690  1.00 20.00     0.011 C 
HETATM   11  C9  UNL     1     -43.065  13.663  10.751  1.00 20.00     0.011 C 
ENDBRANCH   4   9
TORSDOF 1
ENDMDL
MODEL 5
REMARK VINA RESULT:      -3.2     11.676     12.909
REMARK  1 active torsions:
REMARK  status: ('A' for Active; 'I' for Inactive)
REMARK    1  A    between atoms: C4_4  and  C10_10 
ROOT
HETATM    1  C1  UNL     1     -33.824   7.291   4.902  1.00 20.00     0.092 C 
HETATM    2  C2  UNL     1     -32.330   5.997   2.947  1.00 20.00     0.029 C 
HETATM    3  C3  UNL     1     -33.772   5.537   3.091  1.00 20.00     0.016 C 
HETATM    4  C4  UNL     1     -32.216   7.507   3.143  1.00 20.00     0.110 C 
HETATM    5  C5  UNL     1     -34.335   5.932   4.461  1.00 20.00    -0.014 C 
HETATM    6  C6  UNL     1     -35.866   5.986   4.399  1.00 20.00     0.020 C 
HETATM    7  C7  UNL     1     -33.911   4.922   5.540  1.00 20.00     0.020 C 
HETATM    8  N11 UNL     1     -32.886   7.981   4.354  1.00 20.00    -0.299 NA
ENDROOT
BRANCH   4   9
HETATM    9  C10 UNL     1     -32.754   8.304   1.956  1.00 20.00     0.002 C 
HETATM   10  C8  UNL     1     -32.879   9.784   2.312  1.00 20.00     0.011 C 
HETATM   11  C9  UNL     1     -31.856   8.121   0.733  1.00 20.00     0.011 C 
ENDBRANCH   4   9
TORSDOF 1
ENDMDL
MODEL 6
REMARK VINA RESULT:      -3.2     24.614     26.031
REMARK  1 active torsions:
REMARK  status: ('A' for Active; 'I' for Inactive)
REMARK    1  A    between atoms: C4_4  and  C10_10 
ROOT
HETATM    1  C1  UNL     1     -27.410  -4.419  10.981  1.00 20.00     0.092 C 
HETATM    2  C2  UNL     1     -27.959  -1.895   9.953  1.00 20.00     0.029 C 
HETATM    3  C3  UNL     1     -29.056  -2.516  10.804  1.00 20.00     0.016 C 
HETATM    4  C4  UNL     1     -26.579  -2.223  10.515  1.00 20.00     0.110 C 
HETATM    5  C5  UNL     1     -28.876  -4.036  10.899  1.00 20.00    -0.014 C 
HETATM    6  C6  UNL     1     -29.588  -4.567  12.148  1.00 20.00     0.020 C 
HETATM    7  C7  UNL     1     -29.452  -4.734   9.656  1.00 20.00     0.020 C 
HETATM    8  N11 UNL     1     -26.396  -3.648  10.795  1.00 20.00    -0.299 NA
ENDROOT
BRANCH   4   9
HETATM    9  C10 UNL     1     -26.252  -1.442  11.787  1.00 20.00     0.002 C 
HETATM   10  C8  UNL     1     -24.756  -1.502  12.087  1.00 20.00     0.011 C 
HETATM   11  C9  UNL     1     -26.715   0.009  11.660  1.00 20.00     0.011 C 
ENDBRANCH   4   9
TORSDOF 1
ENDMDL
MODEL 7
REMARK VINA RESULT:      -3.2     12.831     14.489
REMARK  1 active torsions:
REMARK  status: ('A' for Active; 'I' for Inactive)
REMARK    1  A    between atoms: C4_4  and  C10_10 
ROOT
HETATM    1  C1  UNL     1     -42.313  12.935   7.315  1.00 20.00     0.092 C 
HETATM    2  C2  UNL     1     -40.205  14.328   8.474  1.00 20.00     0.029 C 
HETATM    3  C3  UNL     1     -40.446  14.601   6.997  1.00 20.00     0.016 C 
HETATM    4  C4  UNL     1     -41.525  14.150   9.220  1.00 20.00     0.110 C 
HETATM    5  C5  UNL     1     -41.260  13.468   6.361  1.00 20.00    -0.014 C 
HETATM    6  C6  UNL     1     -41.963  13.978   5.098  1.00 20.00     0.020 C 
HETATM    7  C7  UNL     1     -40.352  12.284   5.988  1.00 20.00     0.020 C 
HETATM    8  N11 UNL     1     -42.430  13.203   8.568  1.00 20.00    -0.299 NA
ENDROOT
BRANCH   4   9
HETATM    9  C10 UNL     1     -42.275  15.465   9.424  1.00 20.00     0.002 C 
HETATM   10  C8  UNL     1     -43.414  15.286  10.427  1.00 20.00     0.011 C 
HETATM   11  C9  UNL     1     -41.320  16.564   9.889  1.00 20.00     0.011 C 
ENDBRANCH   4   9
TORSDOF 1
ENDMDL
MODEL 8
REMARK VINA RESULT:      -3.1      2.382      5.091
REMARK  1 active torsions:
REMARK  status: ('A' for Active; 'I' for Inactive)
REMARK    1  A    between atoms: C4_4  and  C10_10 
ROOT
HETATM    1  C1  UNL     1     -36.276  15.992  -6.279  1.00 20.00     0.092 C 
HETATM    2  C2  UNL     1     -34.995  17.992  -4.833  1.00 20.00     0.029 C 
HETATM    3  C3  UNL     1     -36.458  17.758  -4.487  1.00 20.00     0.016 C 
HETATM    4  C4  UNL     1     -34.288  16.673  -5.134  1.00 20.00     0.110 C 
HETATM    5  C5  UNL     1     -37.176  17.026  -5.628  1.00 20.00    -0.014 C 
HETATM    6  C6  UNL     1     -38.421  16.313  -5.086  1.00 20.00     0.020 C 
HETATM    7  C7  UNL     1     -37.599  18.011  -6.730  1.00 20.00     0.020 C 
HETATM    8  N11 UNL     1     -35.012  15.839  -6.094  1.00 20.00    -0.299 NA
ENDROOT
BRANCH   4   9
HETATM    9  C10 UNL     1     -34.022  15.840  -3.882  1.00 20.00     0.002 C 
HETATM   10  C8  UNL     1     -33.259  14.564  -4.235  1.00 20.00     0.011 C 
HETATM   11  C9  UNL     1     -33.249  16.656  -2.846  1.00 20.00     0.011 C 
ENDBRANCH   4   9
TORSDOF 1
ENDMDL
MODEL 9
REMARK VINA RESULT:      -3.1      2.133      4.888
REMARK  1 active torsions:
REMARK  status: ('A' for Active; 'I' for Inactive)
REMARK    1  A    between atoms: C4_4  and  C10_10 
ROOT
HETATM    1  C1  UNL     1     -34.809  18.776  -5.712  1.00 20.00     0.092 C 
HETATM    2  C2  UNL     1     -35.371  16.081  -6.097  1.00 20.00     0.029 C 
HETATM    3  C3  UNL     1     -34.531  16.743  -7.179  1.00 20.00     0.016 C 
HETATM    4  C4  UNL     1     -34.997  16.609  -4.715  1.00 20.00     0.110 C 
HETATM    5  C5  UNL     1     -34.695  18.267  -7.137  1.00 20.00    -0.014 C 
HETATM    6  C6  UNL     1     -33.485  18.939  -7.797  1.00 20.00     0.020 C 
HETATM    7  C7  UNL     1     -35.974  18.700  -7.873  1.00 20.00     0.020 C 
HETATM    8  N11 UNL     1     -34.965  18.071  -4.648  1.00 20.00    -0.299 NA
ENDROOT
BRANCH   4   9
HETATM    9  C10 UNL     1     -33.654  16.078  -4.217  1.00 20.00     0.002 C 
HETATM   10  C8  UNL     1     -33.383  16.550  -2.790  1.00 20.00     0.011 C 
HETATM   11  C9  UNL     1     -33.617  14.552  -4.293  1.00 20.00     0.011 C 
ENDBRANCH   4   9
TORSDOF 1
ENDMDL
