MODEL 1
REMARK VINA RESULT:      -3.4      0.000      0.000
REMARK  3 active torsions:
REMARK  status: ('A' for Active; 'I' for Inactive)
REMARK    1  A    between atoms: C1_1  and  C7_7 
REMARK    2  A    between atoms: C1_1  and  N8_8 
REMARK    3  A    between atoms: C6_6  and  N8_8 
ROOT
HETATM    1  C1  UNL     1     -33.513   6.864   4.482  1.00 20.00     0.078 C 
HETATM    2  S9  UNL     1     -33.382   8.260   5.442  1.00 20.00    -0.065 SA
ENDROOT
BRANCH   1   3
HETATM    3  C7  UNL     1     -34.473   5.726   4.925  1.00 20.00     0.039 C 
HETATM    4  C3  UNL     1     -34.524   5.624   6.452  1.00 20.00     0.017 C 
HETATM    5  C4  UNL     1     -35.889   5.834   4.348  1.00 20.00     0.017 C 
ENDBRANCH   1   3
BRANCH   1   6
HETATM    6  N8  UNL     1     -32.761   6.641   3.314  1.00 20.00    -0.380 N 
HETATM    7  C5  UNL     1     -32.806   5.391   2.556  1.00 20.00     0.150 C 
BRANCH   6   8
HETATM    8  C6  UNL     1     -31.846   7.639   2.754  1.00 20.00     0.118 C 
HETATM    9  C2  UNL     1     -32.299   8.087   1.406  1.00 20.00     0.026 C 
ENDBRANCH   6   8
ENDBRANCH   1   6
TORSDOF 3
ENDMDL
MODEL 2
REMARK VINA RESULT:      -3.3      1.761      2.378
REMARK  3 active torsions:
REMARK  status: ('A' for Active; 'I' for Inactive)
REMARK    1  A    between atoms: C1_1  and  C7_7 
REMARK    2  A    between atoms: C1_1  and  N8_8 
REMARK    3  A    between atoms: C6_6  and  N8_8 
ROOT
HETATM    1  C1  UNL     1     -33.250   6.674   3.798  1.00 20.00     0.078 C 
HETATM    2  S9  UNL     1     -32.994   5.216   2.965  1.00 20.00    -0.065 SA
ENDROOT
BRANCH   1   3
HETATM    3  C7  UNL     1     -34.339   6.735   4.904  1.00 20.00     0.039 C 
HETATM    4  C3  UNL     1     -35.441   5.706   4.638  1.00 20.00     0.017 C 
HETATM    5  C4  UNL     1     -33.798   6.584   6.331  1.00 20.00     0.017 C 
ENDBRANCH   1   3
BRANCH   1   6
HETATM    6  N8  UNL     1     -32.562   7.869   3.517  1.00 20.00    -0.380 N 
HETATM    7  C5  UNL     1     -32.266   8.882   4.530  1.00 20.00     0.150 C 
BRANCH   6   8
HETATM    8  C6  UNL     1     -32.090   8.220   2.175  1.00 20.00     0.118 C 
HETATM    9  C2  UNL     1     -32.846   9.381   1.625  1.00 20.00     0.026 C 
ENDBRANCH   6   8
ENDBRANCH   1   6
TORSDOF 3
ENDMDL
MODEL 3
REMARK VINA RESULT:      -3.2     12.066     12.858
REMARK  3 active torsions:
REMARK  status: ('A' for Active; 'I' for Inactive)
REMARK    1  A    between atoms: C1_1  and  C7_7 
REMARK    2  A    between atoms: C1_1  and  N8_8 
REMARK    3  A    between atoms: C6_6  and  N8_8 
ROOT
HETATM    1  C1  UNL     1     -34.268  17.975  -2.310  1.00 20.00     0.078 C 
HETATM    2  S9  UNL     1     -35.483  19.156  -2.192  1.00 20.00    -0.065 SA
ENDROOT
BRANCH   1   3
HETATM    3  C7  UNL     1     -33.294  17.767  -1.117  1.00 20.00     0.039 C 
HETATM    4  C3  UNL     1     -32.066  18.672  -1.256  1.00 20.00     0.017 C 
HETATM    5  C4  UNL     1     -33.938  17.947   0.263  1.00 20.00     0.017 C 
ENDBRANCH   1   3
BRANCH   1   6
HETATM    6  N8  UNL     1     -34.046  17.187  -3.454  1.00 20.00    -0.380 N 
HETATM    7  C5  UNL     1     -34.645  17.477  -4.757  1.00 20.00     0.150 C 
BRANCH   6   8
HETATM    8  C6  UNL     1     -33.204  15.989  -3.445  1.00 20.00     0.118 C 
HETATM    9  C2  UNL     1     -33.876  14.853  -4.139  1.00 20.00     0.026 C 
ENDBRANCH   6   8
ENDBRANCH   1   6
TORSDOF 3
ENDMDL
MODEL 4
REMARK VINA RESULT:      -3.1     12.347     13.226
REMARK  3 active torsions:
REMARK  status: ('A' for Active; 'I' for Inactive)
REMARK    1  A    between atoms: C1_1  and  C7_7 
REMARK    2  A    between atoms: C1_1  and  N8_8 
REMARK    3  A    between atoms: C6_6  and  N8_8 
ROOT
HETATM    1  C1  UNL     1     -34.542  16.389  -4.851  1.00 20.00     0.078 C 
HETATM    2  S9  UNL     1     -34.458  18.081  -4.974  1.00 20.00    -0.065 SA
ENDROOT
BRANCH   1   3
HETATM    3  C7  UNL     1     -33.787  15.674  -3.697  1.00 20.00     0.039 C 
HETATM    4  C3  UNL     1     -32.599  14.875  -4.240  1.00 20.00     0.017 C 
HETATM    5  C4  UNL     1     -33.334  16.606  -2.567  1.00 20.00     0.017 C 
ENDBRANCH   1   3
BRANCH   1   6
HETATM    6  N8  UNL     1     -35.222  15.568  -5.769  1.00 20.00    -0.380 N 
HETATM    7  C5  UNL     1     -36.022  14.410  -5.371  1.00 20.00     0.150 C 
BRANCH   6   8
HETATM    8  C6  UNL     1     -35.180  15.787  -7.217  1.00 20.00     0.118 C 
HETATM    9  C2  UNL     1     -33.815  15.538  -7.760  1.00 20.00     0.026 C 
ENDBRANCH   6   8
ENDBRANCH   1   6
TORSDOF 3
ENDMDL
MODEL 5
REMARK VINA RESULT:      -3.1      1.103      3.830
REMARK  3 active torsions:
REMARK  status: ('A' for Active; 'I' for Inactive)
REMARK    1  A    between atoms: C1_1  and  C7_7 
REMARK    2  A    between atoms: C1_1  and  N8_8 
REMARK    3  A    between atoms: C6_6  and  N8_8 
ROOT
HETATM    1  C1  UNL     1     -33.290   7.286   4.146  1.00 20.00     0.078 C 
HETATM    2  S9  UNL     1     -32.386   8.618   4.686  1.00 20.00    -0.065 SA
ENDROOT
BRANCH   1   3
HETATM    3  C7  UNL     1     -33.057   6.744   2.709  1.00 20.00     0.039 C 
HETATM    4  C3  UNL     1     -32.002   7.579   1.979  1.00 20.00     0.017 C 
HETATM    5  C4  UNL     1     -32.699   5.254   2.646  1.00 20.00     0.017 C 
ENDBRANCH   1   3
BRANCH   1   6
HETATM    6  N8  UNL     1     -34.290   6.655   4.908  1.00 20.00    -0.380 N 
HETATM    7  C5  UNL     1     -35.526   6.125   4.331  1.00 20.00     0.150 C 
BRANCH   6   8
HETATM    8  C6  UNL     1     -34.195   6.481   6.360  1.00 20.00     0.118 C 
HETATM    9  C2  UNL     1     -34.528   5.084   6.758  1.00 20.00     0.026 C 
ENDBRANCH   6   8
ENDBRANCH   1   6
TORSDOF 3
ENDMDL
MODEL 6
REMARK VINA RESULT:      -3.1     12.550     13.436
REMARK  3 active torsions:
REMARK  status: ('A' for Active; 'I' for Inactive)
REMARK    1  A    between atoms: C1_1  and  C7_7 
REMARK    2  A    between atoms: C1_1  and  N8_8 
REMARK    3  A    between atoms: C6_6  and  N8_8 
ROOT
HETATM    1  C1  UNL     1     -34.921  16.696  -4.877  1.00 20.00     0.078 C 
HETATM    2  S9  UNL     1     -36.380  17.476  -5.262  1.00 20.00    -0.065 SA
ENDROOT
BRANCH   1   3
HETATM    3  C7  UNL     1     -34.647  15.276  -5.444  1.00 20.00     0.039 C 
HETATM    4  C3  UNL     1     -35.921  14.428  -5.422  1.00 20.00     0.017 C 
HETATM    5  C4  UNL     1     -34.021  15.265  -6.844  1.00 20.00     0.017 C 
ENDBRANCH   1   3
BRANCH   1   6
HETATM    6  N8  UNL     1     -33.942  17.239  -4.025  1.00 20.00    -0.380 N 
HETATM    7  C5  UNL     1     -33.429  18.603  -4.155  1.00 20.00     0.150 C 
BRANCH   6   8
HETATM    8  C6  UNL     1     -33.331  16.480  -2.930  1.00 20.00     0.118 C 
HETATM    9  C2  UNL     1     -33.558  17.151  -1.619  1.00 20.00     0.026 C 
ENDBRANCH   6   8
ENDBRANCH   1   6
TORSDOF 3
ENDMDL
MODEL 7
REMARK VINA RESULT:      -3.0     12.539     13.579
REMARK  3 active torsions:
REMARK  status: ('A' for Active; 'I' for Inactive)
REMARK    1  A    between atoms: C1_1  and  C7_7 
REMARK    2  A    between atoms: C1_1  and  N8_8 
REMARK    3  A    between atoms: C6_6  and  N8_8 
ROOT
HETATM    1  C1  UNL     1     -34.192  17.305  -4.600  1.00 20.00     0.078 C 
HETATM    2  S9  UNL     1     -33.653  18.903  -4.398  1.00 20.00    -0.065 SA
ENDROOT
BRANCH   1   3
HETATM    3  C7  UNL     1     -33.841  16.243  -3.522  1.00 20.00     0.039 C 
HETATM    4  C3  UNL     1     -32.846  15.219  -4.074  1.00 20.00     0.017 C 
HETATM    5  C4  UNL     1     -33.327  16.830  -2.202  1.00 20.00     0.017 C 
ENDBRANCH   1   3
BRANCH   1   6
HETATM    6  N8  UNL     1     -34.911  16.855  -5.723  1.00 20.00    -0.380 N 
HETATM    7  C5  UNL     1     -34.562  17.216  -7.097  1.00 20.00     0.150 C 
BRANCH   6   8
HETATM    8  C6  UNL     1     -36.090  15.992  -5.621  1.00 20.00     0.118 C 
HETATM    9  C2  UNL     1     -35.841  14.664  -6.249  1.00 20.00     0.026 C 
ENDBRANCH   6   8
ENDBRANCH   1   6
TORSDOF 3
ENDMDL
MODEL 8
REMARK VINA RESULT:      -3.0     10.050     10.866
REMARK  3 active torsions:
REMARK  status: ('A' for Active; 'I' for Inactive)
REMARK    1  A    between atoms: C1_1  and  C7_7 
REMARK    2  A    between atoms: C1_1  and  N8_8 
REMARK    3  A    between atoms: C6_6  and  N8_8 
ROOT
HETATM    1  C1  UNL     1     -41.268  13.665   7.459  1.00 20.00     0.078 C 
HETATM    2  S9  UNL     1     -42.840  13.327   8.006  1.00 20.00    -0.065 SA
ENDROOT
BRANCH   1   3
HETATM    3  C7  UNL     1     -40.347  14.578   8.314  1.00 20.00     0.039 C 
HETATM    4  C3  UNL     1     -40.466  16.038   7.868  1.00 20.00     0.017 C 
HETATM    5  C4  UNL     1     -40.570  14.460   9.827  1.00 20.00     0.017 C 
ENDBRANCH   1   3
BRANCH   1   6
HETATM    6  N8  UNL     1     -40.746  13.204   6.237  1.00 20.00    -0.380 N 
HETATM    7  C5  UNL     1     -41.293  13.585   4.935  1.00 20.00     0.150 C 
BRANCH   6   8
HETATM    8  C6  UNL     1     -39.610  12.282   6.152  1.00 20.00     0.118 C 
HETATM    9  C2  UNL     1     -39.405  11.807   4.755  1.00 20.00     0.026 C 
ENDBRANCH   6   8
ENDBRANCH   1   6
TORSDOF 3
ENDMDL
MODEL 9
REMARK VINA RESULT:      -3.0     12.193     13.304
REMARK  3 active torsions:
REMARK  status: ('A' for Active; 'I' for Inactive)
REMARK    1  A    between atoms: C1_1  and  C7_7 
REMARK    2  A    between atoms: C1_1  and  N8_8 
REMARK    3  A    between atoms: C6_6  and  N8_8 
ROOT
HETATM    1  C1  UNL     1     -34.373  16.955  -4.207  1.00 20.00     0.078 C 
HETATM    2  S9  UNL     1     -35.692  17.988  -4.487  1.00 20.00    -0.065 SA
ENDROOT
BRANCH   1   3
HETATM    3  C7  UNL     1     -33.260  17.398  -3.217  1.00 20.00     0.039 C 
HETATM    4  C3  UNL     1     -32.910  18.874  -3.420  1.00 20.00     0.017 C 
HETATM    5  C4  UNL     1     -33.580  17.121  -1.743  1.00 20.00     0.017 C 
ENDBRANCH   1   3
BRANCH   1   6
HETATM    6  N8  UNL     1     -34.190  15.722  -4.857  1.00 20.00    -0.380 N 
HETATM    7  C5  UNL     1     -33.248  14.702  -4.396  1.00 20.00     0.150 C 
BRANCH   6   8
HETATM    8  C6  UNL     1     -34.917  15.346  -6.073  1.00 20.00     0.118 C 
HETATM    9  C2  UNL     1     -34.063  15.510  -7.283  1.00 20.00     0.026 C 
ENDBRANCH   6   8
ENDBRANCH   1   6
TORSDOF 3
ENDMDL
