MODEL 1
REMARK VINA RESULT:      -4.8      0.000      0.000
REMARK  3 active torsions:
REMARK  status: ('A' for Active; 'I' for Inactive)
REMARK    1  A    between atoms: C1_1  and  C2_2 
REMARK    2  A    between atoms: C4_4  and  C9_9 
REMARK    3  A    between atoms: C5_5  and  C9_9 
ROOT
HETATM    1  C2  UNL     1     -33.588   7.244   5.843  1.00 20.00    -0.004 C 
HETATM    2  C4  UNL     1     -33.921   7.840   4.687  1.00 20.00    -0.015 C 
ENDROOT
BRANCH   2   3
HETATM    3  C9  UNL     1     -33.025   8.812   3.966  1.00 20.00     0.073 C 
HETATM    4  C8  UNL     1     -31.847   9.233   4.838  1.00 20.00     0.022 C 
BRANCH   3   5
HETATM    5  C5  UNL     1     -32.512   8.164   2.682  1.00 20.00     0.130 C 
HETATM    6  C7  UNL     1     -32.560   9.012   1.435  1.00 20.00     0.091 C 
HETATM    7  O10 UNL     1     -32.112   7.002   2.636  1.00 20.00    -0.298 OA
ENDBRANCH   3   5
ENDBRANCH   2   3
BRANCH   1   8
HETATM    8  C1  UNL     1     -34.455   6.312   6.529  1.00 20.00    -0.005 C 
HETATM    9  C3  UNL     1     -34.802   5.123   6.018  1.00 20.00    -0.031 C 
HETATM   10  C6  UNL     1     -34.339   4.624   4.688  1.00 20.00     0.036 C 
ENDBRANCH   1   8
TORSDOF 3
ENDMDL
MODEL 2
REMARK VINA RESULT:      -4.6      1.980      4.596
REMARK  3 active torsions:
REMARK  status: ('A' for Active; 'I' for Inactive)
REMARK    1  A    between atoms: C1_1  and  C2_2 
REMARK    2  A    between atoms: C4_4  and  C9_9 
REMARK    3  A    between atoms: C5_5  and  C9_9 
ROOT
HETATM    1  C2  UNL     1     -32.257   7.788   3.048  1.00 20.00    -0.004 C 
HETATM    2  C4  UNL     1     -33.041   6.943   3.735  1.00 20.00    -0.015 C 
ENDROOT
BRANCH   2   3
HETATM    3  C9  UNL     1     -33.324   7.084   5.207  1.00 20.00     0.073 C 
HETATM    4  C8  UNL     1     -33.725   8.510   5.563  1.00 20.00     0.022 C 
BRANCH   3   5
HETATM    5  C5  UNL     1     -34.441   6.119   5.599  1.00 20.00     0.130 C 
HETATM    6  C7  UNL     1     -35.430   5.760   4.518  1.00 20.00     0.091 C 
HETATM    7  O10 UNL     1     -34.570   5.678   6.740  1.00 20.00    -0.298 OA
ENDBRANCH   3   5
ENDBRANCH   2   3
BRANCH   1   8
HETATM    8  C1  UNL     1     -31.991   7.646   1.634  1.00 20.00    -0.005 C 
HETATM    9  C3  UNL     1     -32.314   8.581   0.731  1.00 20.00    -0.031 C 
HETATM   10  C6  UNL     1     -32.983   9.872   1.076  1.00 20.00     0.036 C 
ENDBRANCH   1   8
TORSDOF 3
ENDMDL
MODEL 3
REMARK VINA RESULT:      -4.5     11.690     12.449
REMARK  3 active torsions:
REMARK  status: ('A' for Active; 'I' for Inactive)
REMARK    1  A    between atoms: C1_1  and  C2_2 
REMARK    2  A    between atoms: C4_4  and  C9_9 
REMARK    3  A    between atoms: C5_5  and  C9_9 
ROOT
HETATM    1  C2  UNL     1     -33.173  17.215  -2.590  1.00 20.00    -0.004 C 
HETATM    2  C4  UNL     1     -33.448  17.323  -1.281  1.00 20.00    -0.015 C 
ENDROOT
BRANCH   2   3
HETATM    3  C9  UNL     1     -33.207  18.577  -0.483  1.00 20.00     0.073 C 
HETATM    4  C8  UNL     1     -34.191  18.696   0.675  1.00 20.00     0.022 C 
BRANCH   3   5
HETATM    5  C5  UNL     1     -31.777  18.565   0.053  1.00 20.00     0.130 C 
HETATM    6  C7  UNL     1     -31.619  18.402   1.544  1.00 20.00     0.091 C 
HETATM    7  O10 UNL     1     -30.793  18.717  -0.670  1.00 20.00    -0.298 OA
ENDBRANCH   3   5
ENDBRANCH   2   3
BRANCH   1   8
HETATM    8  C1  UNL     1     -33.408  16.007  -3.349  1.00 20.00    -0.005 C 
HETATM    9  C3  UNL     1     -34.185  15.967  -4.440  1.00 20.00    -0.031 C 
HETATM   10  C6  UNL     1     -34.897  17.157  -4.996  1.00 20.00     0.036 C 
ENDBRANCH   1   8
TORSDOF 3
ENDMDL
MODEL 4
REMARK VINA RESULT:      -4.4      1.674      4.312
REMARK  3 active torsions:
REMARK  status: ('A' for Active; 'I' for Inactive)
REMARK    1  A    between atoms: C1_1  and  C2_2 
REMARK    2  A    between atoms: C4_4  and  C9_9 
REMARK    3  A    between atoms: C5_5  and  C9_9 
ROOT
HETATM    1  C2  UNL     1     -32.708   8.522   3.497  1.00 20.00    -0.004 C 
HETATM    2  C4  UNL     1     -33.683   7.955   4.225  1.00 20.00    -0.015 C 
ENDROOT
BRANCH   2   3
HETATM    3  C9  UNL     1     -33.476   6.736   5.083  1.00 20.00     0.073 C 
HETATM    4  C8  UNL     1     -34.198   6.868   6.419  1.00 20.00     0.022 C 
BRANCH   3   5
HETATM    5  C5  UNL     1     -33.987   5.505   4.339  1.00 20.00     0.130 C 
HETATM    6  C7  UNL     1     -33.319   5.187   3.025  1.00 20.00     0.091 C 
HETATM    7  O10 UNL     1     -34.920   4.817   4.751  1.00 20.00    -0.298 OA
ENDBRANCH   3   5
ENDBRANCH   2   3
BRANCH   1   8
HETATM    8  C1  UNL     1     -32.916   9.694   2.676  1.00 20.00    -0.005 C 
HETATM    9  C3  UNL     1     -32.759   9.692   1.345  1.00 20.00    -0.031 C 
HETATM   10  C6  UNL     1     -32.353   8.489   0.559  1.00 20.00     0.036 C 
ENDBRANCH   1   8
TORSDOF 3
ENDMDL
MODEL 5
REMARK VINA RESULT:      -4.4      1.336      2.168
REMARK  3 active torsions:
REMARK  status: ('A' for Active; 'I' for Inactive)
REMARK    1  A    between atoms: C1_1  and  C2_2 
REMARK    2  A    between atoms: C4_4  and  C9_9 
REMARK    3  A    between atoms: C5_5  and  C9_9 
ROOT
HETATM    1  C2  UNL     1     -33.413   7.427   4.518  1.00 20.00    -0.004 C 
HETATM    2  C4  UNL     1     -32.465   8.160   3.914  1.00 20.00    -0.015 C 
ENDROOT
BRANCH   2   3
HETATM    3  C9  UNL     1     -32.013   7.928   2.497  1.00 20.00     0.073 C 
HETATM    4  C8  UNL     1     -32.437   6.552   1.997  1.00 20.00     0.022 C 
BRANCH   3   5
HETATM    5  C5  UNL     1     -32.605   9.010   1.597  1.00 20.00     0.130 C 
HETATM    6  C7  UNL     1     -32.526   8.766   0.110  1.00 20.00     0.091 C 
HETATM    7  O10 UNL     1     -33.090  10.052   2.037  1.00 20.00    -0.298 OA
ENDBRANCH   3   5
ENDBRANCH   2   3
BRANCH   1   8
HETATM    8  C1  UNL     1     -33.841   7.656   5.880  1.00 20.00    -0.005 C 
HETATM    9  C3  UNL     1     -34.385   6.702   6.648  1.00 20.00    -0.031 C 
HETATM   10  C6  UNL     1     -34.612   5.298   6.190  1.00 20.00     0.036 C 
ENDBRANCH   1   8
TORSDOF 3
ENDMDL
MODEL 6
REMARK VINA RESULT:      -4.2     11.816     12.586
REMARK  3 active torsions:
REMARK  status: ('A' for Active; 'I' for Inactive)
REMARK    1  A    between atoms: C1_1  and  C2_2 
REMARK    2  A    between atoms: C4_4  and  C9_9 
REMARK    3  A    between atoms: C5_5  and  C9_9 
ROOT
HETATM    1  C2  UNL     1     -32.986  17.857  -1.322  1.00 20.00    -0.004 C 
HETATM    2  C4  UNL     1     -33.571  16.873  -2.022  1.00 20.00    -0.015 C 
ENDROOT
BRANCH   2   3
HETATM    3  C9  UNL     1     -33.245  16.569  -3.460  1.00 20.00     0.073 C 
HETATM    4  C8  UNL     1     -33.632  15.141  -3.827  1.00 20.00     0.022 C 
BRANCH   3   5
HETATM    5  C5  UNL     1     -33.985  17.553  -4.362  1.00 20.00     0.130 C 
HETATM    6  C7  UNL     1     -35.324  17.104  -4.892  1.00 20.00     0.091 C 
HETATM    7  O10 UNL     1     -33.516  18.644  -4.685  1.00 20.00    -0.298 OA
ENDBRANCH   3   5
ENDBRANCH   2   3
BRANCH   1   8
HETATM    8  C1  UNL     1     -33.305  18.142   0.059  1.00 20.00    -0.005 C 
HETATM    9  C3  UNL     1     -32.389  18.525   0.959  1.00 20.00    -0.031 C 
HETATM   10  C6  UNL     1     -30.939  18.700   0.643  1.00 20.00     0.036 C 
ENDBRANCH   1   8
TORSDOF 3
ENDMDL
MODEL 7
REMARK VINA RESULT:      -4.0     11.846     13.084
REMARK  3 active torsions:
REMARK  status: ('A' for Active; 'I' for Inactive)
REMARK    1  A    between atoms: C1_1  and  C2_2 
REMARK    2  A    between atoms: C4_4  and  C9_9 
REMARK    3  A    between atoms: C5_5  and  C9_9 
ROOT
HETATM    1  C2  UNL     1     -33.990  16.603  -3.846  1.00 20.00    -0.004 C 
HETATM    2  C4  UNL     1     -33.969  15.590  -4.726  1.00 20.00    -0.015 C 
ENDROOT
BRANCH   2   3
HETATM    3  C9  UNL     1     -34.598  15.663  -6.092  1.00 20.00     0.073 C 
HETATM    4  C8  UNL     1     -33.568  15.436  -7.192  1.00 20.00     0.022 C 
BRANCH   3   5
HETATM    5  C5  UNL     1     -35.702  14.614  -6.193  1.00 20.00     0.130 C 
HETATM    6  C7  UNL     1     -36.116  13.946  -4.905  1.00 20.00     0.091 C 
HETATM    7  O10 UNL     1     -36.214  14.285  -7.263  1.00 20.00    -0.298 OA
ENDBRANCH   3   5
ENDBRANCH   2   3
BRANCH   1   8
HETATM    8  C1  UNL     1     -33.382  16.525  -2.537  1.00 20.00    -0.005 C 
HETATM    9  C3  UNL     1     -32.820  17.577  -1.926  1.00 20.00    -0.031 C 
HETATM   10  C6  UNL     1     -32.753  18.945  -2.523  1.00 20.00     0.036 C 
ENDBRANCH   1   8
TORSDOF 3
ENDMDL
MODEL 8
REMARK VINA RESULT:      -4.0     11.992     13.255
REMARK  3 active torsions:
REMARK  status: ('A' for Active; 'I' for Inactive)
REMARK    1  A    between atoms: C1_1  and  C2_2 
REMARK    2  A    between atoms: C4_4  and  C9_9 
REMARK    3  A    between atoms: C5_5  and  C9_9 
ROOT
HETATM    1  C2  UNL     1     -34.007  16.250  -4.116  1.00 20.00    -0.004 C 
HETATM    2  C4  UNL     1     -34.273  15.118  -4.787  1.00 20.00    -0.015 C 
ENDROOT
BRANCH   2   3
HETATM    3  C9  UNL     1     -35.111  15.072  -6.037  1.00 20.00     0.073 C 
HETATM    4  C8  UNL     1     -36.389  15.887  -5.880  1.00 20.00     0.022 C 
BRANCH   3   5
HETATM    5  C5  UNL     1     -34.294  15.613  -7.209  1.00 20.00     0.130 C 
HETATM    6  C7  UNL     1     -34.645  16.999  -7.690  1.00 20.00     0.091 C 
HETATM    7  O10 UNL     1     -33.419  14.955  -7.771  1.00 20.00    -0.298 OA
ENDBRANCH   3   5
ENDBRANCH   2   3
BRANCH   1   8
HETATM    8  C1  UNL     1     -33.202  16.285  -2.915  1.00 20.00    -0.005 C 
HETATM    9  C3  UNL     1     -33.398  17.168  -1.927  1.00 20.00    -0.031 C 
HETATM   10  C6  UNL     1     -34.465  18.214  -1.949  1.00 20.00     0.036 C 
ENDBRANCH   1   8
TORSDOF 3
ENDMDL
MODEL 9
REMARK VINA RESULT:      -4.0      1.416      2.568
REMARK  3 active torsions:
REMARK  status: ('A' for Active; 'I' for Inactive)
REMARK    1  A    between atoms: C1_1  and  C2_2 
REMARK    2  A    between atoms: C4_4  and  C9_9 
REMARK    3  A    between atoms: C5_5  and  C9_9 
ROOT
HETATM    1  C2  UNL     1     -33.851   6.267   3.686  1.00 20.00    -0.004 C 
HETATM    2  C4  UNL     1     -32.568   6.317   3.297  1.00 20.00    -0.015 C 
ENDROOT
BRANCH   2   3
HETATM    3  C9  UNL     1     -31.942   7.525   2.652  1.00 20.00     0.073 C 
HETATM    4  C8  UNL     1     -32.272   7.594   1.165  1.00 20.00     0.022 C 
BRANCH   3   5
HETATM    5  C5  UNL     1     -32.444   8.786   3.352  1.00 20.00     0.130 C 
HETATM    6  C7  UNL     1     -32.337   8.809   4.856  1.00 20.00     0.091 C 
HETATM    7  O10 UNL     1     -32.950   9.729   2.744  1.00 20.00    -0.298 OA
ENDBRANCH   3   5
ENDBRANCH   2   3
BRANCH   1   8
HETATM    8  C1  UNL     1     -34.444   5.103   4.305  1.00 20.00    -0.005 C 
HETATM    9  C3  UNL     1     -34.721   5.031   5.614  1.00 20.00    -0.031 C 
HETATM   10  C6  UNL     1     -34.452   6.137   6.581  1.00 20.00     0.036 C 
ENDBRANCH   1   8
TORSDOF 3
ENDMDL
