MODEL 1
REMARK VINA RESULT:      -3.8      0.000      0.000
REMARK  1 active torsions:
REMARK  status: ('A' for Active; 'I' for Inactive)
REMARK    1  A    between atoms: C1_1  and  N7_7 
ROOT
HETATM    1  C2  UNL     1     -32.969   6.123   3.020  1.00 20.00     0.159 C 
HETATM    2  C3  UNL     1     -32.291   7.474   3.106  1.00 20.00     0.138 C 
HETATM    3  C4  UNL     1     -33.925   7.446   4.739  1.00 20.00     0.221 C 
HETATM    4  C5  UNL     1     -31.984   8.090   1.756  1.00 20.00     0.041 C 
HETATM    5  C6  UNL     1     -33.304   7.580   6.122  1.00 20.00     0.063 C 
HETATM    6  N7  UNL     1     -33.801   6.112   4.196  1.00 20.00    -0.330 N 
HETATM    7  O9  UNL     1     -33.231   8.305   3.818  1.00 20.00    -0.360 OA
ENDROOT
BRANCH   6   8
HETATM    8  C1  UNL     1     -34.495   5.011   4.636  1.00 20.00     0.352 C 
HETATM    9  O8  UNL     1     -34.139   3.839   4.579  1.00 20.00    -0.283 OA
ENDBRANCH   6   8
TORSDOF 1
ENDMDL
MODEL 2
REMARK VINA RESULT:      -3.6      1.309      1.462
REMARK  1 active torsions:
REMARK  status: ('A' for Active; 'I' for Inactive)
REMARK    1  A    between atoms: C1_1  and  N7_7 
ROOT
HETATM    1  C2  UNL     1     -32.667   7.016   3.660  1.00 20.00     0.159 C 
HETATM    2  C3  UNL     1     -32.601   8.138   4.676  1.00 20.00     0.138 C 
HETATM    3  C4  UNL     1     -34.455   6.865   5.210  1.00 20.00     0.221 C 
HETATM    4  C5  UNL     1     -32.224   9.479   4.081  1.00 20.00     0.041 C 
HETATM    5  C6  UNL     1     -34.301   6.247   6.593  1.00 20.00     0.063 C 
HETATM    6  N7  UNL     1     -33.698   6.165   4.197  1.00 20.00    -0.330 N 
HETATM    7  O9  UNL     1     -33.933   8.206   5.225  1.00 20.00    -0.360 OA
ENDROOT
BRANCH   6   8
HETATM    8  C1  UNL     1     -34.005   4.923   3.697  1.00 20.00     0.352 C 
HETATM    9  O8  UNL     1     -34.004   3.858   4.304  1.00 20.00    -0.283 OA
ENDBRANCH   6   8
TORSDOF 1
ENDMDL
MODEL 3
REMARK VINA RESULT:      -3.6     16.132     16.706
REMARK  1 active torsions:
REMARK  status: ('A' for Active; 'I' for Inactive)
REMARK    1  A    between atoms: C1_1  and  N7_7 
ROOT
HETATM    1  C2  UNL     1     -24.824  18.784  10.188  1.00 20.00     0.159 C 
HETATM    2  C3  UNL     1     -25.149  18.994  11.653  1.00 20.00     0.138 C 
HETATM    3  C4  UNL     1     -23.276  17.642  11.575  1.00 20.00     0.221 C 
HETATM    4  C5  UNL     1     -26.632  18.937  11.963  1.00 20.00     0.041 C 
HETATM    5  C6  UNL     1     -22.089  18.332  12.233  1.00 20.00     0.063 C 
HETATM    6  N7  UNL     1     -23.540  18.133  10.241  1.00 20.00    -0.330 N 
HETATM    7  O9  UNL     1     -24.469  17.918  12.332  1.00 20.00    -0.360 OA
ENDROOT
BRANCH   6   8
HETATM    8  C1  UNL     1     -22.760  17.884   9.138  1.00 20.00     0.352 C 
HETATM    9  O8  UNL     1     -22.137  16.859   8.887  1.00 20.00    -0.283 OA
ENDBRANCH   6   8
TORSDOF 1
ENDMDL
MODEL 4
REMARK VINA RESULT:      -3.6     15.625     16.586
REMARK  1 active torsions:
REMARK  status: ('A' for Active; 'I' for Inactive)
REMARK    1  A    between atoms: C1_1  and  N7_7 
ROOT
HETATM    1  C2  UNL     1     -22.934  16.993   9.385  1.00 20.00     0.159 C 
HETATM    2  C3  UNL     1     -21.666  17.811   9.253  1.00 20.00     0.138 C 
HETATM    3  C4  UNL     1     -22.834  18.682  11.046  1.00 20.00     0.221 C 
HETATM    4  C5  UNL     1     -21.295  18.133   7.819  1.00 20.00     0.041 C 
HETATM    5  C6  UNL     1     -22.034  18.532  12.332  1.00 20.00     0.063 C 
HETATM    6  N7  UNL     1     -23.476  17.452  10.638  1.00 20.00    -0.330 N 
HETATM    7  O9  UNL     1     -21.947  19.031   9.968  1.00 20.00    -0.360 OA
ENDROOT
BRANCH   6   8
HETATM    8  C1  UNL     1     -24.555  16.877  11.266  1.00 20.00     0.352 C 
HETATM    9  O8  UNL     1     -24.551  15.886  11.987  1.00 20.00    -0.283 OA
ENDBRANCH   6   8
TORSDOF 1
ENDMDL
MODEL 5
REMARK VINA RESULT:      -3.5      1.871      3.430
REMARK  1 active torsions:
REMARK  status: ('A' for Active; 'I' for Inactive)
REMARK    1  A    between atoms: C1_1  and  N7_7 
ROOT
HETATM    1  C2  UNL     1     -33.821   6.037   4.006  1.00 20.00     0.159 C 
HETATM    2  C3  UNL     1     -34.321   6.553   5.340  1.00 20.00     0.138 C 
HETATM    3  C4  UNL     1     -32.439   7.786   4.815  1.00 20.00     0.221 C 
HETATM    4  C5  UNL     1     -34.790   5.460   6.280  1.00 20.00     0.041 C 
HETATM    5  C6  UNL     1     -32.789   9.258   4.655  1.00 20.00     0.063 C 
HETATM    6  N7  UNL     1     -32.803   6.995   3.660  1.00 20.00    -0.330 N 
HETATM    7  O9  UNL     1     -33.186   7.233   5.913  1.00 20.00    -0.360 OA
ENDROOT
BRANCH   6   8
HETATM    8  C1  UNL     1     -32.167   7.034   2.442  1.00 20.00     0.352 C 
HETATM    9  O8  UNL     1     -32.173   7.954   1.632  1.00 20.00    -0.283 OA
ENDBRANCH   6   8
TORSDOF 1
ENDMDL
MODEL 6
REMARK VINA RESULT:      -3.4      9.989     11.234
REMARK  1 active torsions:
REMARK  status: ('A' for Active; 'I' for Inactive)
REMARK    1  A    between atoms: C1_1  and  N7_7 
ROOT
HETATM    1  C2  UNL     1     -41.294  14.965   6.736  1.00 20.00     0.159 C 
HETATM    2  C3  UNL     1     -40.314  14.235   7.632  1.00 20.00     0.138 C 
HETATM    3  C4  UNL     1     -41.082  12.693   6.092  1.00 20.00     0.221 C 
HETATM    4  C5  UNL     1     -40.440  14.600   9.098  1.00 20.00     0.041 C 
HETATM    5  C6  UNL     1     -39.937  12.181   5.230  1.00 20.00     0.063 C 
HETATM    6  N7  UNL     1     -41.542  14.004   5.692  1.00 20.00    -0.330 N 
HETATM    7  O9  UNL     1     -40.629  12.840   7.450  1.00 20.00    -0.360 OA
ENDROOT
BRANCH   6   8
HETATM    8  C1  UNL     1     -42.255  14.277   4.550  1.00 20.00     0.352 C 
HETATM    9  O8  UNL     1     -41.824  14.336   3.404  1.00 20.00    -0.283 OA
ENDBRANCH   6   8
TORSDOF 1
ENDMDL
MODEL 7
REMARK VINA RESULT:      -3.3      1.368      4.010
REMARK  1 active torsions:
REMARK  status: ('A' for Active; 'I' for Inactive)
REMARK    1  A    between atoms: C1_1  and  N7_7 
ROOT
HETATM    1  C2  UNL     1     -33.494   7.037   5.650  1.00 20.00     0.159 C 
HETATM    2  C3  UNL     1     -34.009   5.613   5.699  1.00 20.00     0.138 C 
HETATM    3  C4  UNL     1     -33.834   6.180   3.466  1.00 20.00     0.221 C 
HETATM    4  C5  UNL     1     -35.048   5.376   6.777  1.00 20.00     0.041 C 
HETATM    5  C6  UNL     1     -32.825   5.284   2.762  1.00 20.00     0.063 C 
HETATM    6  N7  UNL     1     -33.208   7.220   4.251  1.00 20.00    -0.330 N 
HETATM    7  O9  UNL     1     -34.599   5.398   4.400  1.00 20.00    -0.360 OA
ENDROOT
BRANCH   6   8
HETATM    8  C1  UNL     1     -32.561   8.319   3.737  1.00 20.00     0.352 C 
HETATM    9  O8  UNL     1     -32.204   9.320   4.345  1.00 20.00    -0.283 OA
ENDBRANCH   6   8
TORSDOF 1
ENDMDL
MODEL 8
REMARK VINA RESULT:      -3.3      1.430      2.966
REMARK  1 active torsions:
REMARK  status: ('A' for Active; 'I' for Inactive)
REMARK    1  A    between atoms: C1_1  and  N7_7 
ROOT
HETATM    1  C2  UNL     1     -33.957   6.144   4.514  1.00 20.00     0.159 C 
HETATM    2  C3  UNL     1     -34.031   7.387   5.378  1.00 20.00     0.138 C 
HETATM    3  C4  UNL     1     -32.295   7.715   3.889  1.00 20.00     0.221 C 
HETATM    4  C5  UNL     1     -34.289   7.097   6.843  1.00 20.00     0.041 C 
HETATM    5  C6  UNL     1     -32.580   8.907   2.986  1.00 20.00     0.063 C 
HETATM    6  N7  UNL     1     -33.016   6.527   3.492  1.00 20.00    -0.330 N 
HETATM    7  O9  UNL     1     -32.740   8.010   5.225  1.00 20.00    -0.360 OA
ENDROOT
BRANCH   6   8
HETATM    8  C1  UNL     1     -32.744   5.771   2.377  1.00 20.00     0.352 C 
HETATM    9  O8  UNL     1     -32.754   4.549   2.289  1.00 20.00    -0.283 OA
ENDBRANCH   6   8
TORSDOF 1
ENDMDL
MODEL 9
REMARK VINA RESULT:      -3.2     12.514     13.272
REMARK  1 active torsions:
REMARK  status: ('A' for Active; 'I' for Inactive)
REMARK    1  A    between atoms: C1_1  and  N7_7 
ROOT
HETATM    1  C2  UNL     1     -33.364  15.918  -3.391  1.00 20.00     0.159 C 
HETATM    2  C3  UNL     1     -33.814  17.220  -2.760  1.00 20.00     0.138 C 
HETATM    3  C4  UNL     1     -34.456  17.300  -4.979  1.00 20.00     0.221 C 
HETATM    4  C5  UNL     1     -32.800  17.817  -1.804  1.00 20.00     0.041 C 
HETATM    5  C6  UNL     1     -35.971  17.388  -5.096  1.00 20.00     0.063 C 
HETATM    6  N7  UNL     1     -33.993  15.962  -4.686  1.00 20.00    -0.330 N 
HETATM    7  O9  UNL     1     -34.014  18.112  -3.876  1.00 20.00    -0.360 OA
ENDROOT
BRANCH   6   8
HETATM    8  C1  UNL     1     -34.006  14.910  -5.570  1.00 20.00     0.352 C 
HETATM    9  O8  UNL     1     -33.896  14.964  -6.789  1.00 20.00    -0.283 OA
ENDBRANCH   6   8
TORSDOF 1
ENDMDL
