MODEL 1
REMARK VINA RESULT:      -3.4      0.000      0.000
REMARK  1 active torsions:
REMARK  status: ('A' for Active; 'I' for Inactive)
REMARK    1  A    between atoms: C1_1  and  C3_3 
ROOT
HETATM    1  C2  UNL     1     -32.552  19.263  -1.639  1.00 20.00     0.056 A 
HETATM    2  C3  UNL     1     -31.659  18.372  -0.841  1.00 20.00     0.067 A 
HETATM    3  C4  UNL     1     -33.128  18.089  -0.895  1.00 20.00     0.122 A 
HETATM    4 CL7  UNL     1     -34.170  18.423   0.484  1.00 20.00    -0.101 Cl
HETATM    5 CL8  UNL     1     -33.639  16.687  -1.832  1.00 20.00    -0.101 Cl
ENDROOT
BRANCH   2   6
HETATM    6  C1  UNL     1     -31.042  18.920   0.408  1.00 20.00     0.090 C 
HETATM    7  N6  UNL     1     -30.776  18.147   1.402  1.00 20.00    -0.310 NA
HETATM    8  C5  UNL     1     -30.181  18.849   2.536  1.00 20.00     0.176 C 
ENDBRANCH   2   6
TORSDOF 1
ENDMDL
MODEL 2
REMARK VINA RESULT:      -3.3      3.723      5.066
REMARK  1 active torsions:
REMARK  status: ('A' for Active; 'I' for Inactive)
REMARK    1  A    between atoms: C1_1  and  C3_3 
ROOT
HETATM    1  C2  UNL     1     -34.142  17.820  -1.525  1.00 20.00     0.056 A 
HETATM    2  C3  UNL     1     -33.292  16.776  -2.168  1.00 20.00     0.067 A 
HETATM    3  C4  UNL     1     -32.743  18.154  -1.968  1.00 20.00     0.122 A 
HETATM    4 CL7  UNL     1     -32.554  19.263  -3.322  1.00 20.00    -0.101 Cl
HETATM    5 CL8  UNL     1     -31.508  18.353  -0.726  1.00 20.00    -0.101 Cl
ENDROOT
BRANCH   2   6
HETATM    6  C1  UNL     1     -33.662  16.303  -3.539  1.00 20.00     0.090 C 
HETATM    7  N6  UNL     1     -33.667  15.047  -3.822  1.00 20.00    -0.310 NA
HETATM    8  C5  UNL     1     -34.048  14.768  -5.203  1.00 20.00     0.176 C 
ENDBRANCH   2   6
TORSDOF 1
ENDMDL
MODEL 3
REMARK VINA RESULT:      -3.2     11.038     11.545
REMARK  1 active torsions:
REMARK  status: ('A' for Active; 'I' for Inactive)
REMARK    1  A    between atoms: C1_1  and  C3_3 
ROOT
HETATM    1  C2  UNL     1     -40.422  11.489   5.871  1.00 20.00     0.056 A 
HETATM    2  C3  UNL     1     -40.408  12.948   5.554  1.00 20.00     0.067 A 
HETATM    3  C4  UNL     1     -39.235  12.099   5.176  1.00 20.00     0.122 A 
HETATM    4 CL7  UNL     1     -37.720  12.190   6.067  1.00 20.00    -0.101 Cl
HETATM    5 CL8  UNL     1     -39.016  11.753   3.461  1.00 20.00    -0.101 Cl
ENDROOT
BRANCH   2   6
HETATM    6  C1  UNL     1     -40.301  13.920   6.687  1.00 20.00     0.090 C 
HETATM    7  N6  UNL     1     -40.406  13.522   7.906  1.00 20.00    -0.310 NA
HETATM    8  C5  UNL     1     -40.280  14.604   8.879  1.00 20.00     0.176 C 
ENDBRANCH   2   6
TORSDOF 1
ENDMDL
MODEL 4
REMARK VINA RESULT:      -3.1      4.107      5.164
REMARK  1 active torsions:
REMARK  status: ('A' for Active; 'I' for Inactive)
REMARK    1  A    between atoms: C1_1  and  C3_3 
ROOT
HETATM    1  C2  UNL     1     -33.188  14.526  -4.568  1.00 20.00     0.056 A 
HETATM    2  C3  UNL     1     -33.931  15.297  -3.529  1.00 20.00     0.067 A 
HETATM    3  C4  UNL     1     -34.497  15.183  -4.910  1.00 20.00     0.122 A 
HETATM    4 CL7  UNL     1     -34.464  16.547  -6.021  1.00 20.00    -0.101 Cl
HETATM    5 CL8  UNL     1     -35.911  14.151  -5.114  1.00 20.00    -0.101 Cl
ENDROOT
BRANCH   2   6
HETATM    6  C1  UNL     1     -33.352  16.593  -3.056  1.00 20.00     0.090 C 
HETATM    7  N6  UNL     1     -33.412  16.925  -1.814  1.00 20.00    -0.310 NA
HETATM    8  C5  UNL     1     -32.802  18.221  -1.532  1.00 20.00     0.176 C 
ENDBRANCH   2   6
TORSDOF 1
ENDMDL
MODEL 5
REMARK VINA RESULT:      -3.1     11.812     12.132
REMARK  1 active torsions:
REMARK  status: ('A' for Active; 'I' for Inactive)
REMARK    1  A    between atoms: C1_1  and  C3_3 
ROOT
HETATM    1  C2  UNL     1     -32.051   7.145   3.082  1.00 20.00     0.056 A 
HETATM    2  C3  UNL     1     -33.478   7.287   3.495  1.00 20.00     0.067 A 
HETATM    3  C4  UNL     1     -32.613   8.504   3.402  1.00 20.00     0.122 A 
HETATM    4 CL7  UNL     1     -32.025   9.314   4.850  1.00 20.00    -0.101 Cl
HETATM    5 CL8  UNL     1     -32.922   9.607   2.062  1.00 20.00    -0.101 Cl
ENDROOT
BRANCH   2   6
HETATM    6  C1  UNL     1     -33.888   6.752   4.831  1.00 20.00     0.090 C 
HETATM    7  N6  UNL     1     -34.423   5.586   4.937  1.00 20.00    -0.310 NA
HETATM    8  C5  UNL     1     -34.762   5.229   6.311  1.00 20.00     0.176 C 
ENDBRANCH   2   6
TORSDOF 1
ENDMDL
MODEL 6
REMARK VINA RESULT:      -3.0     12.727     13.138
REMARK  1 active torsions:
REMARK  status: ('A' for Active; 'I' for Inactive)
REMARK    1  A    between atoms: C1_1  and  C3_3 
ROOT
HETATM    1  C2  UNL     1     -35.430   5.807   4.428  1.00 20.00     0.056 A 
HETATM    2  C3  UNL     1     -34.020   5.460   4.081  1.00 20.00     0.067 A 
HETATM    3  C4  UNL     1     -34.312   6.152   5.375  1.00 20.00     0.122 A 
HETATM    4 CL7  UNL     1     -33.927   7.854   5.603  1.00 20.00    -0.101 Cl
HETATM    5 CL8  UNL     1     -34.154   5.198   6.848  1.00 20.00    -0.101 Cl
ENDROOT
BRANCH   2   6
HETATM    6  C1  UNL     1     -33.361   6.201   2.961  1.00 20.00     0.090 C 
HETATM    7  N6  UNL     1     -32.458   7.087   3.201  1.00 20.00    -0.310 NA
HETATM    8  C5  UNL     1     -31.926   7.712   1.993  1.00 20.00     0.176 C 
ENDBRANCH   2   6
TORSDOF 1
ENDMDL
MODEL 7
REMARK VINA RESULT:      -3.0     16.078     17.180
REMARK  1 active torsions:
REMARK  status: ('A' for Active; 'I' for Inactive)
REMARK    1  A    between atoms: C1_1  and  C3_3 
ROOT
HETATM    1  C2  UNL     1     -41.013   5.813  -0.467  1.00 20.00     0.056 A 
HETATM    2  C3  UNL     1     -42.467   5.793  -0.805  1.00 20.00     0.067 A 
HETATM    3  C4  UNL     1     -42.044   5.882   0.627  1.00 20.00     0.122 A 
HETATM    4 CL7  UNL     1     -42.189   4.499   1.706  1.00 20.00    -0.101 Cl
HETATM    5 CL8  UNL     1     -42.284   7.428   1.439  1.00 20.00    -0.101 Cl
ENDROOT
BRANCH   2   6
HETATM    6  C1  UNL     1     -43.054   4.526  -1.341  1.00 20.00     0.090 C 
HETATM    7  N6  UNL     1     -42.751   4.108  -2.520  1.00 20.00    -0.310 NA
HETATM    8  C5  UNL     1     -43.417   2.860  -2.880  1.00 20.00     0.176 C 
ENDBRANCH   2   6
TORSDOF 1
ENDMDL
MODEL 8
REMARK VINA RESULT:      -3.0     12.714     13.057
REMARK  1 active torsions:
REMARK  status: ('A' for Active; 'I' for Inactive)
REMARK    1  A    between atoms: C1_1  and  C3_3 
ROOT
HETATM    1  C2  UNL     1     -35.447   6.057   4.399  1.00 20.00     0.056 A 
HETATM    2  C3  UNL     1     -34.046   6.479   4.105  1.00 20.00     0.067 A 
HETATM    3  C4  UNL     1     -34.291   5.309   5.006  1.00 20.00     0.122 A 
HETATM    4 CL7  UNL     1     -34.055   5.437   6.745  1.00 20.00    -0.101 Cl
HETATM    5 CL8  UNL     1     -33.913   3.711   4.366  1.00 20.00    -0.101 Cl
ENDROOT
BRANCH   2   6
HETATM    6  C1  UNL     1     -33.562   7.777   4.668  1.00 20.00     0.090 C 
HETATM    7  N6  UNL     1     -32.347   8.161   4.485  1.00 20.00    -0.310 NA
HETATM    8  C5  UNL     1     -32.047   9.447   5.107  1.00 20.00     0.176 C 
ENDBRANCH   2   6
TORSDOF 1
ENDMDL
MODEL 9
REMARK VINA RESULT:      -2.9      1.814      2.246
REMARK  1 active torsions:
REMARK  status: ('A' for Active; 'I' for Inactive)
REMARK    1  A    between atoms: C1_1  and  C3_3 
ROOT
HETATM    1  C2  UNL     1     -33.459  16.965  -1.744  1.00 20.00     0.056 A 
HETATM    2  C3  UNL     1     -33.461  18.045  -0.713  1.00 20.00     0.067 A 
HETATM    3  C4  UNL     1     -33.840  18.370  -2.124  1.00 20.00     0.122 A 
HETATM    4 CL7  UNL     1     -32.747  19.261  -3.177  1.00 20.00    -0.101 Cl
HETATM    5 CL8  UNL     1     -35.541  18.709  -2.438  1.00 20.00    -0.101 Cl
ENDROOT
BRANCH   2   6
HETATM    6  C1  UNL     1     -32.147  18.501  -0.161  1.00 20.00     0.090 C 
HETATM    7  N6  UNL     1     -31.928  18.490   1.107  1.00 20.00    -0.310 NA
HETATM    8  C5  UNL     1     -30.598  18.972   1.468  1.00 20.00     0.176 C 
ENDBRANCH   2   6
TORSDOF 1
ENDMDL
