MODEL 1
REMARK VINA RESULT:      -4.5      0.000      0.000
REMARK  3 active torsions:
REMARK  status: ('A' for Active; 'I' for Inactive)
REMARK    1  A    between atoms: C8_8  and  C9_9 
REMARK    2  A    between atoms: C9_9  and  C10_10 
REMARK    3  A    between atoms: C10_10  and  O11_11 
ROOT
HETATM    1  C1  UNL     1     -31.736  19.061  -0.119  1.00 20.00     0.017 C 
HETATM    2  C2  UNL     1     -32.248  18.603  -1.103  1.00 20.00    -0.083 C 
HETATM    3  C3  UNL     1     -32.994  18.839  -3.359  1.00 20.00    -0.010 C 
HETATM    4  C4  UNL     1     -32.856  18.060  -2.274  1.00 20.00    -0.009 C 
HETATM    5  C5  UNL     1     -33.627  18.375  -4.640  1.00 20.00     0.033 C 
HETATM    6  C6  UNL     1     -33.308  16.622  -2.260  1.00 20.00     0.048 C 
HETATM    7  C7  UNL     1     -33.596  16.058  -3.655  1.00 20.00     0.010 C 
HETATM    8  C8  UNL     1     -34.401  17.055  -4.495  1.00 20.00    -0.009 C 
ENDROOT
BRANCH   8   9
HETATM    9  C9  UNL     1     -34.742  16.473  -5.865  1.00 20.00     0.031 C 
BRANCH   9  10
HETATM   10  C10 UNL     1     -34.251  15.044  -6.001  1.00 20.00     0.164 C 
BRANCH  10  11
HETATM   11  O11 UNL     1     -33.299  14.991  -7.055  1.00 20.00    -0.401 OA
HETATM   12  H25 UNL     1     -33.774  14.696  -7.848  1.00 20.00     0.209 HD
ENDBRANCH  10  11
ENDBRANCH   9  10
ENDBRANCH   8   9
TORSDOF 3
ENDMDL
MODEL 2
REMARK VINA RESULT:      -4.5      1.130      1.735
REMARK  3 active torsions:
REMARK  status: ('A' for Active; 'I' for Inactive)
REMARK    1  A    between atoms: C8_8  and  C9_9 
REMARK    2  A    between atoms: C9_9  and  C10_10 
REMARK    3  A    between atoms: C10_10  and  O11_11 
ROOT
HETATM    1  C1  UNL     1     -33.439  18.451   0.708  1.00 20.00     0.017 C 
HETATM    2  C2  UNL     1     -33.649  18.129  -0.430  1.00 20.00    -0.083 C 
HETATM    3  C3  UNL     1     -33.326  16.627  -2.259  1.00 20.00    -0.010 C 
HETATM    4  C4  UNL     1     -33.897  17.746  -1.781  1.00 20.00    -0.009 C 
HETATM    5  C5  UNL     1     -33.510  16.136  -3.666  1.00 20.00     0.033 C 
HETATM    6  C6  UNL     1     -34.808  18.600  -2.625  1.00 20.00     0.048 C 
HETATM    7  C7  UNL     1     -35.285  17.906  -3.906  1.00 20.00     0.010 C 
HETATM    8  C8  UNL     1     -34.126  17.187  -4.604  1.00 20.00    -0.009 C 
ENDROOT
BRANCH   8   9
HETATM    9  C9  UNL     1     -34.583  16.544  -5.911  1.00 20.00     0.031 C 
BRANCH   9  10
HETATM   10  C10 UNL     1     -34.354  15.044  -5.904  1.00 20.00     0.164 C 
BRANCH  10  11
HETATM   11  O11 UNL     1     -33.367  14.732  -6.878  1.00 20.00    -0.401 OA
HETATM   12  H25 UNL     1     -33.803  14.194  -7.558  1.00 20.00     0.209 HD
ENDBRANCH  10  11
ENDBRANCH   9  10
ENDBRANCH   8   9
TORSDOF 3
ENDMDL
MODEL 3
REMARK VINA RESULT:      -4.4      2.205      3.887
REMARK  3 active torsions:
REMARK  status: ('A' for Active; 'I' for Inactive)
REMARK    1  A    between atoms: C8_8  and  C9_9 
REMARK    2  A    between atoms: C9_9  and  C10_10 
REMARK    3  A    between atoms: C10_10  and  O11_11 
ROOT
HETATM    1  C1  UNL     1     -30.963  19.120   3.662  1.00 20.00     0.017 C 
HETATM    2  C2  UNL     1     -31.449  18.889   2.589  1.00 20.00    -0.083 C 
HETATM    3  C3  UNL     1     -33.362  18.496   1.215  1.00 20.00    -0.010 C 
HETATM    4  C4  UNL     1     -32.028  18.614   1.315  1.00 20.00    -0.009 C 
HETATM    5  C5  UNL     1     -34.076  18.199  -0.073  1.00 20.00     0.033 C 
HETATM    6  C6  UNL     1     -31.122  18.482   0.117  1.00 20.00     0.048 C 
HETATM    7  C7  UNL     1     -31.864  18.557  -1.222  1.00 20.00     0.010 C 
HETATM    8  C8  UNL     1     -33.140  17.710  -1.191  1.00 20.00    -0.009 C 
ENDROOT
BRANCH   8   9
HETATM    9  C9  UNL     1     -33.852  17.734  -2.542  1.00 20.00     0.031 C 
BRANCH   9  10
HETATM   10  C10 UNL     1     -33.315  16.662  -3.472  1.00 20.00     0.164 C 
BRANCH  10  11
HETATM   11  O11 UNL     1     -33.999  15.445  -3.203  1.00 20.00    -0.401 OA
HETATM   12  H25 UNL     1     -34.819  15.464  -3.721  1.00 20.00     0.209 HD
ENDBRANCH  10  11
ENDBRANCH   9  10
ENDBRANCH   8   9
TORSDOF 3
ENDMDL
MODEL 4
REMARK VINA RESULT:      -4.4     11.818     13.294
REMARK  3 active torsions:
REMARK  status: ('A' for Active; 'I' for Inactive)
REMARK    1  A    between atoms: C8_8  and  C9_9 
REMARK    2  A    between atoms: C9_9  and  C10_10 
REMARK    3  A    between atoms: C10_10  and  O11_11 
ROOT
HETATM    1  C1  UNL     1     -31.660   8.419   0.015  1.00 20.00     0.017 C 
HETATM    2  C2  UNL     1     -32.054   8.134   1.113  1.00 20.00    -0.083 C 
HETATM    3  C3  UNL     1     -32.810   6.511   2.693  1.00 20.00    -0.010 C 
HETATM    4  C4  UNL     1     -32.522   7.794   2.416  1.00 20.00    -0.009 C 
HETATM    5  C5  UNL     1     -33.319   6.043   4.027  1.00 20.00     0.033 C 
HETATM    6  C6  UNL     1     -32.662   8.885   3.448  1.00 20.00     0.048 C 
HETATM    7  C7  UNL     1     -32.811   8.358   4.879  1.00 20.00     0.010 C 
HETATM    8  C8  UNL     1     -33.799   7.188   4.933  1.00 20.00    -0.009 C 
ENDROOT
BRANCH   8   9
HETATM    9  C9  UNL     1     -33.996   6.699   6.366  1.00 20.00     0.031 C 
BRANCH   9  10
HETATM   10  C10 UNL     1     -34.280   5.209   6.411  1.00 20.00     0.164 C 
BRANCH  10  11
HETATM   11  O11 UNL     1     -35.366   4.928   5.538  1.00 20.00    -0.401 OA
HETATM   12  H25 UNL     1     -35.146   5.327   4.680  1.00 20.00     0.209 HD
ENDBRANCH  10  11
ENDBRANCH   9  10
ENDBRANCH   8   9
TORSDOF 3
ENDMDL
MODEL 5
REMARK VINA RESULT:      -4.3     11.165     12.470
REMARK  3 active torsions:
REMARK  status: ('A' for Active; 'I' for Inactive)
REMARK    1  A    between atoms: C8_8  and  C9_9 
REMARK    2  A    between atoms: C9_9  and  C10_10 
REMARK    3  A    between atoms: C10_10  and  O11_11 
ROOT
HETATM    1  C1  UNL     1     -34.886   5.446   6.757  1.00 20.00     0.017 C 
HETATM    2  C2  UNL     1     -34.356   5.937   5.799  1.00 20.00    -0.083 C 
HETATM    3  C3  UNL     1     -33.548   5.769   3.557  1.00 20.00    -0.010 C 
HETATM    4  C4  UNL     1     -33.727   6.518   4.658  1.00 20.00    -0.009 C 
HETATM    5  C5  UNL     1     -32.889   6.275   2.306  1.00 20.00     0.033 C 
HETATM    6  C6  UNL     1     -33.298   7.962   4.719  1.00 20.00     0.048 C 
HETATM    7  C7  UNL     1     -32.983   8.566   3.347  1.00 20.00     0.010 C 
HETATM    8  C8  UNL     1     -32.140   7.603   2.504  1.00 20.00    -0.009 C 
ENDROOT
BRANCH   8   9
HETATM    9  C9  UNL     1     -31.773   8.224   1.158  1.00 20.00     0.031 C 
BRANCH   9  10
HETATM   10  C10 UNL     1     -32.746   9.322   0.768  1.00 20.00     0.164 C 
BRANCH  10  11
HETATM   11  O11 UNL     1     -33.350   8.972  -0.470  1.00 20.00    -0.401 OA
HETATM   12  H25 UNL     1     -33.284   9.752  -1.044  1.00 20.00     0.209 HD
ENDBRANCH  10  11
ENDBRANCH   9  10
ENDBRANCH   8   9
TORSDOF 3
ENDMDL
MODEL 6
REMARK VINA RESULT:      -4.3      1.278      1.864
REMARK  3 active torsions:
REMARK  status: ('A' for Active; 'I' for Inactive)
REMARK    1  A    between atoms: C8_8  and  C9_9 
REMARK    2  A    between atoms: C9_9  and  C10_10 
REMARK    3  A    between atoms: C10_10  and  O11_11 
ROOT
HETATM    1  C1  UNL     1     -31.862  18.414  -0.396  1.00 20.00     0.017 C 
HETATM    2  C2  UNL     1     -32.513  18.052  -1.338  1.00 20.00    -0.083 C 
HETATM    3  C3  UNL     1     -33.169  16.351  -2.880  1.00 20.00    -0.010 C 
HETATM    4  C4  UNL     1     -33.286  17.620  -2.456  1.00 20.00    -0.009 C 
HETATM    5  C5  UNL     1     -33.926  15.793  -4.052  1.00 20.00     0.033 C 
HETATM    6  C6  UNL     1     -34.224  18.599  -3.115  1.00 20.00     0.048 C 
HETATM    7  C7  UNL     1     -35.249  17.936  -4.041  1.00 20.00     0.010 C 
HETATM    8  C8  UNL     1     -34.584  16.874  -4.924  1.00 20.00    -0.009 C 
ENDROOT
BRANCH   8   9
HETATM    9  C9  UNL     1     -35.589  16.253  -5.891  1.00 20.00     0.031 C 
BRANCH   9  10
HETATM   10  C10 UNL     1     -35.822  14.785  -5.585  1.00 20.00     0.164 C 
BRANCH  10  11
HETATM   11  O11 UNL     1     -35.910  14.075  -6.813  1.00 20.00    -0.401 OA
HETATM   12  H25 UNL     1     -36.294  14.685  -7.463  1.00 20.00     0.209 HD
ENDBRANCH  10  11
ENDBRANCH   9  10
ENDBRANCH   8   9
TORSDOF 3
ENDMDL
MODEL 7
REMARK VINA RESULT:      -4.2      2.534      4.997
REMARK  3 active torsions:
REMARK  status: ('A' for Active; 'I' for Inactive)
REMARK    1  A    between atoms: C8_8  and  C9_9 
REMARK    2  A    between atoms: C9_9  and  C10_10 
REMARK    3  A    between atoms: C10_10  and  O11_11 
ROOT
HETATM    1  C1  UNL     1     -35.508  14.800  -6.303  1.00 20.00     0.017 C 
HETATM    2  C2  UNL     1     -35.003  15.543  -5.506  1.00 20.00    -0.083 C 
HETATM    3  C3  UNL     1     -34.646  17.745  -4.652  1.00 20.00    -0.010 C 
HETATM    4  C4  UNL     1     -34.405  16.426  -4.559  1.00 20.00    -0.009 C 
HETATM    5  C5  UNL     1     -34.061  18.764  -3.717  1.00 20.00     0.033 C 
HETATM    6  C6  UNL     1     -33.535  15.848  -3.472  1.00 20.00     0.048 C 
HETATM    7  C7  UNL     1     -33.259  16.826  -2.324  1.00 20.00     0.010 C 
HETATM    8  C8  UNL     1     -32.908  18.217  -2.861  1.00 20.00    -0.009 C 
ENDROOT
BRANCH   8   9
HETATM    9  C9  UNL     1     -32.574  19.179  -1.723  1.00 20.00     0.031 C 
BRANCH   9  10
HETATM   10  C10 UNL     1     -31.995  18.446  -0.527  1.00 20.00     0.164 C 
BRANCH  10  11
HETATM   11  O11 UNL     1     -30.592  18.671  -0.494  1.00 20.00    -0.401 OA
HETATM   12  H25 UNL     1     -30.210  18.176  -1.237  1.00 20.00     0.209 HD
ENDBRANCH  10  11
ENDBRANCH   9  10
ENDBRANCH   8   9
TORSDOF 3
ENDMDL
MODEL 8
REMARK VINA RESULT:      -4.1      2.536      5.190
REMARK  3 active torsions:
REMARK  status: ('A' for Active; 'I' for Inactive)
REMARK    1  A    between atoms: C8_8  and  C9_9 
REMARK    2  A    between atoms: C9_9  and  C10_10 
REMARK    3  A    between atoms: C10_10  and  O11_11 
ROOT
HETATM    1  C1  UNL     1     -35.470  14.772  -6.233  1.00 20.00     0.017 C 
HETATM    2  C2  UNL     1     -34.960  15.547  -5.471  1.00 20.00    -0.083 C 
HETATM    3  C3  UNL     1     -33.723  15.992  -3.477  1.00 20.00    -0.010 C 
HETATM    4  C4  UNL     1     -34.354  16.466  -4.564  1.00 20.00    -0.009 C 
HETATM    5  C5  UNL     1     -33.059  16.868  -2.454  1.00 20.00     0.033 C 
HETATM    6  C6  UNL     1     -34.425  17.942  -4.866  1.00 20.00     0.048 C 
HETATM    7  C7  UNL     1     -33.444  18.783  -4.043  1.00 20.00     0.010 C 
HETATM    8  C8  UNL     1     -33.449  18.350  -2.573  1.00 20.00    -0.009 C 
ENDROOT
BRANCH   8   9
HETATM    9  C9  UNL     1     -32.518  19.225  -1.738  1.00 20.00     0.031 C 
BRANCH   9  10
HETATM   10  C10 UNL     1     -32.050  18.504  -0.487  1.00 20.00     0.164 C 
BRANCH  10  11
HETATM   11  O11 UNL     1     -30.634  18.602  -0.411  1.00 20.00    -0.401 OA
HETATM   12  H25 UNL     1     -30.411  18.716   0.527  1.00 20.00     0.209 HD
ENDBRANCH  10  11
ENDBRANCH   9  10
ENDBRANCH   8   9
TORSDOF 3
ENDMDL
MODEL 9
REMARK VINA RESULT:      -3.6     13.899     15.153
REMARK  3 active torsions:
REMARK  status: ('A' for Active; 'I' for Inactive)
REMARK    1  A    between atoms: C8_8  and  C9_9 
REMARK    2  A    between atoms: C9_9  and  C10_10 
REMARK    3  A    between atoms: C10_10  and  O11_11 
ROOT
HETATM    1  C1  UNL     1     -39.292  11.744   4.220  1.00 20.00     0.017 C 
HETATM    2  C2  UNL     1     -39.873  12.240   5.146  1.00 20.00    -0.083 C 
HETATM    3  C3  UNL     1     -39.974  13.833   6.923  1.00 20.00    -0.010 C 
HETATM    4  C4  UNL     1     -40.561  12.832   6.247  1.00 20.00    -0.009 C 
HETATM    5  C5  UNL     1     -40.602  14.520   8.102  1.00 20.00     0.033 C 
HETATM    6  C6  UNL     1     -41.935  12.324   6.605  1.00 20.00     0.048 C 
HETATM    7  C7  UNL     1     -42.709  13.260   7.539  1.00 20.00     0.010 C 
HETATM    8  C8  UNL     1     -41.812  13.765   8.675  1.00 20.00    -0.009 C 
ENDROOT
BRANCH   8   9
HETATM    9  C9  UNL     1     -42.595  14.650   9.643  1.00 20.00     0.031 C 
BRANCH   9  10
HETATM   10  C10 UNL     1     -42.475  14.153  11.072  1.00 20.00     0.164 C 
BRANCH  10  11
HETATM   11  O11 UNL     1     -41.562  13.063  11.097  1.00 20.00    -0.401 OA
HETATM   12  H25 UNL     1     -41.537  12.739  12.012  1.00 20.00     0.209 HD
ENDBRANCH  10  11
ENDBRANCH   9  10
ENDBRANCH   8   9
TORSDOF 3
ENDMDL
