MODEL 1
REMARK VINA RESULT:      -3.9      0.000      0.000
REMARK  1 active torsions:
REMARK  status: ('A' for Active; 'I' for Inactive)
REMARK    1  A    between atoms: C2_2  and  C8_8 
ROOT
HETATM    1  C1  UNL     1     -33.397  15.636  -4.084  1.00 20.00     0.136 C 
HETATM    2  C3  UNL     1     -33.632  16.222  -2.712  1.00 20.00     0.079 C 
HETATM    3  C4  UNL     1     -33.723  17.743  -2.766  1.00 20.00     0.007 C 
HETATM    4  C5  UNL     1     -34.766  18.215  -3.778  1.00 20.00     0.002 C 
HETATM    5  C6  UNL     1     -34.439  17.696  -5.178  1.00 20.00     0.018 C 
HETATM    6  C7  UNL     1     -34.334  15.480  -6.498  1.00 20.00     0.030 A 
HETATM    7  C8  UNL     1     -35.508  15.364  -5.567  1.00 20.00     0.064 A 
HETATM    8  C9  UNL     1     -34.291  16.186  -5.158  1.00 20.00     0.031 A 
HETATM    9  O10 UNL     1     -32.592  14.739  -4.302  1.00 20.00    -0.297 OA
ENDROOT
BRANCH   7  10
HETATM   10  C2  UNL     1     -35.792  14.075  -4.922  1.00 20.00     0.236 C 
HETATM   11  O11 UNL     1     -36.916  13.723  -4.581  1.00 20.00    -0.306 OA
ENDBRANCH   7  10
TORSDOF 1
ENDMDL
MODEL 2
REMARK VINA RESULT:      -3.8     11.280     12.580
REMARK  1 active torsions:
REMARK  status: ('A' for Active; 'I' for Inactive)
REMARK    1  A    between atoms: C2_2  and  C8_8 
ROOT
HETATM    1  C1  UNL     1     -33.316   6.216   3.655  1.00 20.00     0.136 C 
HETATM    2  C3  UNL     1     -34.733   5.848   4.027  1.00 20.00     0.079 C 
HETATM    3  C4  UNL     1     -34.914   5.795   5.541  1.00 20.00     0.007 C 
HETATM    4  C5  UNL     1     -34.461   7.091   6.213  1.00 20.00     0.002 C 
HETATM    5  C6  UNL     1     -32.992   7.378   5.907  1.00 20.00     0.018 C 
HETATM    6  C7  UNL     1     -31.465   8.013   3.924  1.00 20.00     0.030 A 
HETATM    7  C8  UNL     1     -32.759   8.749   3.716  1.00 20.00     0.064 A 
HETATM    8  C9  UNL     1     -32.759   7.390   4.408  1.00 20.00     0.031 A 
HETATM    9  O10 UNL     1     -32.687   5.652   2.768  1.00 20.00    -0.297 OA
ENDROOT
BRANCH   7  10
HETATM   10  C2  UNL     1     -33.293   8.896   2.356  1.00 20.00     0.236 C 
HETATM   11  O11 UNL     1     -32.901   9.748   1.564  1.00 20.00    -0.306 OA
ENDBRANCH   7  10
TORSDOF 1
ENDMDL
MODEL 3
REMARK VINA RESULT:      -3.8      1.900      2.460
REMARK  1 active torsions:
REMARK  status: ('A' for Active; 'I' for Inactive)
REMARK    1  A    between atoms: C2_2  and  C8_8 
ROOT
HETATM    1  C1  UNL     1     -34.867  15.296  -5.763  1.00 20.00     0.136 C 
HETATM    2  C3  UNL     1     -34.341  14.547  -4.562  1.00 20.00     0.079 C 
HETATM    3  C4  UNL     1     -33.237  15.331  -3.858  1.00 20.00     0.007 C 
HETATM    4  C5  UNL     1     -33.685  16.748  -3.503  1.00 20.00     0.002 C 
HETATM    5  C6  UNL     1     -34.106  17.516  -4.755  1.00 20.00     0.018 C 
HETATM    6  C7  UNL     1     -35.956  17.513  -6.555  1.00 20.00     0.030 A 
HETATM    7  C8  UNL     1     -36.623  17.138  -5.262  1.00 20.00     0.064 A 
HETATM    8  C9  UNL     1     -35.171  16.745  -5.512  1.00 20.00     0.031 A 
HETATM    9  O10 UNL     1     -35.092  14.760  -6.842  1.00 20.00    -0.297 OA
ENDROOT
BRANCH   7  10
HETATM   10  C2  UNL     1     -37.685  16.124  -5.265  1.00 20.00     0.236 C 
HETATM   11  O11 UNL     1     -38.583  16.089  -6.100  1.00 20.00    -0.306 OA
ENDBRANCH   7  10
TORSDOF 1
ENDMDL
MODEL 4
REMARK VINA RESULT:      -3.7      1.984      3.144
REMARK  1 active torsions:
REMARK  status: ('A' for Active; 'I' for Inactive)
REMARK    1  A    between atoms: C2_2  and  C8_8 
ROOT
HETATM    1  C1  UNL     1     -35.306  16.865  -4.771  1.00 20.00     0.136 C 
HETATM    2  C3  UNL     1     -34.194  17.638  -4.103  1.00 20.00     0.079 C 
HETATM    3  C4  UNL     1     -33.416  16.762  -3.127  1.00 20.00     0.007 C 
HETATM    4  C5  UNL     1     -32.909  15.483  -3.792  1.00 20.00     0.002 C 
HETATM    5  C6  UNL     1     -34.069  14.668  -4.361  1.00 20.00     0.018 C 
HETATM    6  C7  UNL     1     -35.851  14.788  -6.226  1.00 20.00     0.030 A 
HETATM    7  C8  UNL     1     -34.601  15.400  -6.793  1.00 20.00     0.064 A 
HETATM    8  C9  UNL     1     -34.899  15.521  -5.303  1.00 20.00     0.031 A 
HETATM    9  O10 UNL     1     -36.434  17.315  -4.930  1.00 20.00    -0.297 OA
ENDROOT
BRANCH   7  10
HETATM   10  C2  UNL     1     -34.708  16.570  -7.675  1.00 20.00     0.236 C 
HETATM   11  O11 UNL     1     -33.769  17.322  -7.917  1.00 20.00    -0.306 OA
ENDBRANCH   7  10
TORSDOF 1
ENDMDL
MODEL 5
REMARK VINA RESULT:      -3.7     12.771     13.772
REMARK  1 active torsions:
REMARK  status: ('A' for Active; 'I' for Inactive)
REMARK    1  A    between atoms: C2_2  and  C8_8 
ROOT
HETATM    1  C1  UNL     1     -40.950  14.314   7.428  1.00 20.00     0.136 C 
HETATM    2  C3  UNL     1     -41.237  13.996   8.876  1.00 20.00     0.079 C 
HETATM    3  C4  UNL     1     -42.713  13.682   9.094  1.00 20.00     0.007 C 
HETATM    4  C5  UNL     1     -43.205  12.581   8.156  1.00 20.00     0.002 C 
HETATM    5  C6  UNL     1     -43.002  12.980   6.695  1.00 20.00     0.018 C 
HETATM    6  C7  UNL     1     -41.102  13.410   5.001  1.00 20.00     0.030 A 
HETATM    7  C8  UNL     1     -40.650  12.266   5.865  1.00 20.00     0.064 A 
HETATM    8  C9  UNL     1     -41.551  13.349   6.447  1.00 20.00     0.031 A 
HETATM    9  O10 UNL     1     -40.234  15.242   7.074  1.00 20.00    -0.297 OA
ENDROOT
BRANCH   7  10
HETATM   10  C2  UNL     1     -39.238  12.175   6.259  1.00 20.00     0.236 C 
HETATM   11  O11 UNL     1     -38.307  12.255   5.464  1.00 20.00    -0.306 OA
ENDBRANCH   7  10
TORSDOF 1
ENDMDL
MODEL 6
REMARK VINA RESULT:      -3.5      2.452      4.075
REMARK  1 active torsions:
REMARK  status: ('A' for Active; 'I' for Inactive)
REMARK    1  A    between atoms: C2_2  and  C8_8 
ROOT
HETATM    1  C1  UNL     1     -34.615  17.388  -4.986  1.00 20.00     0.136 C 
HETATM    2  C3  UNL     1     -35.559  16.250  -5.295  1.00 20.00     0.079 C 
HETATM    3  C4  UNL     1     -34.828  14.911  -5.310  1.00 20.00     0.007 C 
HETATM    4  C5  UNL     1     -34.047  14.676  -4.018  1.00 20.00     0.002 C 
HETATM    5  C6  UNL     1     -33.023  15.787  -3.790  1.00 20.00     0.018 C 
HETATM    6  C7  UNL     1     -32.920  18.310  -3.252  1.00 20.00     0.030 A 
HETATM    7  C8  UNL     1     -34.082  17.757  -2.474  1.00 20.00     0.064 A 
HETATM    8  C9  UNL     1     -33.704  17.143  -3.817  1.00 20.00     0.031 A 
HETATM    9  O10 UNL     1     -34.627  18.453  -5.591  1.00 20.00    -0.297 OA
ENDROOT
BRANCH   7  10
HETATM   10  C2  UNL     1     -35.304  18.560  -2.336  1.00 20.00     0.236 C 
HETATM   11  O11 UNL     1     -35.543  19.263  -1.359  1.00 20.00    -0.306 OA
ENDBRANCH   7  10
TORSDOF 1
ENDMDL
MODEL 7
REMARK VINA RESULT:      -3.4     13.563     14.466
REMARK  1 active torsions:
REMARK  status: ('A' for Active; 'I' for Inactive)
REMARK    1  A    between atoms: C2_2  and  C8_8 
ROOT
HETATM    1  C1  UNL     1     -40.692  14.316   8.060  1.00 20.00     0.136 C 
HETATM    2  C3  UNL     1     -40.531  15.721   8.590  1.00 20.00     0.079 C 
HETATM    3  C4  UNL     1     -40.676  16.754   7.477  1.00 20.00     0.007 C 
HETATM    4  C5  UNL     1     -41.981  16.577   6.703  1.00 20.00     0.002 C 
HETATM    5  C6  UNL     1     -42.063  15.181   6.087  1.00 20.00     0.018 C 
HETATM    6  C7  UNL     1     -42.287  12.709   6.795  1.00 20.00     0.030 A 
HETATM    7  C8  UNL     1     -43.135  13.503   7.749  1.00 20.00     0.064 A 
HETATM    8  C9  UNL     1     -41.875  14.122   7.156  1.00 20.00     0.031 A 
HETATM    9  O10 UNL     1     -39.961  13.389   8.386  1.00 20.00    -0.297 OA
ENDROOT
BRANCH   7  10
HETATM   10  C2  UNL     1     -43.183  13.114   9.165  1.00 20.00     0.236 C 
HETATM   11  O11 UNL     1     -43.237  11.949   9.545  1.00 20.00    -0.306 OA
ENDBRANCH   7  10
TORSDOF 1
ENDMDL
MODEL 8
REMARK VINA RESULT:      -3.3      2.941      4.524
REMARK  1 active torsions:
REMARK  status: ('A' for Active; 'I' for Inactive)
REMARK    1  A    between atoms: C2_2  and  C8_8 
ROOT
HETATM    1  C1  UNL     1     -32.406  18.891  -1.151  1.00 20.00     0.136 C 
HETATM    2  C3  UNL     1     -32.020  18.489   0.253  1.00 20.00     0.079 C 
HETATM    3  C4  UNL     1     -32.982  19.073   1.282  1.00 20.00     0.007 C 
HETATM    4  C5  UNL     1     -34.435  18.725   0.964  1.00 20.00     0.002 C 
HETATM    5  C6  UNL     1     -34.828  19.243  -0.420  1.00 20.00     0.018 C 
HETATM    6  C7  UNL     1     -34.308  18.829  -2.914  1.00 20.00     0.030 A 
HETATM    7  C8  UNL     1     -34.288  17.482  -2.248  1.00 20.00     0.064 A 
HETATM    8  C9  UNL     1     -33.864  18.723  -1.469  1.00 20.00     0.031 A 
HETATM    9  O10 UNL     1     -31.594  19.263  -1.989  1.00 20.00    -0.297 OA
ENDROOT
BRANCH   7  10
HETATM   10  C2  UNL     1     -33.294  16.485  -2.667  1.00 20.00     0.236 C 
HETATM   11  O11 UNL     1     -33.499  15.656  -3.547  1.00 20.00    -0.306 OA
ENDBRANCH   7  10
TORSDOF 1
ENDMDL
MODEL 9
REMARK VINA RESULT:      -3.3      2.344      2.944
REMARK  1 active torsions:
REMARK  status: ('A' for Active; 'I' for Inactive)
REMARK    1  A    between atoms: C2_2  and  C8_8 
ROOT
HETATM    1  C1  UNL     1     -33.756  16.924  -3.509  1.00 20.00     0.136 C 
HETATM    2  C3  UNL     1     -33.596  16.904  -2.007  1.00 20.00     0.079 C 
HETATM    3  C4  UNL     1     -32.487  17.847  -1.554  1.00 20.00     0.007 C 
HETATM    4  C5  UNL     1     -32.688  19.263  -2.092  1.00 20.00     0.002 C 
HETATM    5  C6  UNL     1     -32.735  19.263  -3.619  1.00 20.00     0.018 C 
HETATM    6  C7  UNL     1     -34.227  18.442  -5.559  1.00 20.00     0.030 A 
HETATM    7  C8  UNL     1     -35.158  18.885  -4.466  1.00 20.00     0.064 A 
HETATM    8  C9  UNL     1     -33.796  18.298  -4.114  1.00 20.00     0.031 A 
HETATM    9  O10 UNL     1     -33.906  15.911  -4.181  1.00 20.00    -0.297 OA
ENDROOT
BRANCH   7  10
HETATM   10  C2  UNL     1     -36.389  18.124  -4.215  1.00 20.00     0.236 C 
HETATM   11  O11 UNL     1     -37.197  18.417  -3.339  1.00 20.00    -0.306 OA
ENDBRANCH   7  10
TORSDOF 1
ENDMDL
