MODEL 1
REMARK VINA RESULT:      -4.1      0.000      0.000
REMARK  2 active torsions:
REMARK  status: ('A' for Active; 'I' for Inactive)
REMARK    1  A    between atoms: C4_4  and  O10_10 
REMARK    2  A    between atoms: C5_5  and  C6_6 
ROOT
HETATM    1  C1  UNL     1     -33.094  18.924   1.371  1.00 20.00     0.040 A 
HETATM    2  C2  UNL     1     -33.387  19.014   0.014  1.00 20.00     0.034 A 
HETATM    3  C3  UNL     1     -30.816  18.549   0.802  1.00 20.00     0.153 A 
HETATM    4  C4  UNL     1     -31.786  18.686   1.780  1.00 20.00     0.083 A 
HETATM    5  C5  UNL     1     -32.343  18.862  -0.885  1.00 20.00     0.056 A 
HETATM    6  N9  UNL     1     -31.061  18.631  -0.526  1.00 20.00    -0.258 NA
ENDROOT
BRANCH   5   7
HETATM    7  C6  UNL     1     -32.599  18.948  -2.313  1.00 20.00     0.027 C 
HETATM    8  C7  UNL     1     -33.046  17.943  -3.101  1.00 20.00    -0.029 C 
HETATM    9  C8  UNL     1     -33.352  16.567  -2.609  1.00 20.00     0.036 C 
ENDBRANCH   5   7
BRANCH   4  10
HETATM   10  O10 UNL     1     -31.472  18.593   3.095  1.00 20.00    -0.359 OA
HETATM   11  H19 UNL     1     -31.202  17.686   3.319  1.00 20.00     0.217 HD
ENDBRANCH   4  10
TORSDOF 2
ENDMDL
MODEL 2
REMARK VINA RESULT:      -4.0     11.105     11.735
REMARK  2 active torsions:
REMARK  status: ('A' for Active; 'I' for Inactive)
REMARK    1  A    between atoms: C4_4  and  O10_10 
REMARK    2  A    between atoms: C5_5  and  C6_6 
ROOT
HETATM    1  C1  UNL     1     -32.996   8.301   5.354  1.00 20.00     0.040 A 
HETATM    2  C2  UNL     1     -32.366   8.426   4.121  1.00 20.00     0.034 A 
HETATM    3  C3  UNL     1     -33.947   6.254   4.603  1.00 20.00     0.153 A 
HETATM    4  C4  UNL     1     -33.804   7.197   5.608  1.00 20.00     0.083 A 
HETATM    5  C5  UNL     1     -32.573   7.426   3.183  1.00 20.00     0.056 A 
HETATM    6  N9  UNL     1     -33.350   6.340   3.393  1.00 20.00    -0.258 NA
ENDROOT
BRANCH   5   7
HETATM    7  C6  UNL     1     -31.936   7.512   1.880  1.00 20.00     0.027 C 
HETATM    8  C7  UNL     1     -32.111   8.502   0.975  1.00 20.00    -0.029 C 
HETATM    9  C8  UNL     1     -33.004   9.681   1.187  1.00 20.00     0.036 C 
ENDBRANCH   5   7
BRANCH   4  10
HETATM   10  O10 UNL     1     -34.431   7.050   6.800  1.00 20.00    -0.359 OA
HETATM   11  H19 UNL     1     -35.388   7.188   6.703  1.00 20.00     0.217 HD
ENDBRANCH   4  10
TORSDOF 2
ENDMDL
MODEL 3
REMARK VINA RESULT:      -4.0      4.521      6.379
REMARK  2 active torsions:
REMARK  status: ('A' for Active; 'I' for Inactive)
REMARK    1  A    between atoms: C4_4  and  O10_10 
REMARK    2  A    between atoms: C5_5  and  C6_6 
ROOT
HETATM    1  C1  UNL     1     -34.024  14.534  -4.560  1.00 20.00     0.040 A 
HETATM    2  C2  UNL     1     -33.323  15.546  -3.912  1.00 20.00     0.034 A 
HETATM    3  C3  UNL     1     -35.499  16.184  -5.430  1.00 20.00     0.153 A 
HETATM    4  C4  UNL     1     -35.134  14.851  -5.335  1.00 20.00     0.083 A 
HETATM    5  C5  UNL     1     -33.770  16.849  -4.072  1.00 20.00     0.056 A 
HETATM    6  N9  UNL     1     -34.843  17.195  -4.817  1.00 20.00    -0.258 NA
ENDROOT
BRANCH   5   7
HETATM    7  C6  UNL     1     -33.071  17.941  -3.415  1.00 20.00     0.027 C 
HETATM    8  C7  UNL     1     -33.058  18.187  -2.084  1.00 20.00    -0.029 C 
HETATM    9  C8  UNL     1     -33.774  17.355  -1.072  1.00 20.00     0.036 C 
ENDBRANCH   5   7
BRANCH   4  10
HETATM   10  O10 UNL     1     -35.835  13.886  -5.978  1.00 20.00    -0.359 OA
HETATM   11  H19 UNL     1     -36.002  14.142  -6.901  1.00 20.00     0.217 HD
ENDBRANCH   4  10
TORSDOF 2
ENDMDL
MODEL 4
REMARK VINA RESULT:      -4.0     11.808     12.609
REMARK  2 active torsions:
REMARK  status: ('A' for Active; 'I' for Inactive)
REMARK    1  A    between atoms: C4_4  and  O10_10 
REMARK    2  A    between atoms: C5_5  and  C6_6 
ROOT
HETATM    1  C1  UNL     1     -32.495   8.964   3.090  1.00 20.00     0.040 A 
HETATM    2  C2  UNL     1     -32.938   8.723   4.386  1.00 20.00     0.034 A 
HETATM    3  C3  UNL     1     -32.580   6.623   2.680  1.00 20.00     0.153 A 
HETATM    4  C4  UNL     1     -32.309   7.900   2.215  1.00 20.00     0.083 A 
HETATM    5  C5  UNL     1     -33.181   7.408   4.753  1.00 20.00     0.056 A 
HETATM    6  N9  UNL     1     -33.013   6.349   3.931  1.00 20.00    -0.258 NA
ENDROOT
BRANCH   5   7
HETATM    7  C6  UNL     1     -33.646   7.105   6.097  1.00 20.00     0.027 C 
HETATM    8  C7  UNL     1     -34.500   6.111   6.434  1.00 20.00    -0.029 C 
HETATM    9  C8  UNL     1     -35.104   5.157   5.456  1.00 20.00     0.036 C 
ENDBRANCH   5   7
BRANCH   4  10
HETATM   10  O10 UNL     1     -31.878   8.105   0.946  1.00 20.00    -0.359 OA
HETATM   11  H19 UNL     1     -32.262   8.922   0.583  1.00 20.00     0.217 HD
ENDBRANCH   4  10
TORSDOF 2
ENDMDL
MODEL 5
REMARK VINA RESULT:      -4.0      3.325      5.018
REMARK  2 active torsions:
REMARK  status: ('A' for Active; 'I' for Inactive)
REMARK    1  A    between atoms: C4_4  and  O10_10 
REMARK    2  A    between atoms: C5_5  and  C6_6 
ROOT
HETATM    1  C1  UNL     1     -33.460  16.480  -3.471  1.00 20.00     0.040 A 
HETATM    2  C2  UNL     1     -33.396  16.651  -2.092  1.00 20.00     0.034 A 
HETATM    3  C3  UNL     1     -34.338  18.682  -3.653  1.00 20.00     0.153 A 
HETATM    4  C4  UNL     1     -33.939  17.510  -4.273  1.00 20.00     0.083 A 
HETATM    5  C5  UNL     1     -33.819  17.864  -1.570  1.00 20.00     0.056 A 
HETATM    6  N9  UNL     1     -34.290  18.887  -2.317  1.00 20.00    -0.258 NA
ENDROOT
BRANCH   5   7
HETATM    7  C6  UNL     1     -33.772  18.091  -0.135  1.00 20.00     0.027 C 
HETATM    8  C7  UNL     1     -32.683  18.475   0.571  1.00 20.00    -0.029 C 
HETATM    9  C8  UNL     1     -31.341  18.729  -0.032  1.00 20.00     0.036 C 
ENDBRANCH   5   7
BRANCH   4  10
HETATM   10  O10 UNL     1     -34.012  17.370  -5.619  1.00 20.00    -0.359 OA
HETATM   11  H19 UNL     1     -34.745  17.898  -5.978  1.00 20.00     0.217 HD
ENDBRANCH   4  10
TORSDOF 2
ENDMDL
MODEL 6
REMARK VINA RESULT:      -3.8     11.160     11.848
REMARK  2 active torsions:
REMARK  status: ('A' for Active; 'I' for Inactive)
REMARK    1  A    between atoms: C4_4  and  O10_10 
REMARK    2  A    between atoms: C5_5  and  C6_6 
ROOT
HETATM    1  C1  UNL     1     -34.054   6.038   4.519  1.00 20.00     0.040 A 
HETATM    2  C2  UNL     1     -33.420   6.174   3.289  1.00 20.00     0.034 A 
HETATM    3  C3  UNL     1     -32.980   8.035   5.236  1.00 20.00     0.153 A 
HETATM    4  C4  UNL     1     -33.835   6.981   5.517  1.00 20.00     0.083 A 
HETATM    5  C5  UNL     1     -32.584   7.265   3.109  1.00 20.00     0.056 A 
HETATM    6  N9  UNL     1     -32.347   8.202   4.053  1.00 20.00    -0.258 NA
ENDROOT
BRANCH   5   7
HETATM    7  C6  UNL     1     -31.898   7.451   1.840  1.00 20.00     0.027 C 
HETATM    8  C7  UNL     1     -32.075   8.487   0.988  1.00 20.00    -0.029 C 
HETATM    9  C8  UNL     1     -33.020   9.619   1.231  1.00 20.00     0.036 C 
ENDBRANCH   5   7
BRANCH   4  10
HETATM   10  O10 UNL     1     -34.440   6.874   6.725  1.00 20.00    -0.359 OA
HETATM   11  H19 UNL     1     -34.971   7.666   6.913  1.00 20.00     0.217 HD
ENDBRANCH   4  10
TORSDOF 2
ENDMDL
MODEL 7
REMARK VINA RESULT:      -3.8      4.491      6.307
REMARK  2 active torsions:
REMARK  status: ('A' for Active; 'I' for Inactive)
REMARK    1  A    between atoms: C4_4  and  O10_10 
REMARK    2  A    between atoms: C5_5  and  C6_6 
ROOT
HETATM    1  C1  UNL     1     -35.683  16.242  -5.451  1.00 20.00     0.040 A 
HETATM    2  C2  UNL     1     -34.992  17.254  -4.792  1.00 20.00     0.034 A 
HETATM    3  C3  UNL     1     -33.976  14.720  -4.796  1.00 20.00     0.153 A 
HETATM    4  C4  UNL     1     -35.172  14.949  -5.458  1.00 20.00     0.083 A 
HETATM    5  C5  UNL     1     -33.804  16.921  -4.160  1.00 20.00     0.056 A 
HETATM    6  N9  UNL     1     -33.277  15.677  -4.145  1.00 20.00    -0.258 NA
ENDROOT
BRANCH   5   7
HETATM    7  C6  UNL     1     -33.045  17.943  -3.459  1.00 20.00     0.027 C 
HETATM    8  C7  UNL     1     -33.021  18.133  -2.119  1.00 20.00    -0.029 C 
HETATM    9  C8  UNL     1     -33.786  17.302  -1.142  1.00 20.00     0.036 C 
ENDBRANCH   5   7
BRANCH   4  10
HETATM   10  O10 UNL     1     -35.824  13.943  -6.091  1.00 20.00    -0.359 OA
HETATM   11  H19 UNL     1     -36.706  13.811  -5.704  1.00 20.00     0.217 HD
ENDBRANCH   4  10
TORSDOF 2
ENDMDL
MODEL 8
REMARK VINA RESULT:      -3.7      5.534      6.652
REMARK  2 active torsions:
REMARK  status: ('A' for Active; 'I' for Inactive)
REMARK    1  A    between atoms: C4_4  and  O10_10 
REMARK    2  A    between atoms: C5_5  and  C6_6 
ROOT
HETATM    1  C1  UNL     1     -34.116  14.515  -3.983  1.00 20.00     0.040 A 
HETATM    2  C2  UNL     1     -33.753  15.849  -4.135  1.00 20.00     0.034 A 
HETATM    3  C3  UNL     1     -36.023  14.933  -5.341  1.00 20.00     0.153 A 
HETATM    4  C4  UNL     1     -35.272  14.041  -4.594  1.00 20.00     0.083 A 
HETATM    5  C5  UNL     1     -34.573  16.660  -4.904  1.00 20.00     0.056 A 
HETATM    6  N9  UNL     1     -35.702  16.235  -5.513  1.00 20.00    -0.258 NA
ENDROOT
BRANCH   5   7
HETATM    7  C6  UNL     1     -34.235  18.061  -5.093  1.00 20.00     0.027 C 
HETATM    8  C7  UNL     1     -34.630  19.085  -4.301  1.00 20.00    -0.029 C 
HETATM    9  C8  UNL     1     -35.487  18.924  -3.089  1.00 20.00     0.036 C 
ENDBRANCH   5   7
BRANCH   4  10
HETATM   10  O10 UNL     1     -35.650  12.746  -4.463  1.00 20.00    -0.359 OA
HETATM   11  H19 UNL     1     -36.178  12.624  -3.656  1.00 20.00     0.217 HD
ENDBRANCH   4  10
TORSDOF 2
ENDMDL
MODEL 9
REMARK VINA RESULT:      -3.6      5.246      6.194
REMARK  2 active torsions:
REMARK  status: ('A' for Active; 'I' for Inactive)
REMARK    1  A    between atoms: C4_4  and  O10_10 
REMARK    2  A    between atoms: C5_5  and  C6_6 
ROOT
HETATM    1  C1  UNL     1     -33.292  15.823  -3.640  1.00 20.00     0.040 A 
HETATM    2  C2  UNL     1     -33.836  17.096  -3.779  1.00 20.00     0.034 A 
HETATM    3  C3  UNL     1     -34.182  15.266  -5.773  1.00 20.00     0.153 A 
HETATM    4  C4  UNL     1     -33.464  14.885  -4.651  1.00 20.00     0.083 A 
HETATM    5  C5  UNL     1     -34.538  17.377  -4.941  1.00 20.00     0.056 A 
HETATM    6  N9  UNL     1     -34.725  16.492  -5.945  1.00 20.00    -0.258 NA
ENDROOT
BRANCH   5   7
HETATM    7  C6  UNL     1     -35.125  18.693  -5.133  1.00 20.00     0.027 C 
HETATM    8  C7  UNL     1     -36.385  19.055  -4.797  1.00 20.00    -0.029 C 
HETATM    9  C8  UNL     1     -37.379  18.138  -4.165  1.00 20.00     0.036 C 
ENDBRANCH   5   7
BRANCH   4  10
HETATM   10  O10 UNL     1     -32.945  13.638  -4.543  1.00 20.00    -0.359 OA
HETATM   11  H19 UNL     1     -33.388  13.143  -3.832  1.00 20.00     0.217 HD
ENDBRANCH   4  10
TORSDOF 2
ENDMDL
