MODEL 1
REMARK VINA RESULT:      -4.0      0.000      0.000
REMARK  1 active torsions:
REMARK  status: ('A' for Active; 'I' for Inactive)
REMARK    1  A    between atoms: C3_3  and  C7_7 
ROOT
HETATM    1  C1  UNL     1     -34.684  16.804  -4.761  1.00 20.00    -0.020 C 
HETATM    2  C2  UNL     1     -33.976  15.952  -4.000  1.00 20.00    -0.086 C 
HETATM    3  C4  UNL     1     -33.205  16.409  -2.786  1.00 20.00     0.049 C 
HETATM    4  C5  UNL     1     -34.344  18.647  -3.064  1.00 20.00     0.023 C 
HETATM    5  C6  UNL     1     -34.817  18.279  -4.480  1.00 20.00     0.005 C 
HETATM    6  C7  UNL     1     -33.044  17.931  -2.695  1.00 20.00     0.091 C 
HETATM    7  C8  UNL     1     -33.910  14.484  -4.306  1.00 20.00     0.043 C 
HETATM    8  C9  UNL     1     -34.072  19.079  -5.550  1.00 20.00     0.014 C 
ENDROOT
BRANCH   6   9
HETATM    9  C3  UNL     1     -32.630  18.304  -1.304  1.00 20.00     0.177 C 
HETATM   10  O10 UNL     1     -31.553  18.957  -1.220  1.00 20.00    -0.648 OA
HETATM   11  O11 UNL     1     -33.415  17.917  -0.396  1.00 20.00    -0.648 OA
ENDBRANCH   6   9
TORSDOF 1
ENDMDL
MODEL 2
REMARK VINA RESULT:      -4.0      2.732      3.874
REMARK  1 active torsions:
REMARK  status: ('A' for Active; 'I' for Inactive)
REMARK    1  A    between atoms: C3_3  and  C7_7 
ROOT
HETATM    1  C1  UNL     1     -34.302  18.585  -3.119  1.00 20.00    -0.020 C 
HETATM    2  C2  UNL     1     -33.573  17.628  -2.521  1.00 20.00    -0.086 C 
HETATM    3  C4  UNL     1     -33.373  16.266  -3.138  1.00 20.00     0.049 C 
HETATM    4  C5  UNL     1     -34.449  17.195  -5.227  1.00 20.00     0.023 C 
HETATM    5  C6  UNL     1     -34.965  18.428  -4.464  1.00 20.00     0.005 C 
HETATM    6  C7  UNL     1     -34.316  15.977  -4.312  1.00 20.00     0.091 C 
HETATM    7  C8  UNL     1     -32.904  17.854  -1.197  1.00 20.00     0.043 C 
HETATM    8  C9  UNL     1     -36.485  18.390  -4.292  1.00 20.00     0.014 C 
ENDROOT
BRANCH   6   9
HETATM    9  C3  UNL     1     -33.796  14.807  -5.091  1.00 20.00     0.177 C 
HETATM   10  O10 UNL     1     -34.004  14.852  -6.334  1.00 20.00    -0.648 OA
HETATM   11  O11 UNL     1     -33.214  13.926  -4.398  1.00 20.00    -0.648 OA
ENDBRANCH   6   9
TORSDOF 1
ENDMDL
MODEL 3
REMARK VINA RESULT:      -4.0     11.692     13.309
REMARK  1 active torsions:
REMARK  status: ('A' for Active; 'I' for Inactive)
REMARK    1  A    between atoms: C3_3  and  C7_7 
ROOT
HETATM    1  C1  UNL     1     -34.337   5.027   4.385  1.00 20.00    -0.020 C 
HETATM    2  C2  UNL     1     -34.294   5.842   5.453  1.00 20.00    -0.086 C 
HETATM    3  C4  UNL     1     -33.612   7.187   5.410  1.00 20.00     0.049 C 
HETATM    4  C5  UNL     1     -33.402   6.858   2.914  1.00 20.00     0.023 C 
HETATM    5  C6  UNL     1     -33.753   5.366   3.038  1.00 20.00     0.005 C 
HETATM    6  C7  UNL     1     -32.723   7.389   4.177  1.00 20.00     0.091 C 
HETATM    7  C8  UNL     1     -34.926   5.468   6.761  1.00 20.00     0.043 C 
HETATM    8  C9  UNL     1     -32.540   4.476   2.760  1.00 20.00     0.014 C 
ENDROOT
BRANCH   6   9
HETATM    9  C3  UNL     1     -32.415   8.847   4.019  1.00 20.00     0.177 C 
HETATM   10  O10 UNL     1     -32.048   9.437   5.073  1.00 20.00    -0.648 OA
HETATM   11  O11 UNL     1     -32.564   9.296   2.849  1.00 20.00    -0.648 OA
ENDBRANCH   6   9
TORSDOF 1
ENDMDL
MODEL 4
REMARK VINA RESULT:      -3.9      2.661      4.173
REMARK  1 active torsions:
REMARK  status: ('A' for Active; 'I' for Inactive)
REMARK    1  A    between atoms: C3_3  and  C7_7 
ROOT
HETATM    1  C1  UNL     1     -34.748  18.425  -2.408  1.00 20.00    -0.020 C 
HETATM    2  C2  UNL     1     -35.323  18.291  -3.616  1.00 20.00    -0.086 C 
HETATM    3  C4  UNL     1     -34.979  17.155  -4.548  1.00 20.00     0.049 C 
HETATM    4  C5  UNL     1     -33.685  16.142  -2.629  1.00 20.00     0.023 C 
HETATM    5  C6  UNL     1     -33.739  17.461  -1.840  1.00 20.00     0.005 C 
HETATM    6  C7  UNL     1     -33.720  16.382  -4.139  1.00 20.00     0.091 C 
HETATM    7  C8  UNL     1     -36.351  19.263  -4.115  1.00 20.00     0.043 C 
HETATM    8  C9  UNL     1     -32.366  18.131  -1.765  1.00 20.00     0.014 C 
ENDROOT
BRANCH   6   9
HETATM    9  C3  UNL     1     -33.683  15.073  -4.867  1.00 20.00     0.177 C 
HETATM   10  O10 UNL     1     -33.600  14.050  -4.132  1.00 20.00    -0.648 OA
HETATM   11  O11 UNL     1     -33.740  15.164  -6.125  1.00 20.00    -0.648 OA
ENDBRANCH   6   9
TORSDOF 1
ENDMDL
MODEL 5
REMARK VINA RESULT:      -3.9      3.497      4.521
REMARK  1 active torsions:
REMARK  status: ('A' for Active; 'I' for Inactive)
REMARK    1  A    between atoms: C3_3  and  C7_7 
ROOT
HETATM    1  C1  UNL     1     -34.183  18.303  -3.984  1.00 20.00    -0.020 C 
HETATM    2  C2  UNL     1     -33.916  17.046  -3.588  1.00 20.00    -0.086 C 
HETATM    3  C4  UNL     1     -34.166  15.854  -4.478  1.00 20.00     0.049 C 
HETATM    4  C5  UNL     1     -34.616  17.499  -6.342  1.00 20.00     0.023 C 
HETATM    5  C6  UNL     1     -34.720  18.666  -5.345  1.00 20.00     0.005 C 
HETATM    6  C7  UNL     1     -35.027  16.171  -5.707  1.00 20.00     0.091 C 
HETATM    7  C8  UNL     1     -33.346  16.747  -2.233  1.00 20.00     0.043 C 
HETATM    8  C9  UNL     1     -36.158  19.172  -5.216  1.00 20.00     0.014 C 
ENDROOT
BRANCH   6   9
HETATM    9  C3  UNL     1     -34.894  15.062  -6.706  1.00 20.00     0.177 C 
HETATM   10  O10 UNL     1     -35.918  14.337  -6.845  1.00 20.00    -0.648 OA
HETATM   11  O11 UNL     1     -33.772  14.998  -7.280  1.00 20.00    -0.648 OA
ENDBRANCH   6   9
TORSDOF 1
ENDMDL
MODEL 6
REMARK VINA RESULT:      -3.9     12.354     13.909
REMARK  1 active torsions:
REMARK  status: ('A' for Active; 'I' for Inactive)
REMARK    1  A    between atoms: C3_3  and  C7_7 
ROOT
HETATM    1  C1  UNL     1     -34.084   7.529   5.962  1.00 20.00    -0.020 C 
HETATM    2  C2  UNL     1     -33.119   8.095   5.218  1.00 20.00    -0.086 C 
HETATM    3  C4  UNL     1     -32.601   7.456   3.953  1.00 20.00     0.049 C 
HETATM    4  C5  UNL     1     -34.499   5.802   4.164  1.00 20.00     0.023 C 
HETATM    5  C6  UNL     1     -34.772   6.234   5.614  1.00 20.00     0.005 C 
HETATM    6  C7  UNL     1     -33.031   5.994   3.780  1.00 20.00     0.091 C 
HETATM    7  C8  UNL     1     -32.495   9.407   5.594  1.00 20.00     0.043 C 
HETATM    8  C9  UNL     1     -34.367   5.147   6.613  1.00 20.00     0.014 C 
ENDROOT
BRANCH   6   9
HETATM    9  C3  UNL     1     -32.814   5.578   2.357  1.00 20.00     0.177 C 
HETATM   10  O10 UNL     1     -32.950   4.344   2.131  1.00 20.00    -0.648 OA
HETATM   11  O11 UNL     1     -32.523   6.519   1.568  1.00 20.00    -0.648 OA
ENDBRANCH   6   9
TORSDOF 1
ENDMDL
MODEL 7
REMARK VINA RESULT:      -3.8     12.383     13.125
REMARK  1 active torsions:
REMARK  status: ('A' for Active; 'I' for Inactive)
REMARK    1  A    between atoms: C3_3  and  C7_7 
ROOT
HETATM    1  C1  UNL     1     -43.417  14.327   5.646  1.00 20.00    -0.020 C 
HETATM    2  C2  UNL     1     -42.533  14.391   4.635  1.00 20.00    -0.086 C 
HETATM    3  C4  UNL     1     -41.219  13.651   4.670  1.00 20.00     0.049 C 
HETATM    4  C5  UNL     1     -42.075  12.486   6.742  1.00 20.00     0.023 C 
HETATM    5  C6  UNL     1     -43.221  13.501   6.891  1.00 20.00     0.005 C 
HETATM    6  C7  UNL     1     -40.856  13.103   6.055  1.00 20.00     0.091 C 
HETATM    7  C8  UNL     1     -42.798  15.202   3.401  1.00 20.00     0.043 C 
HETATM    8  C9  UNL     1     -43.008  14.420   8.095  1.00 20.00     0.014 C 
ENDROOT
BRANCH   6   9
HETATM    9  C3  UNL     1     -39.773  12.076   5.915  1.00 20.00     0.177 C 
HETATM   10  O10 UNL     1     -39.090  11.869   6.956  1.00 20.00    -0.648 OA
HETATM   11  O11 UNL     1     -39.685  11.552   4.770  1.00 20.00    -0.648 OA
ENDBRANCH   6   9
TORSDOF 1
ENDMDL
MODEL 8
REMARK VINA RESULT:      -3.8     12.370     13.022
REMARK  1 active torsions:
REMARK  status: ('A' for Active; 'I' for Inactive)
REMARK    1  A    between atoms: C3_3  and  C7_7 
ROOT
HETATM    1  C1  UNL     1     -41.538  13.388   4.988  1.00 20.00    -0.020 C 
HETATM    2  C2  UNL     1     -40.408  12.897   5.525  1.00 20.00    -0.086 C 
HETATM    3  C4  UNL     1     -39.963  13.250   6.923  1.00 20.00     0.049 C 
HETATM    4  C5  UNL     1     -42.219  14.348   7.226  1.00 20.00     0.023 C 
HETATM    5  C6  UNL     1     -42.492  14.303   5.713  1.00 20.00     0.005 C 
HETATM    6  C7  UNL     1     -40.723  14.436   7.530  1.00 20.00     0.091 C 
HETATM    7  C8  UNL     1     -39.514  11.959   4.769  1.00 20.00     0.043 C 
HETATM    8  C9  UNL     1     -42.446  15.699   5.089  1.00 20.00     0.014 C 
ENDROOT
BRANCH   6   9
HETATM    9  C3  UNL     1     -40.503  14.460   9.013  1.00 20.00     0.177 C 
HETATM   10  O10 UNL     1     -41.096  13.554   9.660  1.00 20.00    -0.648 OA
HETATM   11  O11 UNL     1     -39.749  15.386   9.421  1.00 20.00    -0.648 OA
ENDBRANCH   6   9
TORSDOF 1
ENDMDL
MODEL 9
REMARK VINA RESULT:      -3.8     12.449     13.420
REMARK  1 active torsions:
REMARK  status: ('A' for Active; 'I' for Inactive)
REMARK    1  A    between atoms: C3_3  and  C7_7 
ROOT
HETATM    1  C1  UNL     1     -42.114  14.053   7.859  1.00 20.00    -0.020 C 
HETATM    2  C2  UNL     1     -40.794  14.177   8.077  1.00 20.00    -0.086 C 
HETATM    3  C4  UNL     1     -39.767  13.543   7.170  1.00 20.00     0.049 C 
HETATM    4  C5  UNL     1     -41.674  13.001   5.603  1.00 20.00     0.023 C 
HETATM    5  C6  UNL     1     -42.714  13.312   6.691  1.00 20.00     0.005 C 
HETATM    6  C7  UNL     1     -40.355  12.510   6.201  1.00 20.00     0.091 C 
HETATM    7  C8  UNL     1     -40.252  14.960   9.236  1.00 20.00     0.043 C 
HETATM    8  C9  UNL     1     -43.411  12.043   7.186  1.00 20.00     0.014 C 
ENDROOT
BRANCH   6   9
HETATM    9  C3  UNL     1     -39.367  12.236   5.108  1.00 20.00     0.177 C 
HETATM   10  O10 UNL     1     -39.845  12.227   3.940  1.00 20.00    -0.648 OA
HETATM   11  O11 UNL     1     -38.181  12.051   5.501  1.00 20.00    -0.648 OA
ENDBRANCH   6   9
TORSDOF 1
ENDMDL
