MODEL 1
REMARK VINA RESULT:      -4.7      0.000      0.000
REMARK  0 active torsions:
REMARK  status: ('A' for Active; 'I' for Inactive)
ROOT
HETATM    1  C1  UNL     1     -32.068   8.507   3.839  1.00 20.00     0.020 A 
HETATM    2  C2  UNL     1     -32.599   8.476   5.162  1.00 20.00     0.038 A 
HETATM    3  C3  UNL     1     -32.559   7.409   3.149  1.00 20.00     0.093 A 
HETATM    4  C4  UNL     1     -33.383   7.362   5.210  1.00 20.00     0.073 A 
HETATM    5  C5  UNL     1     -34.081   5.539   3.908  1.00 20.00     0.085 A 
HETATM    6  C6  UNL     1     -34.793   5.362   5.053  1.00 20.00     0.065 A 
HETATM    7  C7  UNL     1     -33.936   4.302   4.648  1.00 20.00     0.061 A 
HETATM    8  N8  UNL     1     -33.328   6.692   4.024  1.00 20.00    -0.337 N 
HETATM    9  S9  UNL     1     -34.471   6.562   6.293  1.00 20.00    -0.097 SA
ENDROOT
TORSDOF 0
ENDMDL
MODEL 2
REMARK VINA RESULT:      -4.6      1.291      3.137
REMARK  0 active torsions:
REMARK  status: ('A' for Active; 'I' for Inactive)
ROOT
HETATM    1  C1  UNL     1     -34.872   5.347   5.351  1.00 20.00     0.020 A 
HETATM    2  C2  UNL     1     -34.501   6.604   5.915  1.00 20.00     0.038 A 
HETATM    3  C3  UNL     1     -34.151   5.167   4.182  1.00 20.00     0.093 A 
HETATM    4  C4  UNL     1     -33.577   7.124   5.058  1.00 20.00     0.073 A 
HETATM    5  C5  UNL     1     -32.476   6.674   3.035  1.00 20.00     0.085 A 
HETATM    6  C6  UNL     1     -31.886   7.835   3.430  1.00 20.00     0.065 A 
HETATM    7  C7  UNL     1     -32.528   7.829   2.161  1.00 20.00     0.061 A 
HETATM    8  N8  UNL     1     -33.395   6.291   3.994  1.00 20.00    -0.337 N 
HETATM    9  S9  UNL     1     -32.521   8.490   4.930  1.00 20.00    -0.097 SA
ENDROOT
TORSDOF 0
ENDMDL
MODEL 3
REMARK VINA RESULT:      -4.6      1.453      1.973
REMARK  0 active torsions:
REMARK  status: ('A' for Active; 'I' for Inactive)
ROOT
HETATM    1  C1  UNL     1     -32.264   8.871   4.443  1.00 20.00     0.020 A 
HETATM    2  C2  UNL     1     -32.055   7.948   3.376  1.00 20.00     0.038 A 
HETATM    3  C3  UNL     1     -33.174   8.313   5.327  1.00 20.00     0.093 A 
HETATM    4  C4  UNL     1     -32.850   6.878   3.664  1.00 20.00     0.073 A 
HETATM    5  C5  UNL     1     -34.407   6.108   5.242  1.00 20.00     0.085 A 
HETATM    6  C6  UNL     1     -34.287   5.037   4.412  1.00 20.00     0.065 A 
HETATM    7  C7  UNL     1     -35.587   5.590   4.579  1.00 20.00     0.061 A 
HETATM    8  N8  UNL     1     -33.558   7.109   4.806  1.00 20.00    -0.337 N 
HETATM    9  S9  UNL     1     -33.199   5.295   3.058  1.00 20.00    -0.097 SA
ENDROOT
TORSDOF 0
ENDMDL
MODEL 4
REMARK VINA RESULT:      -4.6      1.574      3.584
REMARK  0 active torsions:
REMARK  status: ('A' for Active; 'I' for Inactive)
ROOT
HETATM    1  C1  UNL     1     -34.804   5.347   6.230  1.00 20.00     0.020 A 
HETATM    2  C2  UNL     1     -34.338   4.851   4.977  1.00 20.00     0.038 A 
HETATM    3  C3  UNL     1     -34.458   6.686   6.322  1.00 20.00     0.093 A 
HETATM    4  C4  UNL     1     -33.730   5.912   4.372  1.00 20.00     0.073 A 
HETATM    5  C5  UNL     1     -33.188   8.168   4.715  1.00 20.00     0.085 A 
HETATM    6  C6  UNL     1     -32.760   7.962   3.441  1.00 20.00     0.065 A 
HETATM    7  C7  UNL     1     -31.798   8.412   4.387  1.00 20.00     0.061 A 
HETATM    8  N8  UNL     1     -33.758   7.002   5.190  1.00 20.00    -0.337 N 
HETATM    9  S9  UNL     1     -32.983   6.318   2.865  1.00 20.00    -0.097 SA
ENDROOT
TORSDOF 0
ENDMDL
MODEL 5
REMARK VINA RESULT:      -4.2      1.523      2.638
REMARK  0 active torsions:
REMARK  status: ('A' for Active; 'I' for Inactive)
ROOT
HETATM    1  C1  UNL     1     -32.890   5.238   2.423  1.00 20.00     0.020 A 
HETATM    2  C2  UNL     1     -32.252   6.491   2.659  1.00 20.00     0.038 A 
HETATM    3  C3  UNL     1     -33.842   5.043   3.411  1.00 20.00     0.093 A 
HETATM    4  C4  UNL     1     -32.846   6.993   3.779  1.00 20.00     0.073 A 
HETATM    5  C5  UNL     1     -34.467   6.480   5.395  1.00 20.00     0.085 A 
HETATM    6  C6  UNL     1     -34.096   7.739   5.753  1.00 20.00     0.065 A 
HETATM    7  C7  UNL     1     -33.948   6.714   6.728  1.00 20.00     0.061 A 
HETATM    8  N8  UNL     1     -33.766   6.111   4.262  1.00 20.00    -0.337 N 
HETATM    9  S9  UNL     1     -32.832   8.428   4.748  1.00 20.00    -0.097 SA
ENDROOT
TORSDOF 0
ENDMDL
MODEL 6
REMARK VINA RESULT:      -3.9      1.043      2.810
REMARK  0 active torsions:
REMARK  status: ('A' for Active; 'I' for Inactive)
ROOT
HETATM    1  C1  UNL     1     -32.973   5.154   2.531  1.00 20.00     0.020 A 
HETATM    2  C2  UNL     1     -33.849   4.643   3.534  1.00 20.00     0.038 A 
HETATM    3  C3  UNL     1     -32.518   6.396   2.943  1.00 20.00     0.093 A 
HETATM    4  C4  UNL     1     -33.883   5.601   4.504  1.00 20.00     0.073 A 
HETATM    5  C5  UNL     1     -33.047   7.732   5.023  1.00 20.00     0.085 A 
HETATM    6  C6  UNL     1     -33.738   7.413   6.151  1.00 20.00     0.065 A 
HETATM    7  C7  UNL     1     -34.117   8.602   5.469  1.00 20.00     0.061 A 
HETATM    8  N8  UNL     1     -33.125   6.673   4.137  1.00 20.00    -0.337 N 
HETATM    9  S9  UNL     1     -34.546   5.855   6.083  1.00 20.00    -0.097 SA
ENDROOT
TORSDOF 0
ENDMDL
MODEL 7
REMARK VINA RESULT:      -3.9     15.981     16.747
REMARK  0 active torsions:
REMARK  status: ('A' for Active; 'I' for Inactive)
ROOT
HETATM    1  C1  UNL     1     -22.312  18.783   8.401  1.00 20.00     0.020 A 
HETATM    2  C2  UNL     1     -21.518  18.627   9.574  1.00 20.00     0.038 A 
HETATM    3  C3  UNL     1     -23.646  18.781   8.777  1.00 20.00     0.093 A 
HETATM    4  C4  UNL     1     -22.408  18.536  10.603  1.00 20.00     0.073 A 
HETATM    5  C5  UNL     1     -24.711  18.510  11.054  1.00 20.00     0.085 A 
HETATM    6  C6  UNL     1     -24.174  18.470  12.303  1.00 20.00     0.065 A 
HETATM    7  C7  UNL     1     -25.044  17.407  11.933  1.00 20.00     0.061 A 
HETATM    8  N8  UNL     1     -23.685  18.580  10.129  1.00 20.00    -0.337 N 
HETATM    9  S9  UNL     1     -22.419  18.435  12.331  1.00 20.00    -0.097 SA
ENDROOT
TORSDOF 0
ENDMDL
MODEL 8
REMARK VINA RESULT:      -3.8     15.991     16.568
REMARK  0 active torsions:
REMARK  status: ('A' for Active; 'I' for Inactive)
ROOT
HETATM    1  C1  UNL     1     -23.705  19.162   7.915  1.00 20.00     0.020 A 
HETATM    2  C2  UNL     1     -24.836  19.263   8.779  1.00 20.00     0.038 A 
HETATM    3  C3  UNL     1     -22.660  18.602   8.633  1.00 20.00     0.093 A 
HETATM    4  C4  UNL     1     -24.420  18.762   9.977  1.00 20.00     0.073 A 
HETATM    5  C5  UNL     1     -22.534  17.870  11.049  1.00 20.00     0.085 A 
HETATM    6  C6  UNL     1     -23.489  17.757  12.011  1.00 20.00     0.065 A 
HETATM    7  C7  UNL     1     -22.327  18.511  12.332  1.00 20.00     0.061 A 
HETATM    8  N8  UNL     1     -23.106  18.407   9.911  1.00 20.00    -0.337 N 
HETATM    9  S9  UNL     1     -25.059  18.387  11.542  1.00 20.00    -0.097 SA
ENDROOT
TORSDOF 0
ENDMDL
MODEL 9
REMARK VINA RESULT:      -3.4     12.451     13.303
REMARK  0 active torsions:
REMARK  status: ('A' for Active; 'I' for Inactive)
ROOT
HETATM    1  C1  UNL     1     -33.882  15.131  -5.422  1.00 20.00     0.020 A 
HETATM    2  C2  UNL     1     -34.555  16.381  -5.550  1.00 20.00     0.038 A 
HETATM    3  C3  UNL     1     -33.374  15.042  -4.135  1.00 20.00     0.093 A 
HETATM    4  C4  UNL     1     -34.419  16.990  -4.337  1.00 20.00     0.073 A 
HETATM    5  C5  UNL     1     -33.454  16.690  -2.220  1.00 20.00     0.085 A 
HETATM    6  C6  UNL     1     -34.123  17.865  -2.066  1.00 20.00     0.065 A 
HETATM    7  C7  UNL     1     -32.721  17.876  -1.824  1.00 20.00     0.061 A 
HETATM    8  N8  UNL     1     -33.674  16.215  -3.500  1.00 20.00    -0.337 N 
HETATM    9  S9  UNL     1     -34.947  18.418  -3.514  1.00 20.00    -0.097 SA
ENDROOT
TORSDOF 0
ENDMDL
