MODEL 1
REMARK VINA RESULT:      -4.1      0.000      0.000
REMARK  2 active torsions:
REMARK  status: ('A' for Active; 'I' for Inactive)
REMARK    1  A    between atoms: C1_1  and  C10_10 
REMARK    2  A    between atoms: C1_1  and  C11_11 
ROOT
HETATM    1  C2  UNL     1     -36.222  15.970  -7.730  1.00 20.00     0.009 C 
HETATM    2  C3  UNL     1     -36.493  17.131  -5.506  1.00 20.00     0.010 C 
HETATM    3  C4  UNL     1     -34.412  17.461  -6.797  1.00 20.00     0.010 C 
HETATM    4  C5  UNL     1     -36.115  14.831  -5.479  1.00 20.00     0.022 C 
HETATM    5  C6  UNL     1     -34.030  15.163  -6.770  1.00 20.00     0.022 C 
HETATM    6  C7  UNL     1     -36.856  15.881  -6.310  1.00 20.00    -0.013 C 
HETATM    7  C8  UNL     1     -34.686  16.225  -7.656  1.00 20.00    -0.013 C 
HETATM    8  C9  UNL     1     -34.963  16.999  -5.439  1.00 20.00     0.002 C 
HETATM    9  C10 UNL     1     -34.713  15.450  -5.426  1.00 20.00     0.026 C 
ENDROOT
BRANCH   9  10
HETATM   10  C1  UNL     1     -33.902  14.984  -4.262  1.00 20.00     0.149 C 
HETATM   11  O12 UNL     1     -34.007  13.831  -3.846  1.00 20.00    -0.296 OA
BRANCH  10  12
HETATM   12  C11 UNL     1     -32.976  16.013  -3.655  1.00 20.00     0.193 C 
HETATM   13 CL13 UNL     1     -33.609  16.589  -2.106  1.00 20.00    -0.123 Cl
ENDBRANCH  10  12
ENDBRANCH   9  10
TORSDOF 2
ENDMDL
MODEL 2
REMARK VINA RESULT:      -4.0     24.335     25.995
REMARK  2 active torsions:
REMARK  status: ('A' for Active; 'I' for Inactive)
REMARK    1  A    between atoms: C1_1  and  C10_10 
REMARK    2  A    between atoms: C1_1  and  C11_11 
ROOT
HETATM    1  C2  UNL     1     -28.878  -1.715  12.197  1.00 20.00     0.009 C 
HETATM    2  C3  UNL     1     -27.715  -0.456  10.346  1.00 20.00     0.010 C 
HETATM    3  C4  UNL     1     -28.031  -2.898  10.135  1.00 20.00     0.010 C 
HETATM    4  C5  UNL     1     -26.538  -0.776  12.332  1.00 20.00     0.022 C 
HETATM    5  C6  UNL     1     -26.853  -3.222  12.119  1.00 20.00     0.022 C 
HETATM    6  C7  UNL     1     -27.965  -0.500  11.854  1.00 20.00    -0.013 C 
HETATM    7  C8  UNL     1     -28.295  -3.046  11.635  1.00 20.00    -0.013 C 
HETATM    8  C9  UNL     1     -26.972  -1.785  10.136  1.00 20.00     0.002 C 
HETATM    9  C10 UNL     1     -26.185  -1.999  11.476  1.00 20.00     0.026 C 
ENDROOT
BRANCH   9  10
HETATM   10  C1  UNL     1     -24.716  -2.186  11.285  1.00 20.00     0.149 C 
HETATM   11  O12 UNL     1     -23.920  -1.330  11.671  1.00 20.00    -0.296 OA
BRANCH  10  12
HETATM   12  C11 UNL     1     -24.301  -3.466  10.597  1.00 20.00     0.193 C 
HETATM   13 CL13 UNL     1     -23.789  -3.145   8.933  1.00 20.00    -0.123 Cl
ENDBRANCH  10  12
ENDBRANCH   9  10
TORSDOF 2
ENDMDL
MODEL 3
REMARK VINA RESULT:      -4.0     13.044     14.047
REMARK  2 active torsions:
REMARK  status: ('A' for Active; 'I' for Inactive)
REMARK    1  A    between atoms: C1_1  and  C10_10 
REMARK    2  A    between atoms: C1_1  and  C11_11 
ROOT
HETATM    1  C2  UNL     1     -42.669  15.550   6.546  1.00 20.00     0.009 C 
HETATM    2  C3  UNL     1     -43.366  13.132   6.362  1.00 20.00     0.010 C 
HETATM    3  C4  UNL     1     -42.312  13.931   8.450  1.00 20.00     0.010 C 
HETATM    4  C5  UNL     1     -41.489  13.804   5.153  1.00 20.00     0.022 C 
HETATM    5  C6  UNL     1     -40.434  14.603   7.244  1.00 20.00     0.022 C 
HETATM    6  C7  UNL     1     -42.857  14.344   5.578  1.00 20.00    -0.013 C 
HETATM    7  C8  UNL     1     -41.759  15.177   7.755  1.00 20.00    -0.013 C 
HETATM    8  C9  UNL     1     -42.191  12.894   7.323  1.00 20.00     0.002 C 
HETATM    9  C10 UNL     1     -40.931  13.352   6.508  1.00 20.00     0.026 C 
ENDROOT
BRANCH   9  10
HETATM   10  C1  UNL     1     -39.876  12.301   6.394  1.00 20.00     0.149 C 
HETATM   11  O12 UNL     1     -39.034  12.159   7.279  1.00 20.00    -0.296 OA
BRANCH  10  12
HETATM   12  C11 UNL     1     -39.925  11.456   5.141  1.00 20.00     0.193 C 
HETATM   13 CL13 UNL     1     -38.469  11.700   4.164  1.00 20.00    -0.123 Cl
ENDBRANCH  10  12
ENDBRANCH   9  10
TORSDOF 2
ENDMDL
MODEL 4
REMARK VINA RESULT:      -3.9     13.279     14.328
REMARK  2 active torsions:
REMARK  status: ('A' for Active; 'I' for Inactive)
REMARK    1  A    between atoms: C1_1  and  C10_10 
REMARK    2  A    between atoms: C1_1  and  C11_11 
ROOT
HETATM    1  C2  UNL     1     -42.272  14.123   9.046  1.00 20.00     0.009 C 
HETATM    2  C3  UNL     1     -41.222  15.783   7.462  1.00 20.00     0.010 C 
HETATM    3  C4  UNL     1     -43.397  14.766   6.880  1.00 20.00     0.010 C 
HETATM    4  C5  UNL     1     -40.260  13.663   7.589  1.00 20.00     0.022 C 
HETATM    5  C6  UNL     1     -42.439  12.645   7.005  1.00 20.00     0.022 C 
HETATM    6  C7  UNL     1     -40.930  14.697   8.499  1.00 20.00    -0.013 C 
HETATM    7  C8  UNL     1     -43.199  13.636   7.892  1.00 20.00    -0.013 C 
HETATM    8  C9  UNL     1     -41.957  14.969   6.386  1.00 20.00     0.002 C 
HETATM    9  C10 UNL     1     -41.310  13.542   6.479  1.00 20.00     0.026 C 
ENDROOT
BRANCH   9  10
HETATM   10  C1  UNL     1     -40.750  13.053   5.183  1.00 20.00     0.149 C 
HETATM   11  O12 UNL     1     -41.122  13.540   4.116  1.00 20.00    -0.296 OA
BRANCH  10  12
HETATM   12  C11 UNL     1     -39.727  11.946   5.287  1.00 20.00     0.193 C 
HETATM   13 CL13 UNL     1     -39.003  11.612   3.707  1.00 20.00    -0.123 Cl
ENDBRANCH  10  12
ENDBRANCH   9  10
TORSDOF 2
ENDMDL
MODEL 5
REMARK VINA RESULT:      -3.9     13.458     14.410
REMARK  2 active torsions:
REMARK  status: ('A' for Active; 'I' for Inactive)
REMARK    1  A    between atoms: C1_1  and  C10_10 
REMARK    2  A    between atoms: C1_1  and  C11_11 
ROOT
HETATM    1  C2  UNL     1     -43.110  15.373   7.821  1.00 20.00     0.009 C 
HETATM    2  C3  UNL     1     -41.432  14.219   9.311  1.00 20.00     0.010 C 
HETATM    3  C4  UNL     1     -40.655  15.948   7.725  1.00 20.00     0.010 C 
HETATM    4  C5  UNL     1     -42.320  12.990   7.540  1.00 20.00     0.022 C 
HETATM    5  C6  UNL     1     -41.541  14.722   5.953  1.00 20.00     0.022 C 
HETATM    6  C7  UNL     1     -42.753  14.047   8.559  1.00 20.00    -0.013 C 
HETATM    7  C8  UNL     1     -41.944  15.851   6.906  1.00 20.00    -0.013 C 
HETATM    8  C9  UNL     1     -40.466  14.482   8.144  1.00 20.00     0.002 C 
HETATM    9  C10 UNL     1     -41.071  13.658   6.954  1.00 20.00     0.026 C 
ENDROOT
BRANCH   9  10
HETATM   10  C1  UNL     1     -40.109  12.689   6.347  1.00 20.00     0.149 C 
HETATM   11  O12 UNL     1     -39.289  12.098   7.049  1.00 20.00    -0.296 OA
BRANCH  10  12
HETATM   12  C11 UNL     1     -40.220  12.504   4.852  1.00 20.00     0.193 C 
HETATM   13 CL13 UNL     1     -38.767  11.725   4.208  1.00 20.00    -0.123 Cl
ENDBRANCH  10  12
ENDBRANCH   9  10
TORSDOF 2
ENDMDL
MODEL 6
REMARK VINA RESULT:      -3.8      1.512      2.711
REMARK  2 active torsions:
REMARK  status: ('A' for Active; 'I' for Inactive)
REMARK    1  A    between atoms: C1_1  and  C10_10 
REMARK    2  A    between atoms: C1_1  and  C11_11 
ROOT
HETATM    1  C2  UNL     1     -36.352  15.965  -7.325  1.00 20.00     0.009 C 
HETATM    2  C3  UNL     1     -33.956  15.238  -7.008  1.00 20.00     0.010 C 
HETATM    3  C4  UNL     1     -35.649  14.589  -5.329  1.00 20.00     0.010 C 
HETATM    4  C5  UNL     1     -34.454  17.487  -6.645  1.00 20.00     0.022 C 
HETATM    5  C6  UNL     1     -36.149  16.835  -4.963  1.00 20.00     0.022 C 
HETATM    6  C7  UNL     1     -34.859  16.337  -7.572  1.00 20.00    -0.013 C 
HETATM    7  C8  UNL     1     -36.625  15.660  -5.821  1.00 20.00    -0.013 C 
HETATM    8  C9  UNL     1     -34.307  15.313  -5.514  1.00 20.00     0.002 C 
HETATM    9  C10 UNL     1     -34.646  16.826  -5.275  1.00 20.00     0.026 C 
ENDROOT
BRANCH   9  10
HETATM   10  C1  UNL     1     -33.834  17.459  -4.193  1.00 20.00     0.149 C 
HETATM   11  O12 UNL     1     -33.650  18.675  -4.177  1.00 20.00    -0.296 OA
BRANCH  10  12
HETATM   12  C11 UNL     1     -33.274  16.513  -3.156  1.00 20.00     0.193 C 
HETATM   13 CL13 UNL     1     -33.643  17.084  -1.522  1.00 20.00    -0.123 Cl
ENDBRANCH  10  12
ENDBRANCH   9  10
TORSDOF 2
ENDMDL
MODEL 7
REMARK VINA RESULT:      -3.8      0.712      1.866
REMARK  2 active torsions:
REMARK  status: ('A' for Active; 'I' for Inactive)
REMARK    1  A    between atoms: C1_1  and  C10_10 
REMARK    2  A    between atoms: C1_1  and  C11_11 
ROOT
HETATM    1  C2  UNL     1     -35.453  17.208  -7.787  1.00 20.00     0.009 C 
HETATM    2  C3  UNL     1     -36.190  14.895  -7.099  1.00 20.00     0.010 C 
HETATM    3  C4  UNL     1     -36.788  16.828  -5.679  1.00 20.00     0.010 C 
HETATM    4  C5  UNL     1     -33.930  15.417  -6.864  1.00 20.00     0.022 C 
HETATM    5  C6  UNL     1     -34.529  17.350  -5.441  1.00 20.00     0.022 C 
HETATM    6  C7  UNL     1     -35.098  15.691  -7.816  1.00 20.00    -0.013 C 
HETATM    7  C8  UNL     1     -35.720  17.706  -6.335  1.00 20.00    -0.013 C 
HETATM    8  C9  UNL     1     -36.079  15.464  -5.676  1.00 20.00     0.002 C 
HETATM    9  C10 UNL     1     -34.558  15.819  -5.524  1.00 20.00     0.026 C 
ENDROOT
BRANCH   9  10
HETATM   10  C1  UNL     1     -33.907  15.171  -4.346  1.00 20.00     0.149 C 
HETATM   11  O12 UNL     1     -34.158  14.002  -4.056  1.00 20.00    -0.296 OA
BRANCH  10  12
HETATM   12  C11 UNL     1     -32.950  16.041  -3.564  1.00 20.00     0.193 C 
HETATM   13 CL13 UNL     1     -33.680  16.558  -2.036  1.00 20.00    -0.123 Cl
ENDBRANCH  10  12
ENDBRANCH   9  10
TORSDOF 2
ENDMDL
MODEL 8
REMARK VINA RESULT:      -3.7      0.776      2.111
REMARK  2 active torsions:
REMARK  status: ('A' for Active; 'I' for Inactive)
REMARK    1  A    between atoms: C1_1  and  C10_10 
REMARK    2  A    between atoms: C1_1  and  C11_11 
ROOT
HETATM    1  C2  UNL     1     -36.419  17.582  -7.185  1.00 20.00     0.009 C 
HETATM    2  C3  UNL     1     -34.075  16.777  -7.657  1.00 20.00     0.010 C 
HETATM    3  C4  UNL     1     -35.925  15.140  -7.588  1.00 20.00     0.010 C 
HETATM    4  C5  UNL     1     -34.566  17.430  -5.475  1.00 20.00     0.022 C 
HETATM    5  C6  UNL     1     -36.418  15.791  -5.405  1.00 20.00     0.022 C 
HETATM    6  C7  UNL     1     -34.904  17.826  -6.914  1.00 20.00    -0.013 C 
HETATM    7  C8  UNL     1     -36.833  16.120  -6.842  1.00 20.00    -0.013 C 
HETATM    8  C9  UNL     1     -34.559  15.488  -6.976  1.00 20.00     0.002 C 
HETATM    9  C10 UNL     1     -34.894  15.933  -5.509  1.00 20.00     0.026 C 
ENDROOT
BRANCH   9  10
HETATM   10  C1  UNL     1     -34.175  15.144  -4.465  1.00 20.00     0.149 C 
HETATM   11  O12 UNL     1     -34.524  13.995  -4.196  1.00 20.00    -0.296 OA
BRANCH  10  12
HETATM   12  C11 UNL     1     -33.024  15.851  -3.786  1.00 20.00     0.193 C 
HETATM   13 CL13 UNL     1     -33.523  16.488  -2.211  1.00 20.00    -0.123 Cl
ENDBRANCH  10  12
ENDBRANCH   9  10
TORSDOF 2
ENDMDL
MODEL 9
REMARK VINA RESULT:      -3.6     14.248     15.233
REMARK  2 active torsions:
REMARK  status: ('A' for Active; 'I' for Inactive)
REMARK    1  A    between atoms: C1_1  and  C10_10 
REMARK    2  A    between atoms: C1_1  and  C11_11 
ROOT
HETATM    1  C2  UNL     1     -42.292  16.327   9.271  1.00 20.00     0.009 C 
HETATM    2  C3  UNL     1     -40.454  14.641   9.650  1.00 20.00     0.010 C 
HETATM    3  C4  UNL     1     -40.381  16.076   7.640  1.00 20.00     0.010 C 
HETATM    4  C5  UNL     1     -42.540  13.829   8.999  1.00 20.00     0.022 C 
HETATM    5  C6  UNL     1     -42.466  15.265   6.986  1.00 20.00     0.022 C 
HETATM    6  C7  UNL     1     -41.939  14.934   9.872  1.00 20.00    -0.013 C 
HETATM    7  C8  UNL     1     -41.864  16.431   7.776  1.00 20.00    -0.013 C 
HETATM    8  C9  UNL     1     -40.389  14.615   8.115  1.00 20.00     0.002 C 
HETATM    9  C10 UNL     1     -41.796  14.073   7.681  1.00 20.00     0.026 C 
ENDROOT
BRANCH   9  10
HETATM   10  C1  UNL     1     -41.728  12.865   6.805  1.00 20.00     0.149 C 
HETATM   11  O12 UNL     1     -42.464  11.901   7.010  1.00 20.00    -0.296 OA
BRANCH  10  12
HETATM   12  C11 UNL     1     -40.714  12.923   5.687  1.00 20.00     0.193 C 
HETATM   13 CL13 UNL     1     -39.391  11.784   5.982  1.00 20.00    -0.123 Cl
ENDBRANCH  10  12
ENDBRANCH   9  10
TORSDOF 2
ENDMDL
