MODEL 1
REMARK VINA RESULT:      -4.5      0.000      0.000
REMARK  2 active torsions:
REMARK  status: ('A' for Active; 'I' for Inactive)
REMARK    1  A    between atoms: C1_1  and  N9_9 
REMARK    2  A    between atoms: C4_4  and  C8_8 
ROOT
HETATM    1  C2  UNL     1     -32.401   8.486   4.617  1.00 20.00     0.031 C 
HETATM    2  C3  UNL     1     -32.545   6.545   3.232  1.00 20.00     0.130 C 
HETATM    3  C4  UNL     1     -32.114   8.009   3.187  1.00 20.00     0.005 C 
HETATM    4  C5  UNL     1     -33.653   7.705   5.040  1.00 20.00     0.083 C 
HETATM    5  C6  UNL     1     -33.638   7.384   6.529  1.00 20.00     0.032 C 
HETATM    6  N9  UNL     1     -33.640   6.518   4.189  1.00 20.00    -0.355 N 
ENDROOT
BRANCH   3   7
HETATM    7  C8  UNL     1     -32.902   8.804   2.149  1.00 20.00     0.002 C 
HETATM    8  C7  UNL     1     -32.303   8.690   0.782  1.00 20.00     0.005 C 
ENDBRANCH   3   7
BRANCH   6   9
HETATM    9  C1  UNL     1     -34.616   5.548   4.183  1.00 20.00     0.351 C 
HETATM   10  O10 UNL     1     -34.535   4.415   4.645  1.00 20.00    -0.284 OA
ENDBRANCH   6   9
TORSDOF 2
ENDMDL
MODEL 2
REMARK VINA RESULT:      -3.8      1.412      3.584
REMARK  2 active torsions:
REMARK  status: ('A' for Active; 'I' for Inactive)
REMARK    1  A    between atoms: C1_1  and  N9_9 
REMARK    2  A    between atoms: C4_4  and  C8_8 
ROOT
HETATM    1  C2  UNL     1     -33.645   8.348   5.200  1.00 20.00     0.031 C 
HETATM    2  C3  UNL     1     -34.610   6.416   4.180  1.00 20.00     0.130 C 
HETATM    3  C4  UNL     1     -34.557   7.156   5.515  1.00 20.00     0.005 C 
HETATM    4  C5  UNL     1     -32.630   7.801   4.187  1.00 20.00     0.083 C 
HETATM    5  C6  UNL     1     -32.207   8.865   3.183  1.00 20.00     0.032 C 
HETATM    6  N9  UNL     1     -33.311   6.663   3.577  1.00 20.00    -0.355 N 
ENDROOT
BRANCH   3   7
HETATM    7  C8  UNL     1     -33.990   6.280   6.630  1.00 20.00     0.002 C 
HETATM    8  C7  UNL     1     -34.317   4.833   6.428  1.00 20.00     0.005 C 
ENDBRANCH   3   7
BRANCH   6   9
HETATM    9  C1  UNL     1     -32.750   5.826   2.638  1.00 20.00     0.351 C 
HETATM   10  O10 UNL     1     -32.795   4.601   2.620  1.00 20.00    -0.284 OA
ENDBRANCH   6   9
TORSDOF 2
ENDMDL
MODEL 3
REMARK VINA RESULT:      -3.8      2.025      3.702
REMARK  2 active torsions:
REMARK  status: ('A' for Active; 'I' for Inactive)
REMARK    1  A    between atoms: C1_1  and  N9_9 
REMARK    2  A    between atoms: C4_4  and  C8_8 
ROOT
HETATM    1  C2  UNL     1     -34.038   7.565   6.028  1.00 20.00     0.031 C 
HETATM    2  C3  UNL     1     -34.460   6.575   3.896  1.00 20.00     0.130 C 
HETATM    3  C4  UNL     1     -34.794   6.401   5.375  1.00 20.00     0.005 C 
HETATM    4  C5  UNL     1     -32.766   7.720   5.183  1.00 20.00     0.083 C 
HETATM    5  C6  UNL     1     -32.323   9.175   5.095  1.00 20.00     0.032 C 
HETATM    6  N9  UNL     1     -33.122   7.141   3.890  1.00 20.00    -0.355 N 
ENDROOT
BRANCH   3   7
HETATM    7  C8  UNL     1     -34.332   5.047   5.909  1.00 20.00     0.002 C 
HETATM    8  C7  UNL     1     -33.965   4.105   4.805  1.00 20.00     0.005 C 
ENDBRANCH   3   7
BRANCH   6   9
HETATM    9  C1  UNL     1     -32.259   7.013   2.825  1.00 20.00     0.351 C 
HETATM   10  O10 UNL     1     -32.182   7.744   1.844  1.00 20.00    -0.284 OA
ENDBRANCH   6   9
TORSDOF 2
ENDMDL
MODEL 4
REMARK VINA RESULT:      -3.6     11.732     12.240
REMARK  2 active torsions:
REMARK  status: ('A' for Active; 'I' for Inactive)
REMARK    1  A    between atoms: C1_1  and  N9_9 
REMARK    2  A    between atoms: C4_4  and  C8_8 
ROOT
HETATM    1  C2  UNL     1     -34.553  18.419  -0.929  1.00 20.00     0.031 C 
HETATM    2  C3  UNL     1     -32.226  18.766  -1.337  1.00 20.00     0.130 C 
HETATM    3  C4  UNL     1     -33.467  18.152  -1.979  1.00 20.00     0.005 C 
HETATM    4  C5  UNL     1     -33.823  18.308   0.417  1.00 20.00     0.083 C 
HETATM    5  C6  UNL     1     -34.403  19.263   1.452  1.00 20.00     0.032 C 
HETATM    6  N9  UNL     1     -32.426  18.582   0.091  1.00 20.00    -0.355 N 
ENDROOT
BRANCH   3   7
HETATM    7  C8  UNL     1     -33.288  16.661  -2.254  1.00 20.00     0.002 C 
HETATM    8  C7  UNL     1     -33.494  16.328  -3.698  1.00 20.00     0.005 C 
ENDBRANCH   3   7
BRANCH   6   9
HETATM    9  C1  UNL     1     -31.388  18.537   0.993  1.00 20.00     0.351 C 
HETATM   10  O10 UNL     1     -30.290  19.071   0.884  1.00 20.00    -0.284 OA
ENDBRANCH   6   9
TORSDOF 2
ENDMDL
MODEL 5
REMARK VINA RESULT:      -3.5     11.414     12.575
REMARK  2 active torsions:
REMARK  status: ('A' for Active; 'I' for Inactive)
REMARK    1  A    between atoms: C1_1  and  N9_9 
REMARK    2  A    between atoms: C4_4  and  C8_8 
ROOT
HETATM    1  C2  UNL     1     -33.426  19.245  -2.449  1.00 20.00     0.031 C 
HETATM    2  C3  UNL     1     -33.551  17.020  -1.591  1.00 20.00     0.130 C 
HETATM    3  C4  UNL     1     -33.103  18.424  -1.194  1.00 20.00     0.005 C 
HETATM    4  C5  UNL     1     -33.170  18.281  -3.616  1.00 20.00     0.083 C 
HETATM    5  C6  UNL     1     -34.126  18.536  -4.775  1.00 20.00     0.032 C 
HETATM    6  N9  UNL     1     -33.314  16.954  -3.023  1.00 20.00    -0.355 N 
ENDROOT
BRANCH   3   7
HETATM    7  C8  UNL     1     -31.618  18.471  -0.844  1.00 20.00     0.002 C 
HETATM    8  C7  UNL     1     -31.390  18.513   0.634  1.00 20.00     0.005 C 
ENDBRANCH   3   7
BRANCH   6   9
HETATM    9  C1  UNL     1     -33.115  15.770  -3.696  1.00 20.00     0.351 C 
HETATM   10  O10 UNL     1     -33.920  14.855  -3.837  1.00 20.00    -0.284 OA
ENDBRANCH   6   9
TORSDOF 2
ENDMDL
MODEL 6
REMARK VINA RESULT:      -3.5     11.910     12.918
REMARK  2 active torsions:
REMARK  status: ('A' for Active; 'I' for Inactive)
REMARK    1  A    between atoms: C1_1  and  N9_9 
REMARK    2  A    between atoms: C4_4  and  C8_8 
ROOT
HETATM    1  C2  UNL     1     -33.056  15.675  -3.830  1.00 20.00     0.031 C 
HETATM    2  C3  UNL     1     -33.690  17.970  -4.016  1.00 20.00     0.130 C 
HETATM    3  C4  UNL     1     -32.990  17.003  -3.064  1.00 20.00     0.005 C 
HETATM    4  C5  UNL     1     -34.394  15.729  -4.580  1.00 20.00     0.083 C 
HETATM    5  C6  UNL     1     -34.315  15.014  -5.923  1.00 20.00     0.032 C 
HETATM    6  N9  UNL     1     -34.683  17.155  -4.696  1.00 20.00    -0.355 N 
ENDROOT
BRANCH   3   7
HETATM    7  C8  UNL     1     -33.696  16.922  -1.713  1.00 20.00     0.002 C 
HETATM    8  C7  UNL     1     -33.250  18.004  -0.780  1.00 20.00     0.005 C 
ENDBRANCH   3   7
BRANCH   6   9
HETATM    9  C1  UNL     1     -35.826  17.680  -5.258  1.00 20.00     0.351 C 
HETATM   10  O10 UNL     1     -36.976  17.286  -5.098  1.00 20.00    -0.284 OA
ENDBRANCH   6   9
TORSDOF 2
ENDMDL
MODEL 7
REMARK VINA RESULT:      -3.3     11.973     13.112
REMARK  2 active torsions:
REMARK  status: ('A' for Active; 'I' for Inactive)
REMARK    1  A    between atoms: C1_1  and  N9_9 
REMARK    2  A    between atoms: C4_4  and  C8_8 
ROOT
HETATM    1  C2  UNL     1     -33.807  15.002  -4.133  1.00 20.00     0.031 C 
HETATM    2  C3  UNL     1     -35.495  16.338  -5.168  1.00 20.00     0.130 C 
HETATM    3  C4  UNL     1     -34.683  15.065  -5.391  1.00 20.00     0.005 C 
HETATM    4  C5  UNL     1     -33.509  16.469  -3.797  1.00 20.00     0.083 C 
HETATM    5  C6  UNL     1     -33.402  16.691  -2.294  1.00 20.00     0.032 C 
HETATM    6  N9  UNL     1     -34.606  17.209  -4.417  1.00 20.00    -0.355 N 
ENDROOT
BRANCH   3   7
HETATM    7  C8  UNL     1     -33.848  15.138  -6.668  1.00 20.00     0.002 C 
HETATM    8  C7  UNL     1     -34.572  15.843  -7.772  1.00 20.00     0.005 C 
ENDBRANCH   3   7
BRANCH   6   9
HETATM    9  C1  UNL     1     -34.723  18.581  -4.418  1.00 20.00     0.351 C 
HETATM   10  O10 UNL     1     -35.527  19.254  -3.784  1.00 20.00    -0.284 OA
ENDBRANCH   6   9
TORSDOF 2
ENDMDL
MODEL 8
REMARK VINA RESULT:      -3.3     11.827     12.373
REMARK  2 active torsions:
REMARK  status: ('A' for Active; 'I' for Inactive)
REMARK    1  A    between atoms: C1_1  and  N9_9 
REMARK    2  A    between atoms: C4_4  and  C8_8 
ROOT
HETATM    1  C2  UNL     1     -31.353  18.339  -0.471  1.00 20.00     0.031 C 
HETATM    2  C3  UNL     1     -33.701  17.902  -0.477  1.00 20.00     0.130 C 
HETATM    3  C4  UNL     1     -32.524  18.090  -1.431  1.00 20.00     0.005 C 
HETATM    4  C5  UNL     1     -31.973  19.113   0.701  1.00 20.00     0.083 C 
HETATM    5  C6  UNL     1     -31.298  18.767   2.022  1.00 20.00     0.032 C 
HETATM    6  N9  UNL     1     -33.388  18.754   0.659  1.00 20.00    -0.355 N 
ENDROOT
BRANCH   3   7
HETATM    7  C8  UNL     1     -32.744  19.262  -2.384  1.00 20.00     0.002 C 
HETATM    8  C7  UNL     1     -33.152  18.807  -3.750  1.00 20.00     0.005 C 
ENDBRANCH   3   7
BRANCH   6   9
HETATM    9  C1  UNL     1     -34.350  19.263   1.501  1.00 20.00     0.351 C 
HETATM   10  O10 UNL     1     -35.530  18.933   1.560  1.00 20.00    -0.284 OA
ENDBRANCH   6   9
TORSDOF 2
ENDMDL
MODEL 9
REMARK VINA RESULT:      -3.2      9.939     10.586
REMARK  2 active torsions:
REMARK  status: ('A' for Active; 'I' for Inactive)
REMARK    1  A    between atoms: C1_1  and  N9_9 
REMARK    2  A    between atoms: C4_4  and  C8_8 
ROOT
HETATM    1  C2  UNL     1     -40.334  13.768   7.413  1.00 20.00     0.031 C 
HETATM    2  C3  UNL     1     -41.531  12.589   5.716  1.00 20.00     0.130 C 
HETATM    3  C4  UNL     1     -40.284  12.476   6.589  1.00 20.00     0.005 C 
HETATM    4  C5  UNL     1     -40.937  14.810   6.461  1.00 20.00     0.083 C 
HETATM    5  C6  UNL     1     -41.793  15.826   7.207  1.00 20.00     0.032 C 
HETATM    6  N9  UNL     1     -41.689  14.016   5.492  1.00 20.00    -0.355 N 
ENDROOT
BRANCH   3   7
HETATM    7  C8  UNL     1     -39.010  12.378   5.753  1.00 20.00     0.002 C 
HETATM    8  C7  UNL     1     -39.249  11.695   4.443  1.00 20.00     0.005 C 
ENDBRANCH   3   7
BRANCH   6   9
HETATM    9  C1  UNL     1     -42.358  14.534   4.406  1.00 20.00     0.351 C 
HETATM   10  O10 UNL     1     -42.006  14.493   3.232  1.00 20.00    -0.284 OA
ENDBRANCH   6   9
TORSDOF 2
ENDMDL
