MODEL 1
REMARK VINA RESULT:      -3.9      0.000      0.000
REMARK  0 active torsions:
REMARK  status: ('A' for Active; 'I' for Inactive)
ROOT
HETATM    1  C1  UNL     1     -33.666  16.858  -3.057  1.00 20.00    -0.056 A 
HETATM    2  C2  UNL     1     -34.403  17.084  -5.244  1.00 20.00     0.087 A 
HETATM    3  C3  UNL     1     -33.320  17.067  -1.781  1.00 20.00     0.017 C 
HETATM    4  C4  UNL     1     -33.541  15.515  -3.757  1.00 20.00     0.158 A 
HETATM    5  C5  UNL     1     -34.209  15.080  -6.294  1.00 20.00     0.144 A 
HETATM    6  C6  UNL     1     -34.787  16.154  -7.256  1.00 20.00     0.141 A 
HETATM    7  C7  UNL     1     -34.239  17.898  -4.035  1.00 20.00     0.035 A 
HETATM    8  C8  UNL     1     -33.253  19.039  -4.289  1.00 20.00     0.028 C 
HETATM    9  C9  UNL     1     -35.593  18.433  -3.563  1.00 20.00     0.028 C 
HETATM   10  N10 UNL     1     -34.033  15.842  -5.077  1.00 20.00    -0.365 N 
HETATM   11  N11 UNL     1     -34.848  17.387  -6.440  1.00 20.00    -0.377 N 
HETATM   12  H26 UNL     1     -35.162  18.321  -6.679  1.00 20.00     0.160 HD
ENDROOT
TORSDOF 0
ENDMDL
MODEL 2
REMARK VINA RESULT:      -3.9      3.778      5.637
REMARK  0 active torsions:
REMARK  status: ('A' for Active; 'I' for Inactive)
ROOT
HETATM    1  C1  UNL     1     -34.625  18.817  -1.427  1.00 20.00    -0.056 A 
HETATM    2  C2  UNL     1     -32.450  18.522  -0.679  1.00 20.00     0.087 A 
HETATM    3  C3  UNL     1     -35.743  18.875  -2.160  1.00 20.00     0.017 C 
HETATM    4  C4  UNL     1     -34.554  19.210   0.040  1.00 20.00     0.158 A 
HETATM    5  C5  UNL     1     -32.341  19.115   1.510  1.00 20.00     0.144 A 
HETATM    6  C6  UNL     1     -30.952  18.646   0.995  1.00 20.00     0.141 A 
HETATM    7  C7  UNL     1     -33.237  18.359  -1.906  1.00 20.00     0.035 A 
HETATM    8  C8  UNL     1     -32.693  19.263  -3.014  1.00 20.00     0.028 C 
HETATM    9  C9  UNL     1     -33.244  16.892  -2.344  1.00 20.00     0.028 C 
HETATM   10  N10 UNL     1     -33.158  18.967   0.326  1.00 20.00    -0.365 N 
HETATM   11  N11 UNL     1     -31.182  18.303  -0.426  1.00 20.00    -0.377 N 
HETATM   12  H26 UNL     1     -30.542  17.957  -1.132  1.00 20.00     0.160 HD
ENDROOT
TORSDOF 0
ENDMDL
MODEL 3
REMARK VINA RESULT:      -3.8     12.508     14.151
REMARK  0 active torsions:
REMARK  status: ('A' for Active; 'I' for Inactive)
ROOT
HETATM    1  C1  UNL     1     -34.347   5.987   6.074  1.00 20.00    -0.056 A 
HETATM    2  C2  UNL     1     -33.521   7.053   4.186  1.00 20.00     0.087 A 
HETATM    3  C3  UNL     1     -34.973   5.165   6.924  1.00 20.00     0.017 C 
HETATM    4  C4  UNL     1     -33.493   7.166   6.511  1.00 20.00     0.158 A 
HETATM    5  C5  UNL     1     -32.251   8.819   4.839  1.00 20.00     0.144 A 
HETATM    6  C6  UNL     1     -32.290   8.709   3.290  1.00 20.00     0.141 A 
HETATM    7  C7  UNL     1     -34.366   5.906   4.537  1.00 20.00     0.035 A 
HETATM    8  C8  UNL     1     -35.777   6.092   3.978  1.00 20.00     0.028 C 
HETATM    9  C9  UNL     1     -33.737   4.606   4.031  1.00 20.00     0.028 C 
HETATM   10  N10 UNL     1     -33.074   7.697   5.233  1.00 20.00    -0.365 N 
HETATM   11  N11 UNL     1     -33.147   7.531   3.024  1.00 20.00    -0.377 N 
HETATM   12  H26 UNL     1     -33.434   7.109   2.149  1.00 20.00     0.160 HD
ENDROOT
TORSDOF 0
ENDMDL
MODEL 4
REMARK VINA RESULT:      -3.7     12.223     13.548
REMARK  0 active torsions:
REMARK  status: ('A' for Active; 'I' for Inactive)
ROOT
HETATM    1  C1  UNL     1     -42.254  14.904   6.081  1.00 20.00    -0.056 A 
HETATM    2  C2  UNL     1     -40.434  13.555   6.575  1.00 20.00     0.087 A 
HETATM    3  C3  UNL     1     -43.260  15.787   6.126  1.00 20.00     0.017 C 
HETATM    4  C4  UNL     1     -41.916  14.071   4.855  1.00 20.00     0.158 A 
HETATM    5  C5  UNL     1     -39.932  12.304   4.747  1.00 20.00     0.144 A 
HETATM    6  C6  UNL     1     -38.959  11.989   5.917  1.00 20.00     0.141 A 
HETATM    7  C7  UNL     1     -41.275  14.569   7.219  1.00 20.00     0.035 A 
HETATM    8  C8  UNL     1     -41.997  13.974   8.429  1.00 20.00     0.028 C 
HETATM    9  C9  UNL     1     -40.435  15.784   7.619  1.00 20.00     0.028 C 
HETATM   10  N10 UNL     1     -40.785  13.310   5.339  1.00 20.00    -0.365 N 
HETATM   11  N11 UNL     1     -39.411  12.866   7.020  1.00 20.00    -0.377 N 
HETATM   12  H26 UNL     1     -39.054  12.977   7.962  1.00 20.00     0.160 HD
ENDROOT
TORSDOF 0
ENDMDL
MODEL 5
REMARK VINA RESULT:      -3.6      1.481      4.039
REMARK  0 active torsions:
REMARK  status: ('A' for Active; 'I' for Inactive)
ROOT
HETATM    1  C1  UNL     1     -35.858  16.769  -6.182  1.00 20.00    -0.056 A 
HETATM    2  C2  UNL     1     -34.477  16.123  -4.435  1.00 20.00     0.087 A 
HETATM    3  C3  UNL     1     -36.594  16.816  -7.299  1.00 20.00     0.017 C 
HETATM    4  C4  UNL     1     -35.697  17.940  -5.226  1.00 20.00     0.158 A 
HETATM    5  C5  UNL     1     -34.230  17.874  -3.010  1.00 20.00     0.144 A 
HETATM    6  C6  UNL     1     -33.431  16.639  -2.511  1.00 20.00     0.141 A 
HETATM    7  C7  UNL     1     -35.056  15.564  -5.662  1.00 20.00     0.035 A 
HETATM    8  C8  UNL     1     -33.950  15.157  -6.636  1.00 20.00     0.028 C 
HETATM    9  C9  UNL     1     -35.965  14.379  -5.331  1.00 20.00     0.028 C 
HETATM   10  N10 UNL     1     -34.826  17.365  -4.226  1.00 20.00    -0.365 N 
HETATM   11  N11 UNL     1     -33.684  15.598  -3.532  1.00 20.00    -0.377 N 
HETATM   12  H26 UNL     1     -33.353  14.642  -3.595  1.00 20.00     0.160 HD
ENDROOT
TORSDOF 0
ENDMDL
MODEL 6
REMARK VINA RESULT:      -3.6     12.671     14.114
REMARK  0 active torsions:
REMARK  status: ('A' for Active; 'I' for Inactive)
ROOT
HETATM    1  C1  UNL     1     -33.354   5.596   3.221  1.00 20.00    -0.056 A 
HETATM    2  C2  UNL     1     -33.719   7.120   4.931  1.00 20.00     0.087 A 
HETATM    3  C3  UNL     1     -33.397   4.541   2.399  1.00 20.00     0.017 C 
HETATM    4  C4  UNL     1     -32.402   6.768   3.044  1.00 20.00     0.158 A 
HETATM    5  C5  UNL     1     -32.293   8.868   4.672  1.00 20.00     0.144 A 
HETATM    6  C6  UNL     1     -33.192   9.069   5.922  1.00 20.00     0.141 A 
HETATM    7  C7  UNL     1     -34.229   5.826   4.465  1.00 20.00     0.035 A 
HETATM    8  C8  UNL     1     -33.999   4.748   5.526  1.00 20.00     0.028 C 
HETATM    9  C9  UNL     1     -35.712   5.936   4.102  1.00 20.00     0.028 C 
HETATM   10  N10 UNL     1     -32.766   7.595   4.173  1.00 20.00    -0.365 N 
HETATM   11  N11 UNL     1     -34.051   7.864   5.958  1.00 20.00    -0.377 N 
HETATM   12  H26 UNL     1     -34.778   7.592   6.610  1.00 20.00     0.160 HD
ENDROOT
TORSDOF 0
ENDMDL
MODEL 7
REMARK VINA RESULT:      -3.5     24.685     26.360
REMARK  0 active torsions:
REMARK  status: ('A' for Active; 'I' for Inactive)
ROOT
HETATM    1  C1  UNL     1     -24.236  -2.788  11.771  1.00 20.00    -0.056 A 
HETATM    2  C2  UNL     1     -26.091  -2.172  10.523  1.00 20.00     0.087 A 
HETATM    3  C3  UNL     1     -23.164  -3.414  12.270  1.00 20.00     0.017 C 
HETATM    4  C4  UNL     1     -24.795  -1.491  12.332  1.00 20.00     0.158 A 
HETATM    5  C5  UNL     1     -26.932  -0.238  11.365  1.00 20.00     0.144 A 
HETATM    6  C6  UNL     1     -27.771  -0.722  10.151  1.00 20.00     0.141 A 
HETATM    7  C7  UNL     1     -25.088  -3.241  10.573  1.00 20.00     0.035 A 
HETATM    8  C8  UNL     1     -25.759  -4.591  10.833  1.00 20.00     0.028 C 
HETATM    9  C9  UNL     1     -24.274  -3.269   9.277  1.00 20.00     0.028 C 
HETATM   10  N10 UNL     1     -25.919  -1.267  11.450  1.00 20.00    -0.365 N 
HETATM   11  N11 UNL     1     -27.111  -1.976   9.722  1.00 20.00    -0.377 N 
HETATM   12  H26 UNL     1     -27.337  -2.615   8.968  1.00 20.00     0.160 HD
ENDROOT
TORSDOF 0
ENDMDL
MODEL 8
REMARK VINA RESULT:      -3.5      1.548      3.722
REMARK  0 active torsions:
REMARK  status: ('A' for Active; 'I' for Inactive)
ROOT
HETATM    1  C1  UNL     1     -35.879  17.289  -6.112  1.00 20.00    -0.056 A 
HETATM    2  C2  UNL     1     -34.249  15.696  -5.683  1.00 20.00     0.087 A 
HETATM    3  C3  UNL     1     -36.799  18.076  -6.683  1.00 20.00     0.017 C 
HETATM    4  C4  UNL     1     -35.478  17.381  -4.649  1.00 20.00     0.158 A 
HETATM    5  C5  UNL     1     -33.644  15.838  -3.499  1.00 20.00     0.144 A 
HETATM    6  C6  UNL     1     -32.845  14.719  -4.221  1.00 20.00     0.141 A 
HETATM    7  C7  UNL     1     -35.071  16.174  -6.799  1.00 20.00     0.035 A 
HETATM    8  C8  UNL     1     -34.185  16.724  -7.918  1.00 20.00     0.028 C 
HETATM    9  C9  UNL     1     -35.977  15.053  -7.313  1.00 20.00     0.028 C 
HETATM   10  N10 UNL     1     -34.478  16.340  -4.568  1.00 20.00    -0.365 N 
HETATM   11  N11 UNL     1     -33.341  14.753  -5.616  1.00 20.00    -0.377 N 
HETATM   12  H26 UNL     1     -33.085  14.191  -6.420  1.00 20.00     0.160 HD
ENDROOT
TORSDOF 0
ENDMDL
MODEL 9
REMARK VINA RESULT:      -3.5      1.007      2.372
REMARK  0 active torsions:
REMARK  status: ('A' for Active; 'I' for Inactive)
ROOT
HETATM    1  C1  UNL     1     -35.405  18.303  -3.304  1.00 20.00    -0.056 A 
HETATM    2  C2  UNL     1     -34.157  16.711  -4.439  1.00 20.00     0.087 A 
HETATM    3  C3  UNL     1     -35.827  19.263  -2.472  1.00 20.00     0.017 C 
HETATM    4  C4  UNL     1     -36.283  17.657  -4.363  1.00 20.00     0.158 A 
HETATM    5  C5  UNL     1     -35.469  15.740  -6.017  1.00 20.00     0.144 A 
HETATM    6  C6  UNL     1     -34.039  15.135  -6.040  1.00 20.00     0.141 A 
HETATM    7  C7  UNL     1     -33.998  17.684  -3.352  1.00 20.00     0.035 A 
HETATM    8  C8  UNL     1     -33.648  16.971  -2.045  1.00 20.00     0.028 C 
HETATM    9  C9  UNL     1     -32.935  18.722  -3.717  1.00 20.00     0.028 C 
HETATM   10  N10 UNL     1     -35.359  16.714  -4.954  1.00 20.00    -0.365 N 
HETATM   11  N11 UNL     1     -33.316  15.857  -4.969  1.00 20.00    -0.377 N 
HETATM   12  H26 UNL     1     -32.358  15.771  -4.646  1.00 20.00     0.160 HD
ENDROOT
TORSDOF 0
ENDMDL
