MODEL 1
REMARK VINA RESULT:      -4.7      0.000      0.000
REMARK  1 active torsions:
REMARK  status: ('A' for Active; 'I' for Inactive)
REMARK    1  A    between atoms: C2_2  and  C6_6 
ROOT
HETATM    1  C1  UNL     1     -33.550   6.074   3.830  1.00 20.00    -0.067 C 
HETATM    2  C3  UNL     1     -32.874   6.006   2.677  1.00 20.00    -0.085 C 
HETATM    3  C4  UNL     1     -34.265   4.905   4.446  1.00 20.00     0.036 C 
HETATM    4  C5  UNL     1     -35.205   5.567   5.449  1.00 20.00     0.009 C 
HETATM    5  C6  UNL     1     -33.768   7.317   4.657  1.00 20.00     0.080 C 
HETATM    6  C7  UNL     1     -34.437   6.800   5.944  1.00 20.00    -0.004 C 
HETATM    7  C8  UNL     1     -32.173   7.199   2.094  1.00 20.00     0.043 C 
HETATM    8  C9  UNL     1     -32.773   4.734   1.888  1.00 20.00     0.043 C 
HETATM    9  C10 UNL     1     -33.481   6.429   7.081  1.00 20.00     0.011 C 
ENDROOT
BRANCH   5  10
HETATM   10  C2  UNL     1     -32.492   8.071   4.879  1.00 20.00     0.240 C 
HETATM   11  O11 UNL     1     -32.431   9.295   4.937  1.00 20.00    -0.306 OA
ENDBRANCH   5  10
TORSDOF 1
ENDMDL
MODEL 2
REMARK VINA RESULT:      -4.2      1.832      3.206
REMARK  1 active torsions:
REMARK  status: ('A' for Active; 'I' for Inactive)
REMARK    1  A    between atoms: C2_2  and  C6_6 
ROOT
HETATM    1  C1  UNL     1     -33.190   7.236   4.888  1.00 20.00    -0.067 C 
HETATM    2  C3  UNL     1     -32.323   8.136   4.409  1.00 20.00    -0.085 C 
HETATM    3  C4  UNL     1     -34.114   7.502   6.044  1.00 20.00     0.036 C 
HETATM    4  C5  UNL     1     -34.542   6.102   6.469  1.00 20.00     0.009 C 
HETATM    5  C6  UNL     1     -33.341   5.811   4.414  1.00 20.00     0.080 C 
HETATM    6  C7  UNL     1     -34.582   5.294   5.165  1.00 20.00    -0.004 C 
HETATM    7  C8  UNL     1     -31.416   7.830   3.252  1.00 20.00     0.043 C 
HETATM    8  C9  UNL     1     -32.197   9.510   4.998  1.00 20.00     0.043 C 
HETATM    9  C10 UNL     1     -35.918   5.487   4.442  1.00 20.00     0.011 C 
ENDROOT
BRANCH   5  10
HETATM   10  C2  UNL     1     -33.438   5.728   2.920  1.00 20.00     0.240 C 
HETATM   11  O11 UNL     1     -32.876   4.865   2.254  1.00 20.00    -0.306 OA
ENDBRANCH   5  10
TORSDOF 1
ENDMDL
MODEL 3
REMARK VINA RESULT:      -4.1      0.926      3.412
REMARK  1 active torsions:
REMARK  status: ('A' for Active; 'I' for Inactive)
REMARK    1  A    between atoms: C2_2  and  C6_6 
ROOT
HETATM    1  C1  UNL     1     -33.498   6.541   4.304  1.00 20.00    -0.067 C 
HETATM    2  C3  UNL     1     -34.254   6.324   5.386  1.00 20.00    -0.085 C 
HETATM    3  C4  UNL     1     -33.617   5.749   3.031  1.00 20.00     0.036 C 
HETATM    4  C5  UNL     1     -32.308   6.058   2.312  1.00 20.00     0.009 C 
HETATM    5  C6  UNL     1     -32.375   7.543   4.194  1.00 20.00     0.080 C 
HETATM    6  C7  UNL     1     -31.980   7.504   2.706  1.00 20.00    -0.004 C 
HETATM    7  C8  UNL     1     -34.103   7.137   6.639  1.00 20.00     0.043 C 
HETATM    8  C9  UNL     1     -35.302   5.249   5.421  1.00 20.00     0.043 C 
HETATM    9  C10 UNL     1     -32.715   8.498   1.802  1.00 20.00     0.011 C 
ENDROOT
BRANCH   5  10
HETATM   10  C2  UNL     1     -32.784   8.896   4.694  1.00 20.00     0.240 C 
HETATM   11  O11 UNL     1     -32.004   9.692   5.206  1.00 20.00    -0.306 OA
ENDBRANCH   5  10
TORSDOF 1
ENDMDL
MODEL 4
REMARK VINA RESULT:      -3.8     12.146     14.213
REMARK  1 active torsions:
REMARK  status: ('A' for Active; 'I' for Inactive)
REMARK    1  A    between atoms: C2_2  and  C6_6 
ROOT
HETATM    1  C1  UNL     1     -34.141  17.326  -4.600  1.00 20.00    -0.067 C 
HETATM    2  C3  UNL     1     -33.544  17.695  -3.461  1.00 20.00    -0.085 C 
HETATM    3  C4  UNL     1     -34.319  18.240  -5.781  1.00 20.00     0.036 C 
HETATM    4  C5  UNL     1     -35.396  17.536  -6.600  1.00 20.00     0.009 C 
HETATM    5  C6  UNL     1     -34.788  15.990  -4.870  1.00 20.00     0.080 C 
HETATM    6  C7  UNL     1     -35.146  16.040  -6.366  1.00 20.00    -0.004 C 
HETATM    7  C8  UNL     1     -33.387  16.751  -2.303  1.00 20.00     0.043 C 
HETATM    8  C9  UNL     1     -32.993  19.077  -3.263  1.00 20.00     0.043 C 
HETATM    9  C10 UNL     1     -34.071  15.510  -7.320  1.00 20.00     0.011 C 
ENDROOT
BRANCH   5  10
HETATM   10  C2  UNL     1     -33.896  14.850  -4.481  1.00 20.00     0.240 C 
HETATM   11  O11 UNL     1     -34.313  13.794  -4.016  1.00 20.00    -0.306 OA
ENDBRANCH   5  10
TORSDOF 1
ENDMDL
MODEL 5
REMARK VINA RESULT:      -3.8     11.897     13.599
REMARK  1 active torsions:
REMARK  status: ('A' for Active; 'I' for Inactive)
REMARK    1  A    between atoms: C2_2  and  C6_6 
ROOT
HETATM    1  C1  UNL     1     -35.154  16.744  -4.855  1.00 20.00    -0.067 C 
HETATM    2  C3  UNL     1     -36.074  16.153  -5.626  1.00 20.00    -0.085 C 
HETATM    3  C4  UNL     1     -35.316  18.119  -4.269  1.00 20.00     0.036 C 
HETATM    4  C5  UNL     1     -33.891  18.496  -3.879  1.00 20.00     0.009 C 
HETATM    5  C6  UNL     1     -33.798  16.183  -4.506  1.00 20.00     0.080 C 
HETATM    6  C7  UNL     1     -33.238  17.170  -3.465  1.00 20.00    -0.004 C 
HETATM    7  C8  UNL     1     -35.873  14.777  -6.193  1.00 20.00     0.043 C 
HETATM    8  C9  UNL     1     -37.369  16.826  -5.977  1.00 20.00     0.043 C 
HETATM    9  C10 UNL     1     -33.553  16.837  -2.004  1.00 20.00     0.011 C 
ENDROOT
BRANCH   5  10
HETATM   10  C2  UNL     1     -33.886  14.763  -4.032  1.00 20.00     0.240 C 
HETATM   11  O11 UNL     1     -33.034  13.915  -4.273  1.00 20.00    -0.306 OA
ENDBRANCH   5  10
TORSDOF 1
ENDMDL
MODEL 6
REMARK VINA RESULT:      -3.7      1.511      2.647
REMARK  1 active torsions:
REMARK  status: ('A' for Active; 'I' for Inactive)
REMARK    1  A    between atoms: C2_2  and  C6_6 
ROOT
HETATM    1  C1  UNL     1     -33.615   6.566   4.393  1.00 20.00    -0.067 C 
HETATM    2  C3  UNL     1     -33.672   5.315   3.922  1.00 20.00    -0.085 C 
HETATM    3  C4  UNL     1     -33.926   6.936   5.816  1.00 20.00     0.036 C 
HETATM    4  C5  UNL     1     -34.149   8.443   5.738  1.00 20.00     0.009 C 
HETATM    5  C6  UNL     1     -33.305   7.803   3.586  1.00 20.00     0.080 C 
HETATM    6  C7  UNL     1     -33.191   8.920   4.639  1.00 20.00    -0.004 C 
HETATM    7  C8  UNL     1     -33.354   4.987   2.492  1.00 20.00     0.043 C 
HETATM    8  C9  UNL     1     -34.062   4.155   4.792  1.00 20.00     0.043 C 
HETATM    9  C10 UNL     1     -31.786   9.155   5.202  1.00 20.00     0.011 C 
ENDROOT
BRANCH   5  10
HETATM   10  C2  UNL     1     -32.084   7.623   2.735  1.00 20.00     0.240 C 
HETATM   11  O11 UNL     1     -32.014   7.990   1.567  1.00 20.00    -0.306 OA
ENDBRANCH   5  10
TORSDOF 1
ENDMDL
MODEL 7
REMARK VINA RESULT:      -3.7      1.737      3.535
REMARK  1 active torsions:
REMARK  status: ('A' for Active; 'I' for Inactive)
REMARK    1  A    between atoms: C2_2  and  C6_6 
ROOT
HETATM    1  C1  UNL     1     -33.385   7.042   4.370  1.00 20.00    -0.067 C 
HETATM    2  C3  UNL     1     -33.181   8.199   5.011  1.00 20.00    -0.085 C 
HETATM    3  C4  UNL     1     -32.487   6.523   3.281  1.00 20.00     0.036 C 
HETATM    4  C5  UNL     1     -33.350   5.466   2.600  1.00 20.00     0.009 C 
HETATM    5  C6  UNL     1     -34.557   6.112   4.569  1.00 20.00     0.080 C 
HETATM    6  C7  UNL     1     -34.200   4.871   3.731  1.00 20.00    -0.004 C 
HETATM    7  C8  UNL     1     -34.102   8.682   6.093  1.00 20.00     0.043 C 
HETATM    8  C9  UNL     1     -32.019   9.092   4.688  1.00 20.00     0.043 C 
HETATM    9  C10 UNL     1     -33.433   3.773   4.473  1.00 20.00     0.011 C 
ENDROOT
BRANCH   5  10
HETATM   10  C2  UNL     1     -34.806   5.832   6.021  1.00 20.00     0.240 C 
HETATM   11  O11 UNL     1     -33.976   5.315   6.762  1.00 20.00    -0.306 OA
ENDBRANCH   5  10
TORSDOF 1
ENDMDL
MODEL 8
REMARK VINA RESULT:      -3.7     12.675     14.607
REMARK  1 active torsions:
REMARK  status: ('A' for Active; 'I' for Inactive)
REMARK    1  A    between atoms: C2_2  and  C6_6 
ROOT
HETATM    1  C1  UNL     1     -34.882  16.686  -4.852  1.00 20.00    -0.067 C 
HETATM    2  C3  UNL     1     -34.065  15.939  -4.099  1.00 20.00    -0.085 C 
HETATM    3  C4  UNL     1     -34.937  18.187  -4.785  1.00 20.00     0.036 C 
HETATM    4  C5  UNL     1     -36.266  18.511  -5.459  1.00 20.00     0.009 C 
HETATM    5  C6  UNL     1     -35.915  16.166  -5.821  1.00 20.00     0.080 C 
HETATM    6  C7  UNL     1     -36.430  17.429  -6.535  1.00 20.00    -0.004 C 
HETATM    7  C8  UNL     1     -34.041  14.441  -4.195  1.00 20.00     0.043 C 
HETATM    8  C9  UNL     1     -33.118  16.550  -3.107  1.00 20.00     0.043 C 
HETATM    9  C10 UNL     1     -35.684  17.813  -7.816  1.00 20.00     0.011 C 
ENDROOT
BRANCH   5  10
HETATM   10  C2  UNL     1     -35.348  15.122  -6.735  1.00 20.00     0.240 C 
HETATM   11  O11 UNL     1     -36.027  14.256  -7.275  1.00 20.00    -0.306 OA
ENDBRANCH   5  10
TORSDOF 1
ENDMDL
MODEL 9
REMARK VINA RESULT:      -3.6     12.468     13.842
REMARK  1 active torsions:
REMARK  status: ('A' for Active; 'I' for Inactive)
REMARK    1  A    between atoms: C2_2  and  C6_6 
ROOT
HETATM    1  C1  UNL     1     -34.116  16.673  -3.854  1.00 20.00    -0.067 C 
HETATM    2  C3  UNL     1     -34.008  17.618  -2.912  1.00 20.00    -0.085 C 
HETATM    3  C4  UNL     1     -33.527  15.296  -3.723  1.00 20.00     0.036 C 
HETATM    4  C5  UNL     1     -33.528  14.785  -5.161  1.00 20.00     0.009 C 
HETATM    5  C6  UNL     1     -34.767  16.838  -5.205  1.00 20.00     0.080 C 
HETATM    6  C7  UNL     1     -34.773  15.417  -5.796  1.00 20.00    -0.004 C 
HETATM    7  C8  UNL     1     -34.611  18.982  -3.081  1.00 20.00     0.043 C 
HETATM    8  C9  UNL     1     -33.276  17.377  -1.624  1.00 20.00     0.043 C 
HETATM    9  C10 UNL     1     -36.023  14.584  -5.497  1.00 20.00     0.011 C 
ENDROOT
BRANCH   5  10
HETATM   10  C2  UNL     1     -36.120  17.474  -5.098  1.00 20.00     0.240 C 
HETATM   11  O11 UNL     1     -36.602  18.188  -5.971  1.00 20.00    -0.306 OA
ENDBRANCH   5  10
TORSDOF 1
ENDMDL
