MODEL 1
REMARK VINA RESULT:      -3.8      0.000      0.000
REMARK  1 active torsions:
REMARK  status: ('A' for Active; 'I' for Inactive)
REMARK    1  A    between atoms: C3_3  and  C7_7 
ROOT
HETATM    1  C1  UNL     1     -32.606   8.707   3.761  1.00 20.00     0.346 C 
HETATM    2  C2  UNL     1     -33.275   6.514   3.177  1.00 20.00     0.233 C 
HETATM    3  C3  UNL     1     -33.454   6.400   4.707  1.00 20.00     0.081 C 
HETATM    4  C4  UNL     1     -32.887   5.159   2.578  1.00 20.00     0.044 C 
HETATM    5  C6  UNL     1     -32.030   7.899   1.570  1.00 20.00     0.311 C 
HETATM    6  N8  UNL     1     -32.225   7.534   2.969  1.00 20.00     0.098 N 
HETATM    7  S9  UNL     1     -33.345   8.113   5.303  1.00 20.00    -0.132 SA
ENDROOT
BRANCH   3   8
HETATM    8  C7  UNL     1     -34.778   5.775   5.121  1.00 20.00     0.013 C 
HETATM    9  C5  UNL     1     -34.762   5.330   6.548  1.00 20.00     0.006 C 
ENDBRANCH   3   8
TORSDOF 1
ENDMDL
MODEL 2
REMARK VINA RESULT:      -3.4     12.151     12.911
REMARK  1 active torsions:
REMARK  status: ('A' for Active; 'I' for Inactive)
REMARK    1  A    between atoms: C3_3  and  C7_7 
ROOT
HETATM    1  C1  UNL     1     -35.516  17.348  -5.252  1.00 20.00     0.346 C 
HETATM    2  C2  UNL     1     -34.078  15.793  -4.197  1.00 20.00     0.233 C 
HETATM    3  C3  UNL     1     -33.583  17.070  -3.484  1.00 20.00     0.081 C 
HETATM    4  C4  UNL     1     -32.937  14.780  -4.342  1.00 20.00     0.044 C 
HETATM    5  C6  UNL     1     -35.258  15.183  -6.269  1.00 20.00     0.311 C 
HETATM    6  N8  UNL     1     -34.593  16.238  -5.510  1.00 20.00     0.098 N 
HETATM    7  S9  UNL     1     -34.831  18.326  -3.891  1.00 20.00    -0.132 SA
ENDROOT
BRANCH   3   8
HETATM    8  C7  UNL     1     -33.456  16.914  -1.976  1.00 20.00     0.013 C 
HETATM    9  C5  UNL     1     -32.624  18.001  -1.372  1.00 20.00     0.006 C 
ENDBRANCH   3   8
TORSDOF 1
ENDMDL
MODEL 3
REMARK VINA RESULT:      -3.3     16.055     16.822
REMARK  1 active torsions:
REMARK  status: ('A' for Active; 'I' for Inactive)
REMARK    1  A    between atoms: C3_3  and  C7_7 
ROOT
HETATM    1  C1  UNL     1     -23.179  18.046  12.054  1.00 20.00     0.346 C 
HETATM    2  C2  UNL     1     -24.282  18.510  10.013  1.00 20.00     0.233 C 
HETATM    3  C3  UNL     1     -22.907  19.120   9.665  1.00 20.00     0.081 C 
HETATM    4  C4  UNL     1     -25.404  19.263   9.289  1.00 20.00     0.044 C 
HETATM    5  C6  UNL     1     -25.582  17.932  12.020  1.00 20.00     0.311 C 
HETATM    6  N8  UNL     1     -24.406  18.610  11.483  1.00 20.00     0.098 N 
HETATM    7  S9  UNL     1     -21.803  18.524  10.979  1.00 20.00    -0.132 SA
ENDROOT
BRANCH   3   8
HETATM    8  C7  UNL     1     -22.383  18.699   8.298  1.00 20.00     0.013 C 
HETATM    9  C5  UNL     1     -21.658  17.392   8.358  1.00 20.00     0.006 C 
ENDBRANCH   3   8
TORSDOF 1
ENDMDL
MODEL 4
REMARK VINA RESULT:      -3.2     12.417     13.377
REMARK  1 active torsions:
REMARK  status: ('A' for Active; 'I' for Inactive)
REMARK    1  A    between atoms: C3_3  and  C7_7 
ROOT
HETATM    1  C1  UNL     1     -36.326  17.929  -4.869  1.00 20.00     0.346 C 
HETATM    2  C2  UNL     1     -34.893  16.053  -5.034  1.00 20.00     0.233 C 
HETATM    3  C3  UNL     1     -33.963  16.970  -4.211  1.00 20.00     0.081 C 
HETATM    4  C4  UNL     1     -34.074  15.126  -5.937  1.00 20.00     0.044 C 
HETATM    5  C6  UNL     1     -36.829  16.270  -6.537  1.00 20.00     0.311 C 
HETATM    6  N8  UNL     1     -35.764  16.958  -5.814  1.00 20.00     0.098 N 
HETATM    7  S9  UNL     1     -35.039  18.328  -3.661  1.00 20.00    -0.132 SA
ENDROOT
BRANCH   3   8
HETATM    8  C7  UNL     1     -33.327  16.277  -3.014  1.00 20.00     0.013 C 
HETATM    9  C5  UNL     1     -33.525  17.053  -1.751  1.00 20.00     0.006 C 
ENDBRANCH   3   8
TORSDOF 1
ENDMDL
MODEL 5
REMARK VINA RESULT:      -3.2     12.195     13.321
REMARK  1 active torsions:
REMARK  status: ('A' for Active; 'I' for Inactive)
REMARK    1  A    between atoms: C3_3  and  C7_7 
ROOT
HETATM    1  C1  UNL     1     -34.115  15.135  -6.082  1.00 20.00     0.346 C 
HETATM    2  C2  UNL     1     -34.282  17.227  -4.990  1.00 20.00     0.233 C 
HETATM    3  C3  UNL     1     -34.088  16.341  -3.741  1.00 20.00     0.081 C 
HETATM    4  C4  UNL     1     -35.146  18.447  -4.656  1.00 20.00     0.044 C 
HETATM    5  C6  UNL     1     -35.033  16.982  -7.320  1.00 20.00     0.311 C 
HETATM    6  N8  UNL     1     -34.917  16.359  -6.005  1.00 20.00     0.098 N 
HETATM    7  S9  UNL     1     -33.564  14.733  -4.405  1.00 20.00    -0.132 SA
ENDROOT
BRANCH   3   8
HETATM    8  C7  UNL     1     -33.049  16.880  -2.768  1.00 20.00     0.013 C 
HETATM    9  C5  UNL     1     -33.653  17.223  -1.442  1.00 20.00     0.006 C 
ENDBRANCH   3   8
TORSDOF 1
ENDMDL
MODEL 6
REMARK VINA RESULT:      -3.1      1.711      2.449
REMARK  1 active torsions:
REMARK  status: ('A' for Active; 'I' for Inactive)
REMARK    1  A    between atoms: C3_3  and  C7_7 
ROOT
HETATM    1  C1  UNL     1     -32.133   7.224   3.010  1.00 20.00     0.346 C 
HETATM    2  C2  UNL     1     -33.415   7.148   4.997  1.00 20.00     0.233 C 
HETATM    3  C3  UNL     1     -34.181   6.072   4.199  1.00 20.00     0.081 C 
HETATM    4  C4  UNL     1     -34.358   7.880   5.957  1.00 20.00     0.044 C 
HETATM    5  C6  UNL     1     -31.931   9.060   4.550  1.00 20.00     0.311 C 
HETATM    6  N8  UNL     1     -32.834   8.061   3.988  1.00 20.00     0.098 N 
HETATM    7  S9  UNL     1     -33.110   5.718   2.774  1.00 20.00    -0.132 SA
ENDROOT
BRANCH   3   8
HETATM    8  C7  UNL     1     -34.448   4.801   4.992  1.00 20.00     0.013 C 
HETATM    9  C5  UNL     1     -34.467   5.058   6.466  1.00 20.00     0.006 C 
ENDBRANCH   3   8
TORSDOF 1
ENDMDL
MODEL 7
REMARK VINA RESULT:      -3.1      1.921      4.191
REMARK  1 active torsions:
REMARK  status: ('A' for Active; 'I' for Inactive)
REMARK    1  A    between atoms: C3_3  and  C7_7 
ROOT
HETATM    1  C1  UNL     1     -33.955   5.180   3.980  1.00 20.00     0.346 C 
HETATM    2  C2  UNL     1     -33.655   7.432   4.641  1.00 20.00     0.233 C 
HETATM    3  C3  UNL     1     -32.548   7.368   3.566  1.00 20.00     0.081 C 
HETATM    4  C4  UNL     1     -33.271   8.415   5.752  1.00 20.00     0.044 C 
HETATM    5  C6  UNL     1     -34.926   5.881   6.066  1.00 20.00     0.311 C 
HETATM    6  N8  UNL     1     -33.803   6.051   5.149  1.00 20.00     0.098 N 
HETATM    7  S9  UNL     1     -32.873   5.817   2.676  1.00 20.00    -0.132 SA
ENDROOT
BRANCH   3   8
HETATM    8  C7  UNL     1     -32.564   8.548   2.604  1.00 20.00     0.013 C 
HETATM    9  C5  UNL     1     -32.098   8.158   1.237  1.00 20.00     0.006 C 
ENDBRANCH   3   8
TORSDOF 1
ENDMDL
MODEL 8
REMARK VINA RESULT:      -3.0      1.566      3.656
REMARK  1 active torsions:
REMARK  status: ('A' for Active; 'I' for Inactive)
REMARK    1  A    between atoms: C3_3  and  C7_7 
ROOT
HETATM    1  C1  UNL     1     -33.973   7.318   6.316  1.00 20.00     0.346 C 
HETATM    2  C2  UNL     1     -33.396   6.065   4.393  1.00 20.00     0.233 C 
HETATM    3  C3  UNL     1     -33.213   7.479   3.799  1.00 20.00     0.081 C 
HETATM    4  C4  UNL     1     -33.843   5.079   3.309  1.00 20.00     0.044 C 
HETATM    5  C6  UNL     1     -34.596   4.995   6.256  1.00 20.00     0.311 C 
HETATM    6  N8  UNL     1     -34.407   6.206   5.464  1.00 20.00     0.098 N 
HETATM    7  S9  UNL     1     -33.249   8.583   5.242  1.00 20.00    -0.132 SA
ENDROOT
BRANCH   3   8
HETATM    8  C7  UNL     1     -31.911   7.651   3.029  1.00 20.00     0.013 C 
HETATM    9  C5  UNL     1     -32.153   8.072   1.614  1.00 20.00     0.006 C 
ENDBRANCH   3   8
TORSDOF 1
ENDMDL
MODEL 9
REMARK VINA RESULT:      -3.0      1.772      3.958
REMARK  1 active torsions:
REMARK  status: ('A' for Active; 'I' for Inactive)
REMARK    1  A    between atoms: C3_3  and  C7_7 
ROOT
HETATM    1  C1  UNL     1     -33.419   5.463   3.130  1.00 20.00     0.346 C 
HETATM    2  C2  UNL     1     -33.777   7.146   4.754  1.00 20.00     0.233 C 
HETATM    3  C3  UNL     1     -32.482   7.711   4.131  1.00 20.00     0.081 C 
HETATM    4  C4  UNL     1     -33.866   7.513   6.238  1.00 20.00     0.044 C 
HETATM    5  C6  UNL     1     -34.941   4.985   4.930  1.00 20.00     0.311 C 
HETATM    6  N8  UNL     1     -33.717   5.682   4.548  1.00 20.00     0.098 N 
HETATM    7  S9  UNL     1     -32.256   6.748   2.607  1.00 20.00    -0.132 SA
ENDROOT
BRANCH   3   8
HETATM    8  C7  UNL     1     -32.558   9.198   3.815  1.00 20.00     0.013 C 
HETATM    9  C5  UNL     1     -32.808   9.446   2.361  1.00 20.00     0.006 C 
ENDBRANCH   3   8
TORSDOF 1
ENDMDL
