MODEL 1
REMARK VINA RESULT:      -4.3      0.000      0.000
REMARK  1 active torsions:
REMARK  status: ('A' for Active; 'I' for Inactive)
REMARK    1  A    between atoms: C6_6  and  N10_10 
ROOT
HETATM    1  C1  UNL     1     -32.261   7.691   1.916  1.00 20.00     0.066 C 
HETATM    2  C2  UNL     1     -33.788   5.561   3.958  1.00 20.00    -0.054 C 
HETATM    3  C3  UNL     1     -34.433   4.698   4.747  1.00 20.00     0.016 C 
HETATM    4  C4  UNL     1     -33.034   5.393   2.654  1.00 20.00     0.057 C 
HETATM    5  C5  UNL     1     -32.390   6.760   3.021  1.00 20.00     0.134 C 
HETATM    6  C6  UNL     1     -33.566   7.057   4.001  1.00 20.00     0.268 C 
HETATM    7  N9  UNL     1     -32.157   8.435   1.033  1.00 20.00    -0.197 NA
ENDROOT
BRANCH   6   8
HETATM    8  N10 UNL     1     -32.993   7.526   5.259  1.00 20.00     0.089 N 
HETATM    9  C7  UNL     1     -33.986   7.460   6.332  1.00 20.00     0.310 C 
HETATM   10  C8  UNL     1     -32.487   8.891   5.116  1.00 20.00     0.310 C 
ENDBRANCH   6   8
TORSDOF 1
ENDMDL
MODEL 2
REMARK VINA RESULT:      -4.0     11.879     13.312
REMARK  1 active torsions:
REMARK  status: ('A' for Active; 'I' for Inactive)
REMARK    1  A    between atoms: C6_6  and  N10_10 
ROOT
HETATM    1  C1  UNL     1     -35.166  14.925  -6.290  1.00 20.00     0.066 C 
HETATM    2  C2  UNL     1     -33.782  16.217  -3.559  1.00 20.00    -0.054 C 
HETATM    3  C3  UNL     1     -33.252  16.709  -2.437  1.00 20.00     0.016 C 
HETATM    4  C4  UNL     1     -33.727  14.847  -4.205  1.00 20.00     0.057 C 
HETATM    5  C5  UNL     1     -34.157  15.600  -5.496  1.00 20.00     0.134 C 
HETATM    6  C6  UNL     1     -34.682  16.789  -4.633  1.00 20.00     0.268 C 
HETATM    7  N9  UNL     1     -35.973  14.385  -6.925  1.00 20.00    -0.197 NA
ENDROOT
BRANCH   6   8
HETATM    8  N10 UNL     1     -34.176  18.026  -5.221  1.00 20.00     0.089 N 
HETATM    9  C7  UNL     1     -34.546  19.176  -4.394  1.00 20.00     0.310 C 
HETATM   10  C8  UNL     1     -34.683  18.193  -6.582  1.00 20.00     0.310 C 
ENDBRANCH   6   8
TORSDOF 1
ENDMDL
MODEL 3
REMARK VINA RESULT:      -3.5     11.237     13.357
REMARK  1 active torsions:
REMARK  status: ('A' for Active; 'I' for Inactive)
REMARK    1  A    between atoms: C6_6  and  N10_10 
ROOT
HETATM    1  C1  UNL     1     -35.029  14.063  -4.532  1.00 20.00     0.066 C 
HETATM    2  C2  UNL     1     -33.773  17.098  -4.032  1.00 20.00    -0.054 C 
HETATM    3  C3  UNL     1     -33.288  18.319  -3.791  1.00 20.00     0.016 C 
HETATM    4  C4  UNL     1     -33.507  15.746  -3.402  1.00 20.00     0.057 C 
HETATM    5  C5  UNL     1     -34.120  15.178  -4.714  1.00 20.00     0.134 C 
HETATM    6  C6  UNL     1     -34.805  16.551  -4.994  1.00 20.00     0.268 C 
HETATM    7  N9  UNL     1     -35.756  13.171  -4.386  1.00 20.00    -0.197 NA
ENDROOT
BRANCH   6   8
HETATM    8  N10 UNL     1     -34.550  16.904  -6.387  1.00 20.00     0.089 N 
HETATM    9  C7  UNL     1     -35.091  18.230  -6.689  1.00 20.00     0.310 C 
HETATM   10  C8  UNL     1     -35.125  15.902  -7.284  1.00 20.00     0.310 C 
ENDBRANCH   6   8
TORSDOF 1
ENDMDL
MODEL 4
REMARK VINA RESULT:      -3.5      1.698      2.961
REMARK  1 active torsions:
REMARK  status: ('A' for Active; 'I' for Inactive)
REMARK    1  A    between atoms: C6_6  and  N10_10 
ROOT
HETATM    1  C1  UNL     1     -32.906   5.238   2.546  1.00 20.00     0.066 C 
HETATM    2  C2  UNL     1     -32.465   8.046   4.266  1.00 20.00    -0.054 C 
HETATM    3  C3  UNL     1     -32.244   9.168   4.955  1.00 20.00     0.016 C 
HETATM    4  C4  UNL     1     -32.150   7.639   2.841  1.00 20.00     0.057 C 
HETATM    5  C5  UNL     1     -33.238   6.550   3.067  1.00 20.00     0.134 C 
HETATM    6  C6  UNL     1     -33.080   6.707   4.611  1.00 20.00     0.268 C 
HETATM    7  N9  UNL     1     -32.642   4.189   2.129  1.00 20.00    -0.197 NA
ENDROOT
BRANCH   6   8
HETATM    8  N10 UNL     1     -34.416   6.811   5.190  1.00 20.00     0.089 N 
HETATM    9  C7  UNL     1     -34.340   6.884   6.650  1.00 20.00     0.310 C 
HETATM   10  C8  UNL     1     -35.243   5.676   4.780  1.00 20.00     0.310 C 
ENDBRANCH   6   8
TORSDOF 1
ENDMDL
MODEL 5
REMARK VINA RESULT:      -3.4     15.121     15.930
REMARK  1 active torsions:
REMARK  status: ('A' for Active; 'I' for Inactive)
REMARK    1  A    between atoms: C6_6  and  N10_10 
ROOT
HETATM    1  C1  UNL     1     -25.416  19.261   7.911  1.00 20.00     0.066 C 
HETATM    2  C2  UNL     1     -22.521  18.067   9.020  1.00 20.00    -0.054 C 
HETATM    3  C3  UNL     1     -21.357  17.560   9.431  1.00 20.00     0.016 C 
HETATM    4  C4  UNL     1     -22.912  18.889   7.808  1.00 20.00     0.057 C 
HETATM    5  C5  UNL     1     -24.167  19.261   8.647  1.00 20.00     0.134 C 
HETATM    6  C6  UNL     1     -23.936  18.013   9.555  1.00 20.00     0.268 C 
HETATM    7  N9  UNL     1     -26.416  19.263   7.322  1.00 20.00    -0.197 NA
ENDROOT
BRANCH   6   8
HETATM    8  N10 UNL     1     -24.051  18.443  10.945  1.00 20.00     0.089 N 
HETATM    9  C7  UNL     1     -23.716  17.344  11.852  1.00 20.00     0.310 C 
HETATM   10  C8  UNL     1     -25.400  18.937  11.220  1.00 20.00     0.310 C 
ENDBRANCH   6   8
TORSDOF 1
ENDMDL
MODEL 6
REMARK VINA RESULT:      -3.4     11.391     13.298
REMARK  1 active torsions:
REMARK  status: ('A' for Active; 'I' for Inactive)
REMARK    1  A    between atoms: C6_6  and  N10_10 
ROOT
HETATM    1  C1  UNL     1     -33.661  15.170  -3.972  1.00 20.00     0.066 C 
HETATM    2  C2  UNL     1     -34.288  18.054  -2.445  1.00 20.00    -0.054 C 
HETATM    3  C3  UNL     1     -34.560  19.190  -1.799  1.00 20.00     0.016 C 
HETATM    4  C4  UNL     1     -33.387  16.879  -2.121  1.00 20.00     0.057 C 
HETATM    5  C5  UNL     1     -33.486  16.571  -3.642  1.00 20.00     0.134 C 
HETATM    6  C6  UNL     1     -34.779  17.439  -3.738  1.00 20.00     0.268 C 
HETATM    7  N9  UNL     1     -33.801  14.049  -4.236  1.00 20.00    -0.197 NA
ENDROOT
BRANCH   6   8
HETATM    8  N10 UNL     1     -34.642  18.322  -4.893  1.00 20.00     0.089 N 
HETATM    9  C7  UNL     1     -35.762  19.261  -4.958  1.00 20.00     0.310 C 
HETATM   10  C8  UNL     1     -34.557  17.542  -6.128  1.00 20.00     0.310 C 
ENDBRANCH   6   8
TORSDOF 1
ENDMDL
MODEL 7
REMARK VINA RESULT:      -3.3     12.087     13.167
REMARK  1 active torsions:
REMARK  status: ('A' for Active; 'I' for Inactive)
REMARK    1  A    between atoms: C6_6  and  N10_10 
ROOT
HETATM    1  C1  UNL     1     -32.558  18.178  -1.657  1.00 20.00     0.066 C 
HETATM    2  C2  UNL     1     -34.209  16.690  -4.126  1.00 20.00    -0.054 C 
HETATM    3  C3  UNL     1     -34.835  16.093  -5.143  1.00 20.00     0.016 C 
HETATM    4  C4  UNL     1     -33.077  16.251  -3.219  1.00 20.00     0.057 C 
HETATM    5  C5  UNL     1     -33.594  17.374  -2.275  1.00 20.00     0.134 C 
HETATM    6  C6  UNL     1     -34.329  18.050  -3.474  1.00 20.00     0.268 C 
HETATM    7  N9  UNL     1     -31.729  18.821  -1.162  1.00 20.00    -0.197 NA
ENDROOT
BRANCH   6   8
HETATM    8  N10 UNL     1     -35.685  18.373  -3.042  1.00 20.00     0.089 N 
HETATM    9  C7  UNL     1     -36.440  18.987  -4.137  1.00 20.00     0.310 C 
HETATM   10  C8  UNL     1     -35.657  19.263  -1.882  1.00 20.00     0.310 C 
ENDBRANCH   6   8
TORSDOF 1
ENDMDL
MODEL 8
REMARK VINA RESULT:      -3.3      1.575      4.107
REMARK  1 active torsions:
REMARK  status: ('A' for Active; 'I' for Inactive)
REMARK    1  A    between atoms: C6_6  and  N10_10 
ROOT
HETATM    1  C1  UNL     1     -34.779   5.453   5.095  1.00 20.00     0.066 C 
HETATM    2  C2  UNL     1     -32.927   8.210   5.020  1.00 20.00    -0.054 C 
HETATM    3  C3  UNL     1     -32.218   9.341   5.004  1.00 20.00     0.016 C 
HETATM    4  C4  UNL     1     -33.560   7.412   6.143  1.00 20.00     0.057 C 
HETATM    5  C5  UNL     1     -33.565   6.246   5.113  1.00 20.00     0.134 C 
HETATM    6  C6  UNL     1     -33.428   7.271   3.945  1.00 20.00     0.268 C 
HETATM    7  N9  UNL     1     -35.750   4.817   5.080  1.00 20.00    -0.197 NA
ENDROOT
BRANCH   6   8
HETATM    8  N10 UNL     1     -32.378   6.793   3.051  1.00 20.00     0.089 N 
HETATM    9  C7  UNL     1     -32.182   7.728   1.942  1.00 20.00     0.310 C 
HETATM   10  C8  UNL     1     -32.702   5.461   2.542  1.00 20.00     0.310 C 
ENDBRANCH   6   8
TORSDOF 1
ENDMDL
MODEL 9
REMARK VINA RESULT:      -3.3      1.425      3.113
REMARK  1 active torsions:
REMARK  status: ('A' for Active; 'I' for Inactive)
REMARK    1  A    between atoms: C6_6  and  N10_10 
ROOT
HETATM    1  C1  UNL     1     -32.517   9.020   5.055  1.00 20.00     0.066 C 
HETATM    2  C2  UNL     1     -34.157   6.135   5.213  1.00 20.00    -0.054 C 
HETATM    3  C3  UNL     1     -34.801   4.970   5.317  1.00 20.00     0.016 C 
HETATM    4  C4  UNL     1     -34.314   7.461   5.929  1.00 20.00     0.057 C 
HETATM    5  C5  UNL     1     -33.532   8.042   4.716  1.00 20.00     0.134 C 
HETATM    6  C6  UNL     1     -32.992   6.618   4.378  1.00 20.00     0.268 C 
HETATM    7  N9  UNL     1     -31.705   9.802   5.326  1.00 20.00    -0.197 NA
ENDROOT
BRANCH   6   8
HETATM    8  N10 UNL     1     -33.169   6.400   2.945  1.00 20.00     0.089 N 
HETATM    9  C7  UNL     1     -32.898   5.003   2.601  1.00 20.00     0.310 C 
HETATM   10  C8  UNL     1     -32.300   7.292   2.178  1.00 20.00     0.310 C 
ENDBRANCH   6   8
TORSDOF 1
ENDMDL
