MODEL 1
REMARK VINA RESULT:      -4.6      0.000      0.000
REMARK  0 active torsions:
REMARK  status: ('A' for Active; 'I' for Inactive)
ROOT
HETATM    1  C1  UNL     1     -34.263   5.840   4.372  1.00 20.00     0.223 C 
HETATM    2  C2  UNL     1     -32.446   7.061   3.483  1.00 20.00     0.130 C 
HETATM    3  C3  UNL     1     -34.126   7.100   5.212  1.00 20.00     0.079 C 
HETATM    4  C4  UNL     1     -33.306   8.025   4.290  1.00 20.00     0.012 C 
HETATM    5  C5  UNL     1     -33.474   6.750   6.543  1.00 20.00     0.020 C 
HETATM    6  C6  UNL     1     -32.491   9.107   4.979  1.00 20.00     0.012 C 
HETATM    7  C7  UNL     1     -32.972   4.816   2.463  1.00 20.00     0.152 C 
HETATM    8  N8  UNL     1     -33.267   5.877   3.400  1.00 20.00    -0.356 N 
HETATM    9  O9  UNL     1     -35.081   4.953   4.578  1.00 20.00    -0.273 OA
ENDROOT
TORSDOF 0
ENDMDL
MODEL 2
REMARK VINA RESULT:      -4.1      1.430      2.550
REMARK  0 active torsions:
REMARK  status: ('A' for Active; 'I' for Inactive)
ROOT
HETATM    1  C1  UNL     1     -33.015   6.074   3.331  1.00 20.00     0.223 C 
HETATM    2  C2  UNL     1     -33.814   7.540   5.005  1.00 20.00     0.130 C 
HETATM    3  C3  UNL     1     -32.151   7.323   3.272  1.00 20.00     0.079 C 
HETATM    4  C4  UNL     1     -32.392   7.959   4.657  1.00 20.00     0.012 C 
HETATM    5  C5  UNL     1     -32.569   8.169   2.077  1.00 20.00     0.020 C 
HETATM    6  C6  UNL     1     -32.180   9.461   4.750  1.00 20.00     0.012 C 
HETATM    7  C7  UNL     1     -35.039   5.363   4.657  1.00 20.00     0.152 C 
HETATM    8  N8  UNL     1     -33.953   6.264   4.343  1.00 20.00    -0.356 N 
HETATM    9  O9  UNL     1     -32.909   5.118   2.575  1.00 20.00    -0.273 OA
ENDROOT
TORSDOF 0
ENDMDL
MODEL 3
REMARK VINA RESULT:      -4.0      1.521      3.117
REMARK  0 active torsions:
REMARK  status: ('A' for Active; 'I' for Inactive)
ROOT
HETATM    1  C1  UNL     1     -33.736   7.056   5.539  1.00 20.00     0.223 C 
HETATM    2  C2  UNL     1     -32.638   7.157   3.448  1.00 20.00     0.130 C 
HETATM    3  C3  UNL     1     -34.115   5.793   4.781  1.00 20.00     0.079 C 
HETATM    4  C4  UNL     1     -33.005   5.702   3.713  1.00 20.00     0.012 C 
HETATM    5  C5  UNL     1     -35.534   5.933   4.246  1.00 20.00     0.020 C 
HETATM    6  C6  UNL     1     -33.356   4.941   2.445  1.00 20.00     0.012 C 
HETATM    7  C7  UNL     1     -32.389   9.121   5.010  1.00 20.00     0.152 C 
HETATM    8  N8  UNL     1     -32.891   7.797   4.718  1.00 20.00    -0.356 N 
HETATM    9  O9  UNL     1     -34.160   7.355   6.647  1.00 20.00    -0.273 OA
ENDROOT
TORSDOF 0
ENDMDL
MODEL 4
REMARK VINA RESULT:      -3.7      1.917      3.499
REMARK  0 active torsions:
REMARK  status: ('A' for Active; 'I' for Inactive)
ROOT
HETATM    1  C1  UNL     1     -32.794   7.391   3.217  1.00 20.00     0.223 C 
HETATM    2  C2  UNL     1     -33.524   7.152   5.453  1.00 20.00     0.130 C 
HETATM    3  C3  UNL     1     -33.621   6.116   3.277  1.00 20.00     0.079 C 
HETATM    4  C4  UNL     1     -34.439   6.311   4.571  1.00 20.00     0.012 C 
HETATM    5  C5  UNL     1     -32.690   4.910   3.261  1.00 20.00     0.020 C 
HETATM    6  C6  UNL     1     -34.919   5.044   5.257  1.00 20.00     0.012 C 
HETATM    7  C7  UNL     1     -32.005   9.089   4.907  1.00 20.00     0.152 C 
HETATM    8  N8  UNL     1     -32.774   7.934   4.499  1.00 20.00    -0.356 N 
HETATM    9  O9  UNL     1     -32.222   7.803   2.217  1.00 20.00    -0.273 OA
ENDROOT
TORSDOF 0
ENDMDL
MODEL 5
REMARK VINA RESULT:      -3.7      1.615      2.740
REMARK  0 active torsions:
REMARK  status: ('A' for Active; 'I' for Inactive)
ROOT
HETATM    1  C1  UNL     1     -33.366   5.876   3.269  1.00 20.00     0.223 C 
HETATM    2  C2  UNL     1     -33.399   7.273   5.177  1.00 20.00     0.130 C 
HETATM    3  C3  UNL     1     -34.283   5.214   4.285  1.00 20.00     0.079 C 
HETATM    4  C4  UNL     1     -34.635   6.383   5.228  1.00 20.00     0.012 C 
HETATM    5  C5  UNL     1     -33.555   4.042   4.932  1.00 20.00     0.020 C 
HETATM    6  C6  UNL     1     -35.032   6.005   6.645  1.00 20.00     0.012 C 
HETATM    7  C7  UNL     1     -31.898   7.927   3.259  1.00 20.00     0.152 C 
HETATM    8  N8  UNL     1     -32.888   7.051   3.844  1.00 20.00    -0.356 N 
HETATM    9  O9  UNL     1     -33.083   5.405   2.176  1.00 20.00    -0.273 OA
ENDROOT
TORSDOF 0
ENDMDL
MODEL 6
REMARK VINA RESULT:      -3.5     12.676     13.522
REMARK  0 active torsions:
REMARK  status: ('A' for Active; 'I' for Inactive)
ROOT
HETATM    1  C1  UNL     1     -33.789  15.043  -4.633  1.00 20.00     0.223 C 
HETATM    2  C2  UNL     1     -34.587  17.266  -4.728  1.00 20.00     0.130 C 
HETATM    3  C3  UNL     1     -34.567  15.176  -5.933  1.00 20.00     0.079 C 
HETATM    4  C4  UNL     1     -34.600  16.704  -6.145  1.00 20.00     0.012 C 
HETATM    5  C5  UNL     1     -35.925  14.504  -5.778  1.00 20.00     0.020 C 
HETATM    6  C6  UNL     1     -35.749  17.240  -6.982  1.00 20.00     0.012 C 
HETATM    7  C7  UNL     1     -33.324  16.551  -2.666  1.00 20.00     0.152 C 
HETATM    8  N8  UNL     1     -33.841  16.275  -3.988  1.00 20.00    -0.356 N 
HETATM    9  O9  UNL     1     -33.268  14.009  -4.238  1.00 20.00    -0.273 OA
ENDROOT
TORSDOF 0
ENDMDL
MODEL 7
REMARK VINA RESULT:      -3.4      1.747      2.632
REMARK  0 active torsions:
REMARK  status: ('A' for Active; 'I' for Inactive)
ROOT
HETATM    1  C1  UNL     1     -32.673   6.976   3.818  1.00 20.00     0.223 C 
HETATM    2  C2  UNL     1     -34.202   5.264   4.384  1.00 20.00     0.130 C 
HETATM    3  C3  UNL     1     -33.278   7.351   5.162  1.00 20.00     0.079 C 
HETATM    4  C4  UNL     1     -33.833   6.002   5.665  1.00 20.00     0.012 C 
HETATM    5  C5  UNL     1     -34.309   8.454   4.960  1.00 20.00     0.020 C 
HETATM    6  C6  UNL     1     -34.983   6.078   6.654  1.00 20.00     0.012 C 
HETATM    7  C7  UNL     1     -33.035   5.117   2.153  1.00 20.00     0.152 C 
HETATM    8  N8  UNL     1     -33.248   5.770   3.425  1.00 20.00    -0.356 N 
HETATM    9  O9  UNL     1     -31.869   7.662   3.202  1.00 20.00    -0.273 OA
ENDROOT
TORSDOF 0
ENDMDL
MODEL 8
REMARK VINA RESULT:      -3.3      9.531     10.151
REMARK  0 active torsions:
REMARK  status: ('A' for Active; 'I' for Inactive)
ROOT
HETATM    1  C1  UNL     1     -39.972  12.639   6.533  1.00 20.00     0.223 C 
HETATM    2  C2  UNL     1     -41.217  13.464   4.700  1.00 20.00     0.130 C 
HETATM    3  C3  UNL     1     -41.008  13.598   7.099  1.00 20.00     0.079 C 
HETATM    4  C4  UNL     1     -42.046  13.675   5.961  1.00 20.00     0.012 C 
HETATM    5  C5  UNL     1     -40.330  14.913   7.464  1.00 20.00     0.020 C 
HETATM    6  C6  UNL     1     -42.890  14.938   5.908  1.00 20.00     0.012 C 
HETATM    7  C7  UNL     1     -39.291  11.911   4.216  1.00 20.00     0.152 C 
HETATM    8  N8  UNL     1     -40.143  12.610   5.151  1.00 20.00    -0.356 N 
HETATM    9  O9  UNL     1     -39.126  12.057   7.198  1.00 20.00    -0.273 OA
ENDROOT
TORSDOF 0
ENDMDL
MODEL 9
REMARK VINA RESULT:      -3.2     13.016     13.968
REMARK  0 active torsions:
REMARK  status: ('A' for Active; 'I' for Inactive)
ROOT
HETATM    1  C1  UNL     1     -33.391  18.226  -3.959  1.00 20.00     0.223 C 
HETATM    2  C2  UNL     1     -34.923  16.714  -4.938  1.00 20.00     0.130 C 
HETATM    3  C3  UNL     1     -33.058  16.846  -3.414  1.00 20.00     0.079 C 
HETATM    4  C4  UNL     1     -33.726  15.912  -4.444  1.00 20.00     0.012 C 
HETATM    5  C5  UNL     1     -33.577  16.730  -1.986  1.00 20.00     0.020 C 
HETATM    6  C6  UNL     1     -34.108  14.528  -3.946  1.00 20.00     0.012 C 
HETATM    7  C7  UNL     1     -35.177  19.166  -5.471  1.00 20.00     0.152 C 
HETATM    8  N8  UNL     1     -34.473  18.082  -4.825  1.00 20.00    -0.356 N 
HETATM    9  O9  UNL     1     -32.822  19.258  -3.633  1.00 20.00    -0.273 OA
ENDROOT
TORSDOF 0
ENDMDL
