MODEL 1
REMARK VINA RESULT:      -3.6      0.000      0.000
REMARK  1 active torsions:
REMARK  status: ('A' for Active; 'I' for Inactive)
REMARK    1  A    between atoms: C3_3  and  C9_9 
ROOT
HETATM    1  C1  UNL     1     -32.972  15.830  -3.754  1.00 20.00    -0.030 C 
HETATM    2  C2  UNL     1     -33.558  17.037  -3.895  1.00 20.00    -0.029 C 
HETATM    3  C4  UNL     1     -33.606  14.525  -4.196  1.00 20.00     0.032 C 
HETATM    4  C5  UNL     1     -34.908  17.258  -4.553  1.00 20.00     0.044 C 
HETATM    5  C6  UNL     1     -36.074  14.076  -5.377  1.00 20.00     0.007 C 
HETATM    6  C7  UNL     1     -36.677  15.492  -5.650  1.00 20.00     0.018 C 
HETATM    7  C8  UNL     1     -35.072  14.812  -4.459  1.00 20.00     0.005 C 
HETATM    8  C9  UNL     1     -35.222  16.038  -5.427  1.00 20.00     0.027 C 
ENDROOT
BRANCH   8   9
HETATM    9  C3  UNL     1     -34.387  16.075  -6.760  1.00 20.00     0.132 C 
HETATM   10  C10 UNL     1     -34.336  17.391  -7.491  1.00 20.00     0.091 C 
HETATM   11  O11 UNL     1     -33.800  15.081  -7.183  1.00 20.00    -0.298 OA
ENDBRANCH   8   9
TORSDOF 1
ENDMDL
MODEL 2
REMARK VINA RESULT:      -3.6      1.330      2.972
REMARK  1 active torsions:
REMARK  status: ('A' for Active; 'I' for Inactive)
REMARK    1  A    between atoms: C3_3  and  C9_9 
ROOT
HETATM    1  C1  UNL     1     -34.283  17.078  -3.480  1.00 20.00    -0.030 C 
HETATM    2  C2  UNL     1     -33.585  15.923  -3.471  1.00 20.00    -0.029 C 
HETATM    3  C4  UNL     1     -34.894  17.687  -4.727  1.00 20.00     0.032 C 
HETATM    4  C5  UNL     1     -33.355  15.055  -4.695  1.00 20.00     0.044 C 
HETATM    5  C6  UNL     1     -34.833  16.776  -7.346  1.00 20.00     0.007 C 
HETATM    6  C7  UNL     1     -34.137  15.377  -7.291  1.00 20.00     0.018 C 
HETATM    7  C8  UNL     1     -34.280  16.972  -5.916  1.00 20.00     0.005 C 
HETATM    8  C9  UNL     1     -34.412  15.418  -5.746  1.00 20.00     0.027 C 
ENDROOT
BRANCH   8   9
HETATM    9  C3  UNL     1     -35.809  14.799  -5.371  1.00 20.00     0.132 C 
HETATM   10  C10 UNL     1     -35.792  13.530  -4.562  1.00 20.00     0.091 C 
HETATM   11  O11 UNL     1     -36.864  15.328  -5.718  1.00 20.00    -0.298 OA
ENDBRANCH   8   9
TORSDOF 1
ENDMDL
MODEL 3
REMARK VINA RESULT:      -3.3     13.143     14.109
REMARK  1 active torsions:
REMARK  status: ('A' for Active; 'I' for Inactive)
REMARK    1  A    between atoms: C3_3  and  C9_9 
ROOT
HETATM    1  C1  UNL     1     -43.417  13.310   6.650  1.00 20.00    -0.030 C 
HETATM    2  C2  UNL     1     -43.047  14.342   5.864  1.00 20.00    -0.029 C 
HETATM    3  C4  UNL     1     -42.504  12.158   7.021  1.00 20.00     0.032 C 
HETATM    4  C5  UNL     1     -41.654  14.514   5.283  1.00 20.00     0.044 C 
HETATM    5  C6  UNL     1     -39.872  11.688   6.285  1.00 20.00     0.007 C 
HETATM    6  C7  UNL     1     -39.423  12.955   5.487  1.00 20.00     0.018 C 
HETATM    7  C8  UNL     1     -41.309  12.223   6.089  1.00 20.00     0.005 C 
HETATM    8  C9  UNL     1     -40.681  13.660   6.105  1.00 20.00     0.027 C 
ENDROOT
BRANCH   8   9
HETATM    9  C3  UNL     1     -40.364  14.348   7.485  1.00 20.00     0.132 C 
HETATM   10  C10 UNL     1     -40.465  15.849   7.532  1.00 20.00     0.091 C 
HETATM   11  O11 UNL     1     -40.052  13.692   8.477  1.00 20.00    -0.298 OA
ENDBRANCH   8   9
TORSDOF 1
ENDMDL
MODEL 4
REMARK VINA RESULT:      -3.3     13.663     14.540
REMARK  1 active torsions:
REMARK  status: ('A' for Active; 'I' for Inactive)
REMARK    1  A    between atoms: C3_3  and  C9_9 
ROOT
HETATM    1  C1  UNL     1     -42.087  16.117   6.460  1.00 20.00    -0.030 C 
HETATM    2  C2  UNL     1     -42.329  15.477   5.297  1.00 20.00    -0.029 C 
HETATM    3  C4  UNL     1     -42.259  15.483   7.827  1.00 20.00     0.032 C 
HETATM    4  C5  UNL     1     -42.760  14.024   5.198  1.00 20.00     0.044 C 
HETATM    5  C6  UNL     1     -43.101  12.927   8.491  1.00 20.00     0.007 C 
HETATM    6  C7  UNL     1     -43.248  12.163   7.135  1.00 20.00     0.018 C 
HETATM    7  C8  UNL     1     -43.053  14.207   7.626  1.00 20.00     0.005 C 
HETATM    8  C9  UNL     1     -42.393  13.323   6.512  1.00 20.00     0.027 C 
ENDROOT
BRANCH   8   9
HETATM    9  C3  UNL     1     -40.848  13.027   6.575  1.00 20.00     0.132 C 
HETATM   10  C10 UNL     1     -40.213  12.474   5.327  1.00 20.00     0.091 C 
HETATM   11  O11 UNL     1     -40.191  13.240   7.592  1.00 20.00    -0.298 OA
ENDBRANCH   8   9
TORSDOF 1
ENDMDL
MODEL 5
REMARK VINA RESULT:      -3.2      1.545      3.151
REMARK  1 active torsions:
REMARK  status: ('A' for Active; 'I' for Inactive)
REMARK    1  A    between atoms: C3_3  and  C9_9 
ROOT
HETATM    1  C1  UNL     1     -36.953  17.498  -4.783  1.00 20.00    -0.030 C 
HETATM    2  C2  UNL     1     -35.668  17.800  -4.504  1.00 20.00    -0.029 C 
HETATM    3  C4  UNL     1     -37.385  16.635  -5.954  1.00 20.00     0.032 C 
HETATM    4  C5  UNL     1     -34.479  17.280  -5.293  1.00 20.00     0.044 C 
HETATM    5  C6  UNL     1     -35.840  15.406  -7.901  1.00 20.00     0.007 C 
HETATM    6  C7  UNL     1     -34.354  15.657  -7.484  1.00 20.00     0.018 C 
HETATM    7  C8  UNL     1     -36.187  16.510  -6.876  1.00 20.00     0.005 C 
HETATM    8  C9  UNL     1     -34.926  16.037  -6.073  1.00 20.00     0.027 C 
ENDROOT
BRANCH   8   9
HETATM    9  C3  UNL     1     -35.041  14.791  -5.119  1.00 20.00     0.132 C 
HETATM   10  C10 UNL     1     -33.904  14.567  -4.158  1.00 20.00     0.091 C 
HETATM   11  O11 UNL     1     -36.013  14.039  -5.153  1.00 20.00    -0.298 OA
ENDBRANCH   8   9
TORSDOF 1
ENDMDL
MODEL 6
REMARK VINA RESULT:      -3.2     13.628     14.452
REMARK  1 active torsions:
REMARK  status: ('A' for Active; 'I' for Inactive)
REMARK    1  A    between atoms: C3_3  and  C9_9 
ROOT
HETATM    1  C1  UNL     1     -41.630  14.372   9.171  1.00 20.00    -0.030 C 
HETATM    2  C2  UNL     1     -40.471  14.752   8.595  1.00 20.00    -0.029 C 
HETATM    3  C4  UNL     1     -42.916  14.126   8.405  1.00 20.00     0.032 C 
HETATM    4  C5  UNL     1     -40.283  14.938   7.099  1.00 20.00     0.044 C 
HETATM    5  C6  UNL     1     -43.417  14.349   5.687  1.00 20.00     0.007 C 
HETATM    6  C7  UNL     1     -42.035  14.659   5.025  1.00 20.00     0.018 C 
HETATM    7  C8  UNL     1     -42.724  14.713   7.020  1.00 20.00     0.005 C 
HETATM    8  C9  UNL     1     -41.399  14.174   6.376  1.00 20.00     0.027 C 
ENDROOT
BRANCH   8   9
HETATM    9  C3  UNL     1     -41.112  12.627   6.381  1.00 20.00     0.132 C 
HETATM   10  C10 UNL     1     -39.735  12.193   5.957  1.00 20.00     0.091 C 
HETATM   11  O11 UNL     1     -41.969  11.812   6.719  1.00 20.00    -0.298 OA
ENDBRANCH   8   9
TORSDOF 1
ENDMDL
MODEL 7
REMARK VINA RESULT:      -3.2     13.789     14.535
REMARK  1 active torsions:
REMARK  status: ('A' for Active; 'I' for Inactive)
REMARK    1  A    between atoms: C3_3  and  C9_9 
ROOT
HETATM    1  C1  UNL     1     -40.431  15.526   8.579  1.00 20.00    -0.030 C 
HETATM    2  C2  UNL     1     -40.731  16.015   7.359  1.00 20.00    -0.029 C 
HETATM    3  C4  UNL     1     -41.078  14.292   9.179  1.00 20.00     0.032 C 
HETATM    4  C5  UNL     1     -41.721  15.374   6.402  1.00 20.00     0.044 C 
HETATM    5  C6  UNL     1     -43.032  12.634   8.118  1.00 20.00     0.007 C 
HETATM    6  C7  UNL     1     -43.268  13.139   6.657  1.00 20.00     0.018 C 
HETATM    7  C8  UNL     1     -42.299  13.978   8.335  1.00 20.00     0.005 C 
HETATM    8  C9  UNL     1     -41.910  13.909   6.817  1.00 20.00     0.027 C 
ENDROOT
BRANCH   8   9
HETATM    9  C3  UNL     1     -40.675  13.040   6.375  1.00 20.00     0.132 C 
HETATM   10  C10 UNL     1     -40.447  12.889   4.895  1.00 20.00     0.091 C 
HETATM   11  O11 UNL     1     -39.929  12.511   7.199  1.00 20.00    -0.298 OA
ENDBRANCH   8   9
TORSDOF 1
ENDMDL
MODEL 8
REMARK VINA RESULT:      -3.1     13.297     14.294
REMARK  1 active torsions:
REMARK  status: ('A' for Active; 'I' for Inactive)
REMARK    1  A    between atoms: C3_3  and  C9_9 
ROOT
HETATM    1  C1  UNL     1     -42.695  15.396   5.334  1.00 20.00    -0.030 C 
HETATM    2  C2  UNL     1     -42.055  15.917   6.401  1.00 20.00    -0.029 C 
HETATM    3  C4  UNL     1     -42.356  14.053   4.715  1.00 20.00     0.032 C 
HETATM    4  C5  UNL     1     -40.940  15.212   7.154  1.00 20.00     0.044 C 
HETATM    5  C6  UNL     1     -40.401  12.224   5.436  1.00 20.00     0.007 C 
HETATM    6  C7  UNL     1     -39.761  12.783   6.748  1.00 20.00     0.018 C 
HETATM    7  C8  UNL     1     -41.010  13.636   5.275  1.00 20.00     0.005 C 
HETATM    8  C9  UNL     1     -41.023  13.712   6.842  1.00 20.00     0.027 C 
ENDROOT
BRANCH   8   9
HETATM    9  C3  UNL     1     -42.202  13.040   7.637  1.00 20.00     0.132 C 
HETATM   10  C10 UNL     1     -42.640  13.723   8.905  1.00 20.00     0.091 C 
HETATM   11  O11 UNL     1     -42.744  12.009   7.241  1.00 20.00    -0.298 OA
ENDBRANCH   8   9
TORSDOF 1
ENDMDL
MODEL 9
REMARK VINA RESULT:      -3.1      2.234      3.682
REMARK  1 active torsions:
REMARK  status: ('A' for Active; 'I' for Inactive)
REMARK    1  A    between atoms: C3_3  and  C9_9 
ROOT
HETATM    1  C1  UNL     1     -33.987  15.208  -3.814  1.00 20.00    -0.030 C 
HETATM    2  C2  UNL     1     -34.411  15.371  -5.084  1.00 20.00    -0.029 C 
HETATM    3  C4  UNL     1     -33.449  16.332  -2.949  1.00 20.00     0.032 C 
HETATM    4  C5  UNL     1     -34.451  16.708  -5.804  1.00 20.00     0.044 C 
HETATM    5  C6  UNL     1     -33.108  19.015  -3.560  1.00 20.00     0.007 C 
HETATM    6  C7  UNL     1     -33.725  19.208  -4.983  1.00 20.00     0.018 C 
HETATM    7  C8  UNL     1     -33.166  17.502  -3.871  1.00 20.00     0.005 C 
HETATM    8  C9  UNL     1     -34.425  17.822  -4.750  1.00 20.00     0.027 C 
ENDROOT
BRANCH   8   9
HETATM    9  C3  UNL     1     -35.831  17.971  -4.059  1.00 20.00     0.132 C 
HETATM   10  C10 UNL     1     -37.032  17.572  -4.875  1.00 20.00     0.091 C 
HETATM   11  O11 UNL     1     -35.944  18.389  -2.908  1.00 20.00    -0.298 OA
ENDBRANCH   8   9
TORSDOF 1
ENDMDL
