MODEL 1
REMARK VINA RESULT:      -6.0      0.000      0.000
REMARK  1 active torsions:
REMARK  status: ('A' for Active; 'I' for Inactive)
REMARK    1  A    between atoms: C1_1  and  C3_3 
ROOT
HETATM    1  C1  UNL     1     -33.448   7.585   4.680  1.00 20.00    -0.010 C 
HETATM    2  C2  UNL     1     -33.604   6.495   3.911  1.00 20.00    -0.066 C 
HETATM    3  C4  UNL     1     -34.088   7.683   6.035  1.00 20.00     0.042 C 
HETATM    4  C5  UNL     1     -32.816   6.111   2.686  1.00 20.00     0.035 C 
HETATM    5  C6  UNL     1     -34.238   6.296   6.669  1.00 20.00     0.005 C 
HETATM    6  C7  UNL     1     -32.987   4.590   2.608  1.00 20.00     0.005 C 
HETATM    7  C8  UNL     1     -35.002   5.342   5.752  1.00 20.00     0.009 C 
HETATM    8  C9  UNL     1     -33.566   4.169   3.959  1.00 20.00     0.009 C 
HETATM    9  C10 UNL     1     -34.482   5.336   4.313  1.00 20.00     0.015 C 
ENDROOT
BRANCH   1  10
HETATM   10  C3  UNL     1     -32.559   8.674   4.262  1.00 20.00     0.152 C 
HETATM   11  C11 UNL     1     -32.619   9.122   2.825  1.00 20.00     0.096 C 
HETATM   12  O12 UNL     1     -31.786   9.194   5.067  1.00 20.00    -0.293 OA
ENDBRANCH   1  10
TORSDOF 1
ENDMDL
MODEL 2
REMARK VINA RESULT:      -5.0      1.890      3.560
REMARK  1 active torsions:
REMARK  status: ('A' for Active; 'I' for Inactive)
REMARK    1  A    between atoms: C1_1  and  C3_3 
ROOT
HETATM    1  C1  UNL     1     -33.767   6.516   4.877  1.00 20.00    -0.010 C 
HETATM    2  C2  UNL     1     -32.926   6.922   3.912  1.00 20.00    -0.066 C 
HETATM    3  C4  UNL     1     -33.949   7.309   6.139  1.00 20.00     0.042 C 
HETATM    4  C5  UNL     1     -32.841   6.424   2.494  1.00 20.00     0.035 C 
HETATM    5  C6  UNL     1     -33.717   8.802   5.884  1.00 20.00     0.005 C 
HETATM    6  C7  UNL     1     -32.198   7.591   1.737  1.00 20.00     0.005 C 
HETATM    7  C8  UNL     1     -32.349   9.055   5.251  1.00 20.00     0.009 C 
HETATM    8  C9  UNL     1     -32.269   8.787   2.687  1.00 20.00     0.009 C 
HETATM    9  C10 UNL     1     -32.056   8.147   4.054  1.00 20.00     0.015 C 
ENDROOT
BRANCH   1  10
HETATM   10  C3  UNL     1     -34.615   5.336   4.682  1.00 20.00     0.152 C 
HETATM   11  C11 UNL     1     -36.050   5.557   4.279  1.00 20.00     0.096 C 
HETATM   12  O12 UNL     1     -34.161   4.204   4.852  1.00 20.00    -0.293 OA
ENDBRANCH   1  10
TORSDOF 1
ENDMDL
MODEL 3
REMARK VINA RESULT:      -4.8      1.649      3.003
REMARK  1 active torsions:
REMARK  status: ('A' for Active; 'I' for Inactive)
REMARK    1  A    between atoms: C1_1  and  C3_3 
ROOT
HETATM    1  C1  UNL     1     -33.022   7.355   3.583  1.00 20.00    -0.010 C 
HETATM    2  C2  UNL     1     -33.881   6.748   4.417  1.00 20.00    -0.066 C 
HETATM    3  C4  UNL     1     -32.447   8.705   3.900  1.00 20.00     0.042 C 
HETATM    4  C5  UNL     1     -34.316   5.306   4.404  1.00 20.00     0.035 C 
HETATM    5  C6  UNL     1     -32.339   8.910   5.416  1.00 20.00     0.005 C 
HETATM    6  C7  UNL     1     -34.763   5.049   5.847  1.00 20.00     0.005 C 
HETATM    7  C8  UNL     1     -33.684   8.693   6.106  1.00 20.00     0.009 C 
HETATM    8  C9  UNL     1     -34.244   6.236   6.658  1.00 20.00     0.009 C 
HETATM    9  C10 UNL     1     -34.384   7.400   5.682  1.00 20.00     0.015 C 
ENDROOT
BRANCH   1  10
HETATM   10  C3  UNL     1     -32.537   6.670   2.380  1.00 20.00     0.152 C 
HETATM   11  C11 UNL     1     -32.073   7.517   1.224  1.00 20.00     0.096 C 
HETATM   12  O12 UNL     1     -32.521   5.440   2.325  1.00 20.00    -0.293 OA
ENDBRANCH   1  10
TORSDOF 1
ENDMDL
MODEL 4
REMARK VINA RESULT:      -4.8      0.702      2.739
REMARK  1 active torsions:
REMARK  status: ('A' for Active; 'I' for Inactive)
REMARK    1  A    between atoms: C1_1  and  C3_3 
ROOT
HETATM    1  C1  UNL     1     -32.762   7.218   3.876  1.00 20.00    -0.010 C 
HETATM    2  C2  UNL     1     -33.358   6.609   4.914  1.00 20.00    -0.066 C 
HETATM    3  C4  UNL     1     -32.422   6.468   2.621  1.00 20.00     0.042 C 
HETATM    4  C5  UNL     1     -34.023   7.252   6.102  1.00 20.00     0.035 C 
HETATM    5  C6  UNL     1     -33.407   5.317   2.389  1.00 20.00     0.005 C 
HETATM    6  C7  UNL     1     -35.005   6.183   6.591  1.00 20.00     0.005 C 
HETATM    7  C8  UNL     1     -33.475   4.388   3.600  1.00 20.00     0.009 C 
HETATM    8  C9  UNL     1     -35.083   5.149   5.467  1.00 20.00     0.009 C 
HETATM    9  C10 UNL     1     -33.658   5.130   4.925  1.00 20.00     0.015 C 
ENDROOT
BRANCH   1  10
HETATM   10  C3  UNL     1     -32.519   8.664   3.897  1.00 20.00     0.152 C 
HETATM   11  C11 UNL     1     -32.783   9.443   2.635  1.00 20.00     0.096 C 
HETATM   12  O12 UNL     1     -32.104   9.214   4.918  1.00 20.00    -0.293 OA
ENDBRANCH   1  10
TORSDOF 1
ENDMDL
MODEL 5
REMARK VINA RESULT:      -4.6     12.363     14.087
REMARK  1 active torsions:
REMARK  status: ('A' for Active; 'I' for Inactive)
REMARK    1  A    between atoms: C1_1  and  C3_3 
ROOT
HETATM    1  C1  UNL     1     -34.220  16.129  -4.761  1.00 20.00    -0.010 C 
HETATM    2  C2  UNL     1     -34.724  17.373  -4.811  1.00 20.00    -0.066 C 
HETATM    3  C4  UNL     1     -33.227  15.730  -3.708  1.00 20.00     0.042 C 
HETATM    4  C5  UNL     1     -35.918  17.854  -5.592  1.00 20.00     0.035 C 
HETATM    5  C6  UNL     1     -33.440  16.537  -2.423  1.00 20.00     0.005 C 
HETATM    6  C7  UNL     1     -36.371  19.104  -4.830  1.00 20.00     0.005 C 
HETATM    7  C8  UNL     1     -33.401  18.040  -2.695  1.00 20.00     0.009 C 
HETATM    8  C9  UNL     1     -35.630  19.062  -3.493  1.00 20.00     0.009 C 
HETATM    9  C10 UNL     1     -34.278  18.468  -3.873  1.00 20.00     0.015 C 
ENDROOT
BRANCH   1  10
HETATM   10  C3  UNL     1     -34.706  15.089  -5.673  1.00 20.00     0.152 C 
HETATM   11  C11 UNL     1     -35.889  14.264  -5.237  1.00 20.00     0.096 C 
HETATM   12  O12 UNL     1     -34.153  14.900  -6.757  1.00 20.00    -0.293 OA
ENDBRANCH   1  10
TORSDOF 1
ENDMDL
MODEL 6
REMARK VINA RESULT:      -4.6      1.436      3.411
REMARK  1 active torsions:
REMARK  status: ('A' for Active; 'I' for Inactive)
REMARK    1  A    between atoms: C1_1  and  C3_3 
ROOT
HETATM    1  C1  UNL     1     -33.310   5.871   3.856  1.00 20.00    -0.010 C 
HETATM    2  C2  UNL     1     -32.954   6.940   4.585  1.00 20.00    -0.066 C 
HETATM    3  C4  UNL     1     -34.294   4.863   4.376  1.00 20.00     0.042 C 
HETATM    4  C5  UNL     1     -32.229   8.175   4.118  1.00 20.00     0.035 C 
HETATM    5  C6  UNL     1     -35.292   5.519   5.336  1.00 20.00     0.005 C 
HETATM    6  C7  UNL     1     -32.632   9.242   5.142  1.00 20.00     0.005 C 
HETATM    7  C8  UNL     1     -34.577   6.249   6.472  1.00 20.00     0.009 C 
HETATM    8  C9  UNL     1     -33.809   8.647   5.915  1.00 20.00     0.009 C 
HETATM    9  C10 UNL     1     -33.451   7.167   5.992  1.00 20.00     0.015 C 
ENDROOT
BRANCH   1  10
HETATM   10  C3  UNL     1     -32.826   5.708   2.482  1.00 20.00     0.152 C 
HETATM   11  C11 UNL     1     -32.843   4.324   1.886  1.00 20.00     0.096 C 
HETATM   12  O12 UNL     1     -32.413   6.678   1.845  1.00 20.00    -0.293 OA
ENDBRANCH   1  10
TORSDOF 1
ENDMDL
MODEL 7
REMARK VINA RESULT:      -4.5     12.094     13.462
REMARK  1 active torsions:
REMARK  status: ('A' for Active; 'I' for Inactive)
REMARK    1  A    between atoms: C1_1  and  C3_3 
ROOT
HETATM    1  C1  UNL     1     -34.083  17.998  -3.315  1.00 20.00    -0.010 C 
HETATM    2  C2  UNL     1     -33.893  16.885  -4.041  1.00 20.00    -0.066 C 
HETATM    3  C4  UNL     1     -35.205  18.948  -3.619  1.00 20.00     0.042 C 
HETATM    4  C5  UNL     1     -33.027  15.700  -3.704  1.00 20.00     0.035 C 
HETATM    5  C6  UNL     1     -36.397  18.206  -4.236  1.00 20.00     0.005 C 
HETATM    6  C7  UNL     1     -33.646  14.556  -4.513  1.00 20.00     0.005 C 
HETATM    7  C8  UNL     1     -35.980  17.410  -5.471  1.00 20.00     0.009 C 
HETATM    8  C9  UNL     1     -35.006  15.072  -4.984  1.00 20.00     0.009 C 
HETATM    9  C10 UNL     1     -34.735  16.548  -5.248  1.00 20.00     0.015 C 
ENDROOT
BRANCH   1  10
HETATM   10  C3  UNL     1     -33.261  18.267  -2.131  1.00 20.00     0.152 C 
HETATM   11  C11 UNL     1     -33.740  17.739  -0.803  1.00 20.00     0.096 C 
HETATM   12  O12 UNL     1     -32.216  18.912  -2.229  1.00 20.00    -0.293 OA
ENDBRANCH   1  10
TORSDOF 1
ENDMDL
MODEL 8
REMARK VINA RESULT:      -4.5     12.376     13.841
REMARK  1 active torsions:
REMARK  status: ('A' for Active; 'I' for Inactive)
REMARK    1  A    between atoms: C1_1  and  C3_3 
ROOT
HETATM    1  C1  UNL     1     -35.208  16.577  -5.162  1.00 20.00    -0.010 C 
HETATM    2  C2  UNL     1     -34.548  17.184  -4.163  1.00 20.00    -0.066 C 
HETATM    3  C4  UNL     1     -34.750  15.257  -5.713  1.00 20.00     0.042 C 
HETATM    4  C5  UNL     1     -35.019  18.332  -3.310  1.00 20.00     0.035 C 
HETATM    5  C6  UNL     1     -34.038  14.433  -4.634  1.00 20.00     0.005 C 
HETATM    6  C7  UNL     1     -34.192  18.195  -2.027  1.00 20.00     0.005 C 
HETATM    7  C8  UNL     1     -32.885  15.213  -4.005  1.00 20.00     0.009 C 
HETATM    8  C9  UNL     1     -33.561  16.804  -2.091  1.00 20.00     0.009 C 
HETATM    9  C10 UNL     1     -33.271  16.630  -3.577  1.00 20.00     0.015 C 
ENDROOT
BRANCH   1  10
HETATM   10  C3  UNL     1     -36.461  17.136  -5.678  1.00 20.00     0.152 C 
HETATM   11  C11 UNL     1     -37.755  16.532  -5.196  1.00 20.00     0.096 C 
HETATM   12  O12 UNL     1     -36.446  18.065  -6.487  1.00 20.00    -0.293 OA
ENDBRANCH   1  10
TORSDOF 1
ENDMDL
MODEL 9
REMARK VINA RESULT:      -4.5      1.958      4.391
REMARK  1 active torsions:
REMARK  status: ('A' for Active; 'I' for Inactive)
REMARK    1  A    between atoms: C1_1  and  C3_3 
ROOT
HETATM    1  C1  UNL     1     -33.983   6.074   4.245  1.00 20.00    -0.010 C 
HETATM    2  C2  UNL     1     -33.659   7.353   4.496  1.00 20.00    -0.066 C 
HETATM    3  C4  UNL     1     -33.519   5.381   2.996  1.00 20.00     0.042 C 
HETATM    4  C5  UNL     1     -33.783   8.096   5.799  1.00 20.00     0.035 C 
HETATM    5  C6  UNL     1     -32.180   5.954   2.519  1.00 20.00     0.005 C 
HETATM    6  C7  UNL     1     -32.753   9.224   5.673  1.00 20.00     0.005 C 
HETATM    7  C8  UNL     1     -32.256   7.468   2.329  1.00 20.00     0.009 C 
HETATM    8  C9  UNL     1     -31.883   8.856   4.471  1.00 20.00     0.009 C 
HETATM    9  C10 UNL     1     -32.878   8.200   3.521  1.00 20.00     0.015 C 
ENDROOT
BRANCH   1  10
HETATM   10  C3  UNL     1     -34.716   5.281   5.236  1.00 20.00     0.152 C 
HETATM   11  C11 UNL     1     -34.169   5.223   6.639  1.00 20.00     0.096 C 
HETATM   12  O12 UNL     1     -35.742   4.677   4.920  1.00 20.00    -0.293 OA
ENDBRANCH   1  10
TORSDOF 1
ENDMDL
