MODEL 1
REMARK VINA RESULT:      -4.6      0.000      0.000
REMARK  1 active torsions:
REMARK  status: ('A' for Active; 'I' for Inactive)
REMARK    1  A    between atoms: C1_1  and  C4_4 
ROOT
HETATM    1  C2  UNL     1     -35.370   5.953   4.212  1.00 20.00     0.041 A 
HETATM    2  C3  UNL     1     -34.156   5.077   4.152  1.00 20.00     0.100 A 
HETATM    3  C4  UNL     1     -34.177   6.261   5.097  1.00 20.00     0.050 A 
HETATM    4  C5  UNL     1     -34.318   5.956   6.566  1.00 20.00     0.026 C 
HETATM    5 CL8  UNL     1     -33.179   5.070   2.707  1.00 20.00    -0.124 Cl
ENDROOT
BRANCH   3   6
HETATM    6  C1  UNL     1     -33.385   7.464   4.750  1.00 20.00     0.228 C 
HETATM    7  O6  UNL     1     -32.530   7.442   3.870  1.00 20.00    -0.279 OA
HETATM    8 CL7  UNL     1     -33.822   8.836   5.723  1.00 20.00    -0.043 Cl
ENDBRANCH   3   6
TORSDOF 1
ENDMDL
MODEL 2
REMARK VINA RESULT:      -4.4      1.349      1.349
REMARK  1 active torsions:
REMARK  status: ('A' for Active; 'I' for Inactive)
REMARK    1  A    between atoms: C1_1  and  C4_4 
ROOT
HETATM    1  C2  UNL     1     -35.366   5.937   4.266  1.00 20.00     0.041 A 
HETATM    2  C3  UNL     1     -34.092   5.155   4.174  1.00 20.00     0.100 A 
HETATM    3  C4  UNL     1     -34.175   6.337   5.117  1.00 20.00     0.050 A 
HETATM    4  C5  UNL     1     -34.252   6.027   6.590  1.00 20.00     0.026 C 
HETATM    5 CL8  UNL     1     -33.157   5.215   2.701  1.00 20.00    -0.124 Cl
ENDROOT
BRANCH   3   6
HETATM    6  C1  UNL     1     -33.485   7.594   4.747  1.00 20.00     0.228 C 
HETATM    7  O6  UNL     1     -33.754   8.661   5.291  1.00 20.00    -0.279 OA
HETATM    8 CL7  UNL     1     -32.304   7.348   3.496  1.00 20.00    -0.043 Cl
ENDBRANCH   3   6
TORSDOF 1
ENDMDL
MODEL 3
REMARK VINA RESULT:      -4.2      1.714      3.042
REMARK  1 active torsions:
REMARK  status: ('A' for Active; 'I' for Inactive)
REMARK    1  A    between atoms: C1_1  and  C4_4 
ROOT
HETATM    1  C2  UNL     1     -34.139   6.688   5.931  1.00 20.00     0.041 A 
HETATM    2  C3  UNL     1     -33.853   7.492   4.701  1.00 20.00     0.100 A 
HETATM    3  C4  UNL     1     -34.563   6.161   4.573  1.00 20.00     0.050 A 
HETATM    4  C5  UNL     1     -36.036   6.204   4.251  1.00 20.00     0.026 C 
HETATM    5 CL8  UNL     1     -32.199   7.707   4.186  1.00 20.00    -0.124 Cl
ENDROOT
BRANCH   3   6
HETATM    6  C1  UNL     1     -33.811   4.999   4.046  1.00 20.00     0.228 C 
HETATM    7  O6  UNL     1     -33.844   3.904   4.599  1.00 20.00    -0.279 OA
HETATM    8 CL7  UNL     1     -32.922   5.395   2.606  1.00 20.00    -0.043 Cl
ENDBRANCH   3   6
TORSDOF 1
ENDMDL
MODEL 4
REMARK VINA RESULT:      -4.1      1.833      3.456
REMARK  1 active torsions:
REMARK  status: ('A' for Active; 'I' for Inactive)
REMARK    1  A    between atoms: C1_1  and  C4_4 
ROOT
HETATM    1  C2  UNL     1     -34.143   8.258   4.618  1.00 20.00     0.041 A 
HETATM    2  C3  UNL     1     -33.239   7.574   5.597  1.00 20.00     0.100 A 
HETATM    3  C4  UNL     1     -33.206   7.165   4.139  1.00 20.00     0.050 A 
HETATM    4  C5  UNL     1     -32.003   7.596   3.339  1.00 20.00     0.026 C 
HETATM    5 CL8  UNL     1     -33.933   6.546   6.825  1.00 20.00    -0.124 Cl
ENDROOT
BRANCH   3   6
HETATM    6  C1  UNL     1     -33.829   5.880   3.743  1.00 20.00     0.228 C 
HETATM    7  O6  UNL     1     -34.892   5.503   4.227  1.00 20.00    -0.279 OA
HETATM    8 CL7  UNL     1     -32.883   5.033   2.557  1.00 20.00    -0.043 Cl
ENDBRANCH   3   6
TORSDOF 1
ENDMDL
MODEL 5
REMARK VINA RESULT:      -3.9      2.118      2.953
REMARK  1 active torsions:
REMARK  status: ('A' for Active; 'I' for Inactive)
REMARK    1  A    between atoms: C1_1  and  C4_4 
ROOT
HETATM    1  C2  UNL     1     -34.600   7.975   5.158  1.00 20.00     0.041 A 
HETATM    2  C3  UNL     1     -33.789   7.086   6.050  1.00 20.00     0.100 A 
HETATM    3  C4  UNL     1     -33.206   7.554   4.733  1.00 20.00     0.050 A 
HETATM    4  C5  UNL     1     -32.123   8.601   4.802  1.00 20.00     0.026 C 
HETATM    5 CL8  UNL     1     -34.295   5.435   6.298  1.00 20.00    -0.124 Cl
ENDROOT
BRANCH   3   6
HETATM    6  C1  UNL     1     -33.114   6.591   3.611  1.00 20.00     0.228 C 
HETATM    7  O6  UNL     1     -33.683   5.504   3.646  1.00 20.00    -0.279 OA
HETATM    8 CL7  UNL     1     -32.135   7.195   2.309  1.00 20.00    -0.043 Cl
ENDBRANCH   3   6
TORSDOF 1
ENDMDL
MODEL 6
REMARK VINA RESULT:      -3.7      9.362      9.996
REMARK  1 active torsions:
REMARK  status: ('A' for Active; 'I' for Inactive)
REMARK    1  A    between atoms: C1_1  and  C4_4 
ROOT
HETATM    1  C2  UNL     1     -41.067  13.334   5.141  1.00 20.00     0.041 A 
HETATM    2  C3  UNL     1     -40.447  12.127   5.775  1.00 20.00     0.100 A 
HETATM    3  C4  UNL     1     -41.314  13.046   6.610  1.00 20.00     0.050 A 
HETATM    4  C5  UNL     1     -42.681  12.535   6.987  1.00 20.00     0.026 C 
HETATM    5 CL8  UNL     1     -38.715  12.062   5.975  1.00 20.00    -0.124 Cl
ENDROOT
BRANCH   3   6
HETATM    6  C1  UNL     1     -40.662  13.952   7.584  1.00 20.00     0.228 C 
HETATM    7  O6  UNL     1     -40.010  13.520   8.531  1.00 20.00    -0.279 OA
HETATM    8 CL7  UNL     1     -40.941  15.626   7.209  1.00 20.00    -0.043 Cl
ENDBRANCH   3   6
TORSDOF 1
ENDMDL
MODEL 7
REMARK VINA RESULT:      -3.6      9.177      9.814
REMARK  1 active torsions:
REMARK  status: ('A' for Active; 'I' for Inactive)
REMARK    1  A    between atoms: C1_1  and  C4_4 
ROOT
HETATM    1  C2  UNL     1     -43.416   7.512   0.188  1.00 20.00     0.041 A 
HETATM    2  C3  UNL     1     -42.715   7.111   1.450  1.00 20.00     0.100 A 
HETATM    3  C4  UNL     1     -41.932   7.197   0.156  1.00 20.00     0.050 A 
HETATM    4  C5  UNL     1     -40.988   8.364   0.009  1.00 20.00     0.026 C 
HETATM    5 CL8  UNL     1     -43.101   5.579   2.192  1.00 20.00    -0.124 Cl
ENDROOT
BRANCH   3   6
HETATM    6  C1  UNL     1     -41.533   5.941  -0.521  1.00 20.00     0.228 C 
HETATM    7  O6  UNL     1     -40.355   5.618  -0.639  1.00 20.00    -0.279 OA
HETATM    8 CL7  UNL     1     -42.906   5.043  -1.094  1.00 20.00    -0.043 Cl
ENDBRANCH   3   6
TORSDOF 1
ENDMDL
MODEL 8
REMARK VINA RESULT:      -3.6      2.216      3.100
REMARK  1 active torsions:
REMARK  status: ('A' for Active; 'I' for Inactive)
REMARK    1  A    between atoms: C1_1  and  C4_4 
ROOT
HETATM    1  C2  UNL     1     -31.612   7.947   4.065  1.00 20.00     0.041 A 
HETATM    2  C3  UNL     1     -32.606   8.607   3.160  1.00 20.00     0.100 A 
HETATM    3  C4  UNL     1     -33.076   7.558   4.146  1.00 20.00     0.050 A 
HETATM    4  C5  UNL     1     -33.850   8.049   5.344  1.00 20.00     0.026 C 
HETATM    5 CL8  UNL     1     -32.539   8.294   1.444  1.00 20.00    -0.124 Cl
ENDROOT
BRANCH   3   6
HETATM    6  C1  UNL     1     -33.437   6.214   3.640  1.00 20.00     0.228 C 
HETATM    7  O6  UNL     1     -32.779   5.655   2.767  1.00 20.00    -0.279 OA
HETATM    8 CL7  UNL     1     -34.853   5.579   4.422  1.00 20.00    -0.043 Cl
ENDBRANCH   3   6
TORSDOF 1
ENDMDL
MODEL 9
REMARK VINA RESULT:      -3.4     12.407     13.094
REMARK  1 active torsions:
REMARK  status: ('A' for Active; 'I' for Inactive)
REMARK    1  A    between atoms: C1_1  and  C4_4 
ROOT
HETATM    1  C2  UNL     1     -34.336  15.177  -6.322  1.00 20.00     0.041 A 
HETATM    2  C3  UNL     1     -35.475  15.067  -5.356  1.00 20.00     0.100 A 
HETATM    3  C4  UNL     1     -34.309  15.978  -5.034  1.00 20.00     0.050 A 
HETATM    4  C5  UNL     1     -34.555  17.462  -5.145  1.00 20.00     0.026 C 
HETATM    5 CL8  UNL     1     -35.732  13.565  -4.506  1.00 20.00    -0.124 Cl
ENDROOT
BRANCH   3   6
HETATM    6  C1  UNL     1     -33.333  15.551  -4.004  1.00 20.00     0.228 C 
HETATM    7  O6  UNL     1     -32.483  14.697  -4.236  1.00 20.00    -0.279 OA
HETATM    8 CL7  UNL     1     -33.559  16.394  -2.501  1.00 20.00    -0.043 Cl
ENDBRANCH   3   6
TORSDOF 1
ENDMDL
