MODEL 1
REMARK VINA RESULT:      -4.1      0.000      0.000
REMARK  0 active torsions:
REMARK  status: ('A' for Active; 'I' for Inactive)
ROOT
HETATM    1  C1  UNL     1     -34.332   5.678   6.358  1.00 20.00    -0.014 C 
HETATM    2  C2  UNL     1     -33.601   6.805   6.300  1.00 20.00    -0.004 C 
HETATM    3  C3  UNL     1     -33.179   6.015   3.364  1.00 20.00     0.203 A 
HETATM    4  C4  UNL     1     -34.890   5.275   5.020  1.00 20.00     0.126 C 
HETATM    5  C5  UNL     1     -32.377   7.160   4.015  1.00 20.00     0.126 A 
HETATM    6  C6  UNL     1     -33.611   7.366   4.921  1.00 20.00     0.042 A 
HETATM    7  C7  UNL     1     -34.367   8.673   4.773  1.00 20.00     0.038 C 
HETATM    8  N8  UNL     1     -34.262   6.268   4.162  1.00 20.00    -0.237 NA
HETATM    9  O9  UNL     1     -32.941   5.139   2.564  1.00 20.00    -0.280 OA
ENDROOT
TORSDOF 0
ENDMDL
MODEL 2
REMARK VINA RESULT:      -4.0     15.828     16.452
REMARK  0 active torsions:
REMARK  status: ('A' for Active; 'I' for Inactive)
ROOT
HETATM    1  C1  UNL     1     -25.318  16.946  12.144  1.00 20.00    -0.014 C 
HETATM    2  C2  UNL     1     -24.033  16.596  11.965  1.00 20.00    -0.004 C 
HETATM    3  C3  UNL     1     -24.105  18.669   9.703  1.00 20.00     0.203 A 
HETATM    4  C4  UNL     1     -25.619  18.337  11.657  1.00 20.00     0.126 C 
HETATM    5  C5  UNL     1     -22.911  17.710   9.879  1.00 20.00     0.126 A 
HETATM    6  C6  UNL     1     -23.257  17.727  11.385  1.00 20.00     0.042 A 
HETATM    7  C7  UNL     1     -22.236  18.343  12.322  1.00 20.00     0.038 C 
HETATM    8  N8  UNL     1     -24.343  18.685  11.051  1.00 20.00    -0.237 NA
HETATM    9  O9  UNL     1     -24.707  19.138   8.762  1.00 20.00    -0.280 OA
ENDROOT
TORSDOF 0
ENDMDL
MODEL 3
REMARK VINA RESULT:      -3.9      1.788      2.915
REMARK  0 active torsions:
REMARK  status: ('A' for Active; 'I' for Inactive)
ROOT
HETATM    1  C1  UNL     1     -32.831   5.121   3.073  1.00 20.00    -0.014 C 
HETATM    2  C2  UNL     1     -33.670   4.820   4.080  1.00 20.00    -0.004 C 
HETATM    3  C3  UNL     1     -33.085   7.684   5.014  1.00 20.00     0.203 A 
HETATM    4  C4  UNL     1     -32.760   6.597   2.794  1.00 20.00     0.126 C 
HETATM    5  C5  UNL     1     -33.848   6.685   5.907  1.00 20.00     0.126 A 
HETATM    6  C6  UNL     1     -34.340   6.048   4.589  1.00 20.00     0.042 A 
HETATM    7  C7  UNL     1     -35.827   6.127   4.296  1.00 20.00     0.038 C 
HETATM    8  N8  UNL     1     -33.585   7.110   3.877  1.00 20.00    -0.237 NA
HETATM    9  O9  UNL     1     -32.262   8.554   5.197  1.00 20.00    -0.280 OA
ENDROOT
TORSDOF 0
ENDMDL
MODEL 4
REMARK VINA RESULT:      -3.9     16.039     16.785
REMARK  0 active torsions:
REMARK  status: ('A' for Active; 'I' for Inactive)
ROOT
HETATM    1  C1  UNL     1     -21.812  18.514  11.440  1.00 20.00    -0.014 C 
HETATM    2  C2  UNL     1     -22.836  18.308  12.287  1.00 20.00    -0.004 C 
HETATM    3  C3  UNL     1     -24.575  18.647   9.781  1.00 20.00     0.203 A 
HETATM    4  C4  UNL     1     -22.145  18.142  10.020  1.00 20.00     0.126 C 
HETATM    5  C5  UNL     1     -25.194  18.600  11.191  1.00 20.00     0.126 A 
HETATM    6  C6  UNL     1     -23.994  17.705  11.573  1.00 20.00     0.042 A 
HETATM    7  C7  UNL     1     -24.297  16.268  11.954  1.00 20.00     0.038 C 
HETATM    8  N8  UNL     1     -23.556  17.815  10.158  1.00 20.00    -0.237 NA
HETATM    9  O9  UNL     1     -24.793  19.262   8.760  1.00 20.00    -0.280 OA
ENDROOT
TORSDOF 0
ENDMDL
MODEL 5
REMARK VINA RESULT:      -3.9      0.883      2.484
REMARK  0 active torsions:
REMARK  status: ('A' for Active; 'I' for Inactive)
ROOT
HETATM    1  C1  UNL     1     -33.030   8.764   3.968  1.00 20.00    -0.014 C 
HETATM    2  C2  UNL     1     -34.095   8.370   4.688  1.00 20.00    -0.004 C 
HETATM    3  C3  UNL     1     -33.514   5.616   3.464  1.00 20.00     0.203 A 
HETATM    4  C4  UNL     1     -32.074   7.640   3.675  1.00 20.00     0.126 C 
HETATM    5  C5  UNL     1     -34.810   5.890   4.252  1.00 20.00     0.126 A 
HETATM    6  C6  UNL     1     -33.983   6.928   5.043  1.00 20.00     0.042 A 
HETATM    7  C7  UNL     1     -33.756   6.654   6.518  1.00 20.00     0.038 C 
HETATM    8  N8  UNL     1     -32.815   6.514   4.223  1.00 20.00    -0.237 NA
HETATM    9  O9  UNL     1     -33.220   4.973   2.481  1.00 20.00    -0.280 OA
ENDROOT
TORSDOF 0
ENDMDL
MODEL 6
REMARK VINA RESULT:      -3.7      8.931      9.534
REMARK  0 active torsions:
REMARK  status: ('A' for Active; 'I' for Inactive)
ROOT
HETATM    1  C1  UNL     1     -43.417   5.367   1.671  1.00 20.00    -0.014 C 
HETATM    2  C2  UNL     1     -43.092   6.656   1.866  1.00 20.00    -0.004 C 
HETATM    3  C3  UNL     1     -41.016   6.146  -0.336  1.00 20.00     0.203 A 
HETATM    4  C4  UNL     1     -43.071   4.879   0.291  1.00 20.00     0.126 C 
HETATM    5  C5  UNL     1     -41.005   7.443   0.497  1.00 20.00     0.126 A 
HETATM    6  C6  UNL     1     -42.533   7.251   0.622  1.00 20.00     0.042 A 
HETATM    7  C7  UNL     1     -43.417   8.293  -0.037  1.00 20.00     0.038 C 
HETATM    8  N8  UNL     1     -42.377   6.046  -0.234  1.00 20.00    -0.237 NA
HETATM    9  O9  UNL     1     -40.175   5.409  -0.800  1.00 20.00    -0.280 OA
ENDROOT
TORSDOF 0
ENDMDL
MODEL 7
REMARK VINA RESULT:      -3.7     15.629     16.246
REMARK  0 active torsions:
REMARK  status: ('A' for Active; 'I' for Inactive)
ROOT
HETATM    1  C1  UNL     1     -24.120  17.199  12.160  1.00 20.00    -0.014 C 
HETATM    2  C2  UNL     1     -24.073  18.500  11.825  1.00 20.00    -0.004 C 
HETATM    3  C3  UNL     1     -22.622  17.486   9.318  1.00 20.00     0.203 A 
HETATM    4  C4  UNL     1     -24.058  16.286  10.966  1.00 20.00     0.126 C 
HETATM    5  C5  UNL     1     -22.695  18.988   9.654  1.00 20.00     0.126 A 
HETATM    6  C6  UNL     1     -24.037  18.660  10.345  1.00 20.00     0.042 A 
HETATM    7  C7  UNL     1     -25.292  19.262   9.741  1.00 20.00     0.038 C 
HETATM    8  N8  UNL     1     -23.837  17.255   9.904  1.00 20.00    -0.237 NA
HETATM    9  O9  UNL     1     -21.788  16.745   8.846  1.00 20.00    -0.280 OA
ENDROOT
TORSDOF 0
ENDMDL
MODEL 8
REMARK VINA RESULT:      -3.6      1.970      2.675
REMARK  0 active torsions:
REMARK  status: ('A' for Active; 'I' for Inactive)
ROOT
HETATM    1  C1  UNL     1     -34.845   6.032   6.087  1.00 20.00    -0.014 C 
HETATM    2  C2  UNL     1     -35.033   6.046   4.755  1.00 20.00    -0.004 C 
HETATM    3  C3  UNL     1     -32.850   8.203   4.779  1.00 20.00     0.203 A 
HETATM    4  C4  UNL     1     -33.471   6.496   6.487  1.00 20.00     0.126 C 
HETATM    5  C5  UNL     1     -33.674   7.903   3.511  1.00 20.00     0.126 A 
HETATM    6  C6  UNL     1     -33.788   6.462   4.054  1.00 20.00     0.042 A 
HETATM    7  C7  UNL     1     -33.115   5.365   3.251  1.00 20.00     0.038 C 
HETATM    8  N8  UNL     1     -32.943   6.902   5.194  1.00 20.00    -0.237 NA
HETATM    9  O9  UNL     1     -32.398   9.197   5.302  1.00 20.00    -0.280 OA
ENDROOT
TORSDOF 0
ENDMDL
MODEL 9
REMARK VINA RESULT:      -3.5     12.691     13.694
REMARK  0 active torsions:
REMARK  status: ('A' for Active; 'I' for Inactive)
ROOT
HETATM    1  C1  UNL     1     -34.289  14.291  -4.190  1.00 20.00    -0.014 C 
HETATM    2  C2  UNL     1     -33.836  15.496  -4.578  1.00 20.00    -0.004 C 
HETATM    3  C3  UNL     1     -35.715  15.089  -6.970  1.00 20.00     0.203 A 
HETATM    4  C4  UNL     1     -35.653  13.975  -4.741  1.00 20.00     0.126 C 
HETATM    5  C5  UNL     1     -34.692  16.242  -6.936  1.00 20.00     0.126 A 
HETATM    6  C6  UNL     1     -34.857  16.200  -5.401  1.00 20.00     0.042 A 
HETATM    7  C7  UNL     1     -35.476  17.417  -4.738  1.00 20.00     0.038 C 
HETATM    8  N8  UNL     1     -35.858  15.123  -5.610  1.00 20.00    -0.237 NA
HETATM    9  O9  UNL     1     -36.146  14.340  -7.819  1.00 20.00    -0.280 OA
ENDROOT
TORSDOF 0
ENDMDL
