MODEL 1
REMARK VINA RESULT:      -5.1      0.000      0.000
REMARK  1 active torsions:
REMARK  status: ('A' for Active; 'I' for Inactive)
REMARK    1  A    between atoms: C3_3  and  C7_7 
ROOT
HETATM    1  C1  UNL     1     -34.264   5.359   6.576  1.00 20.00    -0.030 C 
HETATM    2  C2  UNL     1     -34.712   4.753   5.472  1.00 20.00    -0.026 C 
HETATM    3  C4  UNL     1     -33.979   6.819   6.383  1.00 20.00     0.033 C 
HETATM    4  C5  UNL     1     -33.516   5.851   3.497  1.00 20.00     0.021 C 
HETATM    5  C6  UNL     1     -34.791   5.716   4.359  1.00 20.00     0.013 C 
HETATM    6  C7  UNL     1     -33.523   7.372   3.768  1.00 20.00     0.060 C 
HETATM    7  C8  UNL     1     -34.486   7.114   4.963  1.00 20.00     0.008 C 
ENDROOT
BRANCH   6   8
HETATM    8  C3  UNL     1     -32.187   8.065   4.047  1.00 20.00     0.127 C 
HETATM    9  C9  UNL     1     -32.224   9.272   4.944  1.00 20.00     0.091 C 
HETATM   10  O10 UNL     1     -31.134   7.653   3.563  1.00 20.00    -0.298 OA
ENDBRANCH   6   8
TORSDOF 1
ENDMDL
MODEL 2
REMARK VINA RESULT:      -5.1      1.113      1.350
REMARK  1 active torsions:
REMARK  status: ('A' for Active; 'I' for Inactive)
REMARK    1  A    between atoms: C3_3  and  C7_7 
ROOT
HETATM    1  C1  UNL     1     -34.118   6.161   6.674  1.00 20.00    -0.030 C 
HETATM    2  C2  UNL     1     -34.486   5.043   6.040  1.00 20.00    -0.026 C 
HETATM    3  C4  UNL     1     -34.002   7.352   5.771  1.00 20.00     0.033 C 
HETATM    4  C5  UNL     1     -33.409   5.131   3.722  1.00 20.00     0.021 C 
HETATM    5  C6  UNL     1     -34.667   5.311   4.601  1.00 20.00     0.013 C 
HETATM    6  C7  UNL     1     -33.594   6.576   3.205  1.00 20.00     0.060 C 
HETATM    7  C8  UNL     1     -34.529   6.847   4.418  1.00 20.00     0.008 C 
ENDROOT
BRANCH   6   8
HETATM    8  C3  UNL     1     -32.348   7.449   3.036  1.00 20.00     0.127 C 
HETATM    9  C9  UNL     1     -32.082   7.988   1.656  1.00 20.00     0.091 C 
HETATM   10  O10 UNL     1     -31.603   7.700   3.982  1.00 20.00    -0.298 OA
ENDBRANCH   6   8
TORSDOF 1
ENDMDL
MODEL 3
REMARK VINA RESULT:      -4.8      1.826      3.657
REMARK  1 active torsions:
REMARK  status: ('A' for Active; 'I' for Inactive)
REMARK    1  A    between atoms: C3_3  and  C7_7 
ROOT
HETATM    1  C1  UNL     1     -31.881   8.658   4.490  1.00 20.00    -0.030 C 
HETATM    2  C2  UNL     1     -32.633   8.892   5.571  1.00 20.00    -0.026 C 
HETATM    3  C4  UNL     1     -32.554   7.788   3.470  1.00 20.00     0.033 C 
HETATM    4  C5  UNL     1     -33.982   6.762   5.998  1.00 20.00     0.021 C 
HETATM    5  C6  UNL     1     -33.931   8.204   5.446  1.00 20.00     0.013 C 
HETATM    6  C7  UNL     1     -34.491   6.279   4.621  1.00 20.00     0.060 C 
HETATM    7  C8  UNL     1     -33.982   7.617   4.009  1.00 20.00     0.008 C 
ENDROOT
BRANCH   6   8
HETATM    8  C3  UNL     1     -33.936   4.966   4.063  1.00 20.00     0.127 C 
HETATM    9  C9  UNL     1     -33.190   5.047   2.759  1.00 20.00     0.091 C 
HETATM   10  O10 UNL     1     -34.089   3.899   4.654  1.00 20.00    -0.298 OA
ENDBRANCH   6   8
TORSDOF 1
ENDMDL
MODEL 4
REMARK VINA RESULT:      -4.6      1.738      3.850
REMARK  1 active torsions:
REMARK  status: ('A' for Active; 'I' for Inactive)
REMARK    1  A    between atoms: C3_3  and  C7_7 
ROOT
HETATM    1  C1  UNL     1     -31.659   7.944   3.801  1.00 20.00    -0.030 C 
HETATM    2  C2  UNL     1     -32.144   8.881   4.622  1.00 20.00    -0.026 C 
HETATM    3  C4  UNL     1     -32.676   6.919   3.395  1.00 20.00     0.033 C 
HETATM    4  C5  UNL     1     -33.858   7.720   6.123  1.00 20.00     0.021 C 
HETATM    5  C6  UNL     1     -33.569   8.623   4.903  1.00 20.00     0.013 C 
HETATM    6  C7  UNL     1     -34.688   6.792   5.208  1.00 20.00     0.060 C 
HETATM    7  C8  UNL     1     -33.994   7.449   3.980  1.00 20.00     0.008 C 
ENDROOT
BRANCH   6   8
HETATM    8  C3  UNL     1     -34.554   5.279   5.397  1.00 20.00     0.127 C 
HETATM    9  C9  UNL     1     -34.114   4.804   6.756  1.00 20.00     0.091 C 
HETATM   10  O10 UNL     1     -34.795   4.491   4.485  1.00 20.00    -0.298 OA
ENDBRANCH   6   8
TORSDOF 1
ENDMDL
MODEL 5
REMARK VINA RESULT:      -4.3      1.998      3.813
REMARK  1 active torsions:
REMARK  status: ('A' for Active; 'I' for Inactive)
REMARK    1  A    between atoms: C3_3  and  C7_7 
ROOT
HETATM    1  C1  UNL     1     -32.865   8.943   2.597  1.00 20.00    -0.030 C 
HETATM    2  C2  UNL     1     -32.283   7.985   1.868  1.00 20.00    -0.026 C 
HETATM    3  C4  UNL     1     -33.154   8.528   4.009  1.00 20.00     0.033 C 
HETATM    4  C5  UNL     1     -33.269   5.763   2.660  1.00 20.00     0.021 C 
HETATM    5  C6  UNL     1     -32.097   6.769   2.681  1.00 20.00     0.013 C 
HETATM    6  C7  UNL     1     -33.321   5.829   4.203  1.00 20.00     0.060 C 
HETATM    7  C8  UNL     1     -32.495   7.146   4.134  1.00 20.00     0.008 C 
ENDROOT
BRANCH   6   8
HETATM    8  C3  UNL     1     -34.694   5.865   4.880  1.00 20.00     0.127 C 
HETATM    9  C9  UNL     1     -34.714   5.708   6.377  1.00 20.00     0.091 C 
HETATM   10  O10 UNL     1     -35.728   6.018   4.233  1.00 20.00    -0.298 OA
ENDBRANCH   6   8
TORSDOF 1
ENDMDL
MODEL 6
REMARK VINA RESULT:      -4.3      9.580     10.393
REMARK  1 active torsions:
REMARK  status: ('A' for Active; 'I' for Inactive)
REMARK    1  A    between atoms: C3_3  and  C7_7 
ROOT
HETATM    1  C1  UNL     1     -41.393  14.452   9.025  1.00 20.00    -0.030 C 
HETATM    2  C2  UNL     1     -42.604  14.067   8.609  1.00 20.00    -0.026 C 
HETATM    3  C4  UNL     1     -40.374  14.511   7.927  1.00 20.00     0.033 C 
HETATM    4  C5  UNL     1     -42.226  12.350   6.752  1.00 20.00     0.021 C 
HETATM    5  C6  UNL     1     -42.582  13.797   7.160  1.00 20.00     0.013 C 
HETATM    6  C7  UNL     1     -41.091  12.906   5.863  1.00 20.00     0.060 C 
HETATM    7  C8  UNL     1     -41.185  14.245   6.649  1.00 20.00     0.008 C 
ENDROOT
BRANCH   6   8
HETATM    8  C3  UNL     1     -39.753  12.163   5.847  1.00 20.00     0.127 C 
HETATM    9  C9  UNL     1     -39.189  11.813   4.497  1.00 20.00     0.091 C 
HETATM   10  O10 UNL     1     -39.167  11.868   6.887  1.00 20.00    -0.298 OA
ENDBRANCH   6   8
TORSDOF 1
ENDMDL
MODEL 7
REMARK VINA RESULT:      -4.2     12.045     13.339
REMARK  1 active torsions:
REMARK  status: ('A' for Active; 'I' for Inactive)
REMARK    1  A    between atoms: C3_3  and  C7_7 
ROOT
HETATM    1  C1  UNL     1     -33.671  16.281  -3.255  1.00 20.00    -0.030 C 
HETATM    2  C2  UNL     1     -33.795  17.362  -4.032  1.00 20.00    -0.026 C 
HETATM    3  C4  UNL     1     -33.686  16.593  -1.788  1.00 20.00     0.033 C 
HETATM    4  C5  UNL     1     -32.568  19.262  -2.839  1.00 20.00     0.021 C 
HETATM    5  C6  UNL     1     -33.904  18.575  -3.201  1.00 20.00     0.013 C 
HETATM    6  C7  UNL     1     -32.951  19.165  -1.345  1.00 20.00     0.060 C 
HETATM    7  C8  UNL     1     -34.012  18.093  -1.729  1.00 20.00     0.008 C 
ENDROOT
BRANCH   6   8
HETATM    8  C3  UNL     1     -31.860  18.783  -0.342  1.00 20.00     0.127 C 
HETATM    9  C9  UNL     1     -32.241  18.810   1.114  1.00 20.00     0.091 C 
HETATM   10  O10 UNL     1     -30.729  18.467  -0.707  1.00 20.00    -0.298 OA
ENDBRANCH   6   8
TORSDOF 1
ENDMDL
MODEL 8
REMARK VINA RESULT:      -4.1     15.335     16.217
REMARK  1 active torsions:
REMARK  status: ('A' for Active; 'I' for Inactive)
REMARK    1  A    between atoms: C3_3  and  C7_7 
ROOT
HETATM    1  C1  UNL     1     -25.946  19.161  11.757  1.00 20.00    -0.030 C 
HETATM    2  C2  UNL     1     -25.910  17.955  12.332  1.00 20.00    -0.026 C 
HETATM    3  C4  UNL     1     -25.133  19.250  10.500  1.00 20.00     0.033 C 
HETATM    4  C5  UNL     1     -23.559  17.029  11.939  1.00 20.00     0.021 C 
HETATM    5  C6  UNL     1     -25.054  17.044  11.550  1.00 20.00     0.013 C 
HETATM    6  C7  UNL     1     -23.199  17.350  10.471  1.00 20.00     0.060 C 
HETATM    7  C8  UNL     1     -24.670  17.806  10.252  1.00 20.00     0.008 C 
ENDROOT
BRANCH   6   8
HETATM    8  C3  UNL     1     -22.077  18.357  10.205  1.00 20.00     0.127 C 
HETATM    9  C9  UNL     1     -21.809  18.706   8.766  1.00 20.00     0.091 C 
HETATM   10  O10 UNL     1     -21.428  18.857  11.122  1.00 20.00    -0.298 OA
ENDBRANCH   6   8
TORSDOF 1
ENDMDL
MODEL 9
REMARK VINA RESULT:      -4.1      1.478      2.314
REMARK  1 active torsions:
REMARK  status: ('A' for Active; 'I' for Inactive)
REMARK    1  A    between atoms: C3_3  and  C7_7 
ROOT
HETATM    1  C1  UNL     1     -34.852   5.592   4.502  1.00 20.00    -0.030 C 
HETATM    2  C2  UNL     1     -34.768   6.391   5.571  1.00 20.00    -0.026 C 
HETATM    3  C4  UNL     1     -33.676   5.702   3.578  1.00 20.00     0.033 C 
HETATM    4  C5  UNL     1     -33.605   8.531   4.792  1.00 20.00     0.021 C 
HETATM    5  C6  UNL     1     -33.519   7.174   5.524  1.00 20.00     0.013 C 
HETATM    6  C7  UNL     1     -32.431   8.091   3.889  1.00 20.00     0.060 C 
HETATM    7  C8  UNL     1     -32.698   6.622   4.326  1.00 20.00     0.008 C 
ENDROOT
BRANCH   6   8
HETATM    8  C3  UNL     1     -32.497   8.430   2.398  1.00 20.00     0.127 C 
HETATM    9  C9  UNL     1     -33.111   9.755   2.032  1.00 20.00     0.091 C 
HETATM   10  O10 UNL     1     -32.068   7.660   1.541  1.00 20.00    -0.298 OA
ENDBRANCH   6   8
TORSDOF 1
ENDMDL
