MODEL 1
REMARK VINA RESULT:      -4.3      0.000      0.000
REMARK  1 active torsions:
REMARK  status: ('A' for Active; 'I' for Inactive)
REMARK    1  A    between atoms: C2_2  and  C5_5 
ROOT
HETATM    1  C1  UNL     1     -33.426   8.082   5.198  1.00 20.00     0.270 A 
HETATM    2  C2  UNL     1     -33.715   6.866   4.354  1.00 20.00     0.181 A 
HETATM    3  O6  UNL     1     -34.460   8.086   4.207  1.00 20.00    -0.336 OA
HETATM    4 CL7  UNL     1     -32.028   9.091   4.948  1.00 20.00    -0.091 Cl
HETATM    5 CL8  UNL     1     -32.635   6.419   3.035  1.00 20.00    -0.084 Cl
ENDROOT
BRANCH   2   6
HETATM    6  C5  UNL     1     -34.534   5.723   4.947  1.00 20.00     0.032 C 
HETATM    7  C3  UNL     1     -34.074   4.382   4.381  1.00 20.00     0.014 C 
HETATM    8  C4  UNL     1     -34.434   5.726   6.472  1.00 20.00     0.014 C 
ENDBRANCH   2   6
TORSDOF 1
ENDMDL
MODEL 2
REMARK VINA RESULT:      -4.1      2.028      3.660
REMARK  1 active torsions:
REMARK  status: ('A' for Active; 'I' for Inactive)
REMARK    1  A    between atoms: C2_2  and  C5_5 
ROOT
HETATM    1  C1  UNL     1     -34.015   5.594   3.987  1.00 20.00     0.270 A 
HETATM    2  C2  UNL     1     -33.800   6.866   4.767  1.00 20.00     0.181 A 
HETATM    3  O6  UNL     1     -35.086   6.512   4.232  1.00 20.00    -0.336 OA
HETATM    4 CL7  UNL     1     -34.072   4.024   4.741  1.00 20.00    -0.091 Cl
HETATM    5 CL8  UNL     1     -33.617   6.818   6.519  1.00 20.00    -0.084 Cl
ENDROOT
BRANCH   2   6
HETATM    6  C5  UNL     1     -33.166   8.069   4.075  1.00 20.00     0.032 C 
HETATM    7  C3  UNL     1     -32.472   8.971   5.092  1.00 20.00     0.014 C 
HETATM    8  C4  UNL     1     -32.179   7.612   3.002  1.00 20.00     0.014 C 
ENDBRANCH   2   6
TORSDOF 1
ENDMDL
MODEL 3
REMARK VINA RESULT:      -4.1      2.314      3.191
REMARK  1 active torsions:
REMARK  status: ('A' for Active; 'I' for Inactive)
REMARK    1  A    between atoms: C2_2  and  C5_5 
ROOT
HETATM    1  C1  UNL     1     -34.251   5.375   5.167  1.00 20.00     0.270 A 
HETATM    2  C2  UNL     1     -33.698   6.556   4.410  1.00 20.00     0.181 A 
HETATM    3  O6  UNL     1     -34.954   5.951   4.060  1.00 20.00    -0.336 OA
HETATM    4 CL7  UNL     1     -34.943   5.516   6.760  1.00 20.00    -0.091 Cl
HETATM    5 CL8  UNL     1     -33.752   8.170   5.115  1.00 20.00    -0.084 Cl
ENDROOT
BRANCH   2   6
HETATM    6  C5  UNL     1     -32.606   6.331   3.369  1.00 20.00     0.032 C 
HETATM    7  C3  UNL     1     -33.003   5.214   2.405  1.00 20.00     0.014 C 
HETATM    8  C4  UNL     1     -32.320   7.622   2.604  1.00 20.00     0.014 C 
ENDBRANCH   2   6
TORSDOF 1
ENDMDL
MODEL 4
REMARK VINA RESULT:      -4.1      1.629      2.115
REMARK  1 active torsions:
REMARK  status: ('A' for Active; 'I' for Inactive)
REMARK    1  A    between atoms: C2_2  and  C5_5 
ROOT
HETATM    1  C1  UNL     1     -32.625   7.725   3.991  1.00 20.00     0.270 A 
HETATM    2  C2  UNL     1     -33.607   6.745   4.582  1.00 20.00     0.181 A 
HETATM    3  O6  UNL     1     -34.005   8.064   4.177  1.00 20.00    -0.336 OA
HETATM    4 CL7  UNL     1     -32.012   7.582   2.367  1.00 20.00    -0.091 Cl
HETATM    5 CL8  UNL     1     -34.205   5.393   3.622  1.00 20.00    -0.084 Cl
ENDROOT
BRANCH   2   6
HETATM    6  C5  UNL     1     -33.639   6.540   6.094  1.00 20.00     0.032 C 
HETATM    7  C3  UNL     1     -34.139   7.800   6.797  1.00 20.00     0.014 C 
HETATM    8  C4  UNL     1     -34.516   5.341   6.454  1.00 20.00     0.014 C 
ENDBRANCH   2   6
TORSDOF 1
ENDMDL
MODEL 5
REMARK VINA RESULT:      -4.0      2.013      3.566
REMARK  1 active torsions:
REMARK  status: ('A' for Active; 'I' for Inactive)
REMARK    1  A    between atoms: C2_2  and  C5_5 
ROOT
HETATM    1  C1  UNL     1     -34.492   6.685   5.090  1.00 20.00     0.270 A 
HETATM    2  C2  UNL     1     -33.324   7.084   4.223  1.00 20.00     0.181 A 
HETATM    3  O6  UNL     1     -33.157   6.734   5.606  1.00 20.00    -0.336 OA
HETATM    4 CL7  UNL     1     -35.280   5.138   4.956  1.00 20.00    -0.091 Cl
HETATM    5 CL8  UNL     1     -32.679   5.964   3.025  1.00 20.00    -0.084 Cl
ENDROOT
BRANCH   2   6
HETATM    6  C5  UNL     1     -33.076   8.563   3.938  1.00 20.00     0.032 C 
HETATM    7  C3  UNL     1     -32.072   9.141   4.933  1.00 20.00     0.014 C 
HETATM    8  C4  UNL     1     -32.584   8.758   2.505  1.00 20.00     0.014 C 
ENDBRANCH   2   6
TORSDOF 1
ENDMDL
MODEL 6
REMARK VINA RESULT:      -3.9      1.665      2.287
REMARK  1 active torsions:
REMARK  status: ('A' for Active; 'I' for Inactive)
REMARK    1  A    between atoms: C2_2  and  C5_5 
ROOT
HETATM    1  C1  UNL     1     -33.025   7.024   2.527  1.00 20.00     0.270 A 
HETATM    2  C2  UNL     1     -33.067   7.164   4.028  1.00 20.00     0.181 A 
HETATM    3  O6  UNL     1     -32.303   6.132   3.384  1.00 20.00    -0.336 OA
HETATM    4 CL7  UNL     1     -32.126   8.110   1.504  1.00 20.00    -0.091 Cl
HETATM    5 CL8  UNL     1     -32.167   8.451   4.828  1.00 20.00    -0.084 Cl
ENDROOT
BRANCH   2   6
HETATM    6  C5  UNL     1     -34.276   6.634   4.794  1.00 20.00     0.032 C 
HETATM    7  C3  UNL     1     -34.436   5.132   4.573  1.00 20.00     0.014 C 
HETATM    8  C4  UNL     1     -34.145   6.947   6.284  1.00 20.00     0.014 C 
ENDBRANCH   2   6
TORSDOF 1
ENDMDL
MODEL 7
REMARK VINA RESULT:      -3.9     15.838     16.496
REMARK  1 active torsions:
REMARK  status: ('A' for Active; 'I' for Inactive)
REMARK    1  A    between atoms: C2_2  and  C5_5 
ROOT
HETATM    1  C1  UNL     1     -22.755  18.348   9.162  1.00 20.00     0.270 A 
HETATM    2  C2  UNL     1     -23.140  17.962  10.567  1.00 20.00     0.181 A 
HETATM    3  O6  UNL     1     -22.611  17.005   9.636  1.00 20.00    -0.336 OA
HETATM    4 CL7  UNL     1     -21.318  19.263   8.796  1.00 20.00    -0.091 Cl
HETATM    5 CL8  UNL     1     -22.115  18.413  11.929  1.00 20.00    -0.084 Cl
ENDROOT
BRANCH   2   6
HETATM    6  C5  UNL     1     -24.611  17.732  10.903  1.00 20.00     0.032 C 
HETATM    7  C3  UNL     1     -24.777  16.485  11.768  1.00 20.00     0.014 C 
HETATM    8  C4  UNL     1     -25.199  18.955  11.605  1.00 20.00     0.014 C 
ENDBRANCH   2   6
TORSDOF 1
ENDMDL
MODEL 8
REMARK VINA RESULT:      -3.8      1.838      1.932
REMARK  1 active torsions:
REMARK  status: ('A' for Active; 'I' for Inactive)
REMARK    1  A    between atoms: C2_2  and  C5_5 
ROOT
HETATM    1  C1  UNL     1     -32.778   8.313   3.882  1.00 20.00     0.270 A 
HETATM    2  C2  UNL     1     -33.224   7.037   4.548  1.00 20.00     0.181 A 
HETATM    3  O6  UNL     1     -31.928   7.163   3.942  1.00 20.00    -0.336 OA
HETATM    4 CL7  UNL     1     -32.324   9.736   4.779  1.00 20.00    -0.091 Cl
HETATM    5 CL8  UNL     1     -33.283   6.922   6.306  1.00 20.00    -0.084 Cl
ENDROOT
BRANCH   2   6
HETATM    6  C5  UNL     1     -34.154   6.087   3.797  1.00 20.00     0.032 C 
HETATM    7  C3  UNL     1     -33.349   5.100   2.956  1.00 20.00     0.014 C 
HETATM    8  C4  UNL     1     -35.063   5.343   4.774  1.00 20.00     0.014 C 
ENDBRANCH   2   6
TORSDOF 1
ENDMDL
MODEL 9
REMARK VINA RESULT:      -3.7      9.454     10.134
REMARK  1 active torsions:
REMARK  status: ('A' for Active; 'I' for Inactive)
REMARK    1  A    between atoms: C2_2  and  C5_5 
ROOT
HETATM    1  C1  UNL     1     -39.918  12.063   5.687  1.00 20.00     0.270 A 
HETATM    2  C2  UNL     1     -41.022  13.071   5.884  1.00 20.00     0.181 A 
HETATM    3  O6  UNL     1     -39.665  13.350   6.264  1.00 20.00    -0.336 OA
HETATM    4 CL7  UNL     1     -39.239  11.702   4.123  1.00 20.00    -0.091 Cl
HETATM    5 CL8  UNL     1     -41.671  13.962   4.509  1.00 20.00    -0.084 Cl
ENDROOT
BRANCH   2   6
HETATM    6  C5  UNL     1     -41.966  12.921   7.073  1.00 20.00     0.032 C 
HETATM    7  C3  UNL     1     -41.779  14.075   8.057  1.00 20.00     0.014 C 
HETATM    8  C4  UNL     1     -43.417  12.849   6.601  1.00 20.00     0.014 C 
ENDBRANCH   2   6
TORSDOF 1
ENDMDL
