MODEL 1
REMARK VINA RESULT:      -4.2      0.000      0.000
REMARK  1 active torsions:
REMARK  status: ('A' for Active; 'I' for Inactive)
REMARK    1  A    between atoms: C4_4  and  C10_10 
ROOT
HETATM    1  C1  UNL     1     -33.828  19.130  -3.148  1.00 20.00     0.174 C 
HETATM    2  C2  UNL     1     -34.217  18.610  -1.809  1.00 20.00     0.025 A 
HETATM    3  C3  UNL     1     -33.790  17.192  -1.761  1.00 20.00     0.030 A 
HETATM    4  C4  UNL     1     -33.143  16.890  -3.077  1.00 20.00     0.130 C 
HETATM    5  C5  UNL     1     -33.225  18.173  -0.748  1.00 20.00    -0.035 A 
HETATM    6  C6  UNL     1     -31.784  18.606  -0.825  1.00 20.00     0.016 C 
HETATM    7  C7  UNL     1     -33.739  18.066   0.667  1.00 20.00     0.016 C 
HETATM    8  O11 UNL     1     -32.969  18.151  -3.758  1.00 20.00    -0.385 OA
ENDROOT
BRANCH   4   9
HETATM    9  C10 UNL     1     -34.001  15.987  -3.951  1.00 20.00     0.007 C 
HETATM   10  C8  UNL     1     -34.404  16.704  -5.240  1.00 20.00     0.012 C 
HETATM   11  C9  UNL     1     -33.265  14.687  -4.273  1.00 20.00     0.012 C 
ENDBRANCH   4   9
TORSDOF 1
ENDMDL
MODEL 2
REMARK VINA RESULT:      -4.1     11.047     12.256
REMARK  1 active torsions:
REMARK  status: ('A' for Active; 'I' for Inactive)
REMARK    1  A    between atoms: C4_4  and  C10_10 
ROOT
HETATM    1  C1  UNL     1     -31.952   8.748   4.875  1.00 20.00     0.174 C 
HETATM    2  C2  UNL     1     -31.701   8.082   3.568  1.00 20.00     0.025 A 
HETATM    3  C3  UNL     1     -32.921   7.308   3.241  1.00 20.00     0.030 A 
HETATM    4  C4  UNL     1     -33.888   7.532   4.360  1.00 20.00     0.130 C 
HETATM    5  C5  UNL     1     -32.458   8.401   2.293  1.00 20.00    -0.035 A 
HETATM    6  C6  UNL     1     -33.237   9.685   2.169  1.00 20.00     0.016 C 
HETATM    7  C7  UNL     1     -31.829   7.960   0.994  1.00 20.00     0.016 C 
HETATM    8  O11 UNL     1     -33.352   8.598   5.172  1.00 20.00    -0.385 OA
ENDROOT
BRANCH   4   9
HETATM    9  C10 UNL     1     -34.057   6.300   5.237  1.00 20.00     0.007 C 
HETATM   10  C8  UNL     1     -34.375   6.699   6.678  1.00 20.00     0.012 C 
HETATM   11  C9  UNL     1     -35.151   5.387   4.683  1.00 20.00     0.012 C 
ENDBRANCH   4   9
TORSDOF 1
ENDMDL
MODEL 3
REMARK VINA RESULT:      -4.1     11.093     12.485
REMARK  1 active torsions:
REMARK  status: ('A' for Active; 'I' for Inactive)
REMARK    1  A    between atoms: C4_4  and  C10_10 
ROOT
HETATM    1  C1  UNL     1     -42.438  12.956   7.349  1.00 20.00     0.174 C 
HETATM    2  C2  UNL     1     -41.466  13.978   7.823  1.00 20.00     0.025 A 
HETATM    3  C3  UNL     1     -40.426  14.099   6.774  1.00 20.00     0.030 A 
HETATM    4  C4  UNL     1     -40.801  13.147   5.683  1.00 20.00     0.130 C 
HETATM    5  C5  UNL     1     -41.249  15.320   7.149  1.00 20.00    -0.035 A 
HETATM    6  C6  UNL     1     -42.277  15.870   6.195  1.00 20.00     0.016 C 
HETATM    7  C7  UNL     1     -40.557  16.389   7.959  1.00 20.00     0.016 C 
HETATM    8  O11 UNL     1     -42.138  12.686   5.968  1.00 20.00    -0.385 OA
ENDROOT
BRANCH   4   9
HETATM    9  C10 UNL     1     -39.879  11.937   5.626  1.00 20.00     0.007 C 
HETATM   10  C8  UNL     1     -39.311  11.753   4.218  1.00 20.00     0.012 C 
HETATM   11  C9  UNL     1     -38.746  12.071   6.644  1.00 20.00     0.012 C 
ENDBRANCH   4   9
TORSDOF 1
ENDMDL
MODEL 4
REMARK VINA RESULT:      -3.9      1.749      5.068
REMARK  1 active torsions:
REMARK  status: ('A' for Active; 'I' for Inactive)
REMARK    1  A    between atoms: C4_4  and  C10_10 
ROOT
HETATM    1  C1  UNL     1     -34.045  14.399  -4.202  1.00 20.00     0.174 C 
HETATM    2  C2  UNL     1     -35.158  14.848  -5.082  1.00 20.00     0.025 A 
HETATM    3  C3  UNL     1     -35.045  16.321  -5.196  1.00 20.00     0.030 A 
HETATM    4  C4  UNL     1     -33.857  16.728  -4.384  1.00 20.00     0.130 C 
HETATM    5  C5  UNL     1     -34.960  15.470  -6.451  1.00 20.00    -0.035 A 
HETATM    6  C6  UNL     1     -33.650  15.311  -7.179  1.00 20.00     0.016 C 
HETATM    7  C7  UNL     1     -36.154  15.489  -7.374  1.00 20.00     0.016 C 
HETATM    8  O11 UNL     1     -33.157  15.517  -4.028  1.00 20.00    -0.385 OA
ENDROOT
BRANCH   4   9
HETATM    9  C10 UNL     1     -34.249  17.449  -3.103  1.00 20.00     0.007 C 
HETATM   10  C8  UNL     1     -33.323  17.053  -1.952  1.00 20.00     0.012 C 
HETATM   11  C9  UNL     1     -34.228  18.964  -3.306  1.00 20.00     0.012 C 
ENDBRANCH   4   9
TORSDOF 1
ENDMDL
MODEL 5
REMARK VINA RESULT:      -3.7     11.636     13.487
REMARK  1 active torsions:
REMARK  status: ('A' for Active; 'I' for Inactive)
REMARK    1  A    between atoms: C4_4  and  C10_10 
ROOT
HETATM    1  C1  UNL     1     -42.562  12.998   7.607  1.00 20.00     0.174 C 
HETATM    2  C2  UNL     1     -42.610  13.833   6.377  1.00 20.00     0.025 A 
HETATM    3  C3  UNL     1     -41.481  14.789   6.466  1.00 20.00     0.030 A 
HETATM    4  C4  UNL     1     -40.772  14.503   7.751  1.00 20.00     0.130 C 
HETATM    5  C5  UNL     1     -41.542  13.818   5.299  1.00 20.00    -0.035 A 
HETATM    6  C6  UNL     1     -40.567  12.674   5.207  1.00 20.00     0.016 C 
HETATM    7  C7  UNL     1     -41.919  14.387   3.954  1.00 20.00     0.016 C 
HETATM    8  O11 UNL     1     -41.308  13.263   8.259  1.00 20.00    -0.385 OA
ENDROOT
BRANCH   4   9
HETATM    9  C10 UNL     1     -41.000  15.587   8.795  1.00 20.00     0.007 C 
HETATM   10  C8  UNL     1     -40.074  15.388   9.995  1.00 20.00     0.012 C 
HETATM   11  C9  UNL     1     -40.794  16.975   8.188  1.00 20.00     0.012 C 
ENDBRANCH   4   9
TORSDOF 1
ENDMDL
MODEL 6
REMARK VINA RESULT:      -3.7     23.957     25.075
REMARK  1 active torsions:
REMARK  status: ('A' for Active; 'I' for Inactive)
REMARK    1  A    between atoms: C4_4  and  C10_10 
ROOT
HETATM    1  C1  UNL     1     -27.775  -0.726  10.249  1.00 20.00     0.174 C 
HETATM    2  C2  UNL     1     -28.090  -2.088   9.740  1.00 20.00     0.025 A 
HETATM    3  C3  UNL     1     -27.303  -3.042  10.557  1.00 20.00     0.030 A 
HETATM    4  C4  UNL     1     -26.532  -2.229  11.548  1.00 20.00     0.130 C 
HETATM    5  C5  UNL     1     -28.818  -3.147  10.547  1.00 20.00    -0.035 A 
HETATM    6  C6  UNL     1     -29.619  -2.764  11.764  1.00 20.00     0.016 C 
HETATM    7  C7  UNL     1     -29.419  -4.299   9.779  1.00 20.00     0.016 C 
HETATM    8  O11 UNL     1     -27.050  -0.884  11.481  1.00 20.00    -0.385 OA
ENDROOT
BRANCH   4   9
HETATM    9  C10 UNL     1     -25.044  -2.186  11.232  1.00 20.00     0.007 C 
HETATM   10  C8  UNL     1     -24.279  -1.433  12.321  1.00 20.00     0.012 C 
HETATM   11  C9  UNL     1     -24.484  -3.598  11.067  1.00 20.00     0.012 C 
ENDBRANCH   4   9
TORSDOF 1
ENDMDL
MODEL 7
REMARK VINA RESULT:      -3.6      1.955      4.976
REMARK  1 active torsions:
REMARK  status: ('A' for Active; 'I' for Inactive)
REMARK    1  A    between atoms: C4_4  and  C10_10 
ROOT
HETATM    1  C1  UNL     1     -34.340  18.443  -6.201  1.00 20.00     0.174 C 
HETATM    2  C2  UNL     1     -34.572  17.152  -6.904  1.00 20.00     0.025 A 
HETATM    3  C3  UNL     1     -34.759  16.122  -5.855  1.00 20.00     0.030 A 
HETATM    4  C4  UNL     1     -34.642  16.820  -4.537  1.00 20.00     0.130 C 
HETATM    5  C5  UNL     1     -35.876  16.379  -6.851  1.00 20.00    -0.035 A 
HETATM    6  C6  UNL     1     -37.148  17.058  -6.414  1.00 20.00     0.016 C 
HETATM    7  C7  UNL     1     -36.096  15.335  -7.918  1.00 20.00     0.016 C 
HETATM    8  O11 UNL     1     -34.648  18.237  -4.811  1.00 20.00    -0.385 OA
ENDROOT
BRANCH   4   9
HETATM    9  C10 UNL     1     -33.349  16.478  -3.812  1.00 20.00     0.007 C 
HETATM   10  C8  UNL     1     -33.495  16.706  -2.307  1.00 20.00     0.012 C 
HETATM   11  C9  UNL     1     -32.935  15.034  -4.094  1.00 20.00     0.012 C 
ENDBRANCH   4   9
TORSDOF 1
ENDMDL
MODEL 8
REMARK VINA RESULT:      -3.6     11.185     12.917
REMARK  1 active torsions:
REMARK  status: ('A' for Active; 'I' for Inactive)
REMARK    1  A    between atoms: C4_4  and  C10_10 
ROOT
HETATM    1  C1  UNL     1     -42.209  12.480   7.230  1.00 20.00     0.174 C 
HETATM    2  C2  UNL     1     -41.563  12.559   5.892  1.00 20.00     0.025 A 
HETATM    3  C3  UNL     1     -40.774  13.814   5.871  1.00 20.00     0.030 A 
HETATM    4  C4  UNL     1     -40.958  14.462   7.207  1.00 20.00     0.130 C 
HETATM    5  C5  UNL     1     -40.064  12.486   5.667  1.00 20.00    -0.035 A 
HETATM    6  C6  UNL     1     -39.158  11.932   6.736  1.00 20.00     0.016 C 
HETATM    7  C7  UNL     1     -39.597  12.169   4.268  1.00 20.00     0.016 C 
HETATM    8  O11 UNL     1     -41.613  13.496   8.056  1.00 20.00    -0.385 OA
ENDROOT
BRANCH   4   9
HETATM    9  C10 UNL     1     -41.832  15.706   7.133  1.00 20.00     0.007 C 
HETATM   10  C8  UNL     1     -41.070  16.934   7.631  1.00 20.00     0.012 C 
HETATM   11  C9  UNL     1     -42.334  15.932   5.707  1.00 20.00     0.012 C 
ENDBRANCH   4   9
TORSDOF 1
ENDMDL
MODEL 9
REMARK VINA RESULT:      -3.5     24.649     25.742
REMARK  1 active torsions:
REMARK  status: ('A' for Active; 'I' for Inactive)
REMARK    1  A    between atoms: C4_4  and  C10_10 
ROOT
HETATM    1  C1  UNL     1     -25.547  -1.276  12.027  1.00 20.00     0.174 C 
HETATM    2  C2  UNL     1     -26.464  -1.591  10.898  1.00 20.00     0.025 A 
HETATM    3  C3  UNL     1     -25.954  -2.830  10.265  1.00 20.00     0.030 A 
HETATM    4  C4  UNL     1     -24.738  -3.239  11.035  1.00 20.00     0.130 C 
HETATM    5  C5  UNL     1     -27.357  -2.816  10.846  1.00 20.00    -0.035 A 
HETATM    6  C6  UNL     1     -27.671  -3.586  12.103  1.00 20.00     0.016 C 
HETATM    7  C7  UNL     1     -28.504  -2.786   9.866  1.00 20.00     0.016 C 
HETATM    8  O11 UNL     1     -24.698  -2.420  12.223  1.00 20.00    -0.385 OA
ENDROOT
BRANCH   4   9
HETATM    9  C10 UNL     1     -23.453  -3.014  10.253  1.00 20.00     0.007 C 
HETATM   10  C8  UNL     1     -22.352  -3.960  10.735  1.00 20.00     0.012 C 
HETATM   11  C9  UNL     1     -23.692  -3.194   8.754  1.00 20.00     0.012 C 
ENDBRANCH   4   9
TORSDOF 1
ENDMDL
