MODEL 1
REMARK VINA RESULT:      -4.5      0.000      0.000
REMARK  1 active torsions:
REMARK  status: ('A' for Active; 'I' for Inactive)
REMARK    1  A    between atoms: C9_9  and  O10_10 
ROOT
HETATM    1  C1  UNL     1     -25.546  19.191   7.584  1.00 20.00     0.012 C 
HETATM    2  C2  UNL     1     -24.991  19.224   8.649  1.00 20.00    -0.112 C 
HETATM    3  C3  UNL     1     -22.838  18.173  12.236  1.00 20.00     0.007 C 
HETATM    4  C4  UNL     1     -24.338  18.490  12.331  1.00 20.00     0.009 C 
HETATM    5  C5  UNL     1     -22.815  18.895   9.834  1.00 20.00     0.024 C 
HETATM    6  C6  UNL     1     -24.312  19.263   9.952  1.00 20.00     0.071 C 
HETATM    7  C7  UNL     1     -22.678  17.686  10.782  1.00 20.00     0.016 C 
HETATM    8  C8  UNL     1     -24.847  18.171  10.910  1.00 20.00     0.030 C 
HETATM    9  C9  UNL     1     -23.996  16.954  10.524  1.00 20.00     0.127 C 
ENDROOT
BRANCH   9  10
HETATM   10  O10 UNL     1     -24.183  15.840  11.373  1.00 20.00    -0.395 OA
HETATM   11  H22 UNL     1     -24.969  15.363  11.054  1.00 20.00     0.210 HD
ENDBRANCH   9  10
TORSDOF 1
ENDMDL
MODEL 2
REMARK VINA RESULT:      -4.4      1.597      2.964
REMARK  1 active torsions:
REMARK  status: ('A' for Active; 'I' for Inactive)
REMARK    1  A    between atoms: C9_9  and  O10_10 
ROOT
HETATM    1  C1  UNL     1     -25.884  17.415  12.324  1.00 20.00     0.012 C 
HETATM    2  C2  UNL     1     -25.014  18.023  11.763  1.00 20.00    -0.112 C 
HETATM    3  C3  UNL     1     -21.935  19.259   9.006  1.00 20.00     0.007 C 
HETATM    4  C4  UNL     1     -21.535  18.803  10.417  1.00 20.00     0.009 C 
HETATM    5  C5  UNL     1     -24.360  19.172   9.642  1.00 20.00     0.024 C 
HETATM    6  C6  UNL     1     -23.948  18.766  11.075  1.00 20.00     0.071 C 
HETATM    7  C7  UNL     1     -23.268  18.521   8.768  1.00 20.00     0.016 C 
HETATM    8  C8  UNL     1     -22.704  17.881  10.824  1.00 20.00     0.030 C 
HETATM    9  C9  UNL     1     -23.054  17.194   9.498  1.00 20.00     0.127 C 
ENDROOT
BRANCH   9  10
HETATM   10  O10 UNL     1     -21.995  16.432   8.957  1.00 20.00    -0.395 OA
HETATM   11  H22 UNL     1     -22.163  15.501   9.184  1.00 20.00     0.210 HD
ENDBRANCH   9  10
TORSDOF 1
ENDMDL
MODEL 3
REMARK VINA RESULT:      -4.3      1.670      2.625
REMARK  1 active torsions:
REMARK  status: ('A' for Active; 'I' for Inactive)
REMARK    1  A    between atoms: C9_9  and  O10_10 
ROOT
HETATM    1  C1  UNL     1     -28.242  18.492  12.324  1.00 20.00     0.012 C 
HETATM    2  C2  UNL     1     -27.089  18.759  12.123  1.00 20.00    -0.112 C 
HETATM    3  C3  UNL     1     -22.972  18.651  10.841  1.00 20.00     0.007 C 
HETATM    4  C4  UNL     1     -23.294  18.472  12.332  1.00 20.00     0.009 C 
HETATM    5  C5  UNL     1     -25.369  19.213  10.367  1.00 20.00     0.024 C 
HETATM    6  C6  UNL     1     -25.677  19.084  11.876  1.00 20.00     0.071 C 
HETATM    7  C7  UNL     1     -24.259  18.165  10.146  1.00 20.00     0.016 C 
HETATM    8  C8  UNL     1     -24.740  17.930  12.308  1.00 20.00     0.030 C 
HETATM    9  C9  UNL     1     -24.731  17.035  11.062  1.00 20.00     0.127 C 
ENDROOT
BRANCH   9  10
HETATM   10  O10 UNL     1     -23.809  15.967  11.139  1.00 20.00    -0.395 OA
HETATM   11  H22 UNL     1     -24.270  15.216  11.551  1.00 20.00     0.210 HD
ENDBRANCH   9  10
TORSDOF 1
ENDMDL
MODEL 4
REMARK VINA RESULT:      -4.1     13.075     15.574
REMARK  1 active torsions:
REMARK  status: ('A' for Active; 'I' for Inactive)
REMARK    1  A    between atoms: C9_9  and  O10_10 
ROOT
HETATM    1  C1  UNL     1     -32.534  19.152   1.539  1.00 20.00     0.012 C 
HETATM    2  C2  UNL     1     -32.458  18.701   0.428  1.00 20.00    -0.112 C 
HETATM    3  C3  UNL     1     -33.221  17.681  -3.692  1.00 20.00     0.007 C 
HETATM    4  C4  UNL     1     -33.374  16.598  -2.615  1.00 20.00     0.009 C 
HETATM    5  C5  UNL     1     -32.260  19.262  -1.999  1.00 20.00     0.024 C 
HETATM    6  C6  UNL     1     -32.366  18.150  -0.931  1.00 20.00     0.071 C 
HETATM    7  C7  UNL     1     -33.473  18.986  -2.911  1.00 20.00     0.016 C 
HETATM    8  C8  UNL     1     -33.668  17.419  -1.341  1.00 20.00     0.030 C 
HETATM    9  C9  UNL     1     -34.527  18.567  -1.886  1.00 20.00     0.127 C 
ENDROOT
BRANCH   9  10
HETATM   10  O10 UNL     1     -35.734  18.138  -2.481  1.00 20.00    -0.395 OA
HETATM   11  H22 UNL     1     -35.516  17.795  -3.365  1.00 20.00     0.210 HD
ENDBRANCH   9  10
TORSDOF 1
ENDMDL
MODEL 5
REMARK VINA RESULT:      -4.0     16.098     18.853
REMARK  1 active torsions:
REMARK  status: ('A' for Active; 'I' for Inactive)
REMARK    1  A    between atoms: C9_9  and  O10_10 
ROOT
HETATM    1  C1  UNL     1     -33.358  17.071  -1.899  1.00 20.00     0.012 C 
HETATM    2  C2  UNL     1     -33.618  16.843  -3.050  1.00 20.00    -0.112 C 
HETATM    3  C3  UNL     1     -35.312  15.239  -6.678  1.00 20.00     0.007 C 
HETATM    4  C4  UNL     1     -33.865  14.881  -6.308  1.00 20.00     0.009 C 
HETATM    5  C5  UNL     1     -35.410  16.889  -4.791  1.00 20.00     0.024 C 
HETATM    6  C6  UNL     1     -33.937  16.564  -4.457  1.00 20.00     0.071 C 
HETATM    7  C7  UNL     1     -35.955  15.542  -5.310  1.00 20.00     0.016 C 
HETATM    8  C8  UNL     1     -33.851  15.051  -4.773  1.00 20.00     0.030 C 
HETATM    9  C9  UNL     1     -35.248  14.556  -4.379  1.00 20.00     0.127 C 
ENDROOT
BRANCH   9  10
HETATM   10  O10 UNL     1     -35.489  13.207  -4.720  1.00 20.00    -0.395 OA
HETATM   11  H22 UNL     1     -34.625  12.763  -4.772  1.00 20.00     0.210 HD
ENDBRANCH   9  10
TORSDOF 1
ENDMDL
MODEL 6
REMARK VINA RESULT:      -3.9     11.843     14.743
REMARK  1 active torsions:
REMARK  status: ('A' for Active; 'I' for Inactive)
REMARK    1  A    between atoms: C9_9  and  O10_10 
ROOT
HETATM    1  C1  UNL     1     -30.691  18.140   1.671  1.00 20.00     0.012 C 
HETATM    2  C2  UNL     1     -31.366  18.618   0.800  1.00 20.00    -0.112 C 
HETATM    3  C3  UNL     1     -34.297  19.242  -2.303  1.00 20.00     0.007 C 
HETATM    4  C4  UNL     1     -32.815  19.128  -2.688  1.00 20.00     0.009 C 
HETATM    5  C5  UNL     1     -33.686  19.263   0.130  1.00 20.00     0.024 C 
HETATM    6  C6  UNL     1     -32.193  19.202  -0.265  1.00 20.00     0.071 C 
HETATM    7  C7  UNL     1     -34.375  18.448  -0.984  1.00 20.00     0.016 C 
HETATM    8  C8  UNL     1     -32.221  18.304  -1.526  1.00 20.00     0.030 C 
HETATM    9  C9  UNL     1     -33.359  17.327  -1.205  1.00 20.00     0.127 C 
ENDROOT
BRANCH   9  10
HETATM   10  O10 UNL     1     -33.699  16.479  -2.282  1.00 20.00    -0.395 OA
HETATM   11  H22 UNL     1     -34.327  16.964  -2.844  1.00 20.00     0.210 HD
ENDBRANCH   9  10
TORSDOF 1
ENDMDL
MODEL 7
REMARK VINA RESULT:      -3.8     15.572     16.588
REMARK  1 active torsions:
REMARK  status: ('A' for Active; 'I' for Inactive)
REMARK    1  A    between atoms: C9_9  and  O10_10 
ROOT
HETATM    1  C1  UNL     1     -32.704   9.351   2.915  1.00 20.00     0.012 C 
HETATM    2  C2  UNL     1     -32.804   8.363   3.592  1.00 20.00    -0.112 C 
HETATM    3  C3  UNL     1     -34.133   4.647   5.331  1.00 20.00     0.007 C 
HETATM    4  C4  UNL     1     -34.286   5.945   6.137  1.00 20.00     0.009 C 
HETATM    5  C5  UNL     1     -32.816   5.864   3.578  1.00 20.00     0.024 C 
HETATM    6  C6  UNL     1     -32.927   7.155   4.420  1.00 20.00     0.071 C 
HETATM    7  C7  UNL     1     -34.146   5.141   3.871  1.00 20.00     0.016 C 
HETATM    8  C8  UNL     1     -34.341   7.027   5.037  1.00 20.00     0.030 C 
HETATM    9  C9  UNL     1     -35.121   6.318   3.922  1.00 20.00     0.127 C 
ENDROOT
BRANCH   9  10
HETATM   10  O10 UNL     1     -36.428   5.936   4.299  1.00 20.00    -0.395 OA
HETATM   11  H22 UNL     1     -36.776   5.364   3.594  1.00 20.00     0.210 HD
ENDBRANCH   9  10
TORSDOF 1
ENDMDL
MODEL 8
REMARK VINA RESULT:      -3.8     16.983     19.787
REMARK  1 active torsions:
REMARK  status: ('A' for Active; 'I' for Inactive)
REMARK    1  A    between atoms: C9_9  and  O10_10 
ROOT
HETATM    1  C1  UNL     1     -33.326  16.558  -2.685  1.00 20.00     0.012 C 
HETATM    2  C2  UNL     1     -33.829  16.786  -3.752  1.00 20.00    -0.112 C 
HETATM    3  C3  UNL     1     -36.236  16.598  -7.326  1.00 20.00     0.007 C 
HETATM    4  C4  UNL     1     -34.733  16.304  -7.423  1.00 20.00     0.009 C 
HETATM    5  C5  UNL     1     -35.966  17.312  -4.937  1.00 20.00     0.024 C 
HETATM    6  C6  UNL     1     -34.445  17.066  -5.057  1.00 20.00     0.071 C 
HETATM    7  C7  UNL     1     -36.568  16.236  -5.864  1.00 20.00     0.016 C 
HETATM    8  C8  UNL     1     -34.381  15.835  -5.994  1.00 20.00     0.030 C 
HETATM    9  C9  UNL     1     -35.638  15.053  -5.591  1.00 20.00     0.127 C 
ENDROOT
BRANCH   9  10
HETATM   10  O10 UNL     1     -35.903  13.940  -6.419  1.00 20.00    -0.395 OA
HETATM   11  H22 UNL     1     -35.333  14.020  -7.203  1.00 20.00     0.210 HD
ENDBRANCH   9  10
TORSDOF 1
ENDMDL
MODEL 9
REMARK VINA RESULT:      -3.8      1.791      2.581
REMARK  1 active torsions:
REMARK  status: ('A' for Active; 'I' for Inactive)
REMARK    1  A    between atoms: C9_9  and  O10_10 
ROOT
HETATM    1  C1  UNL     1     -21.688  18.511   7.139  1.00 20.00     0.012 C 
HETATM    2  C2  UNL     1     -21.899  18.165   8.269  1.00 20.00    -0.112 C 
HETATM    3  C3  UNL     1     -23.783  17.225  12.034  1.00 20.00     0.007 C 
HETATM    4  C4  UNL     1     -22.867  18.453  11.944  1.00 20.00     0.009 C 
HETATM    5  C5  UNL     1     -23.120  16.533   9.716  1.00 20.00     0.024 C 
HETATM    6  C6  UNL     1     -22.158  17.741   9.653  1.00 20.00     0.071 C 
HETATM    7  C7  UNL     1     -24.282  17.057  10.585  1.00 20.00     0.016 C 
HETATM    8  C8  UNL     1     -22.932  18.822  10.447  1.00 20.00     0.030 C 
HETATM    9  C9  UNL     1     -24.390  18.502  10.096  1.00 20.00     0.127 C 
ENDROOT
BRANCH   9  10
HETATM   10  O10 UNL     1     -25.329  19.262  10.829  1.00 20.00    -0.395 OA
HETATM   11  H22 UNL     1     -25.443  20.109  10.363  1.00 20.00     0.210 HD
ENDBRANCH   9  10
TORSDOF 1
ENDMDL
