MODEL 1
REMARK VINA RESULT:      -5.5      0.000      0.000
REMARK  1 active torsions:
REMARK  status: ('A' for Active; 'I' for Inactive)
REMARK    1  A    between atoms: C3_3  and  C6_6 
ROOT
HETATM    1  C1  UNL     1     -32.072   8.618   4.224  1.00 20.00    -0.030 C 
HETATM    2  C2  UNL     1     -33.007   8.667   5.182  1.00 20.00    -0.026 C 
HETATM    3  C4  UNL     1     -31.950   7.492   3.243  1.00 20.00     0.032 C 
HETATM    4  C5  UNL     1     -34.052   7.597   5.379  1.00 20.00     0.018 C 
HETATM    5  C6  UNL     1     -34.178   6.698   4.127  1.00 20.00     0.098 C 
HETATM    6  C7  UNL     1     -32.806   6.257   3.593  1.00 20.00    -0.000 C 
HETATM    7  C8  UNL     1     -33.728   6.843   6.676  1.00 20.00     0.015 C 
HETATM    8  C9  UNL     1     -32.918   5.352   2.361  1.00 20.00     0.011 C 
ENDROOT
BRANCH   5   9
HETATM    9  C3  UNL     1     -35.074   5.514   4.454  1.00 20.00     0.178 C 
HETATM   10  O10 UNL     1     -34.475   4.483   4.866  1.00 20.00    -0.648 OA
HETATM   11  O11 UNL     1     -36.307   5.716   4.270  1.00 20.00    -0.648 OA
ENDBRANCH   5   9
TORSDOF 1
ENDMDL
MODEL 2
REMARK VINA RESULT:      -4.7      2.241      3.327
REMARK  1 active torsions:
REMARK  status: ('A' for Active; 'I' for Inactive)
REMARK    1  A    between atoms: C3_3  and  C6_6 
ROOT
HETATM    1  C1  UNL     1     -34.792   5.295   6.019  1.00 20.00    -0.030 C 
HETATM    2  C2  UNL     1     -34.403   6.495   6.472  1.00 20.00    -0.026 C 
HETATM    3  C4  UNL     1     -34.417   4.758   4.672  1.00 20.00     0.032 C 
HETATM    4  C5  UNL     1     -33.535   7.442   5.680  1.00 20.00     0.018 C 
HETATM    5  C6  UNL     1     -32.823   6.711   4.518  1.00 20.00     0.098 C 
HETATM    6  C7  UNL     1     -33.783   5.804   3.731  1.00 20.00    -0.000 C 
HETATM    7  C8  UNL     1     -34.397   8.636   5.249  1.00 20.00     0.015 C 
HETATM    8  C9  UNL     1     -33.093   5.086   2.566  1.00 20.00     0.011 C 
ENDROOT
BRANCH   5   9
HETATM    9  C3  UNL     1     -32.144   7.738   3.626  1.00 20.00     0.178 C 
HETATM   10  O10 UNL     1     -32.410   7.644   2.396  1.00 20.00    -0.648 OA
HETATM   11  O11 UNL     1     -31.399   8.557   4.234  1.00 20.00    -0.648 OA
ENDBRANCH   5   9
TORSDOF 1
ENDMDL
MODEL 3
REMARK VINA RESULT:      -4.4      1.763      3.125
REMARK  1 active torsions:
REMARK  status: ('A' for Active; 'I' for Inactive)
REMARK    1  A    between atoms: C3_3  and  C6_6 
ROOT
HETATM    1  C1  UNL     1     -32.845   5.381   2.552  1.00 20.00    -0.030 C 
HETATM    2  C2  UNL     1     -33.774   4.843   3.354  1.00 20.00    -0.026 C 
HETATM    3  C4  UNL     1     -32.242   6.734   2.774  1.00 20.00     0.032 C 
HETATM    4  C5  UNL     1     -34.316   5.536   4.580  1.00 20.00     0.018 C 
HETATM    5  C6  UNL     1     -33.395   6.698   5.021  1.00 20.00     0.098 C 
HETATM    6  C7  UNL     1     -32.973   7.583   3.837  1.00 20.00    -0.000 C 
HETATM    7  C8  UNL     1     -35.768   5.945   4.298  1.00 20.00     0.015 C 
HETATM    8  C9  UNL     1     -32.073   8.747   4.263  1.00 20.00     0.011 C 
ENDROOT
BRANCH   5   9
HETATM    9  C3  UNL     1     -34.090   7.495   6.113  1.00 20.00     0.178 C 
HETATM   10  O10 UNL     1     -34.192   8.734   5.894  1.00 20.00    -0.648 OA
HETATM   11  O11 UNL     1     -34.476   6.813   7.103  1.00 20.00    -0.648 OA
ENDBRANCH   5   9
TORSDOF 1
ENDMDL
MODEL 4
REMARK VINA RESULT:      -4.2      2.219      3.932
REMARK  1 active torsions:
REMARK  status: ('A' for Active; 'I' for Inactive)
REMARK    1  A    between atoms: C3_3  and  C6_6 
ROOT
HETATM    1  C1  UNL     1     -34.876   5.848   5.978  1.00 20.00    -0.030 C 
HETATM    2  C2  UNL     1     -34.868   5.396   4.717  1.00 20.00    -0.026 C 
HETATM    3  C4  UNL     1     -34.080   7.031   6.438  1.00 20.00     0.032 C 
HETATM    4  C5  UNL     1     -34.062   6.031   3.611  1.00 20.00     0.018 C 
HETATM    5  C6  UNL     1     -33.612   7.461   3.994  1.00 20.00     0.098 C 
HETATM    6  C7  UNL     1     -33.032   7.522   5.417  1.00 20.00    -0.000 C 
HETATM    7  C8  UNL     1     -32.916   5.079   3.244  1.00 20.00     0.015 C 
HETATM    8  C9  UNL     1     -32.568   8.930   5.803  1.00 20.00     0.011 C 
ENDROOT
BRANCH   5   9
HETATM    9  C3  UNL     1     -32.628   7.968   2.952  1.00 20.00     0.178 C 
HETATM   10  O10 UNL     1     -33.007   8.981   2.301  1.00 20.00    -0.648 OA
HETATM   11  O11 UNL     1     -31.554   7.309   2.872  1.00 20.00    -0.648 OA
ENDBRANCH   5   9
TORSDOF 1
ENDMDL
MODEL 5
REMARK VINA RESULT:      -4.1      1.913      3.398
REMARK  1 active torsions:
REMARK  status: ('A' for Active; 'I' for Inactive)
REMARK    1  A    between atoms: C3_3  and  C6_6 
ROOT
HETATM    1  C1  UNL     1     -34.800   6.426   6.644  1.00 20.00    -0.030 C 
HETATM    2  C2  UNL     1     -35.031   5.383   5.835  1.00 20.00    -0.026 C 
HETATM    3  C4  UNL     1     -33.846   7.533   6.316  1.00 20.00     0.032 C 
HETATM    4  C5  UNL     1     -34.363   5.208   4.493  1.00 20.00     0.018 C 
HETATM    5  C6  UNL     1     -33.742   6.535   3.998  1.00 20.00     0.098 C 
HETATM    6  C7  UNL     1     -32.939   7.244   5.101  1.00 20.00    -0.000 C 
HETATM    7  C8  UNL     1     -33.373   4.040   4.599  1.00 20.00     0.015 C 
HETATM    8  C9  UNL     1     -32.304   8.553   4.619  1.00 20.00     0.011 C 
ENDROOT
BRANCH   5   9
HETATM    9  C3  UNL     1     -32.899   6.259   2.763  1.00 20.00     0.178 C 
HETATM   10  O10 UNL     1     -32.222   7.237   2.343  1.00 20.00    -0.648 OA
HETATM   11  O11 UNL     1     -32.985   5.081   2.316  1.00 20.00    -0.648 OA
ENDBRANCH   5   9
TORSDOF 1
ENDMDL
MODEL 6
REMARK VINA RESULT:      -4.0      1.299      1.932
REMARK  1 active torsions:
REMARK  status: ('A' for Active; 'I' for Inactive)
REMARK    1  A    between atoms: C3_3  and  C6_6 
ROOT
HETATM    1  C1  UNL     1     -33.618   8.686   5.948  1.00 20.00    -0.030 C 
HETATM    2  C2  UNL     1     -34.303   7.629   6.406  1.00 20.00    -0.026 C 
HETATM    3  C4  UNL     1     -32.811   8.665   4.687  1.00 20.00     0.032 C 
HETATM    4  C5  UNL     1     -34.347   6.297   5.700  1.00 20.00     0.018 C 
HETATM    5  C6  UNL     1     -33.885   6.426   4.229  1.00 20.00     0.098 C 
HETATM    6  C7  UNL     1     -32.597   7.254   4.098  1.00 20.00    -0.000 C 
HETATM    7  C8  UNL     1     -33.547   5.285   6.532  1.00 20.00     0.015 C 
HETATM    8  C9  UNL     1     -32.121   7.376   2.647  1.00 20.00     0.011 C 
ENDROOT
BRANCH   5   9
HETATM    9  C3  UNL     1     -33.737   5.036   3.631  1.00 20.00     0.178 C 
HETATM   10  O10 UNL     1     -33.026   4.970   2.591  1.00 20.00    -0.648 OA
HETATM   11  O11 UNL     1     -34.347   4.123   4.255  1.00 20.00    -0.648 OA
ENDBRANCH   5   9
TORSDOF 1
ENDMDL
MODEL 7
REMARK VINA RESULT:      -4.0     12.511     13.526
REMARK  1 active torsions:
REMARK  status: ('A' for Active; 'I' for Inactive)
REMARK    1  A    between atoms: C3_3  and  C6_6 
ROOT
HETATM    1  C1  UNL     1     -33.337  17.756  -3.256  1.00 20.00    -0.030 C 
HETATM    2  C2  UNL     1     -33.338  16.449  -2.962  1.00 20.00    -0.026 C 
HETATM    3  C4  UNL     1     -33.937  18.323  -4.506  1.00 20.00     0.032 C 
HETATM    4  C5  UNL     1     -33.950  15.396  -3.852  1.00 20.00     0.018 C 
HETATM    5  C6  UNL     1     -34.916  16.026  -4.883  1.00 20.00     0.098 C 
HETATM    6  C7  UNL     1     -34.308  17.263  -5.564  1.00 20.00    -0.000 C 
HETATM    7  C8  UNL     1     -32.815  14.567  -4.466  1.00 20.00     0.015 C 
HETATM    8  C9  UNL     1     -35.249  17.887  -6.600  1.00 20.00     0.011 C 
ENDROOT
BRANCH   5   9
HETATM    9  C3  UNL     1     -35.332  14.964  -5.888  1.00 20.00     0.178 C 
HETATM   10  O10 UNL     1     -34.598  14.873  -6.910  1.00 20.00    -0.648 OA
HETATM   11  O11 UNL     1     -36.362  14.307  -5.568  1.00 20.00    -0.648 OA
ENDBRANCH   5   9
TORSDOF 1
ENDMDL
MODEL 8
REMARK VINA RESULT:      -3.7     12.819     13.784
REMARK  1 active torsions:
REMARK  status: ('A' for Active; 'I' for Inactive)
REMARK    1  A    between atoms: C3_3  and  C6_6 
ROOT
HETATM    1  C1  UNL     1     -33.805  18.100  -3.784  1.00 20.00    -0.030 C 
HETATM    2  C2  UNL     1     -34.690  18.440  -4.732  1.00 20.00    -0.026 C 
HETATM    3  C4  UNL     1     -33.347  16.694  -3.546  1.00 20.00     0.032 C 
HETATM    4  C5  UNL     1     -35.321  17.446  -5.675  1.00 20.00     0.018 C 
HETATM    5  C6  UNL     1     -34.531  16.116  -5.700  1.00 20.00     0.098 C 
HETATM    6  C7  UNL     1     -34.179  15.626  -4.286  1.00 20.00    -0.000 C 
HETATM    7  C8  UNL     1     -36.802  17.300  -5.298  1.00 20.00     0.015 C 
HETATM    8  C9  UNL     1     -33.410  14.301  -4.297  1.00 20.00     0.011 C 
ENDROOT
BRANCH   5   9
HETATM    9  C3  UNL     1     -35.322  15.083  -6.485  1.00 20.00     0.178 C 
HETATM   10  O10 UNL     1     -36.178  14.438  -5.819  1.00 20.00    -0.648 OA
HETATM   11  O11 UNL     1     -35.020  15.002  -7.709  1.00 20.00    -0.648 OA
ENDBRANCH   5   9
TORSDOF 1
ENDMDL
MODEL 9
REMARK VINA RESULT:      -3.6      0.886      2.807
REMARK  1 active torsions:
REMARK  status: ('A' for Active; 'I' for Inactive)
REMARK    1  A    between atoms: C3_3  and  C6_6 
ROOT
HETATM    1  C1  UNL     1     -32.059   8.325   3.840  1.00 20.00    -0.030 C 
HETATM    2  C2  UNL     1     -32.026   7.314   2.961  1.00 20.00    -0.026 C 
HETATM    3  C4  UNL     1     -32.893   8.312   5.085  1.00 20.00     0.032 C 
HETATM    4  C5  UNL     1     -32.819   6.041   3.127  1.00 20.00     0.018 C 
HETATM    5  C6  UNL     1     -33.311   5.873   4.584  1.00 20.00     0.098 C 
HETATM    6  C7  UNL     1     -33.927   7.168   5.140  1.00 20.00    -0.000 C 
HETATM    7  C8  UNL     1     -33.934   6.029   2.072  1.00 20.00     0.015 C 
HETATM    8  C9  UNL     1     -34.433   7.009   6.577  1.00 20.00     0.011 C 
ENDROOT
BRANCH   5   9
HETATM    9  C3  UNL     1     -34.281   4.704   4.649  1.00 20.00     0.178 C 
HETATM   10  O10 UNL     1     -35.491   5.016   4.816  1.00 20.00    -0.648 OA
HETATM   11  O11 UNL     1     -33.747   3.566   4.526  1.00 20.00    -0.648 OA
ENDBRANCH   5   9
TORSDOF 1
ENDMDL
