MODEL 1
REMARK VINA RESULT:      -5.3      0.000      0.000
REMARK  1 active torsions:
REMARK  status: ('A' for Active; 'I' for Inactive)
REMARK    1  A    between atoms: C1_1  and  C2_2 
ROOT
HETATM    1  C2  UNL     1     -33.923   7.724   4.917  1.00 20.00     0.154 A 
HETATM    2  C3  UNL     1     -34.102   6.217   4.884  1.00 20.00     0.073 A 
HETATM    3  C4  UNL     1     -33.896   6.924   6.174  1.00 20.00     0.259 A 
HETATM    4  C5  UNL     1     -35.430   5.630   4.553  1.00 20.00     0.017 C 
HETATM    5  F7  UNL     1     -32.727   6.755   6.881  1.00 20.00    -0.205 F 
HETATM    6  F8  UNL     1     -34.916   7.040   7.092  1.00 20.00    -0.205 F 
ENDROOT
BRANCH   1   7
HETATM    7  C1  UNL     1     -32.678   8.303   4.398  1.00 20.00     0.229 C 
HETATM    8  O6  UNL     1     -32.091   9.205   4.989  1.00 20.00    -0.279 OA
HETATM    9 CL9  UNL     1     -32.183   7.561   2.907  1.00 20.00    -0.043 Cl
ENDBRANCH   1   7
TORSDOF 1
ENDMDL
MODEL 2
REMARK VINA RESULT:      -5.0      2.008      2.137
REMARK  1 active torsions:
REMARK  status: ('A' for Active; 'I' for Inactive)
REMARK    1  A    between atoms: C1_1  and  C2_2 
ROOT
HETATM    1  C2  UNL     1     -33.718   7.159   4.214  1.00 20.00     0.154 A 
HETATM    2  C3  UNL     1     -33.433   6.678   5.625  1.00 20.00     0.073 A 
HETATM    3  C4  UNL     1     -33.296   8.115   5.276  1.00 20.00     0.259 A 
HETATM    4  C5  UNL     1     -34.549   6.219   6.498  1.00 20.00     0.017 C 
HETATM    5  F7  UNL     1     -32.054   8.708   5.243  1.00 20.00    -0.205 F 
HETATM    6  F8  UNL     1     -34.183   9.052   5.760  1.00 20.00    -0.205 F 
ENDROOT
BRANCH   1   7
HETATM    7  C1  UNL     1     -32.782   6.807   3.141  1.00 20.00     0.229 C 
HETATM    8  O6  UNL     1     -32.028   7.640   2.644  1.00 20.00    -0.279 OA
HETATM    9 CL9  UNL     1     -32.890   5.130   2.700  1.00 20.00    -0.043 Cl
ENDBRANCH   1   7
TORSDOF 1
ENDMDL
MODEL 3
REMARK VINA RESULT:      -4.7      3.132      3.904
REMARK  1 active torsions:
REMARK  status: ('A' for Active; 'I' for Inactive)
REMARK    1  A    between atoms: C1_1  and  C2_2 
ROOT
HETATM    1  C2  UNL     1     -33.783   7.582   4.342  1.00 20.00     0.154 A 
HETATM    2  C3  UNL     1     -32.387   7.995   4.774  1.00 20.00     0.073 A 
HETATM    3  C4  UNL     1     -32.640   7.528   3.387  1.00 20.00     0.259 A 
HETATM    4  C5  UNL     1     -32.081   9.429   5.041  1.00 20.00     0.017 C 
HETATM    5  F7  UNL     1     -32.134   6.323   2.955  1.00 20.00    -0.205 F 
HETATM    6  F8  UNL     1     -32.583   8.399   2.322  1.00 20.00    -0.205 F 
ENDROOT
BRANCH   1   7
HETATM    7  C1  UNL     1     -34.349   6.335   4.867  1.00 20.00     0.229 C 
HETATM    8  O6  UNL     1     -34.675   5.412   4.126  1.00 20.00    -0.279 OA
HETATM    9 CL9  UNL     1     -34.483   6.355   6.600  1.00 20.00    -0.043 Cl
ENDBRANCH   1   7
TORSDOF 1
ENDMDL
MODEL 4
REMARK VINA RESULT:      -4.7      2.536      3.259
REMARK  1 active torsions:
REMARK  status: ('A' for Active; 'I' for Inactive)
REMARK    1  A    between atoms: C1_1  and  C2_2 
ROOT
HETATM    1  C2  UNL     1     -33.118   7.009   5.240  1.00 20.00     0.154 A 
HETATM    2  C3  UNL     1     -33.292   7.707   3.903  1.00 20.00     0.073 A 
HETATM    3  C4  UNL     1     -33.105   8.496   5.148  1.00 20.00     0.259 A 
HETATM    4  C5  UNL     1     -32.209   7.647   2.882  1.00 20.00     0.017 C 
HETATM    5  F7  UNL     1     -34.140   9.247   5.658  1.00 20.00    -0.205 F 
HETATM    6  F8  UNL     1     -31.941   9.196   5.378  1.00 20.00    -0.205 F 
ENDROOT
BRANCH   1   7
HETATM    7  C1  UNL     1     -34.272   6.330   5.841  1.00 20.00     0.229 C 
HETATM    8  O6  UNL     1     -34.730   6.676   6.926  1.00 20.00    -0.279 OA
HETATM    9 CL9  UNL     1     -34.861   5.034   4.845  1.00 20.00    -0.043 Cl
ENDBRANCH   1   7
TORSDOF 1
ENDMDL
MODEL 5
REMARK VINA RESULT:      -4.6      2.745      3.221
REMARK  1 active torsions:
REMARK  status: ('A' for Active; 'I' for Inactive)
REMARK    1  A    between atoms: C1_1  and  C2_2 
ROOT
HETATM    1  C2  UNL     1     -34.162   6.371   4.439  1.00 20.00     0.154 A 
HETATM    2  C3  UNL     1     -33.427   6.879   5.667  1.00 20.00     0.073 A 
HETATM    3  C4  UNL     1     -33.175   7.482   4.333  1.00 20.00     0.259 A 
HETATM    4  C5  UNL     1     -34.161   7.645   6.713  1.00 20.00     0.017 C 
HETATM    5  F7  UNL     1     -31.965   7.298   3.703  1.00 20.00    -0.205 F 
HETATM    6  F8  UNL     1     -33.598   8.761   4.040  1.00 20.00    -0.205 F 
ENDROOT
BRANCH   1   7
HETATM    7  C1  UNL     1     -33.823   5.047   3.906  1.00 20.00     0.229 C 
HETATM    8  O6  UNL     1     -34.155   4.015   4.482  1.00 20.00    -0.279 OA
HETATM    9 CL9  UNL     1     -32.930   5.150   2.419  1.00 20.00    -0.043 Cl
ENDBRANCH   1   7
TORSDOF 1
ENDMDL
MODEL 6
REMARK VINA RESULT:      -4.5      2.104      2.375
REMARK  1 active torsions:
REMARK  status: ('A' for Active; 'I' for Inactive)
REMARK    1  A    between atoms: C1_1  and  C2_2 
ROOT
HETATM    1  C2  UNL     1     -33.999   6.977   4.430  1.00 20.00     0.154 A 
HETATM    2  C3  UNL     1     -33.591   5.545   4.133  1.00 20.00     0.073 A 
HETATM    3  C4  UNL     1     -34.911   5.843   4.746  1.00 20.00     0.259 A 
HETATM    4  C5  UNL     1     -33.507   5.070   2.724  1.00 20.00     0.017 C 
HETATM    5  F7  UNL     1     -35.171   5.483   6.050  1.00 20.00    -0.205 F 
HETATM    6  F8  UNL     1     -36.080   5.672   4.036  1.00 20.00    -0.205 F 
ENDROOT
BRANCH   1   7
HETATM    7  C1  UNL     1     -33.329   7.694   5.522  1.00 20.00     0.229 C 
HETATM    8  O6  UNL     1     -33.532   7.413   6.699  1.00 20.00    -0.279 OA
HETATM    9 CL9  UNL     1     -32.263   8.934   4.932  1.00 20.00    -0.043 Cl
ENDBRANCH   1   7
TORSDOF 1
ENDMDL
MODEL 7
REMARK VINA RESULT:      -4.4      2.326      2.874
REMARK  1 active torsions:
REMARK  status: ('A' for Active; 'I' for Inactive)
REMARK    1  A    between atoms: C1_1  and  C2_2 
ROOT
HETATM    1  C2  UNL     1     -33.386   5.971   4.591  1.00 20.00     0.154 A 
HETATM    2  C3  UNL     1     -34.129   7.157   5.179  1.00 20.00     0.073 A 
HETATM    3  C4  UNL     1     -34.824   5.861   4.967  1.00 20.00     0.259 A 
HETATM    4  C5  UNL     1     -33.816   7.625   6.558  1.00 20.00     0.017 C 
HETATM    5  F7  UNL     1     -35.801   5.745   4.004  1.00 20.00    -0.205 F 
HETATM    6  F8  UNL     1     -35.206   5.076   6.033  1.00 20.00    -0.205 F 
ENDROOT
BRANCH   1   7
HETATM    7  C1  UNL     1     -33.007   6.002   3.174  1.00 20.00     0.229 C 
HETATM    8  O6  UNL     1     -33.229   5.054   2.426  1.00 20.00    -0.279 OA
HETATM    9 CL9  UNL     1     -32.239   7.497   2.734  1.00 20.00    -0.043 Cl
ENDBRANCH   1   7
TORSDOF 1
ENDMDL
MODEL 8
REMARK VINA RESULT:      -4.3      2.514      2.746
REMARK  1 active torsions:
REMARK  status: ('A' for Active; 'I' for Inactive)
REMARK    1  A    between atoms: C1_1  and  C2_2 
ROOT
HETATM    1  C2  UNL     1     -33.023   6.458   4.616  1.00 20.00     0.154 A 
HETATM    2  C3  UNL     1     -34.497   6.391   4.975  1.00 20.00     0.073 A 
HETATM    3  C4  UNL     1     -33.921   5.458   3.972  1.00 20.00     0.259 A 
HETATM    4  C5  UNL     1     -34.917   5.890   6.314  1.00 20.00     0.017 C 
HETATM    5  F7  UNL     1     -34.265   5.565   2.644  1.00 20.00    -0.205 F 
HETATM    6  F8  UNL     1     -33.778   4.116   4.250  1.00 20.00    -0.205 F 
ENDROOT
BRANCH   1   7
HETATM    7  C1  UNL     1     -32.534   7.601   3.836  1.00 20.00     0.229 C 
HETATM    8  O6  UNL     1     -32.247   7.494   2.647  1.00 20.00    -0.279 OA
HETATM    9 CL9  UNL     1     -32.426   9.047   4.792  1.00 20.00    -0.043 Cl
ENDBRANCH   1   7
TORSDOF 1
ENDMDL
MODEL 9
REMARK VINA RESULT:      -4.3      2.154      2.974
REMARK  1 active torsions:
REMARK  status: ('A' for Active; 'I' for Inactive)
REMARK    1  A    between atoms: C1_1  and  C2_2 
ROOT
HETATM    1  C2  UNL     1     -33.198   6.278   4.803  1.00 20.00     0.154 A 
HETATM    2  C3  UNL     1     -33.701   7.710   4.753  1.00 20.00     0.073 A 
HETATM    3  C4  UNL     1     -33.823   6.911   5.999  1.00 20.00     0.259 A 
HETATM    4  C5  UNL     1     -32.734   8.840   4.676  1.00 20.00     0.017 C 
HETATM    5  F7  UNL     1     -35.060   6.507   6.449  1.00 20.00    -0.205 F 
HETATM    6  F8  UNL     1     -33.060   7.203   7.109  1.00 20.00    -0.205 F 
ENDROOT
BRANCH   1   7
HETATM    7  C1  UNL     1     -33.929   5.242   4.066  1.00 20.00     0.229 C 
HETATM    8  O6  UNL     1     -34.867   4.632   4.570  1.00 20.00    -0.279 OA
HETATM    9 CL9  UNL     1     -33.304   5.017   2.460  1.00 20.00    -0.043 Cl
ENDBRANCH   1   7
TORSDOF 1
ENDMDL
