MODEL 1
REMARK VINA RESULT:      -5.4      0.000      0.000
REMARK  3 active torsions:
REMARK  status: ('A' for Active; 'I' for Inactive)
REMARK    1  A    between atoms: C2_2  and  C6_6 
REMARK    2  A    between atoms: C3_3  and  C7_7 
REMARK    3  A    between atoms: C6_6  and  C7_7 
ROOT
HETATM    1  C7  UNL     1     -32.590   8.165   4.851  1.00 20.00     0.242 C 
HETATM    2  F9  UNL     1     -32.128   9.387   5.245  1.00 20.00    -0.241 F 
ENDROOT
BRANCH   1   3
HETATM    3  C3  UNL     1     -32.520   8.032   3.343  1.00 20.00     0.157 C 
HETATM    4  C5  UNL     1     -32.345   6.649   2.772  1.00 20.00     0.094 C 
HETATM    5  O8  UNL     1     -32.599   9.018   2.609  1.00 20.00    -0.295 OA
ENDBRANCH   1   3
BRANCH   1   6
HETATM    6  C6  UNL     1     -33.993   7.972   5.423  1.00 20.00     0.072 C 
BRANCH   6   7
HETATM    7  C2  UNL     1     -34.057   6.875   6.449  1.00 20.00    -0.028 C 
HETATM    8  C1  UNL     1     -34.482   5.632   6.187  1.00 20.00    -0.035 C 
HETATM    9  C4  UNL     1     -34.946   5.178   4.843  1.00 20.00     0.036 C 
ENDBRANCH   6   7
ENDBRANCH   1   6
TORSDOF 3
ENDMDL
MODEL 2
REMARK VINA RESULT:      -5.2      1.206      1.248
REMARK  3 active torsions:
REMARK  status: ('A' for Active; 'I' for Inactive)
REMARK    1  A    between atoms: C2_2  and  C6_6 
REMARK    2  A    between atoms: C3_3  and  C7_7 
REMARK    3  A    between atoms: C6_6  and  C7_7 
ROOT
HETATM    1  C7  UNL     1     -32.477   8.006   4.395  1.00 20.00     0.242 C 
HETATM    2  F9  UNL     1     -32.095   9.311   4.289  1.00 20.00    -0.241 F 
ENDROOT
BRANCH   1   3
HETATM    3  C3  UNL     1     -32.412   7.321   3.044  1.00 20.00     0.157 C 
HETATM    4  C5  UNL     1     -32.171   8.186   1.835  1.00 20.00     0.094 C 
HETATM    5  O8  UNL     1     -32.556   6.103   2.937  1.00 20.00    -0.295 OA
ENDBRANCH   1   3
BRANCH   1   6
HETATM    6  C6  UNL     1     -33.858   7.959   5.044  1.00 20.00     0.072 C 
BRANCH   6   7
HETATM    7  C2  UNL     1     -33.900   7.074   6.260  1.00 20.00    -0.028 C 
HETATM    8  C1  UNL     1     -34.404   5.832   6.263  1.00 20.00    -0.035 C 
HETATM    9  C4  UNL     1     -34.987   5.170   5.060  1.00 20.00     0.036 C 
ENDBRANCH   6   7
ENDBRANCH   1   6
TORSDOF 3
ENDMDL
MODEL 3
REMARK VINA RESULT:      -5.1      2.441      3.627
REMARK  3 active torsions:
REMARK  status: ('A' for Active; 'I' for Inactive)
REMARK    1  A    between atoms: C2_2  and  C6_6 
REMARK    2  A    between atoms: C3_3  and  C7_7 
REMARK    3  A    between atoms: C6_6  and  C7_7 
ROOT
HETATM    1  C7  UNL     1     -34.505   6.045   6.174  1.00 20.00     0.242 C 
HETATM    2  F9  UNL     1     -34.158   5.007   6.989  1.00 20.00    -0.241 F 
ENDROOT
BRANCH   1   3
HETATM    3  C3  UNL     1     -34.910   5.534   4.805  1.00 20.00     0.157 C 
HETATM    4  C5  UNL     1     -34.025   4.503   4.156  1.00 20.00     0.094 C 
HETATM    5  O8  UNL     1     -35.922   5.951   4.240  1.00 20.00    -0.295 OA
ENDBRANCH   1   3
BRANCH   1   6
HETATM    6  C6  UNL     1     -33.348   7.042   6.143  1.00 20.00     0.072 C 
BRANCH   6   7
HETATM    7  C2  UNL     1     -33.650   8.257   5.310  1.00 20.00    -0.028 C 
HETATM    8  C1  UNL     1     -33.085   8.505   4.120  1.00 20.00    -0.035 C 
HETATM    9  C4  UNL     1     -32.086   7.606   3.471  1.00 20.00     0.036 C 
ENDBRANCH   6   7
ENDBRANCH   1   6
TORSDOF 3
ENDMDL
MODEL 4
REMARK VINA RESULT:      -5.0      2.273      3.617
REMARK  3 active torsions:
REMARK  status: ('A' for Active; 'I' for Inactive)
REMARK    1  A    between atoms: C2_2  and  C6_6 
REMARK    2  A    between atoms: C3_3  and  C7_7 
REMARK    3  A    between atoms: C6_6  and  C7_7 
ROOT
HETATM    1  C7  UNL     1     -34.108   7.115   6.244  1.00 20.00     0.242 C 
HETATM    2  F9  UNL     1     -32.892   6.966   6.846  1.00 20.00    -0.241 F 
ENDROOT
BRANCH   1   3
HETATM    3  C3  UNL     1     -34.615   5.780   5.735  1.00 20.00     0.157 C 
HETATM    4  C5  UNL     1     -35.452   5.784   4.483  1.00 20.00     0.094 C 
HETATM    5  O8  UNL     1     -34.358   4.731   6.326  1.00 20.00    -0.295 OA
ENDBRANCH   1   3
BRANCH   1   6
HETATM    6  C6  UNL     1     -33.981   8.181   5.158  1.00 20.00     0.072 C 
BRANCH   6   7
HETATM    7  C2  UNL     1     -32.552   8.544   4.863  1.00 20.00    -0.028 C 
HETATM    8  C1  UNL     1     -31.844   8.025   3.850  1.00 20.00    -0.035 C 
HETATM    9  C4  UNL     1     -32.385   7.020   2.888  1.00 20.00     0.036 C 
ENDBRANCH   6   7
ENDBRANCH   1   6
TORSDOF 3
ENDMDL
MODEL 5
REMARK VINA RESULT:      -4.7      2.727      3.630
REMARK  3 active torsions:
REMARK  status: ('A' for Active; 'I' for Inactive)
REMARK    1  A    between atoms: C2_2  and  C6_6 
REMARK    2  A    between atoms: C3_3  and  C7_7 
REMARK    3  A    between atoms: C6_6  and  C7_7 
ROOT
HETATM    1  C7  UNL     1     -34.606   6.207   4.444  1.00 20.00     0.242 C 
HETATM    2  F9  UNL     1     -35.924   5.946   4.684  1.00 20.00    -0.241 F 
ENDROOT
BRANCH   1   3
HETATM    3  C3  UNL     1     -33.906   4.970   3.919  1.00 20.00     0.157 C 
HETATM    4  C5  UNL     1     -33.045   5.123   2.693  1.00 20.00     0.094 C 
HETATM    5  O8  UNL     1     -34.039   3.877   4.471  1.00 20.00    -0.295 OA
ENDBRANCH   1   3
BRANCH   1   6
HETATM    6  C6  UNL     1     -33.987   6.771   5.721  1.00 20.00     0.072 C 
BRANCH   6   7
HETATM    7  C2  UNL     1     -33.776   8.259   5.658  1.00 20.00    -0.028 C 
HETATM    8  C1  UNL     1     -32.822   8.847   4.922  1.00 20.00    -0.035 C 
HETATM    9  C4  UNL     1     -31.849   8.099   4.073  1.00 20.00     0.036 C 
ENDBRANCH   6   7
ENDBRANCH   1   6
TORSDOF 3
ENDMDL
MODEL 6
REMARK VINA RESULT:      -4.5      1.940      2.711
REMARK  3 active torsions:
REMARK  status: ('A' for Active; 'I' for Inactive)
REMARK    1  A    between atoms: C2_2  and  C6_6 
REMARK    2  A    between atoms: C3_3  and  C7_7 
REMARK    3  A    between atoms: C6_6  and  C7_7 
ROOT
HETATM    1  C7  UNL     1     -33.886   6.917   5.842  1.00 20.00     0.242 C 
HETATM    2  F9  UNL     1     -34.529   7.140   7.025  1.00 20.00    -0.241 F 
ENDROOT
BRANCH   1   3
HETATM    3  C3  UNL     1     -33.346   8.216   5.277  1.00 20.00     0.157 C 
HETATM    4  C5  UNL     1     -32.246   8.127   4.252  1.00 20.00     0.094 C 
HETATM    5  O8  UNL     1     -33.787   9.305   5.645  1.00 20.00    -0.295 OA
ENDBRANCH   1   3
BRANCH   1   6
HETATM    6  C6  UNL     1     -34.844   6.187   4.903  1.00 20.00     0.072 C 
BRANCH   6   7
HETATM    7  C2  UNL     1     -34.491   4.736   4.725  1.00 20.00    -0.028 C 
HETATM    8  C1  UNL     1     -33.697   4.275   3.747  1.00 20.00    -0.035 C 
HETATM    9  C4  UNL     1     -33.064   5.144   2.713  1.00 20.00     0.036 C 
ENDBRANCH   6   7
ENDBRANCH   1   6
TORSDOF 3
ENDMDL
MODEL 7
REMARK VINA RESULT:      -4.4      2.569      3.334
REMARK  3 active torsions:
REMARK  status: ('A' for Active; 'I' for Inactive)
REMARK    1  A    between atoms: C2_2  and  C6_6 
REMARK    2  A    between atoms: C3_3  and  C7_7 
REMARK    3  A    between atoms: C6_6  and  C7_7 
ROOT
HETATM    1  C7  UNL     1     -34.220   4.723   3.892  1.00 20.00     0.242 C 
HETATM    2  F9  UNL     1     -33.685   3.923   4.859  1.00 20.00    -0.241 F 
ENDROOT
BRANCH   1   3
HETATM    3  C3  UNL     1     -33.143   5.194   2.935  1.00 20.00     0.157 C 
HETATM    4  C5  UNL     1     -32.684   6.624   3.051  1.00 20.00     0.094 C 
HETATM    5  O8  UNL     1     -32.662   4.438   2.090  1.00 20.00    -0.295 OA
ENDBRANCH   1   3
BRANCH   1   6
HETATM    6  C6  UNL     1     -34.981   5.859   4.572  1.00 20.00     0.072 C 
BRANCH   6   7
HETATM    7  C2  UNL     1     -34.620   6.013   6.023  1.00 20.00    -0.028 C 
HETATM    8  C1  UNL     1     -34.035   7.106   6.535  1.00 20.00    -0.035 C 
HETATM    9  C4  UNL     1     -33.669   8.306   5.728  1.00 20.00     0.036 C 
ENDBRANCH   6   7
ENDBRANCH   1   6
TORSDOF 3
ENDMDL
MODEL 8
REMARK VINA RESULT:      -4.4      1.935      2.610
REMARK  3 active torsions:
REMARK  status: ('A' for Active; 'I' for Inactive)
REMARK    1  A    between atoms: C2_2  and  C6_6 
REMARK    2  A    between atoms: C3_3  and  C7_7 
REMARK    3  A    between atoms: C6_6  and  C7_7 
ROOT
HETATM    1  C7  UNL     1     -33.231   5.906   2.814  1.00 20.00     0.242 C 
HETATM    2  F9  UNL     1     -32.425   4.881   3.218  1.00 20.00    -0.241 F 
ENDROOT
BRANCH   1   3
HETATM    3  C3  UNL     1     -32.463   7.213   2.800  1.00 20.00     0.157 C 
HETATM    4  C5  UNL     1     -32.280   7.928   4.113  1.00 20.00     0.094 C 
HETATM    5  O8  UNL     1     -32.009   7.677   1.753  1.00 20.00    -0.295 OA
ENDBRANCH   1   3
BRANCH   1   6
HETATM    6  C6  UNL     1     -34.468   5.927   3.709  1.00 20.00     0.072 C 
BRANCH   6   7
HETATM    7  C2  UNL     1     -34.425   4.879   4.786  1.00 20.00    -0.028 C 
HETATM    8  C1  UNL     1     -34.405   5.157   6.098  1.00 20.00    -0.035 C 
HETATM    9  C4  UNL     1     -34.423   6.541   6.654  1.00 20.00     0.036 C 
ENDBRANCH   6   7
ENDBRANCH   1   6
TORSDOF 3
ENDMDL
MODEL 9
REMARK VINA RESULT:      -4.3      2.052      3.809
REMARK  3 active torsions:
REMARK  status: ('A' for Active; 'I' for Inactive)
REMARK    1  A    between atoms: C2_2  and  C6_6 
REMARK    2  A    between atoms: C3_3  and  C7_7 
REMARK    3  A    between atoms: C6_6  and  C7_7 
ROOT
HETATM    1  C7  UNL     1     -33.792   7.991   4.809  1.00 20.00     0.242 C 
HETATM    2  F9  UNL     1     -34.031   9.002   5.695  1.00 20.00    -0.241 F 
ENDROOT
BRANCH   1   3
HETATM    3  C3  UNL     1     -34.137   6.650   5.427  1.00 20.00     0.157 C 
HETATM    4  C5  UNL     1     -34.966   5.697   4.607  1.00 20.00     0.094 C 
HETATM    5  O8  UNL     1     -33.758   6.352   6.560  1.00 20.00    -0.295 OA
ENDBRANCH   1   3
BRANCH   1   6
HETATM    6  C6  UNL     1     -32.345   8.097   4.335  1.00 20.00     0.072 C 
BRANCH   6   7
HETATM    7  C2  UNL     1     -32.103   7.374   3.039  1.00 20.00    -0.028 C 
HETATM    8  C1  UNL     1     -32.287   7.925   1.831  1.00 20.00    -0.035 C 
HETATM    9  C4  UNL     1     -32.755   9.326   1.619  1.00 20.00     0.036 C 
ENDBRANCH   6   7
ENDBRANCH   1   6
TORSDOF 3
ENDMDL
