MODEL 1
REMARK VINA RESULT:      -4.0      0.000      0.000
REMARK  1 active torsions:
REMARK  status: ('A' for Active; 'I' for Inactive)
REMARK    1  A    between atoms: C10_10  and  O11_11 
ROOT
HETATM    1  C1  UNL     1     -42.604  14.708   3.794  1.00 20.00     0.012 C 
HETATM    2  C2  UNL     1     -39.540  11.966   4.599  1.00 20.00     0.015 C 
HETATM    3  C3  UNL     1     -42.038  14.664   4.852  1.00 20.00    -0.108 C 
HETATM    4  C4  UNL     1     -40.163  12.505   5.473  1.00 20.00    -0.078 C 
HETATM    5  C5  UNL     1     -43.417  14.391   7.627  1.00 20.00     0.002 C 
HETATM    6  C6  UNL     1     -43.003  12.976   8.013  1.00 20.00     0.004 C 
HETATM    7  C7  UNL     1     -42.214  15.255   7.246  1.00 20.00     0.021 C 
HETATM    8  C8  UNL     1     -42.148  12.314   6.930  1.00 20.00     0.053 C 
HETATM    9  C9  UNL     1     -41.339  14.611   6.155  1.00 20.00     0.111 C 
HETATM   10  C10 UNL     1     -40.928  13.170   6.546  1.00 20.00     0.134 C 
ENDROOT
BRANCH  10  11
HETATM   11  O11 UNL     1     -40.084  13.241   7.704  1.00 20.00    -0.376 OA
HETATM   12  H23 UNL     1     -39.588  14.069   7.627  1.00 20.00     0.211 HD
ENDBRANCH  10  11
TORSDOF 1
ENDMDL
MODEL 2
REMARK VINA RESULT:      -3.9     10.103     10.920
REMARK  1 active torsions:
REMARK  status: ('A' for Active; 'I' for Inactive)
REMARK    1  A    between atoms: C10_10  and  O11_11 
ROOT
HETATM    1  C1  UNL     1     -32.680   4.697   2.753  1.00 20.00     0.012 C 
HETATM    2  C2  UNL     1     -31.981   8.820   3.010  1.00 20.00     0.015 C 
HETATM    3  C3  UNL     1     -33.475   5.459   3.231  1.00 20.00    -0.108 C 
HETATM    4  C4  UNL     1     -32.786   8.262   3.704  1.00 20.00    -0.078 C 
HETATM    5  C5  UNL     1     -34.752   5.197   6.056  1.00 20.00     0.002 C 
HETATM    6  C6  UNL     1     -34.088   6.365   6.777  1.00 20.00     0.004 C 
HETATM    7  C7  UNL     1     -35.417   5.637   4.750  1.00 20.00     0.021 C 
HETATM    8  C8  UNL     1     -33.114   7.120   5.869  1.00 20.00     0.053 C 
HETATM    9  C9  UNL     1     -34.457   6.397   3.818  1.00 20.00     0.111 C 
HETATM   10  C10 UNL     1     -33.776   7.577   4.557  1.00 20.00     0.134 C 
ENDROOT
BRANCH  10  11
HETATM   11  O11 UNL     1     -34.787   8.532   4.907  1.00 20.00    -0.376 OA
HETATM   12  H23 UNL     1     -35.631   8.147   4.630  1.00 20.00     0.211 HD
ENDBRANCH  10  11
TORSDOF 1
ENDMDL
MODEL 3
REMARK VINA RESULT:      -3.8     12.894     13.910
REMARK  1 active torsions:
REMARK  status: ('A' for Active; 'I' for Inactive)
REMARK    1  A    between atoms: C10_10  and  O11_11 
ROOT
HETATM    1  C1  UNL     1     -36.720  17.961  -4.541  1.00 20.00     0.012 C 
HETATM    2  C2  UNL     1     -36.316  15.514  -7.918  1.00 20.00     0.015 C 
HETATM    3  C3  UNL     1     -35.659  17.537  -4.908  1.00 20.00    -0.108 C 
HETATM    4  C4  UNL     1     -35.485  15.554  -7.052  1.00 20.00    -0.078 C 
HETATM    5  C5  UNL     1     -33.643  15.951  -3.149  1.00 20.00     0.002 C 
HETATM    6  C6  UNL     1     -33.748  14.564  -3.775  1.00 20.00     0.004 C 
HETATM    7  C7  UNL     1     -33.348  17.028  -4.194  1.00 20.00     0.021 C 
HETATM    8  C8  UNL     1     -34.756  14.531  -4.926  1.00 20.00     0.053 C 
HETATM    9  C9  UNL     1     -34.351  17.016  -5.362  1.00 20.00     0.111 C 
HETATM   10  C10 UNL     1     -34.462  15.604  -5.989  1.00 20.00     0.134 C 
ENDROOT
BRANCH  10  11
HETATM   11  O11 UNL     1     -33.199  15.273  -6.582  1.00 20.00    -0.376 OA
HETATM   12  H23 UNL     1     -33.188  15.700  -7.451  1.00 20.00     0.211 HD
ENDBRANCH  10  11
TORSDOF 1
ENDMDL
MODEL 4
REMARK VINA RESULT:      -3.7     12.736     13.952
REMARK  1 active torsions:
REMARK  status: ('A' for Active; 'I' for Inactive)
REMARK    1  A    between atoms: C10_10  and  O11_11 
ROOT
HETATM    1  C1  UNL     1     -35.652  13.733  -4.589  1.00 20.00     0.012 C 
HETATM    2  C2  UNL     1     -33.389  16.584  -2.515  1.00 20.00     0.015 C 
HETATM    3  C3  UNL     1     -35.116  14.656  -5.138  1.00 20.00    -0.108 C 
HETATM    4  C4  UNL     1     -33.853  16.801  -3.601  1.00 20.00    -0.078 C 
HETATM    5  C5  UNL     1     -36.519  16.700  -7.017  1.00 20.00     0.002 C 
HETATM    6  C6  UNL     1     -36.479  17.956  -6.153  1.00 20.00     0.004 C 
HETATM    7  C7  UNL     1     -35.136  16.067  -7.169  1.00 20.00     0.021 C 
HETATM    8  C8  UNL     1     -35.822  17.695  -4.795  1.00 20.00     0.053 C 
HETATM    9  C9  UNL     1     -34.453  15.793  -5.816  1.00 20.00     0.111 C 
HETATM   10  C10 UNL     1     -34.423  17.068  -4.936  1.00 20.00     0.134 C 
ENDROOT
BRANCH  10  11
HETATM   11  O11 UNL     1     -33.589  18.040  -5.581  1.00 20.00    -0.376 OA
HETATM   12  H23 UNL     1     -34.070  18.327  -6.372  1.00 20.00     0.211 HD
ENDBRANCH  10  11
TORSDOF 1
ENDMDL
MODEL 5
REMARK VINA RESULT:      -3.6     11.993     13.562
REMARK  1 active torsions:
REMARK  status: ('A' for Active; 'I' for Inactive)
REMARK    1  A    between atoms: C10_10  and  O11_11 
ROOT
HETATM    1  C1  UNL     1     -32.582  15.081  -4.167  1.00 20.00     0.012 C 
HETATM    2  C2  UNL     1     -34.998  17.748  -6.313  1.00 20.00     0.015 C 
HETATM    3  C3  UNL     1     -33.288  15.890  -3.629  1.00 20.00    -0.108 C 
HETATM    4  C4  UNL     1     -34.673  17.952  -5.175  1.00 20.00    -0.078 C 
HETATM    5  C5  UNL     1     -32.358  17.969  -1.510  1.00 20.00     0.002 C 
HETATM    6  C6  UNL     1     -32.483  19.263  -2.307  1.00 20.00     0.004 C 
HETATM    7  C7  UNL     1     -33.652  17.155  -1.537  1.00 20.00     0.021 C 
HETATM    8  C8  UNL     1     -32.966  19.010  -3.737  1.00 20.00     0.053 C 
HETATM    9  C9  UNL     1     -34.158  16.885  -2.965  1.00 20.00     0.111 C 
HETATM   10  C10 UNL     1     -34.274  18.201  -3.775  1.00 20.00     0.134 C 
ENDROOT
BRANCH  10  11
HETATM   11  O11 UNL     1     -35.289  19.014  -3.170  1.00 20.00    -0.376 OA
HETATM   12  H23 UNL     1     -34.833  19.593  -2.542  1.00 20.00     0.211 HD
ENDBRANCH  10  11
TORSDOF 1
ENDMDL
MODEL 6
REMARK VINA RESULT:      -3.5     12.907     14.171
REMARK  1 active torsions:
REMARK  status: ('A' for Active; 'I' for Inactive)
REMARK    1  A    between atoms: C10_10  and  O11_11 
ROOT
HETATM    1  C1  UNL     1     -33.667  15.466  -7.918  1.00 20.00     0.012 C 
HETATM    2  C2  UNL     1     -35.751  18.962  -6.924  1.00 20.00     0.015 C 
HETATM    3  C3  UNL     1     -34.406  15.531  -6.974  1.00 20.00    -0.108 C 
HETATM    4  C4  UNL     1     -35.551  18.086  -6.127  1.00 20.00    -0.078 C 
HETATM    5  C5  UNL     1     -33.664  14.784  -4.047  1.00 20.00     0.002 C 
HETATM    6  C6  UNL     1     -33.663  16.162  -3.393  1.00 20.00     0.004 C 
HETATM    7  C7  UNL     1     -34.969  14.508  -4.795  1.00 20.00     0.021 C 
HETATM    8  C8  UNL     1     -33.989  17.272  -4.396  1.00 20.00     0.053 C 
HETATM    9  C9  UNL     1     -35.318  15.610  -5.812  1.00 20.00     0.111 C 
HETATM   10  C10 UNL     1     -35.307  17.010  -5.147  1.00 20.00     0.134 C 
ENDROOT
BRANCH  10  11
HETATM   11  O11 UNL     1     -36.360  17.055  -4.176  1.00 20.00    -0.376 OA
HETATM   12  H23 UNL     1     -36.163  16.360  -3.530  1.00 20.00     0.211 HD
ENDBRANCH  10  11
TORSDOF 1
ENDMDL
MODEL 7
REMARK VINA RESULT:      -3.5     12.400     13.167
REMARK  1 active torsions:
REMARK  status: ('A' for Active; 'I' for Inactive)
REMARK    1  A    between atoms: C10_10  and  O11_11 
ROOT
HETATM    1  C1  UNL     1     -36.732  17.889  -4.545  1.00 20.00     0.012 C 
HETATM    2  C2  UNL     1     -35.325  13.943  -4.618  1.00 20.00     0.015 C 
HETATM    3  C3  UNL     1     -35.566  17.620  -4.650  1.00 20.00    -0.108 C 
HETATM    4  C4  UNL     1     -34.616  14.871  -4.338  1.00 20.00    -0.078 C 
HETATM    5  C5  UNL     1     -33.292  18.713  -2.831  1.00 20.00     0.002 C 
HETATM    6  C6  UNL     1     -32.908  17.451  -2.066  1.00 20.00     0.004 C 
HETATM    7  C7  UNL     1     -33.273  18.491  -4.344  1.00 20.00     0.021 C 
HETATM    8  C8  UNL     1     -33.765  16.251  -2.475  1.00 20.00     0.053 C 
HETATM    9  C9  UNL     1     -34.130  17.289  -4.782  1.00 20.00     0.111 C 
HETATM   10  C10 UNL     1     -33.744  16.011  -3.995  1.00 20.00     0.134 C 
ENDROOT
BRANCH  10  11
HETATM   11  O11 UNL     1     -32.401  15.656  -4.346  1.00 20.00    -0.376 OA
HETATM   12  H23 UNL     1     -32.470  14.999  -5.055  1.00 20.00     0.211 HD
ENDBRANCH  10  11
TORSDOF 1
ENDMDL
MODEL 8
REMARK VINA RESULT:      -3.4      1.774      3.276
REMARK  1 active torsions:
REMARK  status: ('A' for Active; 'I' for Inactive)
REMARK    1  A    between atoms: C10_10  and  O11_11 
ROOT
HETATM    1  C1  UNL     1     -41.368  17.518   6.706  1.00 20.00     0.012 C 
HETATM    2  C2  UNL     1     -40.132  15.046   9.854  1.00 20.00     0.015 C 
HETATM    3  C3  UNL     1     -41.824  16.422   6.884  1.00 20.00    -0.108 C 
HETATM    4  C4  UNL     1     -40.674  14.613   8.875  1.00 20.00    -0.078 C 
HETATM    5  C5  UNL     1     -41.954  14.155   4.759  1.00 20.00     0.002 C 
HETATM    6  C6  UNL     1     -40.931  13.176   5.324  1.00 20.00     0.004 C 
HETATM    7  C7  UNL     1     -43.007  14.543   5.798  1.00 20.00     0.021 C 
HETATM    8  C8  UNL     1     -40.291  13.697   6.613  1.00 20.00     0.053 C 
HETATM    9  C9  UNL     1     -42.389  15.073   7.105  1.00 20.00     0.111 C 
HETATM   10  C10 UNL     1     -41.342  14.080   7.670  1.00 20.00     0.134 C 
ENDROOT
BRANCH  10  11
HETATM   11  O11 UNL     1     -42.021  12.874   8.044  1.00 20.00    -0.376 OA
HETATM   12  H23 UNL     1     -41.401  12.374   8.595  1.00 20.00     0.211 HD
ENDBRANCH  10  11
TORSDOF 1
ENDMDL
MODEL 9
REMARK VINA RESULT:      -3.4     12.837     14.190
REMARK  1 active torsions:
REMARK  status: ('A' for Active; 'I' for Inactive)
REMARK    1  A    between atoms: C10_10  and  O11_11 
ROOT
HETATM    1  C1  UNL     1     -34.577  18.267  -4.982  1.00 20.00     0.012 C 
HETATM    2  C2  UNL     1     -37.730  17.323  -7.573  1.00 20.00     0.015 C 
HETATM    3  C3  UNL     1     -34.607  17.250  -5.618  1.00 20.00    -0.108 C 
HETATM    4  C4  UNL     1     -36.993  16.486  -7.130  1.00 20.00    -0.078 C 
HETATM    5  C5  UNL     1     -34.314  14.382  -4.450  1.00 20.00     0.002 C 
HETATM    6  C6  UNL     1     -35.730  13.850  -4.641  1.00 20.00     0.004 C 
HETATM    7  C7  UNL     1     -33.733  14.941  -5.750  1.00 20.00     0.021 C 
HETATM    8  C8  UNL     1     -36.653  14.895  -5.272  1.00 20.00     0.053 C 
HETATM    9  C9  UNL     1     -34.644  15.997  -6.404  1.00 20.00     0.111 C 
HETATM   10  C10 UNL     1     -36.085  15.457  -6.587  1.00 20.00     0.134 C 
ENDROOT
BRANCH  10  11
HETATM   11  O11 UNL     1     -36.043  14.372  -7.524  1.00 20.00    -0.376 OA
HETATM   12  H23 UNL     1     -36.009  14.776  -8.404  1.00 20.00     0.211 HD
ENDBRANCH  10  11
TORSDOF 1
ENDMDL
