MODEL 1
REMARK VINA RESULT:      -3.8      0.000      0.000
REMARK  3 active torsions:
REMARK  status: ('A' for Active; 'I' for Inactive)
REMARK    1  A    between atoms: C7_7  and  C8_8 
REMARK    2  A    between atoms: C8_8  and  C9_9 
REMARK    3  A    between atoms: C9_9  and  N10_10 
ROOT
HETATM    1  C1  UNL     1     -32.604   8.994   0.319  1.00 20.00     0.012 C 
HETATM    2  C3  UNL     1     -32.633   9.031   1.519  1.00 20.00    -0.117 C 
HETATM    3  C7  UNL     1     -32.668   9.081   2.987  1.00 20.00     0.096 C 
ENDROOT
BRANCH   3   4
HETATM    4  C8  UNL     1     -32.315   7.731   3.626  1.00 20.00     0.061 C 
BRANCH   4   5
HETATM    5  C9  UNL     1     -33.530   6.905   4.092  1.00 20.00     0.300 C 
HETATM    6  C4  UNL     1     -33.841   7.152   5.510  1.00 20.00    -0.081 C 
HETATM    7  C2  UNL     1     -34.099   7.355   6.665  1.00 20.00     0.014 C 
BRANCH   5   8
HETATM    8  N10 UNL     1     -33.238   5.483   3.898  1.00 20.00     0.095 N 
HETATM    9  C5  UNL     1     -32.975   5.206   2.487  1.00 20.00     0.310 C 
HETATM   10  C6  UNL     1     -34.348   4.666   4.383  1.00 20.00     0.310 C 
ENDBRANCH   5   8
ENDBRANCH   4   5
ENDBRANCH   3   4
TORSDOF 3
ENDMDL
MODEL 2
REMARK VINA RESULT:      -3.8      9.611     10.638
REMARK  3 active torsions:
REMARK  status: ('A' for Active; 'I' for Inactive)
REMARK    1  A    between atoms: C7_7  and  C8_8 
REMARK    2  A    between atoms: C8_8  and  C9_9 
REMARK    3  A    between atoms: C9_9  and  N10_10 
ROOT
HETATM    1  C1  UNL     1     -38.941  11.728   3.532  1.00 20.00     0.012 C 
HETATM    2  C3  UNL     1     -39.291  11.727   4.681  1.00 20.00    -0.117 C 
HETATM    3  C7  UNL     1     -39.716  11.723   6.088  1.00 20.00     0.096 C 
ENDROOT
BRANCH   3   4
HETATM    4  C8  UNL     1     -41.024  12.495   6.306  1.00 20.00     0.061 C 
BRANCH   4   5
HETATM    5  C9  UNL     1     -40.862  14.027   6.357  1.00 20.00     0.300 C 
HETATM    6  C4  UNL     1     -40.548  14.493   7.718  1.00 20.00    -0.081 C 
HETATM    7  C2  UNL     1     -40.288  14.876   8.827  1.00 20.00     0.014 C 
BRANCH   5   8
HETATM    8  N10 UNL     1     -42.107  14.650   5.904  1.00 20.00     0.095 N 
HETATM    9  C5  UNL     1     -43.247  14.091   6.627  1.00 20.00     0.310 C 
HETATM   10  C6  UNL     1     -42.274  14.467   4.464  1.00 20.00     0.310 C 
ENDBRANCH   5   8
ENDBRANCH   4   5
ENDBRANCH   3   4
TORSDOF 3
ENDMDL
MODEL 3
REMARK VINA RESULT:      -3.8      0.966      2.472
REMARK  3 active torsions:
REMARK  status: ('A' for Active; 'I' for Inactive)
REMARK    1  A    between atoms: C7_7  and  C8_8 
REMARK    2  A    between atoms: C8_8  and  C9_9 
REMARK    3  A    between atoms: C9_9  and  N10_10 
ROOT
HETATM    1  C1  UNL     1     -32.918   9.497   0.769  1.00 20.00     0.012 C 
HETATM    2  C3  UNL     1     -32.624   9.185   1.890  1.00 20.00    -0.117 C 
HETATM    3  C7  UNL     1     -32.258   8.802   3.261  1.00 20.00     0.096 C 
ENDROOT
BRANCH   3   4
HETATM    4  C8  UNL     1     -33.446   8.226   4.043  1.00 20.00     0.061 C 
BRANCH   4   5
HETATM    5  C9  UNL     1     -33.274   6.758   4.480  1.00 20.00     0.300 C 
HETATM    6  C4  UNL     1     -33.100   5.866   3.321  1.00 20.00    -0.081 C 
HETATM    7  C2  UNL     1     -32.954   5.136   2.378  1.00 20.00     0.014 C 
BRANCH   5   8
HETATM    8  N10 UNL     1     -34.459   6.347   5.237  1.00 20.00     0.095 N 
HETATM    9  C5  UNL     1     -34.383   6.845   6.609  1.00 20.00     0.310 C 
HETATM   10  C6  UNL     1     -34.590   4.892   5.226  1.00 20.00     0.310 C 
ENDBRANCH   5   8
ENDBRANCH   4   5
ENDBRANCH   3   4
TORSDOF 3
ENDMDL
MODEL 4
REMARK VINA RESULT:      -3.8      9.638     10.750
REMARK  3 active torsions:
REMARK  status: ('A' for Active; 'I' for Inactive)
REMARK    1  A    between atoms: C7_7  and  C8_8 
REMARK    2  A    between atoms: C8_8  and  C9_9 
REMARK    3  A    between atoms: C9_9  and  N10_10 
ROOT
HETATM    1  C1  UNL     1     -38.909  11.693   3.472  1.00 20.00     0.012 C 
HETATM    2  C3  UNL     1     -39.296  11.700   4.608  1.00 20.00    -0.117 C 
HETATM    3  C7  UNL     1     -39.771  11.703   5.999  1.00 20.00     0.096 C 
ENDROOT
BRANCH   3   4
HETATM    4  C8  UNL     1     -40.044  13.120   6.520  1.00 20.00     0.061 C 
BRANCH   4   5
HETATM    5  C9  UNL     1     -41.533  13.520   6.539  1.00 20.00     0.300 C 
HETATM    6  C4  UNL     1     -41.963  14.067   5.241  1.00 20.00    -0.081 C 
HETATM    7  C2  UNL     1     -42.318  14.509   4.182  1.00 20.00     0.014 C 
BRANCH   5   8
HETATM    8  N10 UNL     1     -41.740  14.525   7.583  1.00 20.00     0.095 N 
HETATM    9  C5  UNL     1     -40.470  15.149   7.947  1.00 20.00     0.310 C 
HETATM   10  C6  UNL     1     -42.368  13.919   8.756  1.00 20.00     0.310 C 
ENDBRANCH   5   8
ENDBRANCH   4   5
ENDBRANCH   3   4
TORSDOF 3
ENDMDL
MODEL 5
REMARK VINA RESULT:      -3.7     11.295     12.490
REMARK  3 active torsions:
REMARK  status: ('A' for Active; 'I' for Inactive)
REMARK    1  A    between atoms: C7_7  and  C8_8 
REMARK    2  A    between atoms: C8_8  and  C9_9 
REMARK    3  A    between atoms: C9_9  and  N10_10 
ROOT
HETATM    1  C1  UNL     1     -31.371  18.547  -0.429  1.00 20.00     0.012 C 
HETATM    2  C3  UNL     1     -32.375  18.081  -0.893  1.00 20.00    -0.117 C 
HETATM    3  C7  UNL     1     -33.607  17.512  -1.457  1.00 20.00     0.096 C 
ENDROOT
BRANCH   3   4
HETATM    4  C8  UNL     1     -33.327  16.539  -2.609  1.00 20.00     0.061 C 
BRANCH   4   5
HETATM    5  C9  UNL     1     -33.902  16.975  -3.971  1.00 20.00     0.300 C 
HETATM    6  C4  UNL     1     -34.988  17.957  -3.810  1.00 20.00    -0.081 C 
HETATM    7  C2  UNL     1     -35.872  18.761  -3.681  1.00 20.00     0.014 C 
BRANCH   5   8
HETATM    8  N10 UNL     1     -34.414  15.794  -4.669  1.00 20.00     0.095 N 
HETATM    9  C5  UNL     1     -33.546  14.643  -4.424  1.00 20.00     0.310 C 
HETATM   10  C6  UNL     1     -34.523  16.058  -6.102  1.00 20.00     0.310 C 
ENDBRANCH   5   8
ENDBRANCH   4   5
ENDBRANCH   3   4
TORSDOF 3
ENDMDL
MODEL 6
REMARK VINA RESULT:      -3.7     11.510     12.765
REMARK  3 active torsions:
REMARK  status: ('A' for Active; 'I' for Inactive)
REMARK    1  A    between atoms: C7_7  and  C8_8 
REMARK    2  A    between atoms: C8_8  and  C9_9 
REMARK    3  A    between atoms: C9_9  and  N10_10 
ROOT
HETATM    1  C1  UNL     1     -30.557  18.401   2.052  1.00 20.00     0.012 C 
HETATM    2  C3  UNL     1     -31.259  18.731   1.135  1.00 20.00    -0.117 C 
HETATM    3  C7  UNL     1     -32.120  19.139   0.016  1.00 20.00     0.096 C 
ENDROOT
BRANCH   3   4
HETATM    4  C8  UNL     1     -32.079  18.139  -1.147  1.00 20.00     0.061 C 
BRANCH   4   5
HETATM    5  C9  UNL     1     -33.461  17.762  -1.716  1.00 20.00     0.300 C 
HETATM    6  C4  UNL     1     -33.366  16.650  -2.677  1.00 20.00    -0.081 C 
HETATM    7  C2  UNL     1     -33.291  15.740  -3.458  1.00 20.00     0.014 C 
BRANCH   5   8
HETATM    8  N10 UNL     1     -34.035  18.933  -2.383  1.00 20.00     0.095 N 
HETATM    9  C5  UNL     1     -35.436  18.690  -2.721  1.00 20.00     0.310 C 
HETATM   10  C6  UNL     1     -33.267  19.262  -3.582  1.00 20.00     0.310 C 
ENDBRANCH   5   8
ENDBRANCH   4   5
ENDBRANCH   3   4
TORSDOF 3
ENDMDL
MODEL 7
REMARK VINA RESULT:      -3.7      9.868     10.991
REMARK  3 active torsions:
REMARK  status: ('A' for Active; 'I' for Inactive)
REMARK    1  A    between atoms: C7_7  and  C8_8 
REMARK    2  A    between atoms: C8_8  and  C9_9 
REMARK    3  A    between atoms: C9_9  and  N10_10 
ROOT
HETATM    1  C1  UNL     1     -38.979  11.551   3.765  1.00 20.00     0.012 C 
HETATM    2  C3  UNL     1     -39.348  11.824   4.874  1.00 20.00    -0.117 C 
HETATM    3  C7  UNL     1     -39.800  12.154   6.233  1.00 20.00     0.096 C 
ENDROOT
BRANCH   3   4
HETATM    4  C8  UNL     1     -40.321  13.593   6.343  1.00 20.00     0.061 C 
BRANCH   4   5
HETATM    5  C9  UNL     1     -41.406  13.801   7.418  1.00 20.00     0.300 C 
HETATM    6  C4  UNL     1     -42.467  12.784   7.319  1.00 20.00    -0.081 C 
HETATM    7  C2  UNL     1     -43.331  11.952   7.245  1.00 20.00     0.014 C 
BRANCH   5   8
HETATM    8  N10 UNL     1     -41.992  15.132   7.247  1.00 20.00     0.095 N 
HETATM    9  C5  UNL     1     -42.409  15.330   5.860  1.00 20.00     0.310 C 
HETATM   10  C6  UNL     1     -41.038  16.164   7.647  1.00 20.00     0.310 C 
ENDBRANCH   5   8
ENDBRANCH   4   5
ENDBRANCH   3   4
TORSDOF 3
ENDMDL
MODEL 8
REMARK VINA RESULT:      -3.7     14.605     15.860
REMARK  3 active torsions:
REMARK  status: ('A' for Active; 'I' for Inactive)
REMARK    1  A    between atoms: C7_7  and  C8_8 
REMARK    2  A    between atoms: C8_8  and  C9_9 
REMARK    3  A    between atoms: C9_9  and  N10_10 
ROOT
HETATM    1  C1  UNL     1     -27.168  19.214   6.517  1.00 20.00     0.012 C 
HETATM    2  C3  UNL     1     -26.106  19.236   7.077  1.00 20.00    -0.117 C 
HETATM    3  C7  UNL     1     -24.804  19.263   7.759  1.00 20.00     0.096 C 
ENDROOT
BRANCH   3   4
HETATM    4  C8  UNL     1     -24.935  19.069   9.275  1.00 20.00     0.061 C 
BRANCH   4   5
HETATM    5  C9  UNL     1     -23.595  18.893  10.017  1.00 20.00     0.300 C 
HETATM    6  C4  UNL     1     -22.654  18.064   9.244  1.00 20.00    -0.081 C 
HETATM    7  C2  UNL     1     -21.883  17.392   8.614  1.00 20.00     0.014 C 
BRANCH   5   8
HETATM    8  N10 UNL     1     -23.850  18.261  11.312  1.00 20.00     0.095 N 
HETATM    9  C5  UNL     1     -22.643  18.286  12.136  1.00 20.00     0.310 C 
HETATM   10  C6  UNL     1     -24.315  16.888  11.126  1.00 20.00     0.310 C 
ENDBRANCH   5   8
ENDBRANCH   4   5
ENDBRANCH   3   4
TORSDOF 3
ENDMDL
MODEL 9
REMARK VINA RESULT:      -3.6      1.195      1.898
REMARK  3 active torsions:
REMARK  status: ('A' for Active; 'I' for Inactive)
REMARK    1  A    between atoms: C7_7  and  C8_8 
REMARK    2  A    between atoms: C8_8  and  C9_9 
REMARK    3  A    between atoms: C9_9  and  N10_10 
ROOT
HETATM    1  C1  UNL     1     -32.697   9.005   0.446  1.00 20.00     0.012 C 
HETATM    2  C3  UNL     1     -32.350   8.272   1.332  1.00 20.00    -0.117 C 
HETATM    3  C7  UNL     1     -31.920   7.377   2.416  1.00 20.00     0.096 C 
ENDROOT
BRANCH   3   4
HETATM    4  C8  UNL     1     -33.078   6.539   2.974  1.00 20.00     0.061 C 
BRANCH   4   5
HETATM    5  C9  UNL     1     -33.718   7.105   4.257  1.00 20.00     0.300 C 
HETATM    6  C4  UNL     1     -32.936   8.228   4.802  1.00 20.00    -0.081 C 
HETATM    7  C2  UNL     1     -32.303   9.148   5.245  1.00 20.00     0.014 C 
BRANCH   5   8
HETATM    8  N10 UNL     1     -33.798   6.038   5.257  1.00 20.00     0.095 N 
HETATM    9  C5  UNL     1     -34.558   4.905   4.732  1.00 20.00     0.310 C 
HETATM   10  C6  UNL     1     -34.407   6.538   6.488  1.00 20.00     0.310 C 
ENDBRANCH   5   8
ENDBRANCH   4   5
ENDBRANCH   3   4
TORSDOF 3
ENDMDL
