MODEL 1
REMARK VINA RESULT:      -4.4      0.000      0.000
REMARK  1 active torsions:
REMARK  status: ('A' for Active; 'I' for Inactive)
REMARK    1  A    between atoms: C5_5  and  N8_8 
ROOT
HETATM    1  C1  UNL     1     -34.466   6.254   6.364  1.00 20.00     0.069 A 
HETATM    2  C2  UNL     1     -33.694   7.285   6.014  1.00 20.00     0.095 A 
HETATM    3  C3  UNL     1     -34.569   5.471   5.112  1.00 20.00     0.168 A 
HETATM    4  C6  UNL     1     -33.791   6.134   3.992  1.00 20.00     0.211 A 
HETATM    5  N8  UNL     1     -33.270   7.298   4.701  1.00 20.00    -0.354 N 
HETATM    6  O9  UNL     1     -35.203   4.431   5.015  1.00 20.00    -0.291 OA
ENDROOT
BRANCH   5   7
HETATM    7  C5  UNL     1     -32.482   8.243   4.121  1.00 20.00    -0.002 C 
HETATM    8  C4  UNL     1     -32.034   9.288   4.829  1.00 20.00     0.038 C 
HETATM    9  C7  UNL     1     -32.157   8.038   2.674  1.00 20.00     0.067 C 
ENDBRANCH   5   7
TORSDOF 1
ENDMDL
MODEL 2
REMARK VINA RESULT:      -4.4      0.850      1.945
REMARK  1 active torsions:
REMARK  status: ('A' for Active; 'I' for Inactive)
REMARK    1  A    between atoms: C5_5  and  N8_8 
ROOT
HETATM    1  C1  UNL     1     -34.514   4.921   4.670  1.00 20.00     0.069 A 
HETATM    2  C2  UNL     1     -33.779   5.710   3.883  1.00 20.00     0.095 A 
HETATM    3  C3  UNL     1     -34.578   5.678   5.940  1.00 20.00     0.168 A 
HETATM    4  C6  UNL     1     -33.814   6.984   5.832  1.00 20.00     0.211 A 
HETATM    5  N8  UNL     1     -33.344   6.888   4.454  1.00 20.00    -0.354 N 
HETATM    6  O9  UNL     1     -35.172   5.286   6.932  1.00 20.00    -0.291 OA
ENDROOT
BRANCH   5   7
HETATM    7  C5  UNL     1     -32.587   7.842   3.848  1.00 20.00    -0.002 C 
HETATM    8  C4  UNL     1     -32.186   7.692   2.578  1.00 20.00     0.038 C 
HETATM    9  C7  UNL     1     -32.243   9.040   4.676  1.00 20.00     0.067 C 
ENDBRANCH   5   7
TORSDOF 1
ENDMDL
MODEL 3
REMARK VINA RESULT:      -4.3      2.100      3.627
REMARK  1 active torsions:
REMARK  status: ('A' for Active; 'I' for Inactive)
REMARK    1  A    between atoms: C5_5  and  N8_8 
ROOT
HETATM    1  C1  UNL     1     -32.378   8.748   3.771  1.00 20.00     0.069 A 
HETATM    2  C2  UNL     1     -33.048   8.188   4.780  1.00 20.00     0.095 A 
HETATM    3  C3  UNL     1     -32.385   7.692   2.734  1.00 20.00     0.168 A 
HETATM    4  C6  UNL     1     -33.119   6.457   3.223  1.00 20.00     0.211 A 
HETATM    5  N8  UNL     1     -33.501   6.903   4.560  1.00 20.00    -0.354 N 
HETATM    6  O9  UNL     1     -31.864   7.817   1.637  1.00 20.00    -0.291 OA
ENDROOT
BRANCH   5   7
HETATM    7  C5  UNL     1     -34.203   6.137   5.437  1.00 20.00    -0.002 C 
HETATM    8  C4  UNL     1     -34.454   6.575   6.678  1.00 20.00     0.038 C 
HETATM    9  C7  UNL     1     -34.664   4.806   4.933  1.00 20.00     0.067 C 
ENDBRANCH   5   7
TORSDOF 1
ENDMDL
MODEL 4
REMARK VINA RESULT:      -4.1      2.230      4.101
REMARK  1 active torsions:
REMARK  status: ('A' for Active; 'I' for Inactive)
REMARK    1  A    between atoms: C5_5  and  N8_8 
ROOT
HETATM    1  C1  UNL     1     -32.162   7.879   3.220  1.00 20.00     0.069 A 
HETATM    2  C2  UNL     1     -32.800   6.717   3.377  1.00 20.00     0.095 A 
HETATM    3  C3  UNL     1     -32.424   8.582   4.496  1.00 20.00     0.168 A 
HETATM    4  C6  UNL     1     -33.275   7.731   5.419  1.00 20.00     0.211 A 
HETATM    5  N8  UNL     1     -33.451   6.549   4.582  1.00 20.00    -0.354 N 
HETATM    6  O9  UNL     1     -32.002   9.699   4.752  1.00 20.00    -0.291 OA
ENDROOT
BRANCH   5   7
HETATM    7  C5  UNL     1     -34.163   5.454   4.964  1.00 20.00    -0.002 C 
HETATM    8  C4  UNL     1     -34.216   4.367   4.183  1.00 20.00     0.038 C 
HETATM    9  C7  UNL     1     -34.862   5.546   6.284  1.00 20.00     0.067 C 
ENDBRANCH   5   7
TORSDOF 1
ENDMDL
MODEL 5
REMARK VINA RESULT:      -4.0      1.764      2.638
REMARK  1 active torsions:
REMARK  status: ('A' for Active; 'I' for Inactive)
REMARK    1  A    between atoms: C5_5  and  N8_8 
ROOT
HETATM    1  C1  UNL     1     -34.795   5.382   5.863  1.00 20.00     0.069 A 
HETATM    2  C2  UNL     1     -34.295   5.116   4.654  1.00 20.00     0.095 A 
HETATM    3  C3  UNL     1     -34.272   6.735   6.154  1.00 20.00     0.168 A 
HETATM    4  C6  UNL     1     -33.418   7.244   5.009  1.00 20.00     0.211 A 
HETATM    5  N8  UNL     1     -33.511   6.107   4.099  1.00 20.00    -0.354 N 
HETATM    6  O9  UNL     1     -34.508   7.344   7.186  1.00 20.00    -0.291 OA
ENDROOT
BRANCH   5   7
HETATM    7  C5  UNL     1     -32.899   6.061   2.885  1.00 20.00    -0.002 C 
HETATM    8  C4  UNL     1     -32.914   4.939   2.154  1.00 20.00     0.038 C 
HETATM    9  C7  UNL     1     -32.228   7.320   2.434  1.00 20.00     0.067 C 
ENDBRANCH   5   7
TORSDOF 1
ENDMDL
MODEL 6
REMARK VINA RESULT:      -4.0      2.147      3.670
REMARK  1 active torsions:
REMARK  status: ('A' for Active; 'I' for Inactive)
REMARK    1  A    between atoms: C5_5  and  N8_8 
ROOT
HETATM    1  C1  UNL     1     -32.941   5.649   2.528  1.00 20.00     0.069 A 
HETATM    2  C2  UNL     1     -33.540   5.420   3.699  1.00 20.00     0.095 A 
HETATM    3  C3  UNL     1     -32.508   7.059   2.642  1.00 20.00     0.168 A 
HETATM    4  C6  UNL     1     -32.906   7.642   3.984  1.00 20.00     0.211 A 
HETATM    5  N8  UNL     1     -33.567   6.484   4.577  1.00 20.00    -0.354 N 
HETATM    6  O9  UNL     1     -31.910   7.657   1.761  1.00 20.00    -0.291 OA
ENDROOT
BRANCH   5   7
HETATM    7  C5  UNL     1     -34.118   6.485   5.821  1.00 20.00    -0.002 C 
HETATM    8  C4  UNL     1     -34.047   7.573   6.598  1.00 20.00     0.038 C 
HETATM    9  C7  UNL     1     -34.793   5.220   6.247  1.00 20.00     0.067 C 
ENDBRANCH   5   7
TORSDOF 1
ENDMDL
MODEL 7
REMARK VINA RESULT:      -3.9      2.339      3.546
REMARK  1 active torsions:
REMARK  status: ('A' for Active; 'I' for Inactive)
REMARK    1  A    between atoms: C5_5  and  N8_8 
ROOT
HETATM    1  C1  UNL     1     -33.545   8.464   5.704  1.00 20.00     0.069 A 
HETATM    2  C2  UNL     1     -33.957   7.229   5.409  1.00 20.00     0.095 A 
HETATM    3  C3  UNL     1     -32.547   8.747   4.649  1.00 20.00     0.168 A 
HETATM    4  C6  UNL     1     -32.406   7.568   3.705  1.00 20.00     0.211 A 
HETATM    5  N8  UNL     1     -33.370   6.650   4.303  1.00 20.00    -0.354 N 
HETATM    6  O9  UNL     1     -31.929   9.797   4.566  1.00 20.00    -0.291 OA
ENDROOT
BRANCH   5   7
HETATM    7  C5  UNL     1     -33.631   5.407   3.813  1.00 20.00    -0.002 C 
HETATM    8  C4  UNL     1     -34.389   4.546   4.504  1.00 20.00     0.038 C 
HETATM    9  C7  UNL     1     -33.027   5.079   2.484  1.00 20.00     0.067 C 
ENDBRANCH   5   7
TORSDOF 1
ENDMDL
MODEL 8
REMARK VINA RESULT:      -3.7      1.696      3.099
REMARK  1 active torsions:
REMARK  status: ('A' for Active; 'I' for Inactive)
REMARK    1  A    between atoms: C5_5  and  N8_8 
ROOT
HETATM    1  C1  UNL     1     -32.186   6.794   2.545  1.00 20.00     0.069 A 
HETATM    2  C2  UNL     1     -32.542   7.456   3.649  1.00 20.00     0.095 A 
HETATM    3  C3  UNL     1     -32.936   5.523   2.658  1.00 20.00     0.168 A 
HETATM    4  C6  UNL     1     -33.765   5.494   3.928  1.00 20.00     0.211 A 
HETATM    5  N8  UNL     1     -33.425   6.801   4.482  1.00 20.00    -0.354 N 
HETATM    6  O9  UNL     1     -32.881   4.629   1.829  1.00 20.00    -0.291 OA
ENDROOT
BRANCH   5   7
HETATM    7  C5  UNL     1     -33.926   7.276   5.654  1.00 20.00    -0.002 C 
HETATM    8  C4  UNL     1     -33.825   8.575   5.964  1.00 20.00     0.038 C 
HETATM    9  C7  UNL     1     -34.580   6.271   6.550  1.00 20.00     0.067 C 
ENDBRANCH   5   7
TORSDOF 1
ENDMDL
MODEL 9
REMARK VINA RESULT:      -3.6      1.546      2.401
REMARK  1 active torsions:
REMARK  status: ('A' for Active; 'I' for Inactive)
REMARK    1  A    between atoms: C5_5  and  N8_8 
ROOT
HETATM    1  C1  UNL     1     -33.256   8.423   5.758  1.00 20.00     0.069 A 
HETATM    2  C2  UNL     1     -32.746   8.246   4.537  1.00 20.00     0.095 A 
HETATM    3  C3  UNL     1     -34.005   7.169   5.996  1.00 20.00     0.168 A 
HETATM    4  C6  UNL     1     -33.892   6.236   4.805  1.00 20.00     0.211 A 
HETATM    5  N8  UNL     1     -33.052   7.047   3.928  1.00 20.00    -0.354 N 
HETATM    6  O9  UNL     1     -34.626   6.935   7.021  1.00 20.00    -0.291 OA
ENDROOT
BRANCH   5   7
HETATM    7  C5  UNL     1     -32.646   6.647   2.693  1.00 20.00    -0.002 C 
HETATM    8  C4  UNL     1     -32.122   7.525   1.828  1.00 20.00     0.038 C 
HETATM    9  C7  UNL     1     -32.820   5.195   2.377  1.00 20.00     0.067 C 
ENDBRANCH   5   7
TORSDOF 1
ENDMDL
