MODEL 1
REMARK VINA RESULT:      -6.1      0.000      0.000
REMARK  1 active torsions:
REMARK  status: ('A' for Active; 'I' for Inactive)
REMARK    1  A    between atoms: C5_5  and  C7_7 
ROOT
HETATM    1  C1  UNL     1     -34.991   5.206   5.294  1.00 20.00    -0.026 A 
HETATM    2  C2  UNL     1     -34.787   5.808   4.113  1.00 20.00    -0.013 A 
HETATM    3  C3  UNL     1     -33.611   6.976   6.432  1.00 20.00    -0.019 A 
HETATM    4  C4  UNL     1     -33.398   7.595   5.256  1.00 20.00    -0.071 A 
HETATM    5  C6  UNL     1     -34.393   5.703   6.576  1.00 20.00     0.054 A 
HETATM    6  C7  UNL     1     -33.931   7.032   3.958  1.00 20.00     0.123 A 
HETATM    7  C8  UNL     1     -32.654   8.899   5.181  1.00 20.00     0.044 C 
ENDROOT
BRANCH   6   8
HETATM    8  C5  UNL     1     -32.765   6.610   3.116  1.00 20.00     0.230 C 
HETATM    9  O9  UNL     1     -31.872   7.395   2.810  1.00 20.00    -0.279 OA
HETATM   10 CL10 UNL     1     -32.859   4.936   2.659  1.00 20.00    -0.043 Cl
ENDBRANCH   6   8
TORSDOF 1
ENDMDL
MODEL 2
REMARK VINA RESULT:      -5.9      1.176      1.176
REMARK  1 active torsions:
REMARK  status: ('A' for Active; 'I' for Inactive)
REMARK    1  A    between atoms: C5_5  and  C7_7 
ROOT
HETATM    1  C1  UNL     1     -35.069   5.279   5.378  1.00 20.00    -0.026 A 
HETATM    2  C2  UNL     1     -34.893   5.802   4.156  1.00 20.00    -0.013 A 
HETATM    3  C3  UNL     1     -33.494   6.994   6.334  1.00 20.00    -0.019 A 
HETATM    4  C4  UNL     1     -33.307   7.532   5.114  1.00 20.00    -0.071 A 
HETATM    5  C6  UNL     1     -34.358   5.795   6.594  1.00 20.00     0.054 A 
HETATM    6  C7  UNL     1     -33.960   6.946   3.883  1.00 20.00     0.123 A 
HETATM    7  C8  UNL     1     -32.474   8.769   4.923  1.00 20.00     0.044 C 
ENDROOT
BRANCH   6   8
HETATM    8  C5  UNL     1     -32.882   6.392   3.000  1.00 20.00     0.230 C 
HETATM    9  O9  UNL     1     -32.600   5.198   2.999  1.00 20.00    -0.279 OA
HETATM   10 CL10 UNL     1     -32.133   7.623   2.031  1.00 20.00    -0.043 Cl
ENDBRANCH   6   8
TORSDOF 1
ENDMDL
MODEL 3
REMARK VINA RESULT:      -5.8      2.201      3.458
REMARK  1 active torsions:
REMARK  status: ('A' for Active; 'I' for Inactive)
REMARK    1  A    between atoms: C5_5  and  C7_7 
ROOT
HETATM    1  C1  UNL     1     -33.521   8.346   5.197  1.00 20.00    -0.026 A 
HETATM    2  C2  UNL     1     -34.456   7.393   5.066  1.00 20.00    -0.013 A 
HETATM    3  C3  UNL     1     -32.140   7.232   3.412  1.00 20.00    -0.019 A 
HETATM    4  C4  UNL     1     -33.069   6.269   3.266  1.00 20.00    -0.071 A 
HETATM    5  C6  UNL     1     -32.244   8.347   4.412  1.00 20.00     0.054 A 
HETATM    6  C7  UNL     1     -34.310   6.230   4.128  1.00 20.00     0.123 A 
HETATM    7  C8  UNL     1     -32.938   5.209   2.208  1.00 20.00     0.044 C 
ENDROOT
BRANCH   6   8
HETATM    8  C5  UNL     1     -34.238   5.011   4.999  1.00 20.00     0.230 C 
HETATM    9  O9  UNL     1     -34.079   3.890   4.527  1.00 20.00    -0.279 OA
HETATM   10 CL10 UNL     1     -34.406   5.400   6.684  1.00 20.00    -0.043 Cl
ENDBRANCH   6   8
TORSDOF 1
ENDMDL
MODEL 4
REMARK VINA RESULT:      -5.3      1.322      1.591
REMARK  1 active torsions:
REMARK  status: ('A' for Active; 'I' for Inactive)
REMARK    1  A    between atoms: C5_5  and  C7_7 
ROOT
HETATM    1  C1  UNL     1     -34.856   6.103   6.330  1.00 20.00    -0.026 A 
HETATM    2  C2  UNL     1     -35.035   5.740   5.052  1.00 20.00    -0.013 A 
HETATM    3  C3  UNL     1     -33.119   7.776   5.608  1.00 20.00    -0.019 A 
HETATM    4  C4  UNL     1     -33.288   7.425   4.320  1.00 20.00    -0.071 A 
HETATM    5  C6  UNL     1     -33.851   7.134   6.751  1.00 20.00     0.054 A 
HETATM    6  C7  UNL     1     -34.239   6.321   3.919  1.00 20.00     0.123 A 
HETATM    7  C8  UNL     1     -32.568   8.144   3.212  1.00 20.00     0.044 C 
ENDROOT
BRANCH   6   8
HETATM    8  C5  UNL     1     -33.433   5.186   3.363  1.00 20.00     0.230 C 
HETATM    9  O9  UNL     1     -32.756   5.312   2.347  1.00 20.00    -0.279 OA
HETATM   10 CL10 UNL     1     -33.591   3.742   4.316  1.00 20.00    -0.043 Cl
ENDBRANCH   6   8
TORSDOF 1
ENDMDL
MODEL 5
REMARK VINA RESULT:      -4.9      2.202      3.759
REMARK  1 active torsions:
REMARK  status: ('A' for Active; 'I' for Inactive)
REMARK    1  A    between atoms: C5_5  and  C7_7 
ROOT
HETATM    1  C1  UNL     1     -32.715   8.602   3.659  1.00 20.00    -0.026 A 
HETATM    2  C2  UNL     1     -33.721   8.308   4.495  1.00 20.00    -0.013 A 
HETATM    3  C3  UNL     1     -32.566   6.180   2.992  1.00 20.00    -0.019 A 
HETATM    4  C4  UNL     1     -33.576   5.867   3.825  1.00 20.00    -0.071 A 
HETATM    5  C6  UNL     1     -32.003   7.563   2.844  1.00 20.00     0.054 A 
HETATM    6  C7  UNL     1     -34.225   6.910   4.707  1.00 20.00     0.123 A 
HETATM    7  C8  UNL     1     -34.137   4.474   3.888  1.00 20.00     0.044 C 
ENDROOT
BRANCH   6   8
HETATM    8  C5  UNL     1     -33.913   6.576   6.135  1.00 20.00     0.230 C 
HETATM    9  O9  UNL     1     -33.032   7.161   6.757  1.00 20.00    -0.279 OA
HETATM   10 CL10 UNL     1     -34.928   5.305   6.746  1.00 20.00    -0.043 Cl
ENDBRANCH   6   8
TORSDOF 1
ENDMDL
MODEL 6
REMARK VINA RESULT:      -4.8      1.713      2.649
REMARK  1 active torsions:
REMARK  status: ('A' for Active; 'I' for Inactive)
REMARK    1  A    between atoms: C5_5  and  C7_7 
ROOT
HETATM    1  C1  UNL     1     -34.320   6.534   6.547  1.00 20.00    -0.026 A 
HETATM    2  C2  UNL     1     -33.320   7.197   5.948  1.00 20.00    -0.013 A 
HETATM    3  C3  UNL     1     -34.522   5.031   4.538  1.00 20.00    -0.019 A 
HETATM    4  C4  UNL     1     -33.519   5.684   3.923  1.00 20.00    -0.071 A 
HETATM    5  C6  UNL     1     -35.055   5.403   5.891  1.00 20.00     0.054 A 
HETATM    6  C7  UNL     1     -32.847   6.880   4.558  1.00 20.00     0.123 A 
HETATM    7  C8  UNL     1     -32.989   5.230   2.591  1.00 20.00     0.044 C 
ENDROOT
BRANCH   6   8
HETATM    8  C5  UNL     1     -33.165   8.090   3.733  1.00 20.00     0.230 C 
HETATM    9  O9  UNL     1     -34.043   8.882   4.061  1.00 20.00    -0.279 OA
HETATM   10 CL10 UNL     1     -32.161   8.201   2.319  1.00 20.00    -0.043 Cl
ENDBRANCH   6   8
TORSDOF 1
ENDMDL
MODEL 7
REMARK VINA RESULT:      -4.8      1.942      3.101
REMARK  1 active torsions:
REMARK  status: ('A' for Active; 'I' for Inactive)
REMARK    1  A    between atoms: C5_5  and  C7_7 
ROOT
HETATM    1  C1  UNL     1     -33.206   8.381   5.396  1.00 20.00    -0.026 A 
HETATM    2  C2  UNL     1     -32.227   8.430   4.481  1.00 20.00    -0.013 A 
HETATM    3  C3  UNL     1     -34.056   6.247   4.367  1.00 20.00    -0.019 A 
HETATM    4  C4  UNL     1     -33.077   6.280   3.443  1.00 20.00    -0.071 A 
HETATM    5  C6  UNL     1     -34.250   7.304   5.414  1.00 20.00     0.054 A 
HETATM    6  C7  UNL     1     -32.086   7.419   3.381  1.00 20.00     0.123 A 
HETATM    7  C8  UNL     1     -32.898   5.162   2.453  1.00 20.00     0.044 C 
ENDROOT
BRANCH   6   8
HETATM    8  C5  UNL     1     -32.316   8.171   2.104  1.00 20.00     0.230 C 
HETATM    9  O9  UNL     1     -31.984   7.712   1.016  1.00 20.00    -0.279 OA
HETATM   10 CL10 UNL     1     -33.080   9.708   2.379  1.00 20.00    -0.043 Cl
ENDBRANCH   6   8
TORSDOF 1
ENDMDL
MODEL 8
REMARK VINA RESULT:      -4.6      2.206      3.574
REMARK  1 active torsions:
REMARK  status: ('A' for Active; 'I' for Inactive)
REMARK    1  A    between atoms: C5_5  and  C7_7 
ROOT
HETATM    1  C1  UNL     1     -32.462   6.653   2.388  1.00 20.00    -0.026 A 
HETATM    2  C2  UNL     1     -32.995   7.595   3.178  1.00 20.00    -0.013 A 
HETATM    3  C3  UNL     1     -33.704   4.879   3.670  1.00 20.00    -0.019 A 
HETATM    4  C4  UNL     1     -34.250   5.812   4.472  1.00 20.00    -0.071 A 
HETATM    5  C6  UNL     1     -32.729   5.188   2.572  1.00 20.00     0.054 A 
HETATM    6  C7  UNL     1     -33.902   7.276   4.332  1.00 20.00     0.123 A 
HETATM    7  C8  UNL     1     -35.266   5.448   5.518  1.00 20.00     0.044 C 
ENDROOT
BRANCH   6   8
HETATM    8  C5  UNL     1     -33.161   7.702   5.563  1.00 20.00     0.230 C 
HETATM    9  O9  UNL     1     -33.237   7.070   6.613  1.00 20.00    -0.279 OA
HETATM   10 CL10 UNL     1     -32.227   9.143   5.300  1.00 20.00    -0.043 Cl
ENDBRANCH   6   8
TORSDOF 1
ENDMDL
MODEL 9
REMARK VINA RESULT:      -4.6      2.027      3.164
REMARK  1 active torsions:
REMARK  status: ('A' for Active; 'I' for Inactive)
REMARK    1  A    between atoms: C5_5  and  C7_7 
ROOT
HETATM    1  C1  UNL     1     -32.445   7.467   2.598  1.00 20.00    -0.026 A 
HETATM    2  C2  UNL     1     -32.548   6.268   3.191  1.00 20.00    -0.013 A 
HETATM    3  C3  UNL     1     -33.431   8.559   4.640  1.00 20.00    -0.019 A 
HETATM    4  C4  UNL     1     -33.539   7.364   5.251  1.00 20.00    -0.071 A 
HETATM    5  C6  UNL     1     -32.911   8.738   3.243  1.00 20.00     0.054 A 
HETATM    6  C7  UNL     1     -33.149   6.081   4.554  1.00 20.00     0.123 A 
HETATM    7  C8  UNL     1     -34.013   7.253   6.674  1.00 20.00     0.044 C 
ENDROOT
BRANCH   6   8
HETATM    8  C5  UNL     1     -34.389   5.266   4.344  1.00 20.00     0.230 C 
HETATM    9  O9  UNL     1     -34.371   4.039   4.390  1.00 20.00    -0.279 OA
HETATM   10 CL10 UNL     1     -35.782   6.260   4.041  1.00 20.00    -0.043 Cl
ENDBRANCH   6   8
TORSDOF 1
ENDMDL
