MODEL 1
REMARK VINA RESULT:      -4.5      0.000      0.000
REMARK  0 active torsions:
REMARK  status: ('A' for Active; 'I' for Inactive)
ROOT
HETATM    1  C1  UNL     1     -22.472  18.142  11.814  1.00 20.00     0.223 A 
HETATM    2  C2  UNL     1     -24.250  16.666  11.266  1.00 20.00     0.128 A 
HETATM    3  C3  UNL     1     -23.223  18.791  10.711  1.00 20.00     0.092 A 
HETATM    4  C4  UNL     1     -24.345  17.846  10.346  1.00 20.00     0.026 A 
HETATM    5  C5  UNL     1     -23.296  18.215   9.312  1.00 20.00    -0.029 A 
HETATM    6  C6  UNL     1     -23.726  19.149   8.208  1.00 20.00     0.016 C 
HETATM    7  C7  UNL     1     -22.281  17.195   8.863  1.00 20.00     0.016 C 
HETATM    8  N8  UNL     1     -23.108  16.949  12.109  1.00 20.00    -0.360 N 
HETATM    9  O9  UNL     1     -21.481  18.629  12.331  1.00 20.00    -0.273 OA
HETATM   10  H20 UNL     1     -22.787  16.318  12.838  1.00 20.00     0.162 HD
ENDROOT
TORSDOF 0
ENDMDL
MODEL 2
REMARK VINA RESULT:      -4.3      1.847      3.037
REMARK  0 active torsions:
REMARK  status: ('A' for Active; 'I' for Inactive)
ROOT
HETATM    1  C1  UNL     1     -22.766  18.239  10.071  1.00 20.00     0.223 A 
HETATM    2  C2  UNL     1     -22.038  18.394  12.326  1.00 20.00     0.128 A 
HETATM    3  C3  UNL     1     -23.959  18.625  10.864  1.00 20.00     0.092 A 
HETATM    4  C4  UNL     1     -23.505  18.707  12.304  1.00 20.00     0.026 A 
HETATM    5  C5  UNL     1     -24.587  17.719  11.903  1.00 20.00    -0.029 A 
HETATM    6  C6  UNL     1     -25.997  18.043  12.332  1.00 20.00     0.016 C 
HETATM    7  C7  UNL     1     -24.297  16.240  11.888  1.00 20.00     0.016 C 
HETATM    8  N8  UNL     1     -21.695  18.143  10.942  1.00 20.00    -0.360 N 
HETATM    9  O9  UNL     1     -22.790  18.061   8.864  1.00 20.00    -0.273 OA
HETATM   10  H20 UNL     1     -20.758  17.896  10.640  1.00 20.00     0.162 HD
ENDROOT
TORSDOF 0
ENDMDL
MODEL 3
REMARK VINA RESULT:      -4.1      2.483      3.470
REMARK  0 active torsions:
REMARK  status: ('A' for Active; 'I' for Inactive)
ROOT
HETATM    1  C1  UNL     1     -23.200  18.739   8.319  1.00 20.00     0.223 A 
HETATM    2  C2  UNL     1     -21.295  17.552   9.093  1.00 20.00     0.128 A 
HETATM    3  C3  UNL     1     -23.034  19.110   9.746  1.00 20.00     0.092 A 
HETATM    4  C4  UNL     1     -21.833  18.342  10.249  1.00 20.00     0.026 A 
HETATM    5  C5  UNL     1     -23.196  18.119  10.880  1.00 20.00    -0.029 A 
HETATM    6  C6  UNL     1     -23.408  18.687  12.262  1.00 20.00     0.016 C 
HETATM    7  C7  UNL     1     -23.936  16.826  10.651  1.00 20.00     0.016 C 
HETATM    8  N8  UNL     1     -22.174  17.870   7.989  1.00 20.00    -0.360 N 
HETATM    9  O9  UNL     1     -24.099  19.165   7.614  1.00 20.00    -0.273 OA
HETATM   10  H20 UNL     1     -22.063  17.475   7.060  1.00 20.00     0.162 HD
ENDROOT
TORSDOF 0
ENDMDL
MODEL 4
REMARK VINA RESULT:      -4.0     24.479     25.092
REMARK  0 active torsions:
REMARK  status: ('A' for Active; 'I' for Inactive)
ROOT
HETATM    1  C1  UNL     1     -42.664   4.929  -0.924  1.00 20.00     0.223 A 
HETATM    2  C2  UNL     1     -42.414   5.004   1.436  1.00 20.00     0.128 A 
HETATM    3  C3  UNL     1     -41.628   5.956  -0.651  1.00 20.00     0.092 A 
HETATM    4  C4  UNL     1     -41.479   6.021   0.852  1.00 20.00     0.026 A 
HETATM    5  C5  UNL     1     -41.923   7.251   0.079  1.00 20.00    -0.029 A 
HETATM    6  C6  UNL     1     -40.915   8.364  -0.067  1.00 20.00     0.016 C 
HETATM    7  C7  UNL     1     -43.342   7.747   0.192  1.00 20.00     0.016 C 
HETATM    8  N8  UNL     1     -43.062   4.401   0.292  1.00 20.00    -0.360 N 
HETATM    9  O9  UNL     1     -43.048   4.642  -2.045  1.00 20.00    -0.273 OA
HETATM   10  H20 UNL     1     -43.763   3.671   0.374  1.00 20.00     0.162 HD
ENDROOT
TORSDOF 0
ENDMDL
MODEL 5
REMARK VINA RESULT:      -3.8     14.331     15.533
REMARK  0 active torsions:
REMARK  status: ('A' for Active; 'I' for Inactive)
ROOT
HETATM    1  C1  UNL     1     -31.789  18.642  -0.579  1.00 20.00     0.223 A 
HETATM    2  C2  UNL     1     -34.117  18.615  -0.110  1.00 20.00     0.128 A 
HETATM    3  C3  UNL     1     -32.467  19.061  -1.831  1.00 20.00     0.092 A 
HETATM    4  C4  UNL     1     -33.951  19.028  -1.542  1.00 20.00     0.026 A 
HETATM    5  C5  UNL     1     -33.367  18.141  -2.629  1.00 20.00    -0.029 A 
HETATM    6  C6  UNL     1     -33.656  18.533  -4.057  1.00 20.00     0.016 C 
HETATM    7  C7  UNL     1     -33.287  16.649  -2.429  1.00 20.00     0.016 C 
HETATM    8  N8  UNL     1     -32.767  18.423   0.375  1.00 20.00    -0.360 N 
HETATM    9  O9  UNL     1     -30.578  18.537  -0.473  1.00 20.00    -0.273 OA
HETATM   10  H20 UNL     1     -32.556  18.132   1.325  1.00 20.00     0.162 HD
ENDROOT
TORSDOF 0
ENDMDL
MODEL 6
REMARK VINA RESULT:      -3.8     19.154     20.260
REMARK  0 active torsions:
REMARK  status: ('A' for Active; 'I' for Inactive)
ROOT
HETATM    1  C1  UNL     1     -35.838  14.101  -4.881  1.00 20.00     0.223 A 
HETATM    2  C2  UNL     1     -33.508  14.502  -4.653  1.00 20.00     0.128 A 
HETATM    3  C3  UNL     1     -35.424  14.839  -6.100  1.00 20.00     0.092 A 
HETATM    4  C4  UNL     1     -33.945  15.113  -5.951  1.00 20.00     0.026 A 
HETATM    5  C5  UNL     1     -34.924  16.269  -6.069  1.00 20.00    -0.029 A 
HETATM    6  C6  UNL     1     -34.930  17.025  -7.375  1.00 20.00     0.016 C 
HETATM    7  C7  UNL     1     -35.214  17.143  -4.876  1.00 20.00     0.016 C 
HETATM    8  N8  UNL     1     -34.710  13.914  -4.101  1.00 20.00    -0.360 N 
HETATM    9  O9  UNL     1     -36.984  13.745  -4.667  1.00 20.00    -0.273 OA
HETATM   10  H20 UNL     1     -34.730  13.426  -3.211  1.00 20.00     0.162 HD
ENDROOT
TORSDOF 0
ENDMDL
MODEL 7
REMARK VINA RESULT:      -3.8     16.115     16.841
REMARK  0 active torsions:
REMARK  status: ('A' for Active; 'I' for Inactive)
ROOT
HETATM    1  C1  UNL     1     -34.283   5.536   5.978  1.00 20.00     0.223 A 
HETATM    2  C2  UNL     1     -35.703   6.342   4.254  1.00 20.00     0.128 A 
HETATM    3  C3  UNL     1     -33.846   6.927   5.699  1.00 20.00     0.092 A 
HETATM    4  C4  UNL     1     -34.736   7.437   4.588  1.00 20.00     0.026 A 
HETATM    5  C5  UNL     1     -33.234   7.349   4.380  1.00 20.00    -0.029 A 
HETATM    6  C6  UNL     1     -32.470   8.651   4.364  1.00 20.00     0.016 C 
HETATM    7  C7  UNL     1     -32.656   6.313   3.450  1.00 20.00     0.016 C 
HETATM    8  N8  UNL     1     -35.355   5.259   5.149  1.00 20.00    -0.360 N 
HETATM    9  O9  UNL     1     -33.753   4.819   6.811  1.00 20.00    -0.273 OA
HETATM   10  H20 UNL     1     -35.840   4.366   5.153  1.00 20.00     0.162 HD
ENDROOT
TORSDOF 0
ENDMDL
MODEL 8
REMARK VINA RESULT:      -3.7     15.356     16.621
REMARK  0 active torsions:
REMARK  status: ('A' for Active; 'I' for Inactive)
ROOT
HETATM    1  C1  UNL     1     -33.210  16.874  -3.282  1.00 20.00     0.223 A 
HETATM    2  C2  UNL     1     -33.638  19.209  -3.345  1.00 20.00     0.128 A 
HETATM    3  C3  UNL     1     -33.869  17.208  -1.994  1.00 20.00     0.092 A 
HETATM    4  C4  UNL     1     -34.126  18.698  -2.023  1.00 20.00     0.026 A 
HETATM    5  C5  UNL     1     -33.232  18.101  -0.950  1.00 20.00    -0.029 A 
HETATM    6  C6  UNL     1     -33.796  18.032   0.448  1.00 20.00     0.016 C 
HETATM    7  C7  UNL     1     -31.745  18.350  -0.976  1.00 20.00     0.016 C 
HETATM    8  N8  UNL     1     -33.123  18.039  -4.024  1.00 20.00    -0.360 N 
HETATM    9  O9  UNL     1     -32.842  15.749  -3.576  1.00 20.00    -0.273 OA
HETATM   10  H20 UNL     1     -32.714  18.073  -4.952  1.00 20.00     0.162 HD
ENDROOT
TORSDOF 0
ENDMDL
MODEL 9
REMARK VINA RESULT:      -3.7     24.012     24.682
REMARK  0 active torsions:
REMARK  status: ('A' for Active; 'I' for Inactive)
ROOT
HETATM    1  C1  UNL     1     -42.512   8.127  -0.220  1.00 20.00     0.223 A 
HETATM    2  C2  UNL     1     -40.427   6.991  -0.224  1.00 20.00     0.128 A 
HETATM    3  C3  UNL     1     -42.630   7.044   0.788  1.00 20.00     0.092 A 
HETATM    4  C4  UNL     1     -41.310   6.307   0.776  1.00 20.00     0.026 A 
HETATM    5  C5  UNL     1     -42.593   5.574   0.427  1.00 20.00    -0.029 A 
HETATM    6  C6  UNL     1     -43.124   4.603   1.454  1.00 20.00     0.016 C 
HETATM    7  C7  UNL     1     -42.858   5.139  -0.991  1.00 20.00     0.016 C 
HETATM    8  N8  UNL     1     -41.235   8.070  -0.750  1.00 20.00    -0.360 N 
HETATM    9  O9  UNL     1     -43.417   8.902  -0.483  1.00 20.00    -0.273 OA
HETATM   10  H20 UNL     1     -40.904   8.715  -1.462  1.00 20.00     0.162 HD
ENDROOT
TORSDOF 0
ENDMDL
