MODEL 1
REMARK VINA RESULT:      -4.1      0.000      0.000
REMARK  1 active torsions:
REMARK  status: ('A' for Active; 'I' for Inactive)
REMARK    1  A    between atoms: C7_7  and  C10_10 
ROOT
HETATM    1  C1  UNL     1     -31.864   8.208   0.601  1.00 20.00     0.015 C 
HETATM    2  C2  UNL     1     -32.068   7.934   1.752  1.00 20.00    -0.085 C 
HETATM    3  C3  UNL     1     -33.318   8.435   5.285  1.00 20.00    -0.018 C 
HETATM    4  C4  UNL     1     -33.621   7.162   5.594  1.00 20.00    -0.059 C 
HETATM    5  C5  UNL     1     -32.811   8.825   3.929  1.00 20.00     0.072 C 
HETATM    6  C6  UNL     1     -32.318   7.599   3.159  1.00 20.00     0.203 C 
HETATM    7  C7  UNL     1     -33.498   6.061   4.555  1.00 20.00     0.151 C 
HETATM    8  C8  UNL     1     -34.044   6.779   6.983  1.00 20.00     0.046 C 
HETATM    9  O11 UNL     1     -33.324   6.587   3.225  1.00 20.00    -0.364 OA
ENDROOT
BRANCH   7  10
HETATM   10  C10 UNL     1     -34.726   5.157   4.487  1.00 20.00     0.032 C 
HETATM   11  C9  UNL     1     -35.960   5.927   4.152  1.00 20.00     0.008 C 
ENDBRANCH   7  10
TORSDOF 1
ENDMDL
MODEL 2
REMARK VINA RESULT:      -4.1     11.571     13.390
REMARK  1 active torsions:
REMARK  status: ('A' for Active; 'I' for Inactive)
REMARK    1  A    between atoms: C7_7  and  C10_10 
ROOT
HETATM    1  C1  UNL     1     -33.611  17.421  -0.993  1.00 20.00     0.015 C 
HETATM    2  C2  UNL     1     -33.594  17.151  -2.163  1.00 20.00    -0.085 C 
HETATM    3  C3  UNL     1     -33.813  14.964  -5.239  1.00 20.00    -0.018 C 
HETATM    4  C4  UNL     1     -34.324  15.854  -6.106  1.00 20.00    -0.059 C 
HETATM    5  C5  UNL     1     -33.567  15.307  -3.801  1.00 20.00     0.072 C 
HETATM    6  C6  UNL     1     -33.573  16.822  -3.593  1.00 20.00     0.203 C 
HETATM    7  C7  UNL     1     -34.713  17.249  -5.647  1.00 20.00     0.151 C 
HETATM    8  C8  UNL     1     -34.482  15.519  -7.561  1.00 20.00     0.046 C 
HETATM    9  O11 UNL     1     -34.742  17.359  -4.212  1.00 20.00    -0.364 OA
ENDROOT
BRANCH   7  10
HETATM   10  C10 UNL     1     -36.099  17.675  -6.126  1.00 20.00     0.032 C 
HETATM   11  C9  UNL     1     -37.182  17.036  -5.320  1.00 20.00     0.008 C 
ENDBRANCH   7  10
TORSDOF 1
ENDMDL
MODEL 3
REMARK VINA RESULT:      -4.0     11.172     12.949
REMARK  1 active torsions:
REMARK  status: ('A' for Active; 'I' for Inactive)
REMARK    1  A    between atoms: C7_7  and  C10_10 
ROOT
HETATM    1  C1  UNL     1     -31.304  18.562   0.052  1.00 20.00     0.015 C 
HETATM    2  C2  UNL     1     -32.075  18.399  -0.855  1.00 20.00    -0.085 C 
HETATM    3  C3  UNL     1     -33.580  18.914  -4.285  1.00 20.00    -0.018 C 
HETATM    4  C4  UNL     1     -34.052  17.675  -4.507  1.00 20.00    -0.059 C 
HETATM    5  C5  UNL     1     -32.816  19.263  -3.043  1.00 20.00     0.072 C 
HETATM    6  C6  UNL     1     -33.017  18.199  -1.963  1.00 20.00     0.203 C 
HETATM    7  C7  UNL     1     -33.790  16.556  -3.513  1.00 20.00     0.151 C 
HETATM    8  C8  UNL     1     -34.889  17.367  -5.714  1.00 20.00     0.046 C 
HETATM    9  O11 UNL     1     -32.789  16.915  -2.543  1.00 20.00    -0.364 OA
ENDROOT
BRANCH   7  10
HETATM   10  C10 UNL     1     -33.292  15.272  -4.171  1.00 20.00     0.032 C 
HETATM   11  C9  UNL     1     -34.341  14.209  -4.171  1.00 20.00     0.008 C 
ENDBRANCH   7  10
TORSDOF 1
ENDMDL
MODEL 4
REMARK VINA RESULT:      -3.9     10.190     11.271
REMARK  1 active torsions:
REMARK  status: ('A' for Active; 'I' for Inactive)
REMARK    1  A    between atoms: C7_7  and  C10_10 
ROOT
HETATM    1  C1  UNL     1     -39.249  11.754   4.656  1.00 20.00     0.015 C 
HETATM    2  C2  UNL     1     -40.058  12.465   5.188  1.00 20.00    -0.085 C 
HETATM    3  C3  UNL     1     -42.861  13.400   7.546  1.00 20.00    -0.018 C 
HETATM    4  C4  UNL     1     -42.522  14.676   7.798  1.00 20.00    -0.059 C 
HETATM    5  C5  UNL     1     -42.025  12.511   6.676  1.00 20.00     0.072 C 
HETATM    6  C6  UNL     1     -41.046  13.335   5.838  1.00 20.00     0.203 C 
HETATM    7  C7  UNL     1     -41.238  15.262   7.235  1.00 20.00     0.151 C 
HETATM    8  C8  UNL     1     -43.417  15.575   8.600  1.00 20.00     0.046 C 
HETATM    9  O11 UNL     1     -40.367  14.247   6.701  1.00 20.00    -0.364 OA
ENDROOT
BRANCH   7  10
HETATM   10  C10 UNL     1     -40.413  16.014   8.276  1.00 20.00     0.032 C 
HETATM   11  C9  UNL     1     -40.048  15.138   9.428  1.00 20.00     0.008 C 
ENDBRANCH   7  10
TORSDOF 1
ENDMDL
MODEL 5
REMARK VINA RESULT:      -3.7     11.869     13.331
REMARK  1 active torsions:
REMARK  status: ('A' for Active; 'I' for Inactive)
REMARK    1  A    between atoms: C7_7  and  C10_10 
ROOT
HETATM    1  C1  UNL     1     -35.925  14.837  -7.724  1.00 20.00     0.015 C 
HETATM    2  C2  UNL     1     -35.556  15.182  -6.634  1.00 20.00    -0.085 C 
HETATM    3  C3  UNL     1     -33.172  15.588  -3.728  1.00 20.00    -0.018 C 
HETATM    4  C4  UNL     1     -33.602  16.770  -3.254  1.00 20.00    -0.059 C 
HETATM    5  C5  UNL     1     -33.762  14.962  -4.956  1.00 20.00     0.072 C 
HETATM    6  C6  UNL     1     -35.106  15.604  -5.302  1.00 20.00     0.203 C 
HETATM    7  C7  UNL     1     -34.690  17.546  -3.976  1.00 20.00     0.151 C 
HETATM    8  C8  UNL     1     -33.059  17.338  -1.974  1.00 20.00     0.046 C 
HETATM    9  O11 UNL     1     -34.946  17.023  -5.293  1.00 20.00    -0.364 OA
ENDROOT
BRANCH   7  10
HETATM   10  C10 UNL     1     -34.347  19.021  -4.173  1.00 20.00     0.032 C 
HETATM   11  C9  UNL     1     -33.666  19.259  -5.480  1.00 20.00     0.008 C 
ENDBRANCH   7  10
TORSDOF 1
ENDMDL
MODEL 6
REMARK VINA RESULT:      -3.7     10.163     11.543
REMARK  1 active torsions:
REMARK  status: ('A' for Active; 'I' for Inactive)
REMARK    1  A    between atoms: C7_7  and  C10_10 
ROOT
HETATM    1  C1  UNL     1     -40.437  14.402  11.179  1.00 20.00     0.015 C 
HETATM    2  C2  UNL     1     -40.920  14.382  10.080  1.00 20.00    -0.085 C 
HETATM    3  C3  UNL     1     -41.638  15.581   6.567  1.00 20.00    -0.018 C 
HETATM    4  C4  UNL     1     -41.780  14.393   5.953  1.00 20.00    -0.059 C 
HETATM    5  C5  UNL     1     -41.279  15.688   8.018  1.00 20.00     0.072 C 
HETATM    6  C6  UNL     1     -41.510  14.357   8.736  1.00 20.00     0.203 C 
HETATM    7  C7  UNL     1     -41.540  13.097   6.708  1.00 20.00     0.151 C 
HETATM    8  C8  UNL     1     -42.225  14.306   4.522  1.00 20.00     0.046 C 
HETATM    9  O11 UNL     1     -40.893  13.318   7.975  1.00 20.00    -0.364 OA
ENDROOT
BRANCH   7  10
HETATM   10  C10 UNL     1     -40.648  12.116   5.951  1.00 20.00     0.032 C 
HETATM   11  C9  UNL     1     -39.211  12.278   6.321  1.00 20.00     0.008 C 
ENDBRANCH   7  10
TORSDOF 1
ENDMDL
MODEL 7
REMARK VINA RESULT:      -3.7     10.209     11.058
REMARK  1 active torsions:
REMARK  status: ('A' for Active; 'I' for Inactive)
REMARK    1  A    between atoms: C7_7  and  C10_10 
ROOT
HETATM    1  C1  UNL     1     -38.905  11.573   4.201  1.00 20.00     0.015 C 
HETATM    2  C2  UNL     1     -39.766  12.159   4.800  1.00 20.00    -0.085 C 
HETATM    3  C3  UNL     1     -41.242  14.611   7.270  1.00 20.00    -0.018 C 
HETATM    4  C4  UNL     1     -42.368  14.935   6.613  1.00 20.00    -0.059 C 
HETATM    5  C5  UNL     1     -40.224  13.675   6.690  1.00 20.00     0.072 C 
HETATM    6  C6  UNL     1     -40.819  12.875   5.530  1.00 20.00     0.203 C 
HETATM    7  C7  UNL     1     -42.638  14.390   5.220  1.00 20.00     0.151 C 
HETATM    8  C8  UNL     1     -43.416  15.804   7.247  1.00 20.00     0.046 C 
HETATM    9  O11 UNL     1     -41.469  13.782   4.640  1.00 20.00    -0.364 OA
ENDROOT
BRANCH   7  10
HETATM   10  C10 UNL     1     -43.085  15.463   4.231  1.00 20.00     0.032 C 
HETATM   11  C9  UNL     1     -42.388  15.326   2.917  1.00 20.00     0.008 C 
ENDBRANCH   7  10
TORSDOF 1
ENDMDL
MODEL 8
REMARK VINA RESULT:      -3.6     10.449     11.550
REMARK  1 active torsions:
REMARK  status: ('A' for Active; 'I' for Inactive)
REMARK    1  A    between atoms: C7_7  and  C10_10 
ROOT
HETATM    1  C1  UNL     1     -39.756  11.550   5.744  1.00 20.00     0.015 C 
HETATM    2  C2  UNL     1     -40.053  12.615   6.214  1.00 20.00    -0.085 C 
HETATM    3  C3  UNL     1     -42.334  15.396   7.379  1.00 20.00    -0.018 C 
HETATM    4  C4  UNL     1     -41.600  15.869   8.401  1.00 20.00    -0.059 C 
HETATM    5  C5  UNL     1     -41.901  14.210   6.572  1.00 20.00     0.072 C 
HETATM    6  C6  UNL     1     -40.415  13.916   6.789  1.00 20.00     0.203 C 
HETATM    7  C7  UNL     1     -40.306  15.186   8.809  1.00 20.00     0.151 C 
HETATM    8  C8  UNL     1     -42.007  17.111   9.141  1.00 20.00     0.046 C 
HETATM    9  O11 UNL     1     -40.159  13.892   8.194  1.00 20.00    -0.364 OA
ENDROOT
BRANCH   7  10
HETATM   10  C10 UNL     1     -40.199  14.947  10.313  1.00 20.00     0.032 C 
HETATM   11  C9  UNL     1     -41.215  13.961  10.788  1.00 20.00     0.008 C 
ENDBRANCH   7  10
TORSDOF 1
ENDMDL
MODEL 9
REMARK VINA RESULT:      -3.5     11.608     13.219
REMARK  1 active torsions:
REMARK  status: ('A' for Active; 'I' for Inactive)
REMARK    1  A    between atoms: C7_7  and  C10_10 
ROOT
HETATM    1  C1  UNL     1     -37.792  17.825  -6.175  1.00 20.00     0.015 C 
HETATM    2  C2  UNL     1     -36.847  17.991  -5.453  1.00 20.00    -0.085 C 
HETATM    3  C3  UNL     1     -34.999  18.534  -2.200  1.00 20.00    -0.018 C 
HETATM    4  C4  UNL     1     -33.858  17.882  -2.483  1.00 20.00    -0.059 C 
HETATM    5  C5  UNL     1     -36.145  18.586  -3.164  1.00 20.00     0.072 C 
HETATM    6  C6  UNL     1     -35.691  18.193  -4.571  1.00 20.00     0.203 C 
HETATM    7  C7  UNL     1     -33.699  17.130  -3.793  1.00 20.00     0.151 C 
HETATM    8  C8  UNL     1     -32.690  17.915  -1.540  1.00 20.00     0.046 C 
HETATM    9  O11 UNL     1     -34.953  16.974  -4.484  1.00 20.00    -0.364 OA
ENDROOT
BRANCH   7  10
HETATM   10  C10 UNL     1     -33.144  15.720  -3.613  1.00 20.00     0.032 C 
HETATM   11  C9  UNL     1     -34.020  14.695  -4.255  1.00 20.00     0.008 C 
ENDBRANCH   7  10
TORSDOF 1
ENDMDL
