MODEL 1
REMARK VINA RESULT:      -4.1      0.000      0.000
REMARK  1 active torsions:
REMARK  status: ('A' for Active; 'I' for Inactive)
REMARK    1  A    between atoms: C5_5  and  C9_9 
ROOT
HETATM    1  C1  UNL     1     -41.276  14.342   9.106  1.00 20.00    -0.021 C 
HETATM    2  C2  UNL     1     -40.325  14.830   8.293  1.00 20.00    -0.024 C 
HETATM    3  C3  UNL     1     -42.394  13.205   7.228  1.00 20.00    -0.065 C 
HETATM    4  C4  UNL     1     -43.116  12.083   7.140  1.00 20.00     0.016 C 
HETATM    5  C6  UNL     1     -42.345  15.524   7.441  1.00 20.00     0.023 C 
HETATM    6  C7  UNL     1     -42.553  14.274   8.302  1.00 20.00     0.038 C 
HETATM    7  C8  UNL     1     -40.966  15.069   6.935  1.00 20.00     0.028 C 
HETATM    8  C9  UNL     1     -41.317  13.704   6.256  1.00 20.00     0.046 C 
HETATM    9  C11 UNL     1     -41.830  13.877   4.824  1.00 20.00     0.029 C 
ENDROOT
BRANCH   8  10
HETATM   10  C5  UNL     1     -40.136  12.764   6.243  1.00 20.00     0.136 C 
HETATM   11  C10 UNL     1     -39.705  12.238   4.900  1.00 20.00     0.092 C 
HETATM   12  O12 UNL     1     -39.554  12.446   7.278  1.00 20.00    -0.297 OA
ENDBRANCH   8  10
TORSDOF 1
ENDMDL
MODEL 2
REMARK VINA RESULT:      -3.9     17.431     18.804
REMARK  1 active torsions:
REMARK  status: ('A' for Active; 'I' for Inactive)
REMARK    1  A    between atoms: C5_5  and  C9_9 
ROOT
HETATM    1  C1  UNL     1     -25.043  17.046  11.652  1.00 20.00    -0.021 C 
HETATM    2  C2  UNL     1     -23.804  16.578  11.876  1.00 20.00    -0.024 C 
HETATM    3  C3  UNL     1     -24.199  18.702  10.035  1.00 20.00    -0.065 C 
HETATM    4  C4  UNL     1     -24.729  19.263   8.942  1.00 20.00     0.016 C 
HETATM    5  C6  UNL     1     -23.750  18.834  12.317  1.00 20.00     0.023 C 
HETATM    6  C7  UNL     1     -24.914  18.524  11.369  1.00 20.00     0.038 C 
HETATM    7  C8  UNL     1     -22.842  17.746  11.721  1.00 20.00     0.028 C 
HETATM    8  C9  UNL     1     -22.766  18.188  10.223  1.00 20.00     0.046 C 
HETATM    9  C11 UNL     1     -21.703  19.263   9.982  1.00 20.00     0.029 C 
ENDROOT
BRANCH   8  10
HETATM   10  C5  UNL     1     -22.496  17.019   9.306  1.00 20.00     0.136 C 
HETATM   11  C10 UNL     1     -21.341  17.160   8.352  1.00 20.00     0.092 C 
HETATM   12  O12 UNL     1     -23.186  16.001   9.339  1.00 20.00    -0.297 OA
ENDBRANCH   8  10
TORSDOF 1
ENDMDL
MODEL 3
REMARK VINA RESULT:      -3.9      9.349     10.696
REMARK  1 active torsions:
REMARK  status: ('A' for Active; 'I' for Inactive)
REMARK    1  A    between atoms: C5_5  and  C9_9 
ROOT
HETATM    1  C1  UNL     1     -32.232   7.913   5.127  1.00 20.00    -0.021 C 
HETATM    2  C2  UNL     1     -32.510   7.745   3.824  1.00 20.00    -0.024 C 
HETATM    3  C3  UNL     1     -34.184   6.565   5.790  1.00 20.00    -0.065 C 
HETATM    4  C4  UNL     1     -34.433   5.773   6.839  1.00 20.00     0.016 C 
HETATM    5  C6  UNL     1     -34.386   8.660   4.790  1.00 20.00     0.023 C 
HETATM    6  C7  UNL     1     -33.551   7.949   5.862  1.00 20.00     0.038 C 
HETATM    7  C8  UNL     1     -34.023   7.647   3.692  1.00 20.00     0.028 C 
HETATM    8  C9  UNL     1     -34.534   6.308   4.319  1.00 20.00     0.046 C 
HETATM    9  C11 UNL     1     -36.031   6.086   4.085  1.00 20.00     0.029 C 
ENDROOT
BRANCH   8  10
HETATM   10  C5  UNL     1     -33.774   5.115   3.791  1.00 20.00     0.136 C 
HETATM   11  C10 UNL     1     -32.940   5.336   2.558  1.00 20.00     0.092 C 
HETATM   12  O12 UNL     1     -33.832   4.018   4.344  1.00 20.00    -0.297 OA
ENDBRANCH   8  10
TORSDOF 1
ENDMDL
MODEL 4
REMARK VINA RESULT:      -3.8      1.358      2.670
REMARK  1 active torsions:
REMARK  status: ('A' for Active; 'I' for Inactive)
REMARK    1  A    between atoms: C5_5  and  C9_9 
ROOT
HETATM    1  C1  UNL     1     -40.364  15.793   7.471  1.00 20.00    -0.021 C 
HETATM    2  C2  UNL     1     -41.656  16.002   7.171  1.00 20.00    -0.024 C 
HETATM    3  C3  UNL     1     -40.563  13.390   6.967  1.00 20.00    -0.065 C 
HETATM    4  C4  UNL     1     -39.701  12.481   6.498  1.00 20.00     0.016 C 
HETATM    5  C6  UNL     1     -41.607  14.379   8.800  1.00 20.00     0.023 C 
HETATM    6  C7  UNL     1     -40.264  14.407   8.062  1.00 20.00     0.038 C 
HETATM    7  C8  UNL     1     -42.419  14.739   7.545  1.00 20.00     0.028 C 
HETATM    8  C9  UNL     1     -42.037  13.571   6.578  1.00 20.00     0.046 C 
HETATM    9  C11 UNL     1     -42.881  12.316   6.813  1.00 20.00     0.029 C 
ENDROOT
BRANCH   8  10
HETATM   10  C5  UNL     1     -42.158  13.979   5.130  1.00 20.00     0.136 C 
HETATM   11  C10 UNL     1     -43.415  14.706   4.735  1.00 20.00     0.092 C 
HETATM   12  O12 UNL     1     -41.272  13.731   4.314  1.00 20.00    -0.297 OA
ENDBRANCH   8  10
TORSDOF 1
ENDMDL
MODEL 5
REMARK VINA RESULT:      -3.7     13.236     14.838
REMARK  1 active torsions:
REMARK  status: ('A' for Active; 'I' for Inactive)
REMARK    1  A    between atoms: C5_5  and  C9_9 
ROOT
HETATM    1  C1  UNL     1     -35.106  17.372  -7.780  1.00 20.00    -0.021 C 
HETATM    2  C2  UNL     1     -34.135  16.472  -7.556  1.00 20.00    -0.024 C 
HETATM    3  C3  UNL     1     -36.472  16.456  -5.946  1.00 20.00    -0.065 C 
HETATM    4  C4  UNL     1     -37.356  17.004  -5.105  1.00 20.00     0.016 C 
HETATM    5  C6  UNL     1     -36.069  15.282  -7.918  1.00 20.00     0.023 C 
HETATM    6  C7  UNL     1     -36.418  16.700  -7.449  1.00 20.00     0.038 C 
HETATM    7  C8  UNL     1     -34.800  15.200  -7.053  1.00 20.00     0.028 C 
HETATM    8  C9  UNL     1     -35.383  15.426  -5.620  1.00 20.00     0.046 C 
HETATM    9  C11 UNL     1     -35.936  14.139  -5.002  1.00 20.00     0.029 C 
ENDROOT
BRANCH   8  10
HETATM   10  C5  UNL     1     -34.356  16.016  -4.684  1.00 20.00     0.136 C 
HETATM   11  C10 UNL     1     -33.261  15.097  -4.214  1.00 20.00     0.092 C 
HETATM   12  O12 UNL     1     -34.411  17.191  -4.324  1.00 20.00    -0.297 OA
ENDBRANCH   8  10
TORSDOF 1
ENDMDL
MODEL 6
REMARK VINA RESULT:      -3.7      1.901      3.528
REMARK  1 active torsions:
REMARK  status: ('A' for Active; 'I' for Inactive)
REMARK    1  A    between atoms: C5_5  and  C9_9 
ROOT
HETATM    1  C1  UNL     1     -43.286  13.686   5.785  1.00 20.00    -0.021 C 
HETATM    2  C2  UNL     1     -42.260  14.489   5.463  1.00 20.00    -0.024 C 
HETATM    3  C3  UNL     1     -42.589  13.625   8.146  1.00 20.00    -0.065 C 
HETATM    4  C4  UNL     1     -43.264  13.499   9.295  1.00 20.00     0.016 C 
HETATM    5  C6  UNL     1     -41.354  12.618   6.447  1.00 20.00     0.023 C 
HETATM    6  C7  UNL     1     -42.810  12.782   6.897  1.00 20.00     0.038 C 
HETATM    7  C8  UNL     1     -41.099  14.133   6.380  1.00 20.00     0.028 C 
HETATM    8  C9  UNL     1     -41.417  14.569   7.848  1.00 20.00     0.046 C 
HETATM    9  C11 UNL     1     -40.227  14.370   8.790  1.00 20.00     0.029 C 
ENDROOT
BRANCH   8  10
HETATM   10  C5  UNL     1     -41.863  16.010   7.921  1.00 20.00     0.136 C 
HETATM   11  C10 UNL     1     -40.800  17.058   7.729  1.00 20.00     0.092 C 
HETATM   12  O12 UNL     1     -43.038  16.311   8.126  1.00 20.00    -0.297 OA
ENDBRANCH   8  10
TORSDOF 1
ENDMDL
MODEL 7
REMARK VINA RESULT:      -3.7      1.456      3.487
REMARK  1 active torsions:
REMARK  status: ('A' for Active; 'I' for Inactive)
REMARK    1  A    between atoms: C5_5  and  C9_9 
ROOT
HETATM    1  C1  UNL     1     -41.257  13.469   5.244  1.00 20.00    -0.021 C 
HETATM    2  C2  UNL     1     -41.016  12.892   6.432  1.00 20.00    -0.024 C 
HETATM    3  C3  UNL     1     -42.404  15.365   6.320  1.00 20.00    -0.065 C 
HETATM    4  C4  UNL     1     -42.536  16.656   5.995  1.00 20.00     0.016 C 
HETATM    5  C6  UNL     1     -43.290  13.210   6.299  1.00 20.00     0.023 C 
HETATM    6  C7  UNL     1     -42.578  14.192   5.362  1.00 20.00     0.038 C 
HETATM    7  C8  UNL     1     -42.172  13.250   7.354  1.00 20.00     0.028 C 
HETATM    8  C9  UNL     1     -42.128  14.772   7.708  1.00 20.00     0.046 C 
HETATM    9  C11 UNL     1     -43.180  15.162   8.750  1.00 20.00     0.029 C 
ENDROOT
BRANCH   8  10
HETATM   10  C5  UNL     1     -40.767  15.194   8.205  1.00 20.00     0.136 C 
HETATM   11  C10 UNL     1     -40.349  14.676   9.555  1.00 20.00     0.092 C 
HETATM   12  O12 UNL     1     -40.035  15.924   7.539  1.00 20.00    -0.297 OA
ENDBRANCH   8  10
TORSDOF 1
ENDMDL
MODEL 8
REMARK VINA RESULT:      -3.7      1.216      3.141
REMARK  1 active torsions:
REMARK  status: ('A' for Active; 'I' for Inactive)
REMARK    1  A    between atoms: C5_5  and  C9_9 
ROOT
HETATM    1  C1  UNL     1     -43.120  12.460   7.747  1.00 20.00    -0.021 C 
HETATM    2  C2  UNL     1     -43.381  13.483   8.577  1.00 20.00    -0.024 C 
HETATM    3  C3  UNL     1     -41.210  13.660   6.757  1.00 20.00    -0.065 C 
HETATM    4  C4  UNL     1     -40.054  13.253   6.221  1.00 20.00     0.016 C 
HETATM    5  C6  UNL     1     -43.417  14.336   6.442  1.00 20.00     0.023 C 
HETATM    6  C7  UNL     1     -42.578  13.054   6.469  1.00 20.00     0.038 C 
HETATM    7  C8  UNL     1     -42.991  14.764   7.856  1.00 20.00     0.028 C 
HETATM    8  C9  UNL     1     -41.437  14.847   7.703  1.00 20.00     0.046 C 
HETATM    9  C11 UNL     1     -40.975  16.183   7.116  1.00 20.00     0.029 C 
ENDROOT
BRANCH   8  10
HETATM   10  C5  UNL     1     -40.731  14.620   9.018  1.00 20.00     0.136 C 
HETATM   11  C10 UNL     1     -40.828  15.723  10.037  1.00 20.00     0.092 C 
HETATM   12  O12 UNL     1     -40.108  13.584   9.245  1.00 20.00    -0.297 OA
ENDBRANCH   8  10
TORSDOF 1
ENDMDL
MODEL 9
REMARK VINA RESULT:      -3.7     13.372     14.514
REMARK  1 active torsions:
REMARK  status: ('A' for Active; 'I' for Inactive)
REMARK    1  A    between atoms: C5_5  and  C9_9 
ROOT
HETATM    1  C1  UNL     1     -35.478  14.415  -4.935  1.00 20.00    -0.021 C 
HETATM    2  C2  UNL     1     -36.198  14.973  -5.922  1.00 20.00    -0.024 C 
HETATM    3  C3  UNL     1     -34.180  16.485  -4.619  1.00 20.00    -0.065 C 
HETATM    4  C4  UNL     1     -33.595  17.041  -3.553  1.00 20.00     0.016 C 
HETATM    5  C6  UNL     1     -33.987  15.161  -6.527  1.00 20.00     0.023 C 
HETATM    6  C7  UNL     1     -34.093  15.013  -5.005  1.00 20.00     0.038 C 
HETATM    7  C8  UNL     1     -35.294  15.964  -6.640  1.00 20.00     0.028 C 
HETATM    8  C9  UNL     1     -34.992  17.188  -5.715  1.00 20.00     0.046 C 
HETATM    9  C11 UNL     1     -34.207  18.287  -6.435  1.00 20.00     0.029 C 
ENDROOT
BRANCH   8  10
HETATM   10  C5  UNL     1     -36.255  17.783  -5.142  1.00 20.00     0.136 C 
HETATM   11  C10 UNL     1     -37.259  18.318  -6.127  1.00 20.00     0.092 C 
HETATM   12  O12 UNL     1     -36.454  17.827  -3.929  1.00 20.00    -0.297 OA
ENDBRANCH   8  10
TORSDOF 1
ENDMDL
