MODEL 1
REMARK VINA RESULT:      -4.5      0.000      0.000
REMARK  1 active torsions:
REMARK  status: ('A' for Active; 'I' for Inactive)
REMARK    1  A    between atoms: C6_6  and  C9_9 
ROOT
HETATM    1  C1  UNL     1     -35.413  15.024  -6.039  1.00 20.00     0.119 C 
HETATM    2  C2  UNL     1     -33.827  15.363  -4.205  1.00 20.00     0.043 A 
HETATM    3  C3  UNL     1     -33.344  16.204  -3.207  1.00 20.00     0.012 A 
HETATM    4  C4  UNL     1     -34.938  17.835  -3.883  1.00 20.00     0.125 A 
HETATM    5  C5  UNL     1     -34.863  15.828  -4.998  1.00 20.00     0.136 A 
HETATM    6  C6  UNL     1     -33.905  17.464  -3.036  1.00 20.00    -0.036 A 
HETATM    7  N10 UNL     1     -35.860  14.370  -6.888  1.00 20.00    -0.190 NA
HETATM    8  N11 UNL     1     -35.434  17.046  -4.862  1.00 20.00    -0.249 NA
ENDROOT
BRANCH   6   9
HETATM    9  C9  UNL     1     -33.410  18.386  -1.982  1.00 20.00     0.020 A 
HETATM   10  C7  UNL     1     -32.256  17.957  -1.109  1.00 20.00     0.010 A 
HETATM   11  C8  UNL     1     -33.634  18.036  -0.531  1.00 20.00     0.010 A 
ENDBRANCH   6   9
TORSDOF 1
ENDMDL
MODEL 2
REMARK VINA RESULT:      -4.5      4.486      7.040
REMARK  1 active torsions:
REMARK  status: ('A' for Active; 'I' for Inactive)
REMARK    1  A    between atoms: C6_6  and  C9_9 
ROOT
HETATM    1  C1  UNL     1     -31.319  19.085   3.540  1.00 20.00     0.119 C 
HETATM    2  C2  UNL     1     -30.644  18.598   1.237  1.00 20.00     0.043 A 
HETATM    3  C3  UNL     1     -31.029  18.404  -0.086  1.00 20.00     0.012 A 
HETATM    4  C4  UNL     1     -33.285  18.771   0.572  1.00 20.00     0.125 A 
HETATM    5  C5  UNL     1     -31.634  18.873   2.166  1.00 20.00     0.136 A 
HETATM    6  C6  UNL     1     -32.372  18.491  -0.433  1.00 20.00    -0.036 A 
HETATM    7  N10 UNL     1     -31.062  19.257   4.659  1.00 20.00    -0.190 NA
HETATM    8  N11 UNL     1     -32.950  18.966   1.867  1.00 20.00    -0.249 NA
ENDROOT
BRANCH   6   9
HETATM    9  C9  UNL     1     -32.815  18.288  -1.837  1.00 20.00     0.020 A 
HETATM   10  C7  UNL     1     -34.265  17.979  -2.115  1.00 20.00     0.010 A 
HETATM   11  C8  UNL     1     -33.234  16.909  -2.285  1.00 20.00     0.010 A 
ENDBRANCH   6   9
TORSDOF 1
ENDMDL
MODEL 3
REMARK VINA RESULT:      -4.4      4.336      6.909
REMARK  1 active torsions:
REMARK  status: ('A' for Active; 'I' for Inactive)
REMARK    1  A    between atoms: C6_6  and  C9_9 
ROOT
HETATM    1  C1  UNL     1     -31.210  19.057   3.144  1.00 20.00     0.119 C 
HETATM    2  C2  UNL     1     -33.027  18.789   1.525  1.00 20.00     0.043 A 
HETATM    3  C3  UNL     1     -33.403  18.533   0.210  1.00 20.00     0.012 A 
HETATM    4  C4  UNL     1     -31.101  18.341  -0.356  1.00 20.00     0.125 A 
HETATM    5  C5  UNL     1     -31.673  18.804   1.820  1.00 20.00     0.136 A 
HETATM    6  C6  UNL     1     -32.428  18.304  -0.754  1.00 20.00    -0.036 A 
HETATM    7  N10 UNL     1     -30.832  19.263   4.222  1.00 20.00    -0.190 NA
HETATM    8  N11 UNL     1     -30.697  18.585   0.910  1.00 20.00    -0.249 NA
ENDROOT
BRANCH   6   9
HETATM    9  C9  UNL     1     -32.798  18.030  -2.167  1.00 20.00     0.020 A 
HETATM   10  C7  UNL     1     -34.245  17.790  -2.517  1.00 20.00     0.010 A 
HETATM   11  C8  UNL     1     -33.275  16.652  -2.551  1.00 20.00     0.010 A 
ENDBRANCH   6   9
TORSDOF 1
ENDMDL
MODEL 4
REMARK VINA RESULT:      -4.4      1.112      1.803
REMARK  1 active torsions:
REMARK  status: ('A' for Active; 'I' for Inactive)
REMARK    1  A    between atoms: C6_6  and  C9_9 
ROOT
HETATM    1  C1  UNL     1     -35.581  15.017  -6.806  1.00 20.00     0.119 C 
HETATM    2  C2  UNL     1     -35.374  16.798  -5.139  1.00 20.00     0.043 A 
HETATM    3  C3  UNL     1     -34.740  17.271  -3.995  1.00 20.00     0.012 A 
HETATM    4  C4  UNL     1     -33.423  15.290  -3.970  1.00 20.00     0.125 A 
HETATM    5  C5  UNL     1     -34.979  15.567  -5.637  1.00 20.00     0.136 A 
HETATM    6  C6  UNL     1     -33.744  16.509  -3.394  1.00 20.00    -0.036 A 
HETATM    7  N10 UNL     1     -36.072  14.568  -7.758  1.00 20.00    -0.190 NA
HETATM    8  N11 UNL     1     -34.016  14.798  -5.081  1.00 20.00    -0.249 NA
ENDROOT
BRANCH   6   9
HETATM    9  C9  UNL     1     -33.049  16.985  -2.170  1.00 20.00     0.020 A 
HETATM   10  C7  UNL     1     -33.793  17.863  -1.194  1.00 20.00     0.010 A 
HETATM   11  C8  UNL     1     -32.706  18.449  -2.039  1.00 20.00     0.010 A 
ENDBRANCH   6   9
TORSDOF 1
ENDMDL
MODEL 5
REMARK VINA RESULT:      -3.9      2.275      4.926
REMARK  1 active torsions:
REMARK  status: ('A' for Active; 'I' for Inactive)
REMARK    1  A    between atoms: C6_6  and  C9_9 
ROOT
HETATM    1  C1  UNL     1     -32.212  18.716  -1.544  1.00 20.00     0.119 C 
HETATM    2  C2  UNL     1     -33.215  16.693  -2.492  1.00 20.00     0.043 A 
HETATM    3  C3  UNL     1     -33.916  16.108  -3.542  1.00 20.00     0.012 A 
HETATM    4  C4  UNL     1     -33.969  18.228  -4.619  1.00 20.00     0.125 A 
HETATM    5  C5  UNL     1     -32.929  18.046  -2.578  1.00 20.00     0.136 A 
HETATM    6  C6  UNL     1     -34.304  16.883  -4.629  1.00 20.00    -0.036 A 
HETATM    7  N10 UNL     1     -31.629  19.262  -0.702  1.00 20.00    -0.190 NA
HETATM    8  N11 UNL     1     -33.289  18.831  -3.618  1.00 20.00    -0.249 NA
ENDROOT
BRANCH   6   9
HETATM    9  C9  UNL     1     -35.056  16.289  -5.764  1.00 20.00     0.020 A 
HETATM   10  C7  UNL     1     -35.261  14.795  -5.810  1.00 20.00     0.010 A 
HETATM   11  C8  UNL     1     -34.320  15.445  -6.775  1.00 20.00     0.010 A 
ENDBRANCH   6   9
TORSDOF 1
ENDMDL
MODEL 6
REMARK VINA RESULT:      -3.9     11.582     12.430
REMARK  1 active torsions:
REMARK  status: ('A' for Active; 'I' for Inactive)
REMARK    1  A    between atoms: C6_6  and  C9_9 
ROOT
HETATM    1  C1  UNL     1     -34.287   5.927   5.817  1.00 20.00     0.119 C 
HETATM    2  C2  UNL     1     -33.445   7.973   4.768  1.00 20.00     0.043 A 
HETATM    3  C3  UNL     1     -32.864   8.571   3.654  1.00 20.00     0.012 A 
HETATM    4  C4  UNL     1     -32.843   6.445   2.589  1.00 20.00     0.125 A 
HETATM    5  C5  UNL     1     -33.693   6.611   4.716  1.00 20.00     0.136 A 
HETATM    6  C6  UNL     1     -32.555   7.800   2.540  1.00 20.00    -0.036 A 
HETATM    7  N10 UNL     1     -34.770   5.370   6.714  1.00 20.00    -0.190 NA
HETATM    8  N11 UNL     1     -33.407   5.829   3.652  1.00 20.00    -0.249 NA
ENDROOT
BRANCH   6   9
HETATM    9  C9  UNL     1     -31.933   8.408   1.336  1.00 20.00     0.020 A 
HETATM   10  C7  UNL     1     -32.571   9.624   0.711  1.00 20.00     0.010 A 
HETATM   11  C8  UNL     1     -32.640   8.305   0.007  1.00 20.00     0.010 A 
ENDBRANCH   6   9
TORSDOF 1
ENDMDL
MODEL 7
REMARK VINA RESULT:      -3.9     11.467     12.857
REMARK  1 active torsions:
REMARK  status: ('A' for Active; 'I' for Inactive)
REMARK    1  A    between atoms: C6_6  and  C9_9 
ROOT
HETATM    1  C1  UNL     1     -42.705  16.714   6.849  1.00 20.00     0.119 C 
HETATM    2  C2  UNL     1     -42.334  14.880   5.270  1.00 20.00     0.043 A 
HETATM    3  C3  UNL     1     -41.647  13.708   4.967  1.00 20.00     0.012 A 
HETATM    4  C4  UNL     1     -40.485  13.919   7.033  1.00 20.00     0.125 A 
HETATM    5  C5  UNL     1     -42.042  15.511   6.468  1.00 20.00     0.136 A 
HETATM    6  C6  UNL     1     -40.704  13.212   5.860  1.00 20.00    -0.036 A 
HETATM    7  N10 UNL     1     -43.245  17.694   7.158  1.00 20.00    -0.190 NA
HETATM    8  N11 UNL     1     -41.133  15.059   7.361  1.00 20.00    -0.249 NA
ENDROOT
BRANCH   6   9
HETATM    9  C9  UNL     1     -39.952  11.965   5.566  1.00 20.00     0.020 A 
HETATM   10  C7  UNL     1     -38.445  12.004   5.528  1.00 20.00     0.010 A 
HETATM   11  C8  UNL     1     -39.214  11.840   4.256  1.00 20.00     0.010 A 
ENDBRANCH   6   9
TORSDOF 1
ENDMDL
MODEL 8
REMARK VINA RESULT:      -3.8      2.002      4.820
REMARK  1 active torsions:
REMARK  status: ('A' for Active; 'I' for Inactive)
REMARK    1  A    between atoms: C6_6  and  C9_9 
ROOT
HETATM    1  C1  UNL     1     -33.961  18.562  -0.930  1.00 20.00     0.119 C 
HETATM    2  C2  UNL     1     -33.337  16.631  -2.300  1.00 20.00     0.043 A 
HETATM    3  C3  UNL     1     -33.480  15.945  -3.502  1.00 20.00     0.012 A 
HETATM    4  C4  UNL     1     -35.003  17.626  -4.218  1.00 20.00     0.125 A 
HETATM    5  C5  UNL     1     -34.057  17.802  -2.133  1.00 20.00     0.136 A 
HETATM    6  C6  UNL     1     -34.327  16.445  -4.484  1.00 20.00    -0.036 A 
HETATM    7  N10 UNL     1     -33.884  19.180   0.049  1.00 20.00    -0.190 NA
HETATM    8  N11 UNL     1     -34.889  18.320  -3.064  1.00 20.00    -0.249 NA
ENDROOT
BRANCH   6   9
HETATM    9  C9  UNL     1     -34.503  15.735  -5.778  1.00 20.00     0.020 A 
HETATM   10  C7  UNL     1     -35.743  15.993  -6.597  1.00 20.00     0.010 A 
HETATM   11  C8  UNL     1     -35.575  14.681  -5.900  1.00 20.00     0.010 A 
ENDBRANCH   6   9
TORSDOF 1
ENDMDL
MODEL 9
REMARK VINA RESULT:      -3.7     11.525     13.010
REMARK  1 active torsions:
REMARK  status: ('A' for Active; 'I' for Inactive)
REMARK    1  A    between atoms: C6_6  and  C9_9 
ROOT
HETATM    1  C1  UNL     1     -42.538  17.261   6.902  1.00 20.00     0.119 C 
HETATM    2  C2  UNL     1     -40.932  15.508   7.490  1.00 20.00     0.043 A 
HETATM    3  C3  UNL     1     -40.412  14.247   7.214  1.00 20.00     0.012 A 
HETATM    4  C4  UNL     1     -41.950  14.067   5.407  1.00 20.00     0.125 A 
HETATM    5  C5  UNL     1     -41.955  15.978   6.683  1.00 20.00     0.136 A 
HETATM    6  C6  UNL     1     -40.925  13.507   6.154  1.00 20.00    -0.036 A 
HETATM    7  N10 UNL     1     -43.012  18.305   7.080  1.00 20.00    -0.190 NA
HETATM    8  N11 UNL     1     -42.479  15.288   5.645  1.00 20.00    -0.249 NA
ENDROOT
BRANCH   6   9
HETATM    9  C9  UNL     1     -40.393  12.157   5.835  1.00 20.00     0.020 A 
HETATM   10  C7  UNL     1     -38.919  11.887   6.003  1.00 20.00     0.010 A 
HETATM   11  C8  UNL     1     -39.504  11.981   4.629  1.00 20.00     0.010 A 
ENDBRANCH   6   9
TORSDOF 1
ENDMDL
