MODEL 1
REMARK VINA RESULT:      -4.4      0.000      0.000
REMARK  1 active torsions:
REMARK  status: ('A' for Active; 'I' for Inactive)
REMARK    1  A    between atoms: C3_3  and  C9_9 
ROOT
HETATM    1  C1  UNL     1     -21.515  18.760  12.330  1.00 20.00     0.013 C 
HETATM    2  C2  UNL     1     -22.420  18.505  11.585  1.00 20.00    -0.099 C 
HETATM    3  C4  UNL     1     -25.783  17.136  12.332  1.00 20.00     0.000 C 
HETATM    4  C5  UNL     1     -24.555  16.282  12.040  1.00 20.00     0.002 C 
HETATM    5  C6  UNL     1     -25.445  18.622  12.321  1.00 20.00     0.002 C 
HETATM    6  C7  UNL     1     -23.888  16.682  10.723  1.00 20.00     0.030 C 
HETATM    7  C8  UNL     1     -24.786  19.042  11.005  1.00 20.00     0.030 C 
HETATM    8  C9  UNL     1     -23.558  18.184  10.648  1.00 20.00     0.083 C 
ENDROOT
BRANCH   8   9
HETATM    9  C3  UNL     1     -23.103  18.521   9.284  1.00 20.00     0.143 C 
HETATM   10  C10 UNL     1     -24.124  19.128   8.360  1.00 20.00     0.093 C 
HETATM   11  O11 UNL     1     -21.946  18.316   8.921  1.00 20.00    -0.297 OA
ENDBRANCH   8   9
TORSDOF 1
ENDMDL
MODEL 2
REMARK VINA RESULT:      -4.2     17.871     19.023
REMARK  1 active torsions:
REMARK  status: ('A' for Active; 'I' for Inactive)
REMARK    1  A    between atoms: C3_3  and  C9_9 
ROOT
HETATM    1  C1  UNL     1     -43.188  11.856   7.272  1.00 20.00     0.013 C 
HETATM    2  C2  UNL     1     -42.295  12.515   6.816  1.00 20.00    -0.099 C 
HETATM    3  C4  UNL     1     -42.252  16.092   5.846  1.00 20.00     0.000 C 
HETATM    4  C5  UNL     1     -42.647  14.955   4.912  1.00 20.00     0.002 C 
HETATM    5  C6  UNL     1     -41.918  15.577   7.241  1.00 20.00     0.002 C 
HETATM    6  C7  UNL     1     -41.570  13.871   4.853  1.00 20.00     0.030 C 
HETATM    7  C8  UNL     1     -40.834  14.499   7.202  1.00 20.00     0.030 C 
HETATM    8  C9  UNL     1     -41.172  13.342   6.243  1.00 20.00     0.083 C 
ENDROOT
BRANCH   8   9
HETATM    9  C3  UNL     1     -40.000  12.451   6.115  1.00 20.00     0.143 C 
HETATM   10  C10 UNL     1     -39.669  11.965   4.730  1.00 20.00     0.093 C 
HETATM   11  O11 UNL     1     -39.329  12.124   7.092  1.00 20.00    -0.297 OA
ENDBRANCH   8   9
TORSDOF 1
ENDMDL
MODEL 3
REMARK VINA RESULT:      -3.9     17.501     19.007
REMARK  1 active torsions:
REMARK  status: ('A' for Active; 'I' for Inactive)
REMARK    1  A    between atoms: C3_3  and  C9_9 
ROOT
HETATM    1  C1  UNL     1     -42.508  14.752   4.088  1.00 20.00     0.013 C 
HETATM    2  C2  UNL     1     -41.925  14.132   4.934  1.00 20.00    -0.099 C 
HETATM    3  C4  UNL     1     -42.493  14.016   8.595  1.00 20.00     0.000 C 
HETATM    4  C5  UNL     1     -41.581  15.019   7.900  1.00 20.00     0.002 C 
HETATM    5  C6  UNL     1     -43.176  13.094   7.591  1.00 20.00     0.002 C 
HETATM    6  C7  UNL     1     -40.552  14.324   7.007  1.00 20.00     0.030 C 
HETATM    7  C8  UNL     1     -42.160  12.382   6.695  1.00 20.00     0.030 C 
HETATM    8  C9  UNL     1     -41.191  13.353   5.997  1.00 20.00     0.083 C 
ENDROOT
BRANCH   8   9
HETATM    9  C3  UNL     1     -40.130  12.584   5.315  1.00 20.00     0.143 C 
HETATM   10  C10 UNL     1     -39.143  11.866   6.194  1.00 20.00     0.093 C 
HETATM   11  O11 UNL     1     -40.059  12.533   4.088  1.00 20.00    -0.297 OA
ENDBRANCH   8   9
TORSDOF 1
ENDMDL
MODEL 4
REMARK VINA RESULT:      -3.9     17.542     18.844
REMARK  1 active torsions:
REMARK  status: ('A' for Active; 'I' for Inactive)
REMARK    1  A    between atoms: C3_3  and  C9_9 
ROOT
HETATM    1  C1  UNL     1     -43.281  12.052   7.322  1.00 20.00     0.013 C 
HETATM    2  C2  UNL     1     -42.424  12.791   6.925  1.00 20.00    -0.099 C 
HETATM    3  C4  UNL     1     -40.977  15.806   8.522  1.00 20.00     0.000 C 
HETATM    4  C5  UNL     1     -42.200  15.821   7.613  1.00 20.00     0.002 C 
HETATM    5  C6  UNL     1     -40.450  14.391   8.727  1.00 20.00     0.002 C 
HETATM    6  C7  UNL     1     -41.915  15.143   6.272  1.00 20.00     0.030 C 
HETATM    7  C8  UNL     1     -40.150  13.701   7.395  1.00 20.00     0.030 C 
HETATM    8  C9  UNL     1     -41.346  13.721   6.426  1.00 20.00     0.083 C 
ENDROOT
BRANCH   8   9
HETATM    9  C3  UNL     1     -40.918  13.216   5.105  1.00 20.00     0.143 C 
HETATM   10  C10 UNL     1     -39.921  12.089   5.102  1.00 20.00     0.093 C 
HETATM   11  O11 UNL     1     -41.355  13.694   4.059  1.00 20.00    -0.297 OA
ENDBRANCH   8   9
TORSDOF 1
ENDMDL
MODEL 5
REMARK VINA RESULT:      -3.8     18.068     20.055
REMARK  1 active torsions:
REMARK  status: ('A' for Active; 'I' for Inactive)
REMARK    1  A    between atoms: C3_3  and  C9_9 
ROOT
HETATM    1  C1  UNL     1     -34.037  16.143  -7.830  1.00 20.00     0.013 C 
HETATM    2  C2  UNL     1     -34.581  16.038  -6.765  1.00 20.00    -0.099 C 
HETATM    3  C4  UNL     1     -33.145  16.193  -3.352  1.00 20.00     0.000 C 
HETATM    4  C5  UNL     1     -33.265  14.916  -4.175  1.00 20.00     0.002 C 
HETATM    5  C6  UNL     1     -33.650  17.405  -4.126  1.00 20.00     0.002 C 
HETATM    6  C7  UNL     1     -34.695  14.693  -4.668  1.00 20.00     0.030 C 
HETATM    7  C8  UNL     1     -35.084  17.204  -4.619  1.00 20.00     0.030 C 
HETATM    8  C9  UNL     1     -35.265  15.906  -5.427  1.00 20.00     0.083 C 
ENDROOT
BRANCH   8   9
HETATM    9  C3  UNL     1     -36.701  15.689  -5.695  1.00 20.00     0.143 C 
HETATM   10  C10 UNL     1     -37.399  16.730  -6.527  1.00 20.00     0.093 C 
HETATM   11  O11 UNL     1     -37.297  14.705  -5.259  1.00 20.00    -0.297 OA
ENDBRANCH   8   9
TORSDOF 1
ENDMDL
MODEL 6
REMARK VINA RESULT:      -3.7     18.314     19.337
REMARK  1 active torsions:
REMARK  status: ('A' for Active; 'I' for Inactive)
REMARK    1  A    between atoms: C3_3  and  C9_9 
ROOT
HETATM    1  C1  UNL     1     -39.957  11.908   5.636  1.00 20.00     0.013 C 
HETATM    2  C2  UNL     1     -40.812  12.737   5.788  1.00 20.00    -0.099 C 
HETATM    3  C4  UNL     1     -42.661  13.688   8.856  1.00 20.00     0.000 C 
HETATM    4  C5  UNL     1     -43.103  12.592   7.894  1.00 20.00     0.002 C 
HETATM    5  C6  UNL     1     -41.341  14.314   8.422  1.00 20.00     0.002 C 
HETATM    6  C7  UNL     1     -43.187  13.104   6.455  1.00 20.00     0.030 C 
HETATM    7  C8  UNL     1     -41.410  14.840   6.987  1.00 20.00     0.030 C 
HETATM    8  C9  UNL     1     -41.887  13.778   5.980  1.00 20.00     0.083 C 
ENDROOT
BRANCH   8   9
HETATM    9  C3  UNL     1     -42.113  14.412   4.665  1.00 20.00     0.143 C 
HETATM   10  C10 UNL     1     -43.037  15.599   4.637  1.00 20.00     0.093 C 
HETATM   11  O11 UNL     1     -41.572  13.991   3.644  1.00 20.00    -0.297 OA
ENDBRANCH   8   9
TORSDOF 1
ENDMDL
MODEL 7
REMARK VINA RESULT:      -3.6     15.473     17.680
REMARK  1 active torsions:
REMARK  status: ('A' for Active; 'I' for Inactive)
REMARK    1  A    between atoms: C3_3  and  C9_9 
ROOT
HETATM    1  C1  UNL     1     -33.259  15.482  -3.709  1.00 20.00     0.013 C 
HETATM    2  C2  UNL     1     -33.432  16.631  -3.412  1.00 20.00    -0.099 C 
HETATM    3  C4  UNL     1     -35.367  19.261  -5.168  1.00 20.00     0.000 C 
HETATM    4  C5  UNL     1     -33.895  18.962  -5.427  1.00 20.00     0.002 C 
HETATM    5  C6  UNL     1     -35.954  18.314  -4.128  1.00 20.00     0.002 C 
HETATM    6  C7  UNL     1     -33.076  18.991  -4.135  1.00 20.00     0.030 C 
HETATM    7  C8  UNL     1     -35.153  18.339  -2.825  1.00 20.00     0.030 C 
HETATM    8  C9  UNL     1     -33.651  18.076  -3.038  1.00 20.00     0.083 C 
ENDROOT
BRANCH   8   9
HETATM    9  C3  UNL     1     -32.926  18.310  -1.772  1.00 20.00     0.143 C 
HETATM   10  C10 UNL     1     -33.579  17.804  -0.515  1.00 20.00     0.093 C 
HETATM   11  O11 UNL     1     -31.841  18.889  -1.748  1.00 20.00    -0.297 OA
ENDBRANCH   8   9
TORSDOF 1
ENDMDL
MODEL 8
REMARK VINA RESULT:      -3.5     18.010     20.036
REMARK  1 active torsions:
REMARK  status: ('A' for Active; 'I' for Inactive)
REMARK    1  A    between atoms: C3_3  and  C9_9 
ROOT
HETATM    1  C1  UNL     1     -37.391  15.508  -5.058  1.00 20.00     0.013 C 
HETATM    2  C2  UNL     1     -36.257  15.742  -5.370  1.00 20.00    -0.099 C 
HETATM    3  C4  UNL     1     -33.282  16.295  -3.228  1.00 20.00     0.000 C 
HETATM    4  C5  UNL     1     -34.231  17.399  -3.680  1.00 20.00     0.002 C 
HETATM    5  C6  UNL     1     -33.736  14.929  -3.731  1.00 20.00     0.002 C 
HETATM    6  C7  UNL     1     -34.407  17.405  -5.200  1.00 20.00     0.030 C 
HETATM    7  C8  UNL     1     -33.907  14.915  -5.251  1.00 20.00     0.030 C 
HETATM    8  C9  UNL     1     -34.830  16.036  -5.762  1.00 20.00     0.083 C 
ENDROOT
BRANCH   8   9
HETATM    9  C3  UNL     1     -34.787  16.074  -7.238  1.00 20.00     0.143 C 
HETATM   10  C10 UNL     1     -34.328  17.361  -7.868  1.00 20.00     0.093 C 
HETATM   11  O11 UNL     1     -35.109  15.102  -7.918  1.00 20.00    -0.297 OA
ENDBRANCH   8   9
TORSDOF 1
ENDMDL
MODEL 9
REMARK VINA RESULT:      -3.5     18.379     20.432
REMARK  1 active torsions:
REMARK  status: ('A' for Active; 'I' for Inactive)
REMARK    1  A    between atoms: C3_3  and  C9_9 
ROOT
HETATM    1  C1  UNL     1     -33.355  15.855  -3.755  1.00 20.00     0.013 C 
HETATM    2  C2  UNL     1     -34.209  15.935  -4.593  1.00 20.00    -0.099 C 
HETATM    3  C4  UNL     1     -35.553  18.927  -6.321  1.00 20.00     0.000 C 
HETATM    4  C5  UNL     1     -36.100  18.376  -5.009  1.00 20.00     0.002 C 
HETATM    5  C6  UNL     1     -34.357  18.119  -6.810  1.00 20.00     0.002 C 
HETATM    6  C7  UNL     1     -36.451  16.891  -5.122  1.00 20.00     0.030 C 
HETATM    7  C8  UNL     1     -34.694  16.632  -6.939  1.00 20.00     0.030 C 
HETATM    8  C9  UNL     1     -35.284  16.036  -5.647  1.00 20.00     0.083 C 
ENDROOT
BRANCH   8   9
HETATM    9  C3  UNL     1     -35.759  14.662  -5.912  1.00 20.00     0.143 C 
HETATM   10  C10 UNL     1     -36.001  13.787  -4.713  1.00 20.00     0.093 C 
HETATM   11  O11 UNL     1     -35.949  14.255  -7.057  1.00 20.00    -0.297 OA
ENDBRANCH   8   9
TORSDOF 1
ENDMDL
