MODEL 1
REMARK VINA RESULT:      -4.9      0.000      0.000
REMARK  2 active torsions:
REMARK  status: ('A' for Active; 'I' for Inactive)
REMARK    1  A    between atoms: C1_1  and  C8_8 
REMARK    2  A    between atoms: C2_2  and  C9_9 
ROOT
HETATM    1  C3  UNL     1     -31.922  18.509  -0.442  1.00 20.00     0.142 C 
HETATM    2  C4  UNL     1     -32.649  18.488   0.916  1.00 20.00     0.081 C 
HETATM    3  C5  UNL     1     -33.885  17.948   0.157  1.00 20.00     0.032 C 
HETATM    4  C8  UNL     1     -33.249  18.322  -1.213  1.00 20.00     0.135 C 
HETATM    5  O10 UNL     1     -30.760  18.628  -0.767  1.00 20.00    -0.297 OA
ENDROOT
BRANCH   4   6
HETATM    6  C1  UNL     1     -33.201  17.261  -2.190  1.00 20.00    -0.094 C 
HETATM    7  C2  UNL     1     -33.162  16.378  -3.003  1.00 20.00    -0.101 C 
BRANCH   7   8
HETATM    8  C9  UNL     1     -33.113  15.304  -3.993  1.00 20.00     0.065 A 
HETATM    9  C6  UNL     1     -34.025  15.398  -5.169  1.00 20.00     0.018 A 
HETATM   10  C7  UNL     1     -34.288  14.392  -4.089  1.00 20.00     0.018 A 
ENDBRANCH   7   8
ENDBRANCH   4   6
TORSDOF 2
ENDMDL
MODEL 2
REMARK VINA RESULT:      -4.3      2.172      5.237
REMARK  2 active torsions:
REMARK  status: ('A' for Active; 'I' for Inactive)
REMARK    1  A    between atoms: C1_1  and  C8_8 
REMARK    2  A    between atoms: C2_2  and  C9_9 
ROOT
HETATM    1  C3  UNL     1     -34.390  16.163  -5.297  1.00 20.00     0.142 C 
HETATM    2  C4  UNL     1     -35.102  14.810  -5.477  1.00 20.00     0.081 C 
HETATM    3  C5  UNL     1     -34.367  14.342  -4.198  1.00 20.00     0.032 C 
HETATM    4  C8  UNL     1     -33.411  15.569  -4.258  1.00 20.00     0.135 C 
HETATM    5  O10 UNL     1     -34.545  17.262  -5.788  1.00 20.00    -0.297 OA
ENDROOT
BRANCH   4   6
HETATM    6  C1  UNL     1     -33.316  16.348  -3.047  1.00 20.00    -0.094 C 
HETATM    7  C2  UNL     1     -33.237  16.995  -2.039  1.00 20.00    -0.101 C 
BRANCH   7   8
HETATM    8  C9  UNL     1     -33.141  17.784  -0.812  1.00 20.00     0.065 A 
HETATM    9  C6  UNL     1     -33.005  19.263  -0.943  1.00 20.00     0.018 A 
HETATM   10  C7  UNL     1     -31.835  18.434  -0.502  1.00 20.00     0.018 A 
ENDBRANCH   7   8
ENDBRANCH   4   6
TORSDOF 2
ENDMDL
MODEL 3
REMARK VINA RESULT:      -4.0      1.924      2.218
REMARK  2 active torsions:
REMARK  status: ('A' for Active; 'I' for Inactive)
REMARK    1  A    between atoms: C1_1  and  C8_8 
REMARK    2  A    between atoms: C2_2  and  C9_9 
ROOT
HETATM    1  C3  UNL     1     -34.323  18.467  -1.629  1.00 20.00     0.142 C 
HETATM    2  C4  UNL     1     -33.109  19.263  -1.113  1.00 20.00     0.081 C 
HETATM    3  C5  UNL     1     -32.275  17.978  -1.330  1.00 20.00     0.032 C 
HETATM    4  C8  UNL     1     -33.567  17.126  -1.494  1.00 20.00     0.135 C 
HETATM    5  O10 UNL     1     -35.436  18.783  -1.994  1.00 20.00    -0.297 OA
ENDROOT
BRANCH   4   6
HETATM    6  C1  UNL     1     -33.630  16.309  -2.682  1.00 20.00    -0.094 C 
HETATM    7  C2  UNL     1     -33.682  15.628  -3.670  1.00 20.00    -0.101 C 
BRANCH   7   8
HETATM    8  C9  UNL     1     -33.746  14.800  -4.872  1.00 20.00     0.065 A 
HETATM    9  C6  UNL     1     -34.291  15.417  -6.116  1.00 20.00     0.018 A 
HETATM   10  C7  UNL     1     -35.093  14.394  -5.367  1.00 20.00     0.018 A 
ENDBRANCH   7   8
ENDBRANCH   4   6
TORSDOF 2
ENDMDL
MODEL 4
REMARK VINA RESULT:      -3.8     15.276     16.173
REMARK  2 active torsions:
REMARK  status: ('A' for Active; 'I' for Inactive)
REMARK    1  A    between atoms: C1_1  and  C8_8 
REMARK    2  A    between atoms: C2_2  and  C9_9 
ROOT
HETATM    1  C3  UNL     1     -24.971  17.051  12.297  1.00 20.00     0.142 C 
HETATM    2  C4  UNL     1     -26.353  17.731  12.331  1.00 20.00     0.081 C 
HETATM    3  C5  UNL     1     -25.638  19.028  11.882  1.00 20.00     0.032 C 
HETATM    4  C8  UNL     1     -24.246  18.413  12.207  1.00 20.00     0.135 C 
HETATM    5  O10 UNL     1     -24.607  15.895  12.331  1.00 20.00    -0.297 OA
ENDROOT
BRANCH   4   6
HETATM    6  C1  UNL     1     -23.271  18.476  11.145  1.00 20.00    -0.094 C 
HETATM    7  C2  UNL     1     -22.460  18.528  10.260  1.00 20.00    -0.101 C 
BRANCH   7   8
HETATM    8  C9  UNL     1     -21.473  18.592   9.184  1.00 20.00     0.065 A 
HETATM    9  C6  UNL     1     -21.974  18.606   7.780  1.00 20.00     0.018 A 
HETATM   10  C7  UNL     1     -21.298  17.383   8.328  1.00 20.00     0.018 A 
ENDBRANCH   7   8
ENDBRANCH   4   6
TORSDOF 2
ENDMDL
MODEL 5
REMARK VINA RESULT:      -3.8     10.726     11.926
REMARK  2 active torsions:
REMARK  status: ('A' for Active; 'I' for Inactive)
REMARK    1  A    between atoms: C1_1  and  C8_8 
REMARK    2  A    between atoms: C2_2  and  C9_9 
ROOT
HETATM    1  C3  UNL     1     -41.747  15.995   6.744  1.00 20.00     0.142 C 
HETATM    2  C4  UNL     1     -41.072  17.011   7.684  1.00 20.00     0.081 C 
HETATM    3  C5  UNL     1     -40.420  15.801   8.395  1.00 20.00     0.032 C 
HETATM    4  C8  UNL     1     -41.385  14.815   7.674  1.00 20.00     0.135 C 
HETATM    5  O10 UNL     1     -42.333  16.094   5.686  1.00 20.00    -0.297 OA
ENDROOT
BRANCH   4   6
HETATM    6  C1  UNL     1     -40.754  13.713   6.988  1.00 20.00    -0.094 C 
HETATM    7  C2  UNL     1     -40.229  12.797   6.417  1.00 20.00    -0.101 C 
BRANCH   7   8
HETATM    8  C9  UNL     1     -39.590  11.681   5.722  1.00 20.00     0.065 A 
HETATM    9  C6  UNL     1     -38.207  11.883   5.204  1.00 20.00     0.018 A 
HETATM   10  C7  UNL     1     -39.365  11.812   4.253  1.00 20.00     0.018 A 
ENDBRANCH   7   8
ENDBRANCH   4   6
TORSDOF 2
ENDMDL
MODEL 6
REMARK VINA RESULT:      -3.8     10.758     11.426
REMARK  2 active torsions:
REMARK  status: ('A' for Active; 'I' for Inactive)
REMARK    1  A    between atoms: C1_1  and  C8_8 
REMARK    2  A    between atoms: C2_2  and  C9_9 
ROOT
HETATM    1  C3  UNL     1     -33.925   5.769   4.549  1.00 20.00     0.142 C 
HETATM    2  C4  UNL     1     -34.747   6.408   5.684  1.00 20.00     0.081 C 
HETATM    3  C5  UNL     1     -33.880   7.675   5.492  1.00 20.00     0.032 C 
HETATM    4  C8  UNL     1     -32.859   6.886   4.623  1.00 20.00     0.135 C 
HETATM    5  O10 UNL     1     -34.069   4.774   3.870  1.00 20.00    -0.297 OA
ENDROOT
BRANCH   4   6
HETATM    6  C1  UNL     1     -32.547   7.469   3.340  1.00 20.00    -0.094 C 
HETATM    7  C2  UNL     1     -32.288   7.954   2.273  1.00 20.00    -0.101 C 
BRANCH   7   8
HETATM    8  C9  UNL     1     -31.972   8.544   0.973  1.00 20.00     0.065 A 
HETATM    9  C6  UNL     1     -32.765   9.729   0.535  1.00 20.00     0.018 A 
HETATM   10  C7  UNL     1     -32.975   8.396  -0.121  1.00 20.00     0.018 A 
ENDBRANCH   7   8
ENDBRANCH   4   6
TORSDOF 2
ENDMDL
MODEL 7
REMARK VINA RESULT:      -3.7      3.145      6.004
REMARK  2 active torsions:
REMARK  status: ('A' for Active; 'I' for Inactive)
REMARK    1  A    between atoms: C1_1  and  C8_8 
REMARK    2  A    between atoms: C2_2  and  C9_9 
ROOT
HETATM    1  C3  UNL     1     -36.005  15.241  -6.012  1.00 20.00     0.142 C 
HETATM    2  C4  UNL     1     -35.480  15.176  -7.459  1.00 20.00     0.081 C 
HETATM    3  C5  UNL     1     -34.558  16.364  -7.094  1.00 20.00     0.032 C 
HETATM    4  C8  UNL     1     -35.357  16.627  -5.785  1.00 20.00     0.135 C 
HETATM    5  O10 UNL     1     -36.668  14.491  -5.329  1.00 20.00    -0.297 OA
ENDROOT
BRANCH   4   6
HETATM    6  C1  UNL     1     -34.571  16.703  -4.577  1.00 20.00    -0.094 C 
HETATM    7  C2  UNL     1     -33.917  16.767  -3.572  1.00 20.00    -0.101 C 
BRANCH   7   8
HETATM    8  C9  UNL     1     -33.121  16.845  -2.349  1.00 20.00     0.065 A 
HETATM    9  C6  UNL     1     -33.743  17.479  -1.152  1.00 20.00     0.018 A 
HETATM   10  C7  UNL     1     -32.658  18.191  -1.904  1.00 20.00     0.018 A 
ENDBRANCH   7   8
ENDBRANCH   4   6
TORSDOF 2
ENDMDL
MODEL 8
REMARK VINA RESULT:      -3.7     11.422     12.163
REMARK  2 active torsions:
REMARK  status: ('A' for Active; 'I' for Inactive)
REMARK    1  A    between atoms: C1_1  and  C8_8 
REMARK    2  A    between atoms: C2_2  and  C9_9 
ROOT
HETATM    1  C3  UNL     1     -34.405   6.452   6.193  1.00 20.00     0.142 C 
HETATM    2  C4  UNL     1     -34.449   4.926   6.394  1.00 20.00     0.081 C 
HETATM    3  C5  UNL     1     -34.382   4.801   4.853  1.00 20.00     0.032 C 
HETATM    4  C8  UNL     1     -34.700   6.315   4.682  1.00 20.00     0.135 C 
HETATM    5  O10 UNL     1     -34.213   7.388   6.940  1.00 20.00    -0.297 OA
ENDROOT
BRANCH   4   6
HETATM    6  C1  UNL     1     -33.786   7.056   3.848  1.00 20.00    -0.094 C 
HETATM    7  C2  UNL     1     -33.025   7.673   3.153  1.00 20.00    -0.101 C 
BRANCH   7   8
HETATM    8  C9  UNL     1     -32.100   8.423   2.307  1.00 20.00     0.065 A 
HETATM    9  C6  UNL     1     -32.679   9.332   1.275  1.00 20.00     0.018 A 
HETATM   10  C7  UNL     1     -32.015   8.050   0.865  1.00 20.00     0.018 A 
ENDBRANCH   7   8
ENDBRANCH   4   6
TORSDOF 2
ENDMDL
MODEL 9
REMARK VINA RESULT:      -3.7      4.384      7.376
REMARK  2 active torsions:
REMARK  status: ('A' for Active; 'I' for Inactive)
REMARK    1  A    between atoms: C1_1  and  C8_8 
REMARK    2  A    between atoms: C2_2  and  C9_9 
ROOT
HETATM    1  C3  UNL     1     -31.165  18.914   0.691  1.00 20.00     0.142 C 
HETATM    2  C4  UNL     1     -32.656  19.262   0.851  1.00 20.00     0.081 C 
HETATM    3  C5  UNL     1     -32.522  18.817   2.326  1.00 20.00     0.032 C 
HETATM    4  C8  UNL     1     -31.146  18.149   2.035  1.00 20.00     0.135 C 
HETATM    5  O10 UNL     1     -30.337  19.151  -0.163  1.00 20.00    -0.297 OA
ENDROOT
BRANCH   4   6
HETATM    6  C1  UNL     1     -30.064  18.541   2.905  1.00 20.00    -0.094 C 
HETATM    7  C2  UNL     1     -29.163  18.866   3.629  1.00 20.00    -0.101 C 
BRANCH   7   8
HETATM    8  C9  UNL     1     -28.067  19.263   4.511  1.00 20.00     0.065 A 
HETATM    9  C6  UNL     1     -26.674  18.982   4.059  1.00 20.00     0.018 A 
HETATM   10  C7  UNL     1     -27.281  18.183   5.174  1.00 20.00     0.018 A 
ENDBRANCH   7   8
ENDBRANCH   4   6
TORSDOF 2
ENDMDL
