MODEL 1
REMARK VINA RESULT:      -3.3      0.000      0.000
REMARK  2 active torsions:
REMARK  status: ('A' for Active; 'I' for Inactive)
REMARK    1  A    between atoms: C6_6  and  C7_7 
REMARK    2  A    between atoms: C6_6  and  N8_8 
ROOT
HETATM    1  C1  UNL     1     -21.897  18.564  10.292  1.00 20.00     0.283 C 
HETATM    2  C2  UNL     1     -21.297  17.609   9.267  1.00 20.00     0.105 C 
HETATM    3  C3  UNL     1     -23.176  19.260   8.440  1.00 20.00     0.346 C 
HETATM    4  N8  UNL     1     -23.254  18.959   9.876  1.00 20.00     0.098 N 
HETATM    5  S9  UNL     1     -21.870  18.254   7.680  1.00 20.00    -0.138 SA
ENDROOT
BRANCH   4   6
HETATM    6  C6  UNL     1     -24.236  17.912  10.158  1.00 20.00     0.277 C 
BRANCH   6   7
HETATM    7  C7  UNL     1     -24.337  17.615  11.658  1.00 20.00     0.006 C 
HETATM    8  C4  UNL     1     -25.469  18.395  12.330  1.00 20.00     0.011 C 
HETATM    9  C5  UNL     1     -24.475  16.117  11.939  1.00 20.00     0.011 C 
ENDBRANCH   6   7
ENDBRANCH   4   6
TORSDOF 2
ENDMDL
MODEL 2
REMARK VINA RESULT:      -3.2     18.029     19.009
REMARK  2 active torsions:
REMARK  status: ('A' for Active; 'I' for Inactive)
REMARK    1  A    between atoms: C6_6  and  C7_7 
REMARK    2  A    between atoms: C6_6  and  N8_8 
ROOT
HETATM    1  C1  UNL     1     -40.837  14.263   7.234  1.00 20.00     0.283 C 
HETATM    2  C2  UNL     1     -41.993  15.136   6.759  1.00 20.00     0.105 C 
HETATM    3  C3  UNL     1     -42.370  12.528   6.794  1.00 20.00     0.346 C 
HETATM    4  N8  UNL     1     -40.958  12.912   6.658  1.00 20.00     0.098 N 
HETATM    5  S9  UNL     1     -43.410  14.015   6.744  1.00 20.00    -0.138 SA
ENDROOT
BRANCH   4   6
HETATM    6  C6  UNL     1     -40.518  12.874   5.264  1.00 20.00     0.277 C 
BRANCH   6   7
HETATM    7  C7  UNL     1     -39.416  11.831   5.042  1.00 20.00     0.006 C 
HETATM    8  C4  UNL     1     -39.033  11.695   3.567  1.00 20.00     0.011 C 
HETATM    9  C5  UNL     1     -38.179  12.113   5.896  1.00 20.00     0.011 C 
ENDBRANCH   6   7
ENDBRANCH   4   6
TORSDOF 2
ENDMDL
MODEL 3
REMARK VINA RESULT:      -3.1     15.562     16.541
REMARK  2 active torsions:
REMARK  status: ('A' for Active; 'I' for Inactive)
REMARK    1  A    between atoms: C6_6  and  C7_7 
REMARK    2  A    between atoms: C6_6  and  N8_8 
ROOT
HETATM    1  C1  UNL     1     -33.004  15.759  -3.806  1.00 20.00     0.283 C 
HETATM    2  C2  UNL     1     -34.385  15.500  -4.396  1.00 20.00     0.105 C 
HETATM    3  C3  UNL     1     -33.676  18.008  -4.014  1.00 20.00     0.346 C 
HETATM    4  N8  UNL     1     -32.987  17.064  -3.122  1.00 20.00     0.098 N 
HETATM    5  S9  UNL     1     -34.915  17.118  -4.998  1.00 20.00    -0.138 SA
ENDROOT
BRANCH   4   6
HETATM    6  C6  UNL     1     -33.625  16.998  -1.808  1.00 20.00     0.277 C 
BRANCH   6   7
HETATM    7  C7  UNL     1     -33.256  18.203  -0.934  1.00 20.00     0.006 C 
HETATM    8  C4  UNL     1     -33.903  18.136   0.451  1.00 20.00     0.011 C 
HETATM    9  C5  UNL     1     -31.742  18.383  -0.813  1.00 20.00     0.011 C 
ENDBRANCH   6   7
ENDBRANCH   4   6
TORSDOF 2
ENDMDL
MODEL 4
REMARK VINA RESULT:      -3.1     16.068     17.068
REMARK  2 active torsions:
REMARK  status: ('A' for Active; 'I' for Inactive)
REMARK    1  A    between atoms: C6_6  and  C7_7 
REMARK    2  A    between atoms: C6_6  and  N8_8 
ROOT
HETATM    1  C1  UNL     1     -32.857  15.321  -4.092  1.00 20.00     0.283 C 
HETATM    2  C2  UNL     1     -34.111  14.521  -4.425  1.00 20.00     0.105 C 
HETATM    3  C3  UNL     1     -34.245  17.143  -4.644  1.00 20.00     0.346 C 
HETATM    4  N8  UNL     1     -33.227  16.688  -3.687  1.00 20.00     0.098 N 
HETATM    5  S9  UNL     1     -35.184  15.715  -5.255  1.00 20.00    -0.138 SA
ENDROOT
BRANCH   4   6
HETATM    6  C6  UNL     1     -33.719  16.734  -2.311  1.00 20.00     0.277 C 
BRANCH   6   7
HETATM    7  C7  UNL     1     -32.899  17.697  -1.444  1.00 20.00     0.006 C 
HETATM    8  C4  UNL     1     -32.540  18.985  -2.188  1.00 20.00     0.011 C 
HETATM    9  C5  UNL     1     -33.598  18.016  -0.121  1.00 20.00     0.011 C 
ENDBRANCH   6   7
ENDBRANCH   4   6
TORSDOF 2
ENDMDL
MODEL 5
REMARK VINA RESULT:      -3.1     14.764     15.973
REMARK  2 active torsions:
REMARK  status: ('A' for Active; 'I' for Inactive)
REMARK    1  A    between atoms: C6_6  and  C7_7 
REMARK    2  A    between atoms: C6_6  and  N8_8 
ROOT
HETATM    1  C1  UNL     1     -34.225  19.059  -0.818  1.00 20.00     0.283 C 
HETATM    2  C2  UNL     1     -34.051  18.644   0.639  1.00 20.00     0.105 C 
HETATM    3  C3  UNL     1     -31.911  18.622  -0.898  1.00 20.00     0.346 C 
HETATM    4  N8  UNL     1     -33.166  18.451  -1.642  1.00 20.00     0.098 N 
HETATM    5  S9  UNL     1     -32.261  18.645   0.884  1.00 20.00    -0.138 SA
ENDROOT
BRANCH   4   6
HETATM    6  C6  UNL     1     -33.439  17.043  -1.927  1.00 20.00     0.277 C 
BRANCH   6   7
HETATM    7  C7  UNL     1     -33.293  16.724  -3.420  1.00 20.00     0.006 C 
HETATM    8  C4  UNL     1     -33.596  15.258  -3.733  1.00 20.00     0.011 C 
HETATM    9  C5  UNL     1     -34.145  17.649  -4.291  1.00 20.00     0.011 C 
ENDBRANCH   6   7
ENDBRANCH   4   6
TORSDOF 2
ENDMDL
MODEL 6
REMARK VINA RESULT:      -3.0     17.721     18.761
REMARK  2 active torsions:
REMARK  status: ('A' for Active; 'I' for Inactive)
REMARK    1  A    between atoms: C6_6  and  C7_7 
REMARK    2  A    between atoms: C6_6  and  N8_8 
ROOT
HETATM    1  C1  UNL     1     -34.541  14.433  -4.739  1.00 20.00     0.283 C 
HETATM    2  C2  UNL     1     -35.968  14.369  -5.273  1.00 20.00     0.105 C 
HETATM    3  C3  UNL     1     -34.254  15.903  -6.558  1.00 20.00     0.346 C 
HETATM    4  N8  UNL     1     -33.910  15.701  -5.143  1.00 20.00     0.098 N 
HETATM    5  S9  UNL     1     -35.857  15.127  -6.908  1.00 20.00    -0.138 SA
ENDROOT
BRANCH   4   6
HETATM    6  C6  UNL     1     -34.357  16.819  -4.313  1.00 20.00     0.277 C 
BRANCH   6   7
HETATM    7  C7  UNL     1     -33.245  17.316  -3.380  1.00 20.00     0.006 C 
HETATM    8  C4  UNL     1     -33.003  18.820  -3.514  1.00 20.00     0.011 C 
HETATM    9  C5  UNL     1     -33.508  16.940  -1.921  1.00 20.00     0.011 C 
ENDBRANCH   6   7
ENDBRANCH   4   6
TORSDOF 2
ENDMDL
MODEL 7
REMARK VINA RESULT:      -2.9     14.727     15.816
REMARK  2 active torsions:
REMARK  status: ('A' for Active; 'I' for Inactive)
REMARK    1  A    between atoms: C6_6  and  C7_7 
REMARK    2  A    between atoms: C6_6  and  N8_8 
ROOT
HETATM    1  C1  UNL     1     -34.928  18.420  -2.646  1.00 20.00     0.283 C 
HETATM    2  C2  UNL     1     -34.523  18.157  -4.092  1.00 20.00     0.105 C 
HETATM    3  C3  UNL     1     -33.488  16.601  -2.234  1.00 20.00     0.346 C 
HETATM    4  N8  UNL     1     -33.882  17.925  -1.734  1.00 20.00     0.098 N 
HETATM    5  S9  UNL     1     -33.720  16.540  -4.034  1.00 20.00    -0.138 SA
ENDROOT
BRANCH   4   6
HETATM    6  C6  UNL     1     -32.742  18.839  -1.665  1.00 20.00     0.277 C 
BRANCH   6   7
HETATM    7  C7  UNL     1     -32.330  19.128  -0.217  1.00 20.00     0.006 C 
HETATM    8  C4  UNL     1     -33.408  18.716   0.788  1.00 20.00     0.011 C 
HETATM    9  C5  UNL     1     -30.989  18.483   0.138  1.00 20.00     0.011 C 
ENDBRANCH   6   7
ENDBRANCH   4   6
TORSDOF 2
ENDMDL
MODEL 8
REMARK VINA RESULT:      -2.9     17.355     18.454
REMARK  2 active torsions:
REMARK  status: ('A' for Active; 'I' for Inactive)
REMARK    1  A    between atoms: C6_6  and  C7_7 
REMARK    2  A    between atoms: C6_6  and  N8_8 
ROOT
HETATM    1  C1  UNL     1     -35.422  16.745  -5.119  1.00 20.00     0.283 C 
HETATM    2  C2  UNL     1     -34.878  17.145  -6.485  1.00 20.00     0.105 C 
HETATM    3  C3  UNL     1     -34.128  14.815  -5.511  1.00 20.00     0.346 C 
HETATM    4  N8  UNL     1     -34.507  15.787  -4.475  1.00 20.00     0.098 N 
HETATM    5  S9  UNL     1     -34.168  15.618  -7.138  1.00 20.00    -0.138 SA
ENDROOT
BRANCH   4   6
HETATM    6  C6  UNL     1     -33.337  16.452  -3.903  1.00 20.00     0.277 C 
BRANCH   6   7
HETATM    7  C7  UNL     1     -33.735  17.596  -2.963  1.00 20.00     0.006 C 
HETATM    8  C4  UNL     1     -33.606  17.208  -1.489  1.00 20.00     0.011 C 
HETATM    9  C5  UNL     1     -32.951  18.877  -3.254  1.00 20.00     0.011 C 
ENDBRANCH   6   7
ENDBRANCH   4   6
TORSDOF 2
ENDMDL
MODEL 9
REMARK VINA RESULT:      -2.8     18.499     19.538
REMARK  2 active torsions:
REMARK  status: ('A' for Active; 'I' for Inactive)
REMARK    1  A    between atoms: C6_6  and  C7_7 
REMARK    2  A    between atoms: C6_6  and  N8_8 
ROOT
HETATM    1  C1  UNL     1     -36.441  15.798  -5.683  1.00 20.00     0.283 C 
HETATM    2  C2  UNL     1     -37.344  16.959  -6.085  1.00 20.00     0.105 C 
HETATM    3  C3  UNL     1     -34.845  17.014  -6.918  1.00 20.00     0.346 C 
HETATM    4  N8  UNL     1     -35.033  16.231  -5.689  1.00 20.00     0.098 N 
HETATM    5  S9  UNL     1     -36.410  17.814  -7.373  1.00 20.00    -0.138 SA
ENDROOT
BRANCH   4   6
HETATM    6  C6  UNL     1     -34.699  17.008  -4.496  1.00 20.00     0.277 C 
BRANCH   6   7
HETATM    7  C7  UNL     1     -33.439  16.475  -3.803  1.00 20.00     0.006 C 
HETATM    8  C4  UNL     1     -33.462  16.712  -2.292  1.00 20.00     0.011 C 
HETATM    9  C5  UNL     1     -33.195  14.997  -4.113  1.00 20.00     0.011 C 
ENDBRANCH   6   7
ENDBRANCH   4   6
TORSDOF 2
ENDMDL
