MODEL 1
REMARK VINA RESULT:      -3.6      0.000      0.000
REMARK  1 active torsions:
REMARK  status: ('A' for Active; 'I' for Inactive)
REMARK    1  A    between atoms: C8_8  and  O11_11 
ROOT
HETATM    1  C1  UNL     1     -41.687  13.993   8.648  1.00 20.00    -0.023 C 
HETATM    2  C2  UNL     1     -40.469  14.374   8.229  1.00 20.00    -0.022 C 
HETATM    3  C3  UNL     1     -40.051  12.395   4.971  1.00 20.00     0.011 A 
HETATM    4  C4  UNL     1     -39.454  11.930   6.271  1.00 20.00     0.011 A 
HETATM    5  C5  UNL     1     -42.022  12.432   6.736  1.00 20.00     0.021 C 
HETATM    6  C6  UNL     1     -42.538  13.736   7.418  1.00 20.00     0.038 C 
HETATM    7  C7  UNL     1     -40.490  14.333   6.713  1.00 20.00     0.046 C 
HETATM    8  C8  UNL     1     -41.943  14.796   6.474  1.00 20.00     0.136 C 
HETATM    9  C9  UNL     1     -40.625  12.876   6.278  1.00 20.00    -0.030 A 
ENDROOT
BRANCH   8  10
HETATM   10  O11 UNL     1     -42.209  16.127   6.869  1.00 20.00    -0.389 OA
HETATM   11  C10 UNL     1     -42.398  16.984   5.748  1.00 20.00     0.202 C 
ENDBRANCH   8  10
TORSDOF 1
ENDMDL
MODEL 2
REMARK VINA RESULT:      -3.4      1.444      2.806
REMARK  1 active torsions:
REMARK  status: ('A' for Active; 'I' for Inactive)
REMARK    1  A    between atoms: C8_8  and  O11_11 
ROOT
HETATM    1  C1  UNL     1     -42.623  14.908   6.413  1.00 20.00    -0.023 C 
HETATM    2  C2  UNL     1     -42.934  13.750   5.807  1.00 20.00    -0.022 C 
HETATM    3  C3  UNL     1     -39.667  11.762   6.083  1.00 20.00     0.011 A 
HETATM    4  C4  UNL     1     -40.044  12.511   4.834  1.00 20.00     0.011 A 
HETATM    5  C5  UNL     1     -40.271  14.218   6.859  1.00 20.00     0.021 C 
HETATM    6  C6  UNL     1     -41.631  14.598   7.520  1.00 20.00     0.038 C 
HETATM    7  C7  UNL     1     -42.117  12.665   6.483  1.00 20.00     0.046 C 
HETATM    8  C8  UNL     1     -42.140  13.204   7.929  1.00 20.00     0.136 C 
HETATM    9  C9  UNL     1     -40.645  12.903   6.157  1.00 20.00    -0.030 A 
ENDROOT
BRANCH   8  10
HETATM   10  O11 UNL     1     -43.417  13.215   8.533  1.00 20.00    -0.389 OA
HETATM   11  C10 UNL     1     -43.331  13.278   9.953  1.00 20.00     0.202 C 
ENDBRANCH   8  10
TORSDOF 1
ENDMDL
MODEL 3
REMARK VINA RESULT:      -3.4     11.810     12.936
REMARK  1 active torsions:
REMARK  status: ('A' for Active; 'I' for Inactive)
REMARK    1  A    between atoms: C8_8  and  O11_11 
ROOT
HETATM    1  C1  UNL     1     -33.009  18.978  -3.105  1.00 20.00    -0.023 C 
HETATM    2  C2  UNL     1     -33.259  18.541  -4.350  1.00 20.00    -0.022 C 
HETATM    3  C3  UNL     1     -34.043  14.830  -3.793  1.00 20.00     0.011 A 
HETATM    4  C4  UNL     1     -32.685  15.302  -4.236  1.00 20.00     0.011 A 
HETATM    5  C5  UNL     1     -33.338  16.727  -2.089  1.00 20.00     0.021 C 
HETATM    6  C6  UNL     1     -33.887  18.185  -2.153  1.00 20.00     0.038 C 
HETATM    7  C7  UNL     1     -34.278  17.424  -4.231  1.00 20.00     0.046 C 
HETATM    8  C8  UNL     1     -35.115  17.978  -3.058  1.00 20.00     0.136 C 
HETATM    9  C9  UNL     1     -33.614  16.247  -3.522  1.00 20.00    -0.030 A 
ENDROOT
BRANCH   8  10
HETATM   10  O11 UNL     1     -35.819  19.169  -3.347  1.00 20.00    -0.389 OA
HETATM   11  C10 UNL     1     -37.037  19.255  -2.615  1.00 20.00     0.202 C 
ENDBRANCH   8  10
TORSDOF 1
ENDMDL
MODEL 4
REMARK VINA RESULT:      -3.4     11.791     12.847
REMARK  1 active torsions:
REMARK  status: ('A' for Active; 'I' for Inactive)
REMARK    1  A    between atoms: C8_8  and  O11_11 
ROOT
HETATM    1  C1  UNL     1     -33.324  17.132  -3.707  1.00 20.00    -0.023 C 
HETATM    2  C2  UNL     1     -33.524  16.569  -2.504  1.00 20.00    -0.022 C 
HETATM    3  C3  UNL     1     -32.245  19.263  -0.095  1.00 20.00     0.011 A 
HETATM    4  C4  UNL     1     -31.400  18.087  -0.500  1.00 20.00     0.011 A 
HETATM    5  C5  UNL     1     -32.311  19.193  -2.739  1.00 20.00     0.021 C 
HETATM    6  C6  UNL     1     -33.517  18.631  -3.552  1.00 20.00     0.038 C 
HETATM    7  C7  UNL     1     -33.814  17.695  -1.531  1.00 20.00     0.046 C 
HETATM    8  C8  UNL     1     -34.608  18.632  -2.466  1.00 20.00     0.136 C 
HETATM    9  C9  UNL     1     -32.544  18.527  -1.374  1.00 20.00    -0.030 A 
ENDROOT
BRANCH   8  10
HETATM   10  O11 UNL     1     -35.849  18.115  -2.901  1.00 20.00    -0.389 OA
HETATM   11  C10 UNL     1     -36.877  19.099  -2.860  1.00 20.00     0.202 C 
ENDBRANCH   8  10
TORSDOF 1
ENDMDL
MODEL 5
REMARK VINA RESULT:      -3.4     20.200     21.830
REMARK  1 active torsions:
REMARK  status: ('A' for Active; 'I' for Inactive)
REMARK    1  A    between atoms: C8_8  and  O11_11 
ROOT
HETATM    1  C1  UNL     1     -27.653  -0.313  10.382  1.00 20.00    -0.023 C 
HETATM    2  C2  UNL     1     -27.866  -1.515   9.822  1.00 20.00    -0.022 C 
HETATM    3  C3  UNL     1     -25.372  -3.756  11.683  1.00 20.00     0.011 A 
HETATM    4  C4  UNL     1     -25.072  -3.182  10.325  1.00 20.00     0.011 A 
HETATM    5  C5  UNL     1     -25.841  -1.158  11.868  1.00 20.00     0.021 C 
HETATM    6  C6  UNL     1     -27.272  -0.541  11.834  1.00 20.00     0.038 C 
HETATM    7  C7  UNL     1     -27.588  -2.555  10.891  1.00 20.00     0.046 C 
HETATM    8  C8  UNL     1     -28.121  -1.793  12.122  1.00 20.00     0.136 C 
HETATM    9  C9  UNL     1     -26.096  -2.523  11.211  1.00 20.00    -0.030 A 
ENDROOT
BRANCH   8  10
HETATM   10  O11 UNL     1     -29.514  -1.554  12.110  1.00 20.00    -0.389 OA
HETATM   11  C10 UNL     1     -30.257  -2.749  12.329  1.00 20.00     0.202 C 
ENDBRANCH   8  10
TORSDOF 1
ENDMDL
MODEL 6
REMARK VINA RESULT:      -3.4      1.571      3.151
REMARK  1 active torsions:
REMARK  status: ('A' for Active; 'I' for Inactive)
REMARK    1  A    between atoms: C8_8  and  O11_11 
ROOT
HETATM    1  C1  UNL     1     -41.155  12.215   6.300  1.00 20.00    -0.023 C 
HETATM    2  C2  UNL     1     -40.448  13.259   5.837  1.00 20.00    -0.022 C 
HETATM    3  C3  UNL     1     -43.153  15.919   5.281  1.00 20.00     0.011 A 
HETATM    4  C4  UNL     1     -42.625  15.069   4.158  1.00 20.00     0.011 A 
HETATM    5  C5  UNL     1     -43.331  13.414   6.115  1.00 20.00     0.021 C 
HETATM    6  C6  UNL     1     -42.317  12.766   7.107  1.00 20.00     0.038 C 
HETATM    7  C7  UNL     1     -41.160  14.515   6.300  1.00 20.00     0.046 C 
HETATM    8  C8  UNL     1     -41.647  14.028   7.681  1.00 20.00     0.136 C 
HETATM    9  C9  UNL     1     -42.504  14.594   5.582  1.00 20.00    -0.030 A 
ENDROOT
BRANCH   8  10
HETATM   10  O11 UNL     1     -40.615  13.756   8.608  1.00 20.00    -0.389 OA
HETATM   11  C10 UNL     1     -40.213  14.927   9.311  1.00 20.00     0.202 C 
ENDBRANCH   8  10
TORSDOF 1
ENDMDL
MODEL 7
REMARK VINA RESULT:      -3.3      1.610      3.533
REMARK  1 active torsions:
REMARK  status: ('A' for Active; 'I' for Inactive)
REMARK    1  A    between atoms: C8_8  and  O11_11 
ROOT
HETATM    1  C1  UNL     1     -42.952  13.909   5.909  1.00 20.00    -0.023 C 
HETATM    2  C2  UNL     1     -42.031  14.883   5.830  1.00 20.00    -0.022 C 
HETATM    3  C3  UNL     1     -40.358  14.731   9.277  1.00 20.00     0.011 A 
HETATM    4  C4  UNL     1     -41.436  15.730   8.955  1.00 20.00     0.011 A 
HETATM    5  C5  UNL     1     -42.365  13.338   8.262  1.00 20.00     0.021 C 
HETATM    6  C6  UNL     1     -42.388  12.812   6.795  1.00 20.00     0.038 C 
HETATM    7  C7  UNL     1     -40.862  14.458   6.698  1.00 20.00     0.046 C 
HETATM    8  C8  UNL     1     -40.898  12.938   6.432  1.00 20.00     0.136 C 
HETATM    9  C9  UNL     1     -41.323  14.461   8.153  1.00 20.00    -0.030 A 
ENDROOT
BRANCH   8  10
HETATM   10  O11 UNL     1     -40.599  12.566   5.101  1.00 20.00    -0.389 OA
HETATM   11  C10 UNL     1     -39.362  11.867   5.012  1.00 20.00     0.202 C 
ENDBRANCH   8  10
TORSDOF 1
ENDMDL
MODEL 8
REMARK VINA RESULT:      -3.3     20.920     23.164
REMARK  1 active torsions:
REMARK  status: ('A' for Active; 'I' for Inactive)
REMARK    1  A    between atoms: C8_8  and  O11_11 
ROOT
HETATM    1  C1  UNL     1     -25.300  -3.576  12.207  1.00 20.00    -0.023 C 
HETATM    2  C2  UNL     1     -26.369  -3.916  11.468  1.00 20.00    -0.022 C 
HETATM    3  C3  UNL     1     -27.695  -0.512  10.304  1.00 20.00     0.011 A 
HETATM    4  C4  UNL     1     -28.284  -1.239  11.481  1.00 20.00     0.011 A 
HETATM    5  C5  UNL     1     -25.656  -1.133  11.872  1.00 20.00     0.021 C 
HETATM    6  C6  UNL     1     -24.693  -2.327  11.593  1.00 20.00     0.038 C 
HETATM    7  C7  UNL     1     -26.504  -2.869  10.379  1.00 20.00     0.046 C 
HETATM    8  C8  UNL     1     -25.008  -2.597  10.111  1.00 20.00     0.136 C 
HETATM    9  C9  UNL     1     -26.878  -1.543  11.036  1.00 20.00    -0.030 A 
ENDROOT
BRANCH   8  10
HETATM   10  O11 UNL     1     -24.300  -3.692   9.566  1.00 20.00    -0.389 OA
HETATM   11  C10 UNL     1     -23.511  -3.306   8.445  1.00 20.00     0.202 C 
ENDBRANCH   8  10
TORSDOF 1
ENDMDL
MODEL 9
REMARK VINA RESULT:      -3.3     13.244     14.624
REMARK  1 active torsions:
REMARK  status: ('A' for Active; 'I' for Inactive)
REMARK    1  A    between atoms: C8_8  and  O11_11 
ROOT
HETATM    1  C1  UNL     1     -36.268  15.847  -7.029  1.00 20.00    -0.023 C 
HETATM    2  C2  UNL     1     -36.523  16.077  -5.730  1.00 20.00    -0.022 C 
HETATM    3  C3  UNL     1     -33.148  15.328  -4.071  1.00 20.00     0.011 A 
HETATM    4  C4  UNL     1     -34.263  14.320  -4.106  1.00 20.00     0.011 A 
HETATM    5  C5  UNL     1     -33.909  15.168  -6.600  1.00 20.00     0.021 C 
HETATM    6  C6  UNL     1     -34.822  16.228  -7.290  1.00 20.00     0.038 C 
HETATM    7  C7  UNL     1     -35.232  16.577  -5.109  1.00 20.00     0.046 C 
HETATM    8  C8  UNL     1     -34.687  17.397  -6.297  1.00 20.00     0.136 C 
HETATM    9  C9  UNL     1     -34.224  15.432  -5.120  1.00 20.00    -0.030 A 
ENDROOT
BRANCH   8  10
HETATM   10  O11 UNL     1     -35.463  18.528  -6.637  1.00 20.00    -0.389 OA
HETATM   11  C10 UNL     1     -34.886  19.263  -7.711  1.00 20.00     0.202 C 
ENDBRANCH   8  10
TORSDOF 1
ENDMDL
