MODEL 1
REMARK VINA RESULT:      -5.1      0.000      0.000
REMARK  2 active torsions:
REMARK  status: ('A' for Active; 'I' for Inactive)
REMARK    1  A    between atoms: C1_1  and  C7_7 
REMARK    2  A    between atoms: C4_4  and  C7_7 
ROOT
HETATM    1  C6  UNL     1     -34.164   6.812   6.382  1.00 20.00     0.018 C 
HETATM    2  C7  UNL     1     -34.018   6.866   4.862  1.00 20.00     0.055 C 
ENDROOT
BRANCH   2   3
HETATM    3  C1  UNL     1     -34.097   5.470   4.254  1.00 20.00     0.127 C 
HETATM    4  C5  UNL     1     -33.289   5.223   3.005  1.00 20.00     0.091 C 
HETATM    5  O8  UNL     1     -34.804   4.581   4.731  1.00 20.00    -0.298 OA
ENDBRANCH   2   3
BRANCH   2   6
HETATM    6  C4  UNL     1     -32.704   7.531   4.470  1.00 20.00    -0.004 A 
HETATM    7  C2  UNL     1     -32.688   8.632   3.446  1.00 20.00     0.006 A 
HETATM    8  C3  UNL     1     -32.418   8.946   4.891  1.00 20.00     0.006 A 
ENDBRANCH   2   6
TORSDOF 2
ENDMDL
MODEL 2
REMARK VINA RESULT:      -5.0      1.121      2.159
REMARK  2 active torsions:
REMARK  status: ('A' for Active; 'I' for Inactive)
REMARK    1  A    between atoms: C1_1  and  C7_7 
REMARK    2  A    between atoms: C4_4  and  C7_7 
ROOT
HETATM    1  C6  UNL     1     -33.215   5.418   2.833  1.00 20.00     0.018 C 
HETATM    2  C7  UNL     1     -33.355   6.145   4.168  1.00 20.00     0.055 C 
ENDROOT
BRANCH   2   3
HETATM    3  C1  UNL     1     -34.662   5.774   4.861  1.00 20.00     0.127 C 
HETATM    4  C5  UNL     1     -34.565   5.287   6.285  1.00 20.00     0.091 C 
HETATM    5  O8  UNL     1     -35.752   5.835   4.290  1.00 20.00    -0.298 OA
ENDBRANCH   2   3
BRANCH   2   6
HETATM    6  C4  UNL     1     -33.282   7.655   3.970  1.00 20.00    -0.004 A 
HETATM    7  C2  UNL     1     -33.462   8.582   5.140  1.00 20.00     0.006 A 
HETATM    8  C3  UNL     1     -32.110   8.432   4.501  1.00 20.00     0.006 A 
ENDBRANCH   2   6
TORSDOF 2
ENDMDL
MODEL 3
REMARK VINA RESULT:      -4.9      1.832      2.987
REMARK  2 active torsions:
REMARK  status: ('A' for Active; 'I' for Inactive)
REMARK    1  A    between atoms: C1_1  and  C7_7 
REMARK    2  A    between atoms: C4_4  and  C7_7 
ROOT
HETATM    1  C6  UNL     1     -32.484   8.657   4.735  1.00 20.00     0.018 C 
HETATM    2  C7  UNL     1     -32.798   7.179   4.510  1.00 20.00     0.055 C 
ENDROOT
BRANCH   2   3
HETATM    3  C1  UNL     1     -32.622   6.799   3.044  1.00 20.00     0.127 C 
HETATM    4  C5  UNL     1     -32.887   5.360   2.675  1.00 20.00     0.091 C 
HETATM    5  O8  UNL     1     -32.254   7.608   2.191  1.00 20.00    -0.298 OA
ENDBRANCH   2   3
BRANCH   2   6
HETATM    6  C4  UNL     1     -34.216   6.854   4.966  1.00 20.00    -0.004 A 
HETATM    7  C2  UNL     1     -34.597   5.439   5.301  1.00 20.00     0.006 A 
HETATM    8  C3  UNL     1     -34.481   6.465   6.394  1.00 20.00     0.006 A 
ENDBRANCH   2   6
TORSDOF 2
ENDMDL
MODEL 4
REMARK VINA RESULT:      -4.8      1.436      2.909
REMARK  2 active torsions:
REMARK  status: ('A' for Active; 'I' for Inactive)
REMARK    1  A    between atoms: C1_1  and  C7_7 
REMARK    2  A    between atoms: C4_4  and  C7_7 
ROOT
HETATM    1  C6  UNL     1     -32.537   8.643   4.708  1.00 20.00     0.018 C 
HETATM    2  C7  UNL     1     -32.824   7.156   4.513  1.00 20.00     0.055 C 
ENDROOT
BRANCH   2   3
HETATM    3  C1  UNL     1     -32.621   6.745   3.059  1.00 20.00     0.127 C 
HETATM    4  C5  UNL     1     -32.247   7.836   2.087  1.00 20.00     0.091 C 
HETATM    5  O8  UNL     1     -32.778   5.586   2.672  1.00 20.00    -0.298 OA
ENDBRANCH   2   3
BRANCH   2   6
HETATM    6  C4  UNL     1     -34.244   6.818   4.956  1.00 20.00    -0.004 A 
HETATM    7  C2  UNL     1     -34.659   5.384   5.136  1.00 20.00     0.006 A 
HETATM    8  C3  UNL     1     -34.496   6.277   6.335  1.00 20.00     0.006 A 
ENDBRANCH   2   6
TORSDOF 2
ENDMDL
MODEL 5
REMARK VINA RESULT:      -4.7      1.252      2.168
REMARK  2 active torsions:
REMARK  status: ('A' for Active; 'I' for Inactive)
REMARK    1  A    between atoms: C1_1  and  C7_7 
REMARK    2  A    between atoms: C4_4  and  C7_7 
ROOT
HETATM    1  C6  UNL     1     -33.538   8.350   5.676  1.00 20.00     0.018 C 
HETATM    2  C7  UNL     1     -33.907   7.405   4.535  1.00 20.00     0.055 C 
ENDROOT
BRANCH   2   3
HETATM    3  C1  UNL     1     -34.751   6.239   5.040  1.00 20.00     0.127 C 
HETATM    4  C5  UNL     1     -34.358   5.637   6.366  1.00 20.00     0.091 C 
HETATM    5  O8  UNL     1     -35.694   5.780   4.396  1.00 20.00    -0.298 OA
ENDBRANCH   2   3
BRANCH   2   6
HETATM    6  C4  UNL     1     -32.654   6.879   3.844  1.00 20.00    -0.004 A 
HETATM    7  C2  UNL     1     -32.771   5.916   2.696  1.00 20.00     0.006 A 
HETATM    8  C3  UNL     1     -32.315   7.327   2.449  1.00 20.00     0.006 A 
ENDBRANCH   2   6
TORSDOF 2
ENDMDL
MODEL 6
REMARK VINA RESULT:      -4.6      1.002      1.224
REMARK  2 active torsions:
REMARK  status: ('A' for Active; 'I' for Inactive)
REMARK    1  A    between atoms: C1_1  and  C7_7 
REMARK    2  A    between atoms: C4_4  and  C7_7 
ROOT
HETATM    1  C6  UNL     1     -34.019   7.029   6.350  1.00 20.00     0.018 C 
HETATM    2  C7  UNL     1     -33.858   7.124   4.834  1.00 20.00     0.055 C 
ENDROOT
BRANCH   2   3
HETATM    3  C1  UNL     1     -33.953   5.747   4.187  1.00 20.00     0.127 C 
HETATM    4  C5  UNL     1     -34.693   4.680   4.954  1.00 20.00     0.091 C 
HETATM    5  O8  UNL     1     -33.431   5.491   3.101  1.00 20.00    -0.298 OA
ENDBRANCH   2   3
BRANCH   2   6
HETATM    6  C4  UNL     1     -32.531   7.779   4.473  1.00 20.00    -0.004 A 
HETATM    7  C2  UNL     1     -32.461   8.781   3.354  1.00 20.00     0.006 A 
HETATM    8  C3  UNL     1     -32.297   9.233   4.778  1.00 20.00     0.006 A 
ENDBRANCH   2   6
TORSDOF 2
ENDMDL
MODEL 7
REMARK VINA RESULT:      -4.5      1.823      3.476
REMARK  2 active torsions:
REMARK  status: ('A' for Active; 'I' for Inactive)
REMARK    1  A    between atoms: C1_1  and  C7_7 
REMARK    2  A    between atoms: C4_4  and  C7_7 
ROOT
HETATM    1  C6  UNL     1     -33.447   5.340   3.182  1.00 20.00     0.018 C 
HETATM    2  C7  UNL     1     -33.649   6.574   4.059  1.00 20.00     0.055 C 
ENDROOT
BRANCH   2   3
HETATM    3  C1  UNL     1     -32.637   7.662   3.715  1.00 20.00     0.127 C 
HETATM    4  C5  UNL     1     -32.355   8.692   4.780  1.00 20.00     0.091 C 
HETATM    5  O8  UNL     1     -32.088   7.728   2.615  1.00 20.00    -0.298 OA
ENDBRANCH   2   3
BRANCH   2   6
HETATM    6  C4  UNL     1     -33.542   6.210   5.535  1.00 20.00    -0.004 A 
HETATM    7  C2  UNL     1     -34.383   6.927   6.554  1.00 20.00     0.006 A 
HETATM    8  C3  UNL     1     -34.669   5.489   6.220  1.00 20.00     0.006 A 
ENDBRANCH   2   6
TORSDOF 2
ENDMDL
MODEL 8
REMARK VINA RESULT:      -4.5      2.061      3.316
REMARK  2 active torsions:
REMARK  status: ('A' for Active; 'I' for Inactive)
REMARK    1  A    between atoms: C1_1  and  C7_7 
REMARK    2  A    between atoms: C4_4  and  C7_7 
ROOT
HETATM    1  C6  UNL     1     -34.015   7.669   6.493  1.00 20.00     0.018 C 
HETATM    2  C7  UNL     1     -33.317   6.978   5.324  1.00 20.00     0.055 C 
ENDROOT
BRANCH   2   3
HETATM    3  C1  UNL     1     -32.611   7.992   4.430  1.00 20.00     0.127 C 
HETATM    4  C5  UNL     1     -32.239   7.536   3.041  1.00 20.00     0.091 C 
HETATM    5  O8  UNL     1     -32.324   9.126   4.817  1.00 20.00    -0.298 OA
ENDBRANCH   2   3
BRANCH   2   6
HETATM    6  C4  UNL     1     -34.313   6.166   4.504  1.00 20.00    -0.004 A 
HETATM    7  C2  UNL     1     -34.059   4.710   4.229  1.00 20.00     0.006 A 
HETATM    8  C3  UNL     1     -35.161   5.117   5.167  1.00 20.00     0.006 A 
ENDBRANCH   2   6
TORSDOF 2
ENDMDL
MODEL 9
REMARK VINA RESULT:      -4.3      1.520      2.294
REMARK  2 active torsions:
REMARK  status: ('A' for Active; 'I' for Inactive)
REMARK    1  A    between atoms: C1_1  and  C7_7 
REMARK    2  A    between atoms: C4_4  and  C7_7 
ROOT
HETATM    1  C6  UNL     1     -34.446   4.738   4.700  1.00 20.00     0.018 C 
HETATM    2  C7  UNL     1     -33.988   6.109   4.208  1.00 20.00     0.055 C 
ENDROOT
BRANCH   2   3
HETATM    3  C1  UNL     1     -32.979   5.975   3.073  1.00 20.00     0.127 C 
HETATM    4  C5  UNL     1     -32.194   7.209   2.707  1.00 20.00     0.091 C 
HETATM    5  O8  UNL     1     -32.819   4.923   2.452  1.00 20.00    -0.298 OA
ENDBRANCH   2   3
BRANCH   2   6
HETATM    6  C4  UNL     1     -33.382   6.917   5.350  1.00 20.00    -0.004 A 
HETATM    7  C2  UNL     1     -33.826   8.332   5.595  1.00 20.00     0.006 A 
HETATM    8  C3  UNL     1     -34.206   7.246   6.564  1.00 20.00     0.006 A 
ENDBRANCH   2   6
TORSDOF 2
ENDMDL
