MODEL 1
REMARK VINA RESULT:      -5.2      0.000      0.000
REMARK  1 active torsions:
REMARK  status: ('A' for Active; 'I' for Inactive)
REMARK    1  A    between atoms: C3_3  and  C7_7 
ROOT
HETATM    1  C1  UNL     1     -32.916   5.982   2.957  1.00 20.00     0.218 C 
HETATM    2  C4  UNL     1     -32.029   7.208   2.857  1.00 20.00     0.103 C 
HETATM    3  C5  UNL     1     -32.565   8.435   3.576  1.00 20.00     0.012 C 
HETATM    4  C6  UNL     1     -32.987   8.066   4.990  1.00 20.00     0.029 C 
HETATM    5  C7  UNL     1     -34.091   7.025   4.918  1.00 20.00     0.106 C 
HETATM    6  N8  UNL     1     -33.758   5.913   4.045  1.00 20.00    -0.353 N 
HETATM    7  O9  UNL     1     -32.812   5.064   2.142  1.00 20.00    -0.274 OA
HETATM    8  H20 UNL     1     -34.176   5.017   4.253  1.00 20.00     0.163 HD
ENDROOT
BRANCH   5   9
HETATM    9  C3  UNL     1     -34.347   6.562   6.336  1.00 20.00    -0.012 C 
HETATM   10  C2  UNL     1     -34.636   5.300   6.671  1.00 20.00     0.009 C 
ENDBRANCH   5   9
TORSDOF 1
ENDMDL
MODEL 2
REMARK VINA RESULT:      -5.0      1.398      3.297
REMARK  1 active torsions:
REMARK  status: ('A' for Active; 'I' for Inactive)
REMARK    1  A    between atoms: C3_3  and  C7_7 
ROOT
HETATM    1  C1  UNL     1     -34.099   5.326   4.631  1.00 20.00     0.218 C 
HETATM    2  C4  UNL     1     -34.756   5.939   5.851  1.00 20.00     0.103 C 
HETATM    3  C5  UNL     1     -34.024   7.142   6.426  1.00 20.00     0.012 C 
HETATM    4  C6  UNL     1     -33.695   8.128   5.316  1.00 20.00     0.029 C 
HETATM    5  C7  UNL     1     -32.788   7.445   4.305  1.00 20.00     0.106 C 
HETATM    6  N8  UNL     1     -33.298   6.154   3.876  1.00 20.00    -0.353 N 
HETATM    7  O9  UNL     1     -34.350   4.167   4.299  1.00 20.00    -0.274 OA
HETATM    8  H20 UNL     1     -33.046   5.839   2.950  1.00 20.00     0.163 HD
ENDROOT
BRANCH   5   9
HETATM    9  C3  UNL     1     -32.638   8.400   3.139  1.00 20.00    -0.012 C 
HETATM   10  C2  UNL     1     -32.244   8.031   1.916  1.00 20.00     0.009 C 
ENDBRANCH   5   9
TORSDOF 1
ENDMDL
MODEL 3
REMARK VINA RESULT:      -4.8      1.170      1.515
REMARK  1 active torsions:
REMARK  status: ('A' for Active; 'I' for Inactive)
REMARK    1  A    between atoms: C3_3  and  C7_7 
ROOT
HETATM    1  C1  UNL     1     -32.476   7.394   3.191  1.00 20.00     0.218 C 
HETATM    2  C4  UNL     1     -32.090   8.428   4.230  1.00 20.00     0.103 C 
HETATM    3  C5  UNL     1     -33.167   8.717   5.264  1.00 20.00     0.012 C 
HETATM    4  C6  UNL     1     -33.705   7.413   5.831  1.00 20.00     0.029 C 
HETATM    5  C7  UNL     1     -34.320   6.602   4.703  1.00 20.00     0.106 C 
HETATM    6  N8  UNL     1     -33.438   6.479   3.555  1.00 20.00    -0.353 N 
HETATM    7  O9  UNL     1     -31.884   7.338   2.112  1.00 20.00    -0.274 OA
HETATM    8  H20 UNL     1     -33.538   5.655   2.978  1.00 20.00     0.163 HD
ENDROOT
BRANCH   5   9
HETATM    9  C3  UNL     1     -34.675   5.248   5.280  1.00 20.00    -0.012 C 
HETATM   10  C2  UNL     1     -34.504   4.914   6.563  1.00 20.00     0.009 C 
ENDBRANCH   5   9
TORSDOF 1
ENDMDL
MODEL 4
REMARK VINA RESULT:      -4.7      2.076      3.627
REMARK  1 active torsions:
REMARK  status: ('A' for Active; 'I' for Inactive)
REMARK    1  A    between atoms: C3_3  and  C7_7 
ROOT
HETATM    1  C1  UNL     1     -33.261   7.784   5.215  1.00 20.00     0.218 C 
HETATM    2  C4  UNL     1     -33.713   7.259   6.564  1.00 20.00     0.103 C 
HETATM    3  C5  UNL     1     -34.790   6.188   6.495  1.00 20.00     0.012 C 
HETATM    4  C6  UNL     1     -34.394   5.116   5.493  1.00 20.00     0.029 C 
HETATM    5  C7  UNL     1     -34.254   5.752   4.121  1.00 20.00     0.106 C 
HETATM    6  N8  UNL     1     -33.423   6.944   4.137  1.00 20.00    -0.353 N 
HETATM    7  O9  UNL     1     -32.699   8.877   5.124  1.00 20.00    -0.274 OA
HETATM    8  H20 UNL     1     -32.925   7.175   3.289  1.00 20.00     0.163 HD
ENDROOT
BRANCH   5   9
HETATM    9  C3  UNL     1     -33.687   4.691   3.202  1.00 20.00    -0.012 C 
HETATM   10  C2  UNL     1     -32.804   4.937   2.229  1.00 20.00     0.009 C 
ENDBRANCH   5   9
TORSDOF 1
ENDMDL
MODEL 5
REMARK VINA RESULT:      -4.3      2.053      3.432
REMARK  1 active torsions:
REMARK  status: ('A' for Active; 'I' for Inactive)
REMARK    1  A    between atoms: C3_3  and  C7_7 
ROOT
HETATM    1  C1  UNL     1     -34.388   5.601   5.355  1.00 20.00     0.218 C 
HETATM    2  C4  UNL     1     -33.977   4.482   4.417  1.00 20.00     0.103 C 
HETATM    3  C5  UNL     1     -33.620   4.937   3.011  1.00 20.00     0.012 C 
HETATM    4  C6  UNL     1     -32.650   6.106   3.073  1.00 20.00     0.029 C 
HETATM    5  C7  UNL     1     -33.318   7.261   3.802  1.00 20.00     0.106 C 
HETATM    6  N8  UNL     1     -33.909   6.859   5.066  1.00 20.00    -0.353 N 
HETATM    7  O9  UNL     1     -35.047   5.359   6.367  1.00 20.00    -0.274 OA
HETATM    8  H20 UNL     1     -33.975   7.559   5.792  1.00 20.00     0.163 HD
ENDROOT
BRANCH   5   9
HETATM    9  C3  UNL     1     -32.259   8.325   3.996  1.00 20.00    -0.012 C 
HETATM   10  C2  UNL     1     -32.201   9.140   5.055  1.00 20.00     0.009 C 
ENDBRANCH   5   9
TORSDOF 1
ENDMDL
MODEL 6
REMARK VINA RESULT:      -4.1     15.340     16.056
REMARK  1 active torsions:
REMARK  status: ('A' for Active; 'I' for Inactive)
REMARK    1  A    between atoms: C3_3  and  C7_7 
ROOT
HETATM    1  C1  UNL     1     -24.306  18.958   8.314  1.00 20.00     0.218 C 
HETATM    2  C4  UNL     1     -22.797  18.822   8.256  1.00 20.00     0.103 C 
HETATM    3  C5  UNL     1     -22.101  18.933   9.603  1.00 20.00     0.012 C 
HETATM    4  C6  UNL     1     -22.784  18.029  10.616  1.00 20.00     0.029 C 
HETATM    5  C7  UNL     1     -24.228  18.474  10.778  1.00 20.00     0.106 C 
HETATM    6  N8  UNL     1     -24.912  18.632   9.506  1.00 20.00    -0.353 N 
HETATM    7  O9  UNL     1     -24.947  19.262   7.307  1.00 20.00    -0.274 OA
HETATM    8  H20 UNL     1     -25.913  18.491   9.496  1.00 20.00     0.163 HD
ENDROOT
BRANCH   5   9
HETATM    9  C3  UNL     1     -24.908  17.441  11.652  1.00 20.00    -0.012 C 
HETATM   10  C2  UNL     1     -24.427  16.214  11.873  1.00 20.00     0.009 C 
ENDBRANCH   5   9
TORSDOF 1
ENDMDL
MODEL 7
REMARK VINA RESULT:      -4.1     15.399     15.887
REMARK  1 active torsions:
REMARK  status: ('A' for Active; 'I' for Inactive)
REMARK    1  A    between atoms: C3_3  and  C7_7 
ROOT
HETATM    1  C1  UNL     1     -22.255  17.531   8.662  1.00 20.00     0.218 C 
HETATM    2  C4  UNL     1     -22.726  18.917   8.266  1.00 20.00     0.103 C 
HETATM    3  C5  UNL     1     -24.159  19.234   8.663  1.00 20.00     0.012 C 
HETATM    4  C6  UNL     1     -24.385  18.877  10.123  1.00 20.00     0.029 C 
HETATM    5  C7  UNL     1     -24.148  17.388  10.308  1.00 20.00     0.106 C 
HETATM    6  N8  UNL     1     -22.890  16.944   9.733  1.00 20.00    -0.353 N 
HETATM    7  O9  UNL     1     -21.293  17.011   8.096  1.00 20.00    -0.274 OA
HETATM    8  H20 UNL     1     -22.445  16.140  10.154  1.00 20.00     0.163 HD
ENDROOT
BRANCH   5   9
HETATM    9  C3  UNL     1     -24.206  17.117  11.796  1.00 20.00    -0.012 C 
HETATM   10  C2  UNL     1     -24.596  15.956  12.332  1.00 20.00     0.009 C 
ENDBRANCH   5   9
TORSDOF 1
ENDMDL
MODEL 8
REMARK VINA RESULT:      -4.0      2.008      2.484
REMARK  1 active torsions:
REMARK  status: ('A' for Active; 'I' for Inactive)
REMARK    1  A    between atoms: C3_3  and  C7_7 
ROOT
HETATM    1  C1  UNL     1     -32.490   8.337   4.362  1.00 20.00     0.218 C 
HETATM    2  C4  UNL     1     -32.289   7.993   2.899  1.00 20.00     0.103 C 
HETATM    3  C5  UNL     1     -32.321   6.505   2.590  1.00 20.00     0.012 C 
HETATM    4  C6  UNL     1     -33.543   5.867   3.233  1.00 20.00     0.029 C 
HETATM    5  C7  UNL     1     -33.457   6.049   4.739  1.00 20.00     0.106 C 
HETATM    6  N8  UNL     1     -33.182   7.422   5.124  1.00 20.00    -0.353 N 
HETATM    7  O9  UNL     1     -32.122   9.425   4.807  1.00 20.00    -0.274 OA
HETATM    8  H20 UNL     1     -33.525   7.731   6.023  1.00 20.00     0.163 HD
ENDROOT
BRANCH   5   9
HETATM    9  C3  UNL     1     -34.771   5.563   5.313  1.00 20.00    -0.012 C 
HETATM   10  C2  UNL     1     -35.006   5.409   6.620  1.00 20.00     0.009 C 
ENDBRANCH   5   9
TORSDOF 1
ENDMDL
MODEL 9
REMARK VINA RESULT:      -3.9     10.093     10.954
REMARK  1 active torsions:
REMARK  status: ('A' for Active; 'I' for Inactive)
REMARK    1  A    between atoms: C3_3  and  C7_7 
ROOT
HETATM    1  C1  UNL     1     -40.514  14.423   8.229  1.00 20.00     0.218 C 
HETATM    2  C4  UNL     1     -41.966  14.021   8.396  1.00 20.00     0.103 C 
HETATM    3  C5  UNL     1     -42.620  13.480   7.134  1.00 20.00     0.012 C 
HETATM    4  C6  UNL     1     -41.733  12.420   6.502  1.00 20.00     0.029 C 
HETATM    5  C7  UNL     1     -40.402  13.050   6.128  1.00 20.00     0.106 C 
HETATM    6  N8  UNL     1     -39.811  13.804   7.220  1.00 20.00    -0.353 N 
HETATM    7  O9  UNL     1     -39.984  15.202   9.023  1.00 20.00    -0.274 OA
HETATM    8  H20 UNL     1     -38.804  13.880   7.241  1.00 20.00     0.163 HD
ENDROOT
BRANCH   5   9
HETATM    9  C3  UNL     1     -39.497  11.924   5.674  1.00 20.00    -0.012 C 
HETATM   10  C2  UNL     1     -39.149  11.710   4.402  1.00 20.00     0.009 C 
ENDBRANCH   5   9
TORSDOF 1
ENDMDL
