MODEL 1
REMARK VINA RESULT:      -6.3      0.000      0.000
REMARK  0 active torsions:
REMARK  status: ('A' for Active; 'I' for Inactive)
ROOT
HETATM    1  C1  UNL     1     -33.166   7.867   5.213  1.00 20.00     0.044 A 
HETATM    2  C2  UNL     1     -34.015   7.230   6.040  1.00 20.00     0.014 A 
HETATM    3  C3  UNL     1     -32.807   7.279   3.942  1.00 20.00     0.156 A 
HETATM    4  C4  UNL     1     -33.307   6.096   3.552  1.00 20.00     0.202 A 
HETATM    5  C5  UNL     1     -34.617   5.916   5.729  1.00 20.00     0.224 A 
HETATM    6  C6  UNL     1     -34.234   5.307   4.379  1.00 20.00     0.293 A 
HETATM    7  O7  UNL     1     -35.572   5.730   4.674  1.00 20.00    -0.328 OA
HETATM    8  F8  UNL     1     -31.957   7.959   3.146  1.00 20.00    -0.203 F 
HETATM    9  F9  UNL     1     -32.939   5.602   2.350  1.00 20.00    -0.201 F 
HETATM   10  F10 UNL     1     -34.020   3.933   4.379  1.00 20.00    -0.200 F 
ENDROOT
TORSDOF 0
ENDMDL
MODEL 2
REMARK VINA RESULT:      -6.2      1.012      1.358
REMARK  0 active torsions:
REMARK  status: ('A' for Active; 'I' for Inactive)
ROOT
HETATM    1  C1  UNL     1     -33.749   7.379   6.426  1.00 20.00     0.044 A 
HETATM    2  C2  UNL     1     -34.476   6.248   6.500  1.00 20.00     0.014 A 
HETATM    3  C3  UNL     1     -33.107   7.753   5.186  1.00 20.00     0.156 A 
HETATM    4  C4  UNL     1     -33.219   6.995   4.084  1.00 20.00     0.202 A 
HETATM    5  C5  UNL     1     -34.658   5.326   5.359  1.00 20.00     0.224 A 
HETATM    6  C6  UNL     1     -33.980   5.736   4.051  1.00 20.00     0.293 A 
HETATM    7  O7  UNL     1     -35.406   5.679   4.186  1.00 20.00    -0.328 OA
HETATM    8  F8  UNL     1     -32.394   8.897   5.161  1.00 20.00    -0.203 F 
HETATM    9  F9  UNL     1     -32.601   7.402   2.953  1.00 20.00    -0.201 F 
HETATM   10  F10 UNL     1     -33.399   4.701   3.326  1.00 20.00    -0.200 F 
ENDROOT
TORSDOF 0
ENDMDL
MODEL 3
REMARK VINA RESULT:      -6.1      1.543      2.796
REMARK  0 active torsions:
REMARK  status: ('A' for Active; 'I' for Inactive)
ROOT
HETATM    1  C1  UNL     1     -34.390   4.857   4.512  1.00 20.00     0.044 A 
HETATM    2  C2  UNL     1     -34.790   5.273   5.727  1.00 20.00     0.014 A 
HETATM    3  C3  UNL     1     -33.562   5.708   3.686  1.00 20.00     0.156 A 
HETATM    4  C4  UNL     1     -33.171   6.922   4.103  1.00 20.00     0.202 A 
HETATM    5  C5  UNL     1     -34.436   6.594   6.288  1.00 20.00     0.224 A 
HETATM    6  C6  UNL     1     -33.556   7.483   5.408  1.00 20.00     0.293 A 
HETATM    7  O7  UNL     1     -33.095   6.949   6.656  1.00 20.00    -0.328 OA
HETATM    8  F8  UNL     1     -33.182   5.244   2.478  1.00 20.00    -0.203 F 
HETATM    9  F9  UNL     1     -32.392   7.667   3.289  1.00 20.00    -0.201 F 
HETATM   10  F10 UNL     1     -33.876   8.836   5.410  1.00 20.00    -0.200 F 
ENDROOT
TORSDOF 0
ENDMDL
MODEL 4
REMARK VINA RESULT:      -5.8      1.720      3.100
REMARK  0 active torsions:
REMARK  status: ('A' for Active; 'I' for Inactive)
ROOT
HETATM    1  C1  UNL     1     -34.237   6.735   5.160  1.00 20.00     0.044 A 
HETATM    2  C2  UNL     1     -33.696   7.963   5.063  1.00 20.00     0.014 A 
HETATM    3  C3  UNL     1     -33.873   5.702   4.216  1.00 20.00     0.156 A 
HETATM    4  C4  UNL     1     -32.993   5.934   3.228  1.00 20.00     0.202 A 
HETATM    5  C5  UNL     1     -32.730   8.343   4.011  1.00 20.00     0.224 A 
HETATM    6  C6  UNL     1     -32.348   7.240   3.021  1.00 20.00     0.293 A 
HETATM    7  O7  UNL     1     -31.403   7.801   3.942  1.00 20.00    -0.328 OA
HETATM    8  F8  UNL     1     -34.438   4.485   4.357  1.00 20.00    -0.203 F 
HETATM    9  F9  UNL     1     -32.689   4.926   2.382  1.00 20.00    -0.201 F 
HETATM   10  F10 UNL     1     -32.214   7.641   1.697  1.00 20.00    -0.200 F 
ENDROOT
TORSDOF 0
ENDMDL
MODEL 5
REMARK VINA RESULT:      -5.7      2.179      3.803
REMARK  0 active torsions:
REMARK  status: ('A' for Active; 'I' for Inactive)
ROOT
HETATM    1  C1  UNL     1     -33.750   5.447   3.649  1.00 20.00     0.044 A 
HETATM    2  C2  UNL     1     -32.815   6.064   2.903  1.00 20.00     0.014 A 
HETATM    3  C3  UNL     1     -34.245   6.068   4.857  1.00 20.00     0.156 A 
HETATM    4  C4  UNL     1     -33.795   7.266   5.264  1.00 20.00     0.202 A 
HETATM    5  C5  UNL     1     -32.233   7.376   3.256  1.00 20.00     0.224 A 
HETATM    6  C6  UNL     1     -32.769   8.026   4.533  1.00 20.00     0.293 A 
HETATM    7  O7  UNL     1     -32.991   8.594   3.235  1.00 20.00    -0.328 OA
HETATM    8  F8  UNL     1     -35.186   5.413   5.568  1.00 20.00    -0.203 F 
HETATM    9  F9  UNL     1     -34.303   7.798   6.397  1.00 20.00    -0.201 F 
HETATM   10  F10 UNL     1     -31.823   8.672   5.322  1.00 20.00    -0.200 F 
ENDROOT
TORSDOF 0
ENDMDL
MODEL 6
REMARK VINA RESULT:      -5.7      1.922      2.625
REMARK  0 active torsions:
REMARK  status: ('A' for Active; 'I' for Inactive)
ROOT
HETATM    1  C1  UNL     1     -32.216   7.357   3.382  1.00 20.00     0.044 A 
HETATM    2  C2  UNL     1     -32.693   6.254   2.776  1.00 20.00     0.014 A 
HETATM    3  C3  UNL     1     -32.799   7.817   4.623  1.00 20.00     0.156 A 
HETATM    4  C4  UNL     1     -33.819   7.164   5.201  1.00 20.00     0.202 A 
HETATM    5  C5  UNL     1     -33.822   5.462   3.307  1.00 20.00     0.224 A 
HETATM    6  C6  UNL     1     -34.426   5.954   4.623  1.00 20.00     0.293 A 
HETATM    7  O7  UNL     1     -33.734   4.703   4.522  1.00 20.00    -0.328 OA
HETATM    8  F8  UNL     1     -32.283   8.924   5.195  1.00 20.00    -0.203 F 
HETATM    9  F9  UNL     1     -34.317   7.639   6.364  1.00 20.00    -0.201 F 
HETATM   10  F10 UNL     1     -35.812   5.873   4.715  1.00 20.00    -0.200 F 
ENDROOT
TORSDOF 0
ENDMDL
MODEL 7
REMARK VINA RESULT:      -5.6      1.568      2.621
REMARK  0 active torsions:
REMARK  status: ('A' for Active; 'I' for Inactive)
ROOT
HETATM    1  C1  UNL     1     -32.265   7.044   3.025  1.00 20.00     0.044 A 
HETATM    2  C2  UNL     1     -32.197   8.047   3.919  1.00 20.00     0.014 A 
HETATM    3  C3  UNL     1     -33.161   5.931   3.245  1.00 20.00     0.156 A 
HETATM    4  C4  UNL     1     -33.945   5.868   4.333  1.00 20.00     0.202 A 
HETATM    5  C5  UNL     1     -32.998   8.082   5.161  1.00 20.00     0.224 A 
HETATM    6  C6  UNL     1     -33.946   6.902   5.380  1.00 20.00     0.293 A 
HETATM    7  O7  UNL     1     -34.425   8.236   5.161  1.00 20.00    -0.328 OA
HETATM    8  F8  UNL     1     -33.197   4.952   2.318  1.00 20.00    -0.203 F 
HETATM    9  F9  UNL     1     -34.766   4.805   4.479  1.00 20.00    -0.201 F 
HETATM   10  F10 UNL     1     -34.033   6.435   6.687  1.00 20.00    -0.200 F 
ENDROOT
TORSDOF 0
ENDMDL
MODEL 8
REMARK VINA RESULT:      -4.9      1.905      3.155
REMARK  0 active torsions:
REMARK  status: ('A' for Active; 'I' for Inactive)
ROOT
HETATM    1  C1  UNL     1     -34.593   5.350   5.890  1.00 20.00     0.044 A 
HETATM    2  C2  UNL     1     -34.250   4.649   4.793  1.00 20.00     0.014 A 
HETATM    3  C3  UNL     1     -34.224   6.743   6.009  1.00 20.00     0.156 A 
HETATM    4  C4  UNL     1     -33.540   7.371   5.040  1.00 20.00     0.202 A 
HETATM    5  C5  UNL     1     -33.485   5.227   3.669  1.00 20.00     0.224 A 
HETATM    6  C6  UNL     1     -33.105   6.702   3.804  1.00 20.00     0.293 A 
HETATM    7  O7  UNL     1     -34.020   6.237   2.802  1.00 20.00    -0.328 OA
HETATM    8  F8  UNL     1     -34.594   7.404   7.125  1.00 20.00    -0.203 F 
HETATM    9  F9  UNL     1     -33.231   8.676   5.207  1.00 20.00    -0.201 F 
HETATM   10  F10 UNL     1     -31.834   7.040   3.352  1.00 20.00    -0.200 F 
ENDROOT
TORSDOF 0
ENDMDL
MODEL 9
REMARK VINA RESULT:      -4.1      8.787      9.144
REMARK  0 active torsions:
REMARK  status: ('A' for Active; 'I' for Inactive)
ROOT
HETATM    1  C1  UNL     1     -42.600   7.902   0.685  1.00 20.00     0.044 A 
HETATM    2  C2  UNL     1     -43.402   7.201   1.507  1.00 20.00     0.014 A 
HETATM    3  C3  UNL     1     -41.497   7.251   0.013  1.00 20.00     0.156 A 
HETATM    4  C4  UNL     1     -41.246   5.943   0.185  1.00 20.00     0.202 A 
HETATM    5  C5  UNL     1     -43.216   5.762   1.788  1.00 20.00     0.224 A 
HETATM    6  C6  UNL     1     -42.051   5.083   1.068  1.00 20.00     0.293 A 
HETATM    7  O7  UNL     1     -43.417   4.745   0.797  1.00 20.00    -0.328 OA
HETATM    8  F8  UNL     1     -40.725   7.994  -0.806  1.00 20.00    -0.203 F 
HETATM    9  F9  UNL     1     -40.206   5.391  -0.476  1.00 20.00    -0.201 F 
HETATM   10  F10 UNL     1     -41.336   4.157   1.820  1.00 20.00    -0.200 F 
ENDROOT
TORSDOF 0
ENDMDL
