MODEL 1
REMARK VINA RESULT:      -4.4      0.000      0.000
REMARK  1 active torsions:
REMARK  status: ('A' for Active; 'I' for Inactive)
REMARK    1  A    between atoms: C3_3  and  C4_4 
ROOT
HETATM    1  C1  UNL     1     -33.245   5.911   2.967  1.00 20.00     0.012 A 
HETATM    2  C2  UNL     1     -32.264   6.803   3.074  1.00 20.00     0.003 A 
HETATM    3  C4  UNL     1     -34.272   6.172   4.001  1.00 20.00     0.231 A 
HETATM    4  C5  UNL     1     -32.549   7.733   4.199  1.00 20.00     0.141 A 
HETATM    5  C6  UNL     1     -32.634   9.187   3.763  1.00 20.00     0.044 C 
HETATM    6  O8  UNL     1     -33.833   7.329   4.723  1.00 20.00    -0.364 OA
ENDROOT
BRANCH   3   7
HETATM    7  C3  UNL     1     -34.317   5.025   4.956  1.00 20.00     0.251 C 
HETATM    8  O7  UNL     1     -34.109   3.872   4.591  1.00 20.00    -0.277 OA
HETATM    9 CL9  UNL     1     -34.687   5.537   6.576  1.00 20.00    -0.041 Cl
ENDBRANCH   3   7
TORSDOF 1
ENDMDL
MODEL 2
REMARK VINA RESULT:      -4.3      1.705      1.877
REMARK  1 active torsions:
REMARK  status: ('A' for Active; 'I' for Inactive)
REMARK    1  A    between atoms: C3_3  and  C4_4 
ROOT
HETATM    1  C1  UNL     1     -33.987   5.550   3.713  1.00 20.00     0.012 A 
HETATM    2  C2  UNL     1     -32.858   5.722   3.030  1.00 20.00     0.003 A 
HETATM    3  C4  UNL     1     -34.321   6.792   4.446  1.00 20.00     0.231 A 
HETATM    4  C5  UNL     1     -32.336   7.096   3.257  1.00 20.00     0.141 A 
HETATM    5  C6  UNL     1     -32.201   7.901   1.976  1.00 20.00     0.044 C 
HETATM    6  O8  UNL     1     -33.302   7.743   4.114  1.00 20.00    -0.364 OA
ENDROOT
BRANCH   3   7
HETATM    7  C3  UNL     1     -34.248   6.536   5.915  1.00 20.00     0.251 C 
HETATM    8  O7  UNL     1     -34.088   7.447   6.723  1.00 20.00    -0.277 OA
HETATM    9 CL9  UNL     1     -34.414   4.848   6.294  1.00 20.00    -0.041 Cl
ENDBRANCH   3   7
TORSDOF 1
ENDMDL
MODEL 3
REMARK VINA RESULT:      -4.0      2.323      4.021
REMARK  1 active torsions:
REMARK  status: ('A' for Active; 'I' for Inactive)
REMARK    1  A    between atoms: C3_3  and  C4_4 
ROOT
HETATM    1  C1  UNL     1     -33.867   7.734   6.271  1.00 20.00     0.012 A 
HETATM    2  C2  UNL     1     -34.040   6.431   6.477  1.00 20.00     0.003 A 
HETATM    3  C4  UNL     1     -33.802   8.005   4.817  1.00 20.00     0.231 A 
HETATM    4  C5  UNL     1     -34.098   5.717   5.174  1.00 20.00     0.141 A 
HETATM    5  C6  UNL     1     -35.400   4.963   4.965  1.00 20.00     0.044 C 
HETATM    6  O8  UNL     1     -33.987   6.744   4.163  1.00 20.00    -0.364 OA
ENDROOT
BRANCH   3   7
HETATM    7  C3  UNL     1     -32.441   8.509   4.466  1.00 20.00     0.251 C 
HETATM    8  O7  UNL     1     -31.926   9.448   5.065  1.00 20.00    -0.277 OA
HETATM    9 CL9  UNL     1     -31.731   7.616   3.155  1.00 20.00    -0.041 Cl
ENDBRANCH   3   7
TORSDOF 1
ENDMDL
MODEL 4
REMARK VINA RESULT:      -3.9      2.492      3.787
REMARK  1 active torsions:
REMARK  status: ('A' for Active; 'I' for Inactive)
REMARK    1  A    between atoms: C3_3  and  C4_4 
ROOT
HETATM    1  C1  UNL     1     -32.944   5.941   3.206  1.00 20.00     0.012 A 
HETATM    2  C2  UNL     1     -34.093   5.505   3.715  1.00 20.00     0.003 A 
HETATM    3  C4  UNL     1     -32.449   7.088   4.000  1.00 20.00     0.231 A 
HETATM    4  C5  UNL     1     -34.470   6.334   4.891  1.00 20.00     0.141 A 
HETATM    5  C6  UNL     1     -34.612   5.525   6.169  1.00 20.00     0.044 C 
HETATM    6  O8  UNL     1     -33.394   7.284   5.059  1.00 20.00    -0.364 OA
ENDROOT
BRANCH   3   7
HETATM    7  C3  UNL     1     -32.451   8.316   3.151  1.00 20.00     0.251 C 
HETATM    8  O7  UNL     1     -32.626   9.433   3.631  1.00 20.00    -0.277 OA
HETATM    9 CL9  UNL     1     -32.182   7.952   1.473  1.00 20.00    -0.041 Cl
ENDBRANCH   3   7
TORSDOF 1
ENDMDL
MODEL 5
REMARK VINA RESULT:      -3.8      1.594      2.065
REMARK  1 active torsions:
REMARK  status: ('A' for Active; 'I' for Inactive)
REMARK    1  A    between atoms: C3_3  and  C4_4 
ROOT
HETATM    1  C1  UNL     1     -34.104   6.861   6.272  1.00 20.00     0.012 A 
HETATM    2  C2  UNL     1     -34.055   8.138   5.902  1.00 20.00     0.003 A 
HETATM    3  C4  UNL     1     -33.447   6.019   5.247  1.00 20.00     0.231 A 
HETATM    4  C5  UNL     1     -33.367   8.256   4.589  1.00 20.00     0.141 A 
HETATM    5  C6  UNL     1     -32.130   9.137   4.641  1.00 20.00     0.044 C 
HETATM    6  O8  UNL     1     -32.966   6.913   4.237  1.00 20.00    -0.364 OA
ENDROOT
BRANCH   3   7
HETATM    7  C3  UNL     1     -34.460   5.119   4.620  1.00 20.00     0.251 C 
HETATM    8  O7  UNL     1     -34.224   3.934   4.400  1.00 20.00    -0.277 OA
HETATM    9 CL9  UNL     1     -35.944   5.952   4.266  1.00 20.00    -0.041 Cl
ENDBRANCH   3   7
TORSDOF 1
ENDMDL
MODEL 6
REMARK VINA RESULT:      -3.8      2.237      3.164
REMARK  1 active torsions:
REMARK  status: ('A' for Active; 'I' for Inactive)
REMARK    1  A    between atoms: C3_3  and  C4_4 
ROOT
HETATM    1  C1  UNL     1     -34.853   5.595   4.802  1.00 20.00     0.012 A 
HETATM    2  C2  UNL     1     -34.144   4.605   4.265  1.00 20.00     0.003 A 
HETATM    3  C4  UNL     1     -34.272   6.897   4.405  1.00 20.00     0.231 A 
HETATM    4  C5  UNL     1     -33.019   5.164   3.470  1.00 20.00     0.141 A 
HETATM    5  C6  UNL     1     -33.059   4.749   2.009  1.00 20.00     0.044 C 
HETATM    6  O8  UNL     1     -33.161   6.599   3.550  1.00 20.00    -0.364 OA
ENDROOT
BRANCH   3   7
HETATM    7  C3  UNL     1     -33.744   7.594   5.616  1.00 20.00     0.251 C 
HETATM    8  O7  UNL     1     -34.148   7.324   6.744  1.00 20.00    -0.277 OA
HETATM    9 CL9  UNL     1     -32.537   8.779   5.216  1.00 20.00    -0.041 Cl
ENDBRANCH   3   7
TORSDOF 1
ENDMDL
MODEL 7
REMARK VINA RESULT:      -3.8      9.694     10.518
REMARK  1 active torsions:
REMARK  status: ('A' for Active; 'I' for Inactive)
REMARK    1  A    between atoms: C3_3  and  C4_4 
ROOT
HETATM    1  C1  UNL     1     -41.279  13.662   5.296  1.00 20.00     0.012 A 
HETATM    2  C2  UNL     1     -41.671  14.606   6.148  1.00 20.00     0.003 A 
HETATM    3  C4  UNL     1     -41.081  12.387   6.022  1.00 20.00     0.231 A 
HETATM    4  C5  UNL     1     -41.758  14.042   7.521  1.00 20.00     0.141 A 
HETATM    5  C6  UNL     1     -43.148  14.157   8.124  1.00 20.00     0.044 C 
HETATM    6  O8  UNL     1     -41.422  12.644   7.389  1.00 20.00    -0.364 OA
ENDROOT
BRANCH   3   7
HETATM    7  C3  UNL     1     -39.637  12.008   5.973  1.00 20.00     0.251 C 
HETATM    8  O7  UNL     1     -38.960  11.912   6.993  1.00 20.00    -0.277 OA
HETATM    9 CL9  UNL     1     -39.086  11.736   4.347  1.00 20.00    -0.041 Cl
ENDBRANCH   3   7
TORSDOF 1
ENDMDL
MODEL 8
REMARK VINA RESULT:      -3.8     12.724     13.513
REMARK  1 active torsions:
REMARK  status: ('A' for Active; 'I' for Inactive)
REMARK    1  A    between atoms: C3_3  and  C4_4 
ROOT
HETATM    1  C1  UNL     1     -33.605  17.381  -1.025  1.00 20.00     0.012 A 
HETATM    2  C2  UNL     1     -33.599  16.976  -2.292  1.00 20.00     0.003 A 
HETATM    3  C4  UNL     1     -32.991  18.724  -0.927  1.00 20.00     0.231 A 
HETATM    4  C5  UNL     1     -32.968  18.014  -3.150  1.00 20.00     0.141 A 
HETATM    5  C6  UNL     1     -33.894  18.529  -4.240  1.00 20.00     0.044 C 
HETATM    6  O8  UNL     1     -32.642  19.106  -2.263  1.00 20.00    -0.364 OA
ENDROOT
BRANCH   3   7
HETATM    7  C3  UNL     1     -31.731  18.637  -0.131  1.00 20.00     0.251 C 
HETATM    8  O7  UNL     1     -30.626  18.654  -0.666  1.00 20.00    -0.277 OA
HETATM    9 CL9  UNL     1     -32.042  18.514   1.575  1.00 20.00    -0.041 Cl
ENDBRANCH   3   7
TORSDOF 1
ENDMDL
MODEL 9
REMARK VINA RESULT:      -3.7     12.652     13.227
REMARK  1 active torsions:
REMARK  status: ('A' for Active; 'I' for Inactive)
REMARK    1  A    between atoms: C3_3  and  C4_4 
ROOT
HETATM    1  C1  UNL     1     -33.508  14.828  -4.440  1.00 20.00     0.012 A 
HETATM    2  C2  UNL     1     -33.533  15.782  -3.513  1.00 20.00     0.003 A 
HETATM    3  C4  UNL     1     -34.185  15.306  -5.666  1.00 20.00     0.231 A 
HETATM    4  C5  UNL     1     -34.240  16.979  -4.040  1.00 20.00     0.141 A 
HETATM    5  C6  UNL     1     -33.374  18.228  -4.044  1.00 20.00     0.044 C 
HETATM    6  O8  UNL     1     -34.593  16.654  -5.403  1.00 20.00    -0.364 OA
ENDROOT
BRANCH   3   7
HETATM    7  C3  UNL     1     -35.415  14.493  -5.904  1.00 20.00     0.251 C 
HETATM    8  O7  UNL     1     -35.996  14.502  -6.986  1.00 20.00    -0.277 OA
HETATM    9 CL9  UNL     1     -35.877  13.580  -4.500  1.00 20.00    -0.041 Cl
ENDBRANCH   3   7
TORSDOF 1
ENDMDL
