MODEL 1
REMARK VINA RESULT:      -5.7      0.000      0.000
REMARK  0 active torsions:
REMARK  status: ('A' for Active; 'I' for Inactive)
ROOT
HETATM    1  C1  UNL     1     -33.794   7.355   6.017  1.00 20.00     0.013 A 
HETATM    2  C2  UNL     1     -34.424   6.355   6.651  1.00 20.00    -0.025 A 
HETATM    3  C3  UNL     1     -33.360   7.166   4.672  1.00 20.00     0.035 A 
HETATM    4  C4  UNL     1     -33.542   6.036   3.981  1.00 20.00    -0.046 A 
HETATM    5  C5  UNL     1     -32.657   8.118   3.793  1.00 20.00     0.254 A 
HETATM    6  C6  UNL     1     -34.706   5.016   6.010  1.00 20.00     0.031 A 
HETATM    7  C7  UNL     1     -34.226   4.836   4.548  1.00 20.00     0.040 A 
HETATM    8  C8  UNL     1     -32.995   6.104   2.599  1.00 20.00     0.161 A 
HETATM    9  C9  UNL     1     -31.804   8.040   1.444  1.00 20.00     0.153 C 
HETATM   10  N10 UNL     1     -32.464   7.449   2.588  1.00 20.00    -0.348 N 
HETATM   11  O11 UNL     1     -32.332   9.250   4.109  1.00 20.00    -0.267 OA
ENDROOT
TORSDOF 0
ENDMDL
MODEL 2
REMARK VINA RESULT:      -5.2      1.400      2.297
REMARK  0 active torsions:
REMARK  status: ('A' for Active; 'I' for Inactive)
ROOT
HETATM    1  C1  UNL     1     -34.190   4.961   4.735  1.00 20.00     0.013 A 
HETATM    2  C2  UNL     1     -34.683   5.107   5.973  1.00 20.00    -0.025 A 
HETATM    3  C3  UNL     1     -33.563   6.071   4.097  1.00 20.00     0.035 A 
HETATM    4  C4  UNL     1     -33.428   7.276   4.659  1.00 20.00    -0.046 A 
HETATM    5  C5  UNL     1     -32.957   6.136   2.754  1.00 20.00     0.254 A 
HETATM    6  C6  UNL     1     -34.612   6.404   6.745  1.00 20.00     0.031 A 
HETATM    7  C7  UNL     1     -33.924   7.594   6.031  1.00 20.00     0.040 A 
HETATM    8  C8  UNL     1     -32.736   8.256   3.779  1.00 20.00     0.161 A 
HETATM    9  C9  UNL     1     -31.815   7.920   1.426  1.00 20.00     0.153 C 
HETATM   10  N10 UNL     1     -32.486   7.437   2.614  1.00 20.00    -0.348 N 
HETATM   11  O11 UNL     1     -32.907   5.206   1.966  1.00 20.00    -0.267 OA
ENDROOT
TORSDOF 0
ENDMDL
MODEL 3
REMARK VINA RESULT:      -4.2      1.362      2.335
REMARK  0 active torsions:
REMARK  status: ('A' for Active; 'I' for Inactive)
ROOT
HETATM    1  C1  UNL     1     -33.640   5.180   3.798  1.00 20.00     0.013 A 
HETATM    2  C2  UNL     1     -34.268   4.426   4.712  1.00 20.00    -0.025 A 
HETATM    3  C3  UNL     1     -33.371   6.550   4.088  1.00 20.00     0.035 A 
HETATM    4  C4  UNL     1     -33.708   7.151   5.233  1.00 20.00    -0.046 A 
HETATM    5  C5  UNL     1     -32.700   7.552   3.240  1.00 20.00     0.254 A 
HETATM    6  C6  UNL     1     -34.715   4.955   6.055  1.00 20.00     0.031 A 
HETATM    7  C7  UNL     1     -34.410   6.445   6.346  1.00 20.00     0.040 A 
HETATM    8  C8  UNL     1     -33.311   8.584   5.279  1.00 20.00     0.161 A 
HETATM    9  C9  UNL     1     -32.112   9.968   3.505  1.00 20.00     0.153 C 
HETATM   10  N10 UNL     1     -32.688   8.729   3.982  1.00 20.00    -0.348 N 
HETATM   11  O11 UNL     1     -32.262   7.339   2.122  1.00 20.00    -0.267 OA
ENDROOT
TORSDOF 0
ENDMDL
MODEL 4
REMARK VINA RESULT:      -4.2     12.048     13.328
REMARK  0 active torsions:
REMARK  status: ('A' for Active; 'I' for Inactive)
ROOT
HETATM    1  C1  UNL     1     -33.251  16.537  -2.431  1.00 20.00     0.013 A 
HETATM    2  C2  UNL     1     -32.900  17.727  -1.923  1.00 20.00    -0.025 A 
HETATM    3  C3  UNL     1     -33.833  16.475  -3.731  1.00 20.00     0.035 A 
HETATM    4  C4  UNL     1     -34.057  17.545  -4.499  1.00 20.00    -0.046 A 
HETATM    5  C5  UNL     1     -34.288  15.288  -4.477  1.00 20.00     0.254 A 
HETATM    6  C6  UNL     1     -33.088  19.030  -2.664  1.00 20.00     0.031 A 
HETATM    7  C7  UNL     1     -33.720  18.937  -4.075  1.00 20.00     0.040 A 
HETATM    8  C8  UNL     1     -34.672  17.203  -5.810  1.00 20.00     0.161 A 
HETATM    9  C9  UNL     1     -35.319  14.913  -6.724  1.00 20.00     0.153 C 
HETATM   10  N10 UNL     1     -34.773  15.766  -5.690  1.00 20.00    -0.348 N 
HETATM   11  O11 UNL     1     -34.230  14.141  -4.066  1.00 20.00    -0.267 OA
ENDROOT
TORSDOF 0
ENDMDL
MODEL 5
REMARK VINA RESULT:      -4.2     15.966     16.462
REMARK  0 active torsions:
REMARK  status: ('A' for Active; 'I' for Inactive)
ROOT
HETATM    1  C1  UNL     1     -22.084  17.403   9.659  1.00 20.00     0.013 A 
HETATM    2  C2  UNL     1     -21.598  17.717   8.449  1.00 20.00    -0.025 A 
HETATM    3  C3  UNL     1     -23.320  17.974  10.084  1.00 20.00     0.035 A 
HETATM    4  C4  UNL     1     -24.046  18.818   9.344  1.00 20.00    -0.046 A 
HETATM    5  C5  UNL     1     -24.033  17.771  11.358  1.00 20.00     0.254 A 
HETATM    6  C6  UNL     1     -22.297  18.656   7.493  1.00 20.00     0.031 A 
HETATM    7  C7  UNL     1     -23.638  19.260   7.978  1.00 20.00     0.040 A 
HETATM    8  C8  UNL     1     -25.293  19.263  10.023  1.00 20.00     0.161 A 
HETATM    9  C9  UNL     1     -26.171  18.630  12.332  1.00 20.00     0.153 C 
HETATM   10  N10 UNL     1     -25.185  18.548  11.275  1.00 20.00    -0.348 N 
HETATM   11  O11 UNL     1     -23.647  17.056  12.268  1.00 20.00    -0.267 OA
ENDROOT
TORSDOF 0
ENDMDL
MODEL 6
REMARK VINA RESULT:      -4.1     12.370     13.906
REMARK  0 active torsions:
REMARK  status: ('A' for Active; 'I' for Inactive)
ROOT
HETATM    1  C1  UNL     1     -33.998  14.763  -4.874  1.00 20.00     0.013 A 
HETATM    2  C2  UNL     1     -33.227  15.197  -3.866  1.00 20.00    -0.025 A 
HETATM    3  C3  UNL     1     -34.966  15.642  -5.442  1.00 20.00     0.035 A 
HETATM    4  C4  UNL     1     -35.164  16.899  -5.033  1.00 20.00    -0.046 A 
HETATM    5  C5  UNL     1     -35.909  15.379  -6.545  1.00 20.00     0.254 A 
HETATM    6  C6  UNL     1     -33.328  16.589  -3.288  1.00 20.00     0.031 A 
HETATM    7  C7  UNL     1     -34.385  17.526  -3.924  1.00 20.00     0.040 A 
HETATM    8  C8  UNL     1     -36.233  17.599  -5.795  1.00 20.00     0.161 A 
HETATM    9  C9  UNL     1     -37.669  16.720  -7.710  1.00 20.00     0.153 C 
HETATM   10  N10 UNL     1     -36.631  16.557  -6.715  1.00 20.00    -0.348 N 
HETATM   11  O11 UNL     1     -35.997  14.324  -7.151  1.00 20.00    -0.267 OA
ENDROOT
TORSDOF 0
ENDMDL
MODEL 7
REMARK VINA RESULT:      -4.1      2.174      4.396
REMARK  0 active torsions:
REMARK  status: ('A' for Active; 'I' for Inactive)
ROOT
HETATM    1  C1  UNL     1     -32.788   6.401   2.684  1.00 20.00     0.013 A 
HETATM    2  C2  UNL     1     -32.236   7.528   2.213  1.00 20.00    -0.025 A 
HETATM    3  C3  UNL     1     -33.357   6.395   3.992  1.00 20.00     0.035 A 
HETATM    4  C4  UNL     1     -33.382   7.460   4.799  1.00 20.00    -0.046 A 
HETATM    5  C5  UNL     1     -34.010   5.281   4.703  1.00 20.00     0.254 A 
HETATM    6  C6  UNL     1     -32.183   8.816   3.001  1.00 20.00     0.031 A 
HETATM    7  C7  UNL     1     -32.810   8.785   4.417  1.00 20.00     0.040 A 
HETATM    8  C8  UNL     1     -34.036   7.185   6.107  1.00 20.00     0.161 A 
HETATM    9  C9  UNL     1     -35.072   5.014   6.952  1.00 20.00     0.153 C 
HETATM   10  N10 UNL     1     -34.391   5.793   5.940  1.00 20.00    -0.348 N 
HETATM   11  O11 UNL     1     -34.159   4.158   4.253  1.00 20.00    -0.267 OA
ENDROOT
TORSDOF 0
ENDMDL
MODEL 8
REMARK VINA RESULT:      -3.9      2.070      3.079
REMARK  0 active torsions:
REMARK  status: ('A' for Active; 'I' for Inactive)
ROOT
HETATM    1  C1  UNL     1     -34.130   6.802   5.922  1.00 20.00     0.013 A 
HETATM    2  C2  UNL     1     -33.868   8.027   6.401  1.00 20.00    -0.025 A 
HETATM    3  C3  UNL     1     -33.600   6.419   4.655  1.00 20.00     0.035 A 
HETATM    4  C4  UNL     1     -32.842   7.213   3.892  1.00 20.00    -0.046 A 
HETATM    5  C5  UNL     1     -33.759   5.137   3.944  1.00 20.00     0.254 A 
HETATM    6  C6  UNL     1     -33.028   9.042   5.661  1.00 20.00     0.031 A 
HETATM    7  C7  UNL     1     -32.463   8.602   4.288  1.00 20.00     0.040 A 
HETATM    8  C8  UNL     1     -32.420   6.568   2.619  1.00 20.00     0.161 A 
HETATM    9  C9  UNL     1     -32.949   4.227   1.760  1.00 20.00     0.153 C 
HETATM   10  N10 UNL     1     -33.049   5.273   2.755  1.00 20.00    -0.348 N 
HETATM   11  O11 UNL     1     -34.395   4.183   4.359  1.00 20.00    -0.267 OA
ENDROOT
TORSDOF 0
ENDMDL
MODEL 9
REMARK VINA RESULT:      -3.8     12.888     13.622
REMARK  0 active torsions:
REMARK  status: ('A' for Active; 'I' for Inactive)
ROOT
HETATM    1  C1  UNL     1     -26.937  -0.648  11.971  1.00 20.00     0.013 A 
HETATM    2  C2  UNL     1     -28.238  -0.705  11.649  1.00 20.00    -0.025 A 
HETATM    3  C3  UNL     1     -26.034  -1.588  11.394  1.00 20.00     0.035 A 
HETATM    4  C4  UNL     1     -26.399  -2.544  10.534  1.00 20.00    -0.046 A 
HETATM    5  C5  UNL     1     -24.579  -1.709  11.603  1.00 20.00     0.254 A 
HETATM    6  C6  UNL     1     -28.811  -1.725  10.693  1.00 20.00     0.031 A 
HETATM    7  C7  UNL     1     -27.808  -2.733  10.078  1.00 20.00     0.040 A 
HETATM    8  C8  UNL     1     -25.261  -3.389  10.083  1.00 20.00     0.161 A 
HETATM    9  C9  UNL     1     -22.799  -3.234  10.729  1.00 20.00     0.153 C 
HETATM   10  N10 UNL     1     -24.171  -2.779  10.812  1.00 20.00    -0.348 N 
HETATM   11  O11 UNL     1     -23.917  -0.990  12.332  1.00 20.00    -0.267 OA
ENDROOT
TORSDOF 0
ENDMDL
