MODEL 1
REMARK VINA RESULT:      -4.1      0.000      0.000
REMARK  2 active torsions:
REMARK  status: ('A' for Active; 'I' for Inactive)
REMARK    1  A    between atoms: C2_2  and  C7_7 
REMARK    2  A    between atoms: C3_3  and  C6_6 
ROOT
HETATM    1  C4  UNL     1     -32.949   5.296   2.812  1.00 20.00     0.014 C 
HETATM    2  C5  UNL     1     -33.970   4.644   3.763  1.00 20.00     0.015 C 
HETATM    3  C6  UNL     1     -32.761   6.418   3.865  1.00 20.00     0.067 C 
HETATM    4  C7  UNL     1     -34.187   6.043   4.414  1.00 20.00    -0.011 C 
HETATM    5  C10 UNL     1     -35.370   6.816   3.831  1.00 20.00     0.021 C 
ENDROOT
BRANCH   4   6
HETATM    6  C2  UNL     1     -34.255   6.006   5.899  1.00 20.00    -0.084 C 
HETATM    7  C1  UNL     1     -34.382   4.854   6.574  1.00 20.00     0.015 C 
HETATM    8  C8  UNL     1     -34.172   7.331   6.599  1.00 20.00     0.043 C 
ENDBRANCH   4   6
BRANCH   3   9
HETATM    9  C3  UNL     1     -32.525   7.847   3.362  1.00 20.00     0.128 C 
HETATM   10  C9  UNL     1     -32.304   8.904   4.410  1.00 20.00     0.091 C 
HETATM   11  O11 UNL     1     -32.515   8.115   2.162  1.00 20.00    -0.298 OA
ENDBRANCH   3   9
TORSDOF 2
ENDMDL
MODEL 2
REMARK VINA RESULT:      -3.7      9.805     11.100
REMARK  2 active torsions:
REMARK  status: ('A' for Active; 'I' for Inactive)
REMARK    1  A    between atoms: C2_2  and  C7_7 
REMARK    2  A    between atoms: C3_3  and  C6_6 
ROOT
HETATM    1  C4  UNL     1     -42.576  12.468   6.851  1.00 20.00     0.014 C 
HETATM    2  C5  UNL     1     -42.877  13.672   7.763  1.00 20.00     0.015 C 
HETATM    3  C6  UNL     1     -41.118  12.981   6.742  1.00 20.00     0.067 C 
HETATM    4  C7  UNL     1     -41.667  14.408   7.114  1.00 20.00    -0.011 C 
HETATM    5  C10 UNL     1     -42.053  15.318   5.949  1.00 20.00     0.021 C 
ENDROOT
BRANCH   4   6
HETATM    6  C2  UNL     1     -40.813  15.130   8.094  1.00 20.00    -0.084 C 
HETATM    7  C1  UNL     1     -40.231  14.502   9.126  1.00 20.00     0.015 C 
HETATM    8  C8  UNL     1     -40.638  16.602   7.861  1.00 20.00     0.043 C 
ENDBRANCH   4   6
BRANCH   3   9
HETATM    9  C3  UNL     1     -40.390  12.806   5.405  1.00 20.00     0.128 C 
HETATM   10  C9  UNL     1     -39.028  12.167   5.455  1.00 20.00     0.091 C 
HETATM   11  O11 UNL     1     -40.895  13.168   4.343  1.00 20.00    -0.298 OA
ENDBRANCH   3   9
TORSDOF 2
ENDMDL
MODEL 3
REMARK VINA RESULT:      -3.7      9.628     10.995
REMARK  2 active torsions:
REMARK  status: ('A' for Active; 'I' for Inactive)
REMARK    1  A    between atoms: C2_2  and  C7_7 
REMARK    2  A    between atoms: C3_3  and  C6_6 
ROOT
HETATM    1  C4  UNL     1     -42.120  15.102   5.725  1.00 20.00     0.014 C 
HETATM    2  C5  UNL     1     -41.774  13.908   4.816  1.00 20.00     0.015 C 
HETATM    3  C6  UNL     1     -41.058  14.582   6.727  1.00 20.00     0.067 C 
HETATM    4  C7  UNL     1     -41.245  13.161   6.077  1.00 20.00    -0.011 C 
HETATM    5  C10 UNL     1     -42.279  12.242   6.726  1.00 20.00     0.021 C 
ENDROOT
BRANCH   4   6
HETATM    6  C2  UNL     1     -39.963  12.443   5.850  1.00 20.00    -0.084 C 
HETATM    7  C1  UNL     1     -39.145  12.117   6.862  1.00 20.00     0.015 C 
HETATM    8  C8  UNL     1     -39.637  12.103   4.425  1.00 20.00     0.043 C 
ENDBRANCH   4   6
BRANCH   3   9
HETATM    9  C3  UNL     1     -41.339  14.740   8.225  1.00 20.00     0.128 C 
HETATM   10  C9  UNL     1     -40.146  14.736   9.141  1.00 20.00     0.091 C 
HETATM   11  O11 UNL     1     -42.484  14.868   8.656  1.00 20.00    -0.298 OA
ENDBRANCH   3   9
TORSDOF 2
ENDMDL
MODEL 4
REMARK VINA RESULT:      -3.7      9.900     11.389
REMARK  2 active torsions:
REMARK  status: ('A' for Active; 'I' for Inactive)
REMARK    1  A    between atoms: C2_2  and  C7_7 
REMARK    2  A    between atoms: C3_3  and  C6_6 
ROOT
HETATM    1  C4  UNL     1     -40.372  14.173   8.314  1.00 20.00     0.014 C 
HETATM    2  C5  UNL     1     -41.749  14.860   8.232  1.00 20.00     0.015 C 
HETATM    3  C6  UNL     1     -40.437  13.973   6.779  1.00 20.00     0.067 C 
HETATM    4  C7  UNL     1     -42.002  14.090   6.902  1.00 20.00    -0.011 C 
HETATM    5  C10 UNL     1     -42.773  12.783   7.084  1.00 20.00     0.021 C 
ENDROOT
BRANCH   4   6
HETATM    6  C2  UNL     1     -42.616  14.926   5.837  1.00 20.00    -0.084 C 
HETATM    7  C1  UNL     1     -42.477  16.260   5.814  1.00 20.00     0.015 C 
HETATM    8  C8  UNL     1     -43.398  14.192   4.787  1.00 20.00     0.043 C 
ENDBRANCH   4   6
BRANCH   3   9
HETATM    9  C3  UNL     1     -39.846  12.687   6.193  1.00 20.00     0.128 C 
HETATM   10  C9  UNL     1     -39.965  12.506   4.703  1.00 20.00     0.091 C 
HETATM   11  O11 UNL     1     -39.299  11.846   6.904  1.00 20.00    -0.298 OA
ENDBRANCH   3   9
TORSDOF 2
ENDMDL
MODEL 5
REMARK VINA RESULT:      -3.5     12.392     13.704
REMARK  2 active torsions:
REMARK  status: ('A' for Active; 'I' for Inactive)
REMARK    1  A    between atoms: C2_2  and  C7_7 
REMARK    2  A    between atoms: C3_3  and  C6_6 
ROOT
HETATM    1  C4  UNL     1     -33.074  16.316  -3.008  1.00 20.00     0.014 C 
HETATM    2  C5  UNL     1     -34.071  16.776  -4.088  1.00 20.00     0.015 C 
HETATM    3  C6  UNL     1     -33.732  17.332  -2.040  1.00 20.00     0.067 C 
HETATM    4  C7  UNL     1     -34.221  18.119  -3.312  1.00 20.00    -0.011 C 
HETATM    5  C10 UNL     1     -33.303  19.230  -3.824  1.00 20.00     0.021 C 
ENDROOT
BRANCH   4   6
HETATM    6  C2  UNL     1     -35.625  18.594  -3.208  1.00 20.00    -0.084 C 
HETATM    7  C1  UNL     1     -36.070  19.263  -2.134  1.00 20.00     0.015 C 
HETATM    8  C8  UNL     1     -36.517  18.284  -4.374  1.00 20.00     0.043 C 
ENDBRANCH   4   6
BRANCH   3   9
HETATM    9  C3  UNL     1     -32.832  18.058  -1.035  1.00 20.00     0.128 C 
HETATM   10  C9  UNL     1     -33.408  18.302   0.334  1.00 20.00     0.091 C 
HETATM   11  O11 UNL     1     -31.695  18.420  -1.331  1.00 20.00    -0.298 OA
ENDBRANCH   3   9
TORSDOF 2
ENDMDL
MODEL 6
REMARK VINA RESULT:      -3.4     12.571     14.274
REMARK  2 active torsions:
REMARK  status: ('A' for Active; 'I' for Inactive)
REMARK    1  A    between atoms: C2_2  and  C7_7 
REMARK    2  A    between atoms: C3_3  and  C6_6 
ROOT
HETATM    1  C4  UNL     1     -35.723  18.444  -5.630  1.00 20.00     0.014 C 
HETATM    2  C5  UNL     1     -34.246  18.166  -5.291  1.00 20.00     0.015 C 
HETATM    3  C6  UNL     1     -36.072  17.070  -5.004  1.00 20.00     0.067 C 
HETATM    4  C7  UNL     1     -34.583  16.645  -5.283  1.00 20.00    -0.011 C 
HETATM    5  C10 UNL     1     -34.308  15.947  -6.615  1.00 20.00     0.021 C 
ENDROOT
BRANCH   4   6
HETATM    6  C2  UNL     1     -33.961  15.903  -4.155  1.00 20.00    -0.084 C 
HETATM    7  C1  UNL     1     -33.405  16.536  -3.111  1.00 20.00     0.015 C 
HETATM    8  C8  UNL     1     -33.992  14.406  -4.249  1.00 20.00     0.043 C 
ENDBRANCH   4   6
BRANCH   3   9
HETATM    9  C3  UNL     1     -37.196  16.249  -5.646  1.00 20.00     0.128 C 
HETATM   10  C9  UNL     1     -37.935  16.893  -6.788  1.00 20.00     0.091 C 
HETATM   11  O11 UNL     1     -37.477  15.120  -5.250  1.00 20.00    -0.298 OA
ENDBRANCH   3   9
TORSDOF 2
ENDMDL
MODEL 7
REMARK VINA RESULT:      -3.4     12.610     14.338
REMARK  2 active torsions:
REMARK  status: ('A' for Active; 'I' for Inactive)
REMARK    1  A    between atoms: C2_2  and  C7_7 
REMARK    2  A    between atoms: C3_3  and  C6_6 
ROOT
HETATM    1  C4  UNL     1     -36.384  18.052  -4.896  1.00 20.00     0.014 C 
HETATM    2  C5  UNL     1     -35.714  18.245  -3.522  1.00 20.00     0.015 C 
HETATM    3  C6  UNL     1     -35.285  17.010  -5.228  1.00 20.00     0.067 C 
HETATM    4  C7  UNL     1     -34.387  17.719  -4.148  1.00 20.00    -0.011 C 
HETATM    5  C10 UNL     1     -33.460  18.827  -4.648  1.00 20.00     0.021 C 
ENDROOT
BRANCH   4   6
HETATM    6  C2  UNL     1     -33.654  16.765  -3.274  1.00 20.00    -0.084 C 
HETATM    7  C1  UNL     1     -33.271  15.555  -3.710  1.00 20.00     0.015 C 
HETATM    8  C8  UNL     1     -33.364  17.234  -1.879  1.00 20.00     0.043 C 
ENDBRANCH   4   6
BRANCH   3   9
HETATM    9  C3  UNL     1     -34.772  16.939  -6.670  1.00 20.00     0.128 C 
HETATM   10  C9  UNL     1     -34.216  15.617  -7.125  1.00 20.00     0.091 C 
HETATM   11  O11 UNL     1     -34.814  17.914  -7.419  1.00 20.00    -0.298 OA
ENDBRANCH   3   9
TORSDOF 2
ENDMDL
MODEL 8
REMARK VINA RESULT:      -3.4     12.777     14.321
REMARK  2 active torsions:
REMARK  status: ('A' for Active; 'I' for Inactive)
REMARK    1  A    between atoms: C2_2  and  C7_7 
REMARK    2  A    between atoms: C3_3  and  C6_6 
ROOT
HETATM    1  C4  UNL     1     -35.838  16.170  -7.738  1.00 20.00     0.014 C 
HETATM    2  C5  UNL     1     -34.544  15.578  -7.149  1.00 20.00     0.015 C 
HETATM    3  C6  UNL     1     -36.150  16.751  -6.335  1.00 20.00     0.067 C 
HETATM    4  C7  UNL     1     -35.214  15.634  -5.743  1.00 20.00    -0.011 C 
HETATM    5  C10 UNL     1     -35.886  14.325  -5.329  1.00 20.00     0.021 C 
ENDROOT
BRANCH   4   6
HETATM    6  C2  UNL     1     -34.310  16.130  -4.672  1.00 20.00    -0.084 C 
HETATM    7  C1  UNL     1     -34.137  17.440  -4.440  1.00 20.00     0.015 C 
HETATM    8  C8  UNL     1     -33.603  15.082  -3.864  1.00 20.00     0.043 C 
ENDBRANCH   4   6
BRANCH   3   9
HETATM    9  C3  UNL     1     -37.613  16.792  -5.880  1.00 20.00     0.128 C 
HETATM   10  C9  UNL     1     -37.908  17.561  -4.620  1.00 20.00     0.091 C 
HETATM   11  O11 UNL     1     -38.502  16.228  -6.516  1.00 20.00    -0.298 OA
ENDBRANCH   3   9
TORSDOF 2
ENDMDL
MODEL 9
REMARK VINA RESULT:      -3.4     10.575     12.011
REMARK  2 active torsions:
REMARK  status: ('A' for Active; 'I' for Inactive)
REMARK    1  A    between atoms: C2_2  and  C7_7 
REMARK    2  A    between atoms: C3_3  and  C6_6 
ROOT
HETATM    1  C4  UNL     1     -42.996  12.838   8.211  1.00 20.00     0.014 C 
HETATM    2  C5  UNL     1     -43.417  12.698   6.736  1.00 20.00     0.015 C 
HETATM    3  C6  UNL     1     -42.273  14.154   7.827  1.00 20.00     0.067 C 
HETATM    4  C7  UNL     1     -42.209  13.605   6.354  1.00 20.00    -0.011 C 
HETATM    5  C10 UNL     1     -40.953  12.825   5.968  1.00 20.00     0.021 C 
ENDROOT
BRANCH   4   6
HETATM    6  C2  UNL     1     -42.535  14.631   5.328  1.00 20.00    -0.084 C 
HETATM    7  C1  UNL     1     -42.189  14.482   4.041  1.00 20.00     0.015 C 
HETATM    8  C8  UNL     1     -43.275  15.842   5.815  1.00 20.00     0.043 C 
ENDBRANCH   4   6
BRANCH   3   9
HETATM    9  C3  UNL     1     -40.958  14.488   8.538  1.00 20.00     0.128 C 
HETATM   10  C9  UNL     1     -40.394  15.864   8.305  1.00 20.00     0.091 C 
HETATM   11  O11 UNL     1     -40.393  13.674   9.266  1.00 20.00    -0.298 OA
ENDBRANCH   3   9
TORSDOF 2
ENDMDL
