MODEL 1
REMARK VINA RESULT:      -6.3      0.000      0.000
REMARK  1 active torsions:
REMARK  status: ('A' for Active; 'I' for Inactive)
REMARK    1  A    between atoms: C5_5  and  C10_10 
ROOT
HETATM    1  C1  UNL     1     -33.558   4.938   3.230  1.00 20.00     0.003 C 
HETATM    2  C2  UNL     1     -32.810   5.654   2.377  1.00 20.00    -0.025 C 
HETATM    3  C3  UNL     1     -34.615   4.916   5.493  1.00 20.00    -0.019 C 
HETATM    4  C4  UNL     1     -34.034   5.521   4.451  1.00 20.00    -0.057 C 
HETATM    5  C6  UNL     1     -32.382   7.076   2.641  1.00 20.00     0.039 C 
HETATM    6  C7  UNL     1     -34.887   5.890   6.594  1.00 20.00     0.028 C 
HETATM    7  C8  UNL     1     -34.019   7.091   6.202  1.00 20.00     0.014 C 
HETATM    8  C9  UNL     1     -33.877   6.999   4.678  1.00 20.00     0.029 C 
HETATM    9  C10 UNL     1     -32.544   7.498   4.116  1.00 20.00     0.059 C 
ENDROOT
BRANCH   9  10
HETATM   10  C5  UNL     1     -32.462   8.991   4.209  1.00 20.00     0.236 C 
HETATM   11  O11 UNL     1     -31.927   9.583   5.142  1.00 20.00    -0.306 OA
ENDBRANCH   9  10
TORSDOF 1
ENDMDL
MODEL 2
REMARK VINA RESULT:      -5.8      1.990      3.841
REMARK  1 active torsions:
REMARK  status: ('A' for Active; 'I' for Inactive)
REMARK    1  A    between atoms: C5_5  and  C10_10 
ROOT
HETATM    1  C1  UNL     1     -34.333   6.720   6.480  1.00 20.00     0.003 C 
HETATM    2  C2  UNL     1     -34.771   5.490   6.169  1.00 20.00    -0.025 C 
HETATM    3  C3  UNL     1     -32.946   8.648   5.707  1.00 20.00    -0.019 C 
HETATM    4  C4  UNL     1     -33.615   7.505   5.518  1.00 20.00    -0.057 C 
HETATM    5  C6  UNL     1     -34.514   4.832   4.836  1.00 20.00     0.039 C 
HETATM    6  C7  UNL     1     -32.277   9.092   4.446  1.00 20.00     0.028 C 
HETATM    7  C8  UNL     1     -32.325   7.829   3.578  1.00 20.00     0.014 C 
HETATM    8  C9  UNL     1     -33.536   7.040   4.091  1.00 20.00     0.029 C 
HETATM    9  C10 UNL     1     -33.399   5.517   4.020  1.00 20.00     0.059 C 
ENDROOT
BRANCH   9  10
HETATM   10  C5  UNL     1     -33.475   5.050   2.599  1.00 20.00     0.236 C 
HETATM   11  O11 UNL     1     -32.600   4.380   2.059  1.00 20.00    -0.306 OA
ENDBRANCH   9  10
TORSDOF 1
ENDMDL
MODEL 3
REMARK VINA RESULT:      -5.7      1.788      3.314
REMARK  1 active torsions:
REMARK  status: ('A' for Active; 'I' for Inactive)
REMARK    1  A    between atoms: C5_5  and  C10_10 
ROOT
HETATM    1  C1  UNL     1     -32.473   6.250   2.503  1.00 20.00     0.003 C 
HETATM    2  C2  UNL     1     -33.097   5.068   2.624  1.00 20.00    -0.025 C 
HETATM    3  C3  UNL     1     -32.196   8.522   3.503  1.00 20.00    -0.019 C 
HETATM    4  C4  UNL     1     -32.579   7.241   3.536  1.00 20.00    -0.057 C 
HETATM    5  C6  UNL     1     -33.972   4.709   3.799  1.00 20.00     0.039 C 
HETATM    6  C7  UNL     1     -32.562   9.222   4.773  1.00 20.00     0.028 C 
HETATM    7  C8  UNL     1     -33.574   8.260   5.407  1.00 20.00     0.014 C 
HETATM    8  C9  UNL     1     -33.212   6.878   4.850  1.00 20.00     0.029 C 
HETATM    9  C10 UNL     1     -34.395   5.929   4.642  1.00 20.00     0.059 C 
ENDROOT
BRANCH   9  10
HETATM   10  C5  UNL     1     -34.923   5.453   5.961  1.00 20.00     0.236 C 
HETATM   11  O11 UNL     1     -34.203   5.090   6.886  1.00 20.00    -0.306 OA
ENDBRANCH   9  10
TORSDOF 1
ENDMDL
MODEL 4
REMARK VINA RESULT:      -5.6      1.499      1.803
REMARK  1 active torsions:
REMARK  status: ('A' for Active; 'I' for Inactive)
REMARK    1  A    between atoms: C5_5  and  C10_10 
ROOT
HETATM    1  C1  UNL     1     -34.197   4.567   4.415  1.00 20.00     0.003 C 
HETATM    2  C2  UNL     1     -33.643   4.456   3.198  1.00 20.00    -0.025 C 
HETATM    3  C3  UNL     1     -34.482   6.057   6.400  1.00 20.00    -0.019 C 
HETATM    4  C4  UNL     1     -34.162   5.814   5.124  1.00 20.00    -0.057 C 
HETATM    5  C6  UNL     1     -32.921   5.588   2.510  1.00 20.00     0.039 C 
HETATM    6  C7  UNL     1     -34.228   7.488   6.752  1.00 20.00     0.028 C 
HETATM    7  C8  UNL     1     -33.337   7.964   5.599  1.00 20.00     0.014 C 
HETATM    8  C9  UNL     1     -33.696   7.056   4.417  1.00 20.00     0.029 C 
HETATM    9  C10 UNL     1     -32.540   6.740   3.463  1.00 20.00     0.059 C 
ENDROOT
BRANCH   9  10
HETATM   10  C5  UNL     1     -32.184   7.948   2.653  1.00 20.00     0.236 C 
HETATM   11  O11 UNL     1     -32.117   7.946   1.428  1.00 20.00    -0.306 OA
ENDBRANCH   9  10
TORSDOF 1
ENDMDL
MODEL 5
REMARK VINA RESULT:      -5.4      1.910      3.011
REMARK  1 active torsions:
REMARK  status: ('A' for Active; 'I' for Inactive)
REMARK    1  A    between atoms: C5_5  and  C10_10 
ROOT
HETATM    1  C1  UNL     1     -32.896   8.463   5.331  1.00 20.00     0.003 C 
HETATM    2  C2  UNL     1     -32.269   8.681   4.165  1.00 20.00    -0.025 C 
HETATM    3  C3  UNL     1     -34.389   6.900   6.583  1.00 20.00    -0.019 C 
HETATM    4  C4  UNL     1     -33.563   7.217   5.580  1.00 20.00    -0.057 C 
HETATM    5  C6  UNL     1     -32.249   7.682   3.035  1.00 20.00     0.039 C 
HETATM    6  C7  UNL     1     -34.922   5.513   6.419  1.00 20.00     0.028 C 
HETATM    7  C8  UNL     1     -34.594   5.198   4.956  1.00 20.00     0.014 C 
HETATM    8  C9  UNL     1     -33.379   6.073   4.623  1.00 20.00     0.029 C 
HETATM    9  C10 UNL     1     -33.314   6.575   3.178  1.00 20.00     0.059 C 
ENDROOT
BRANCH   9  10
HETATM   10  C5  UNL     1     -32.979   5.451   2.248  1.00 20.00     0.236 C 
HETATM   11  O11 UNL     1     -32.558   4.361   2.626  1.00 20.00    -0.306 OA
ENDBRANCH   9  10
TORSDOF 1
ENDMDL
MODEL 6
REMARK VINA RESULT:      -5.3      0.679      2.894
REMARK  1 active torsions:
REMARK  status: ('A' for Active; 'I' for Inactive)
REMARK    1  A    between atoms: C5_5  and  C10_10 
ROOT
HETATM    1  C1  UNL     1     -34.718   5.113   5.481  1.00 20.00     0.003 C 
HETATM    2  C2  UNL     1     -34.795   6.065   6.423  1.00 20.00    -0.025 C 
HETATM    3  C3  UNL     1     -33.832   4.553   3.213  1.00 20.00    -0.019 C 
HETATM    4  C4  UNL     1     -33.884   5.291   4.327  1.00 20.00    -0.057 C 
HETATM    5  C6  UNL     1     -34.067   7.383   6.330  1.00 20.00     0.039 C 
HETATM    6  C7  UNL     1     -32.872   5.138   2.227  1.00 20.00     0.028 C 
HETATM    7  C8  UNL     1     -32.656   6.555   2.769  1.00 20.00     0.014 C 
HETATM    8  C9  UNL     1     -32.929   6.452   4.275  1.00 20.00     0.029 C 
HETATM    9  C10 UNL     1     -33.550   7.698   4.912  1.00 20.00     0.059 C 
ENDROOT
BRANCH   9  10
HETATM   10  C5  UNL     1     -32.541   8.802   4.993  1.00 20.00     0.236 C 
HETATM   11  O11 UNL     1     -32.268   9.540   4.051  1.00 20.00    -0.306 OA
ENDBRANCH   9  10
TORSDOF 1
ENDMDL
MODEL 7
REMARK VINA RESULT:      -5.1      1.882      3.761
REMARK  1 active torsions:
REMARK  status: ('A' for Active; 'I' for Inactive)
REMARK    1  A    between atoms: C5_5  and  C10_10 
ROOT
HETATM    1  C1  UNL     1     -32.196   8.453   3.807  1.00 20.00     0.003 C 
HETATM    2  C2  UNL     1     -32.584   9.000   4.969  1.00 20.00    -0.025 C 
HETATM    3  C3  UNL     1     -32.259   6.388   2.402  1.00 20.00    -0.019 C 
HETATM    4  C4  UNL     1     -32.679   7.161   3.410  1.00 20.00    -0.057 C 
HETATM    5  C6  UNL     1     -33.498   8.306   5.948  1.00 20.00     0.039 C 
HETATM    6  C7  UNL     1     -32.988   5.083   2.390  1.00 20.00     0.028 C 
HETATM    7  C8  UNL     1     -33.626   5.041   3.783  1.00 20.00     0.014 C 
HETATM    8  C9  UNL     1     -33.786   6.511   4.192  1.00 20.00     0.029 C 
HETATM    9  C10 UNL     1     -33.635   6.791   5.689  1.00 20.00     0.059 C 
ENDROOT
BRANCH   9  10
HETATM   10  C5  UNL     1     -34.821   6.271   6.442  1.00 20.00     0.236 C 
HETATM   11  O11 UNL     1     -34.917   5.112   6.835  1.00 20.00    -0.306 OA
ENDBRANCH   9  10
TORSDOF 1
ENDMDL
MODEL 8
REMARK VINA RESULT:      -4.9      1.519      2.841
REMARK  1 active torsions:
REMARK  status: ('A' for Active; 'I' for Inactive)
REMARK    1  A    between atoms: C5_5  and  C10_10 
ROOT
HETATM    1  C1  UNL     1     -33.669   7.993   6.197  1.00 20.00     0.003 C 
HETATM    2  C2  UNL     1     -32.955   8.965   5.609  1.00 20.00    -0.025 C 
HETATM    3  C3  UNL     1     -34.712   5.746   5.874  1.00 20.00    -0.019 C 
HETATM    4  C4  UNL     1     -33.882   6.738   5.534  1.00 20.00    -0.057 C 
HETATM    5  C6  UNL     1     -32.371   8.842   4.224  1.00 20.00     0.039 C 
HETATM    6  C7  UNL     1     -34.675   4.647   4.861  1.00 20.00     0.028 C 
HETATM    7  C8  UNL     1     -33.989   5.316   3.664  1.00 20.00     0.014 C 
HETATM    8  C9  UNL     1     -33.127   6.430   4.271  1.00 20.00     0.029 C 
HETATM    9  C10 UNL     1     -32.978   7.684   3.405  1.00 20.00     0.059 C 
ENDROOT
BRANCH   9  10
HETATM   10  C5  UNL     1     -32.097   7.404   2.226  1.00 20.00     0.236 C 
HETATM   11  O11 UNL     1     -32.056   8.116   1.227  1.00 20.00    -0.306 OA
ENDBRANCH   9  10
TORSDOF 1
ENDMDL
MODEL 9
REMARK VINA RESULT:      -4.8      2.127      4.334
REMARK  1 active torsions:
REMARK  status: ('A' for Active; 'I' for Inactive)
REMARK    1  A    between atoms: C5_5  and  C10_10 
ROOT
HETATM    1  C1  UNL     1     -33.324   8.647   5.612  1.00 20.00     0.003 C 
HETATM    2  C2  UNL     1     -33.978   7.938   6.545  1.00 20.00    -0.025 C 
HETATM    3  C3  UNL     1     -32.245   8.553   3.361  1.00 20.00    -0.019 C 
HETATM    4  C4  UNL     1     -33.040   8.078   4.327  1.00 20.00    -0.057 C 
HETATM    5  C6  UNL     1     -34.419   6.510   6.343  1.00 20.00     0.039 C 
HETATM    6  C7  UNL     1     -32.175   7.602   2.210  1.00 20.00     0.028 C 
HETATM    7  C8  UNL     1     -32.738   6.308   2.808  1.00 20.00     0.014 C 
HETATM    8  C9  UNL     1     -33.661   6.763   3.944  1.00 20.00     0.029 C 
HETATM    9  C10 UNL     1     -33.727   5.820   5.148  1.00 20.00     0.059 C 
ENDROOT
BRANCH   9  10
HETATM   10  C5  UNL     1     -34.482   4.575   4.798  1.00 20.00     0.236 C 
HETATM   11  O11 UNL     1     -33.949   3.561   4.356  1.00 20.00    -0.306 OA
ENDBRANCH   9  10
TORSDOF 1
ENDMDL
