MODEL 1
REMARK VINA RESULT:      -4.2      0.000      0.000
REMARK  3 active torsions:
REMARK  status: ('A' for Active; 'I' for Inactive)
REMARK    1  A    between atoms: C1_1  and  C7_7 
REMARK    2  A    between atoms: C2_2  and  C8_8 
REMARK    3  A    between atoms: C4_4  and  C9_9 
ROOT
HETATM    1  C8  UNL     1     -34.037  17.855  -0.259  1.00 20.00     0.233 A 
HETATM    2  C9  UNL     1     -33.006  18.637   0.487  1.00 20.00     0.186 A 
HETATM    3  O10 UNL     1     -33.925  19.263  -0.420  1.00 20.00    -0.358 OA
ENDROOT
BRANCH   1   4
HETATM    4  C2  UNL     1     -33.698  17.150  -1.494  1.00 20.00    -0.071 C 
HETATM    5  C1  UNL     1     -33.419  16.569  -2.508  1.00 20.00    -0.099 C 
BRANCH   5   6
HETATM    6  C7  UNL     1     -33.079  15.864  -3.743  1.00 20.00     0.065 A 
HETATM    7  C5  UNL     1     -34.100  15.828  -4.829  1.00 20.00     0.018 A 
HETATM    8  C6  UNL     1     -33.797  14.590  -4.038  1.00 20.00     0.018 A 
ENDBRANCH   5   6
ENDBRANCH   1   4
BRANCH   2   9
HETATM    9  C4  UNL     1     -31.587  18.499   0.191  1.00 20.00    -0.002 C 
HETATM   10  C3  UNL     1     -30.625  18.492   1.121  1.00 20.00     0.009 C 
ENDBRANCH   2   9
TORSDOF 3
ENDMDL
MODEL 2
REMARK VINA RESULT:      -4.2     11.658     12.270
REMARK  3 active torsions:
REMARK  status: ('A' for Active; 'I' for Inactive)
REMARK    1  A    between atoms: C1_1  and  C7_7 
REMARK    2  A    between atoms: C2_2  and  C8_8 
REMARK    3  A    between atoms: C4_4  and  C9_9 
ROOT
HETATM    1  C8  UNL     1     -34.101   7.293   6.209  1.00 20.00     0.233 A 
HETATM    2  C9  UNL     1     -34.733   5.941   6.159  1.00 20.00     0.186 A 
HETATM    3  O10 UNL     1     -33.430   6.149   6.722  1.00 20.00    -0.358 OA
ENDROOT
BRANCH   1   4
HETATM    4  C2  UNL     1     -33.405   7.841   5.045  1.00 20.00    -0.071 C 
HETATM    5  C1  UNL     1     -32.835   8.292   4.090  1.00 20.00    -0.099 C 
BRANCH   5   6
HETATM    6  C7  UNL     1     -32.140   8.841   2.926  1.00 20.00     0.065 A 
HETATM    7  C5  UNL     1     -32.969   9.352   1.797  1.00 20.00     0.018 A 
HETATM    8  C6  UNL     1     -32.204   8.071   1.650  1.00 20.00     0.018 A 
ENDBRANCH   5   6
ENDBRANCH   1   4
BRANCH   2   9
HETATM    9  C4  UNL     1     -34.939   5.244   4.897  1.00 20.00    -0.002 C 
HETATM   10  C3  UNL     1     -34.080   4.357   4.383  1.00 20.00     0.009 C 
ENDBRANCH   2   9
TORSDOF 3
ENDMDL
MODEL 3
REMARK VINA RESULT:      -4.0      1.227      5.280
REMARK  3 active torsions:
REMARK  status: ('A' for Active; 'I' for Inactive)
REMARK    1  A    between atoms: C1_1  and  C7_7 
REMARK    2  A    between atoms: C2_2  and  C8_8 
REMARK    3  A    between atoms: C4_4  and  C9_9 
ROOT
HETATM    1  C8  UNL     1     -33.278  19.199  -1.465  1.00 20.00     0.233 A 
HETATM    2  C9  UNL     1     -33.866  18.145  -2.346  1.00 20.00     0.186 A 
HETATM    3  O10 UNL     1     -34.597  18.713  -1.249  1.00 20.00    -0.358 OA
ENDROOT
BRANCH   1   4
HETATM    4  C2  UNL     1     -32.392  18.845  -0.358  1.00 20.00    -0.071 C 
HETATM    5  C1  UNL     1     -31.663  18.555   0.551  1.00 20.00    -0.099 C 
BRANCH   5   6
HETATM    6  C7  UNL     1     -30.775  18.201   1.657  1.00 20.00     0.065 A 
HETATM    7  C5  UNL     1     -31.060  18.791   2.996  1.00 20.00     0.018 A 
HETATM    8  C6  UNL     1     -29.879  19.263   2.200  1.00 20.00     0.018 A 
ENDBRANCH   5   6
ENDBRANCH   1   4
BRANCH   2   9
HETATM    9  C4  UNL     1     -33.369  16.777  -2.330  1.00 20.00    -0.002 C 
HETATM   10  C3  UNL     1     -33.396  15.957  -3.387  1.00 20.00     0.009 C 
ENDBRANCH   2   9
TORSDOF 3
ENDMDL
MODEL 4
REMARK VINA RESULT:      -3.8      2.670      5.825
REMARK  3 active torsions:
REMARK  status: ('A' for Active; 'I' for Inactive)
REMARK    1  A    between atoms: C1_1  and  C7_7 
REMARK    2  A    between atoms: C2_2  and  C8_8 
REMARK    3  A    between atoms: C4_4  and  C9_9 
ROOT
HETATM    1  C8  UNL     1     -34.028  14.623  -4.409  1.00 20.00     0.233 A 
HETATM    2  C9  UNL     1     -35.050  14.882  -5.466  1.00 20.00     0.186 A 
HETATM    3  O10 UNL     1     -33.643  14.942  -5.739  1.00 20.00    -0.358 OA
ENDROOT
BRANCH   1   4
HETATM    4  C2  UNL     1     -33.631  15.674  -3.473  1.00 20.00    -0.071 C 
HETATM    5  C1  UNL     1     -33.305  16.537  -2.703  1.00 20.00    -0.099 C 
BRANCH   5   6
HETATM    6  C7  UNL     1     -32.910  17.588  -1.767  1.00 20.00     0.065 A 
HETATM    7  C5  UNL     1     -33.731  17.771  -0.538  1.00 20.00     0.018 A 
HETATM    8  C6  UNL     1     -33.796  18.781  -1.645  1.00 20.00     0.018 A 
ENDBRANCH   5   6
ENDBRANCH   1   4
BRANCH   2   9
HETATM    9  C4  UNL     1     -35.893  16.070  -5.434  1.00 20.00    -0.002 C 
HETATM   10  C3  UNL     1     -37.193  16.074  -5.749  1.00 20.00     0.009 C 
ENDBRANCH   2   9
TORSDOF 3
ENDMDL
MODEL 5
REMARK VINA RESULT:      -3.8     10.683     11.736
REMARK  3 active torsions:
REMARK  status: ('A' for Active; 'I' for Inactive)
REMARK    1  A    between atoms: C1_1  and  C7_7 
REMARK    2  A    between atoms: C2_2  and  C8_8 
REMARK    3  A    between atoms: C4_4  and  C9_9 
ROOT
HETATM    1  C8  UNL     1     -42.293  14.390   6.902  1.00 20.00     0.233 A 
HETATM    2  C9  UNL     1     -41.802  15.564   7.683  1.00 20.00     0.186 A 
HETATM    3  O10 UNL     1     -42.073  15.647   6.276  1.00 20.00    -0.358 OA
ENDROOT
BRANCH   1   4
HETATM    4  C2  UNL     1     -41.364  13.377   6.402  1.00 20.00    -0.071 C 
HETATM    5  C1  UNL     1     -40.600  12.545   5.993  1.00 20.00    -0.099 C 
BRANCH   5   6
HETATM    6  C7  UNL     1     -39.671  11.533   5.494  1.00 20.00     0.065 A 
HETATM    7  C5  UNL     1     -38.249  11.933   5.290  1.00 20.00     0.018 A 
HETATM    8  C6  UNL     1     -39.142  11.695   4.109  1.00 20.00     0.018 A 
ENDBRANCH   5   6
ENDBRANCH   1   4
BRANCH   2   9
HETATM    9  C4  UNL     1     -40.450  15.606   8.224  1.00 20.00    -0.002 C 
HETATM   10  C3  UNL     1     -40.137  15.284   9.483  1.00 20.00     0.009 C 
ENDBRANCH   2   9
TORSDOF 3
ENDMDL
MODEL 6
REMARK VINA RESULT:      -3.7     11.716     12.355
REMARK  3 active torsions:
REMARK  status: ('A' for Active; 'I' for Inactive)
REMARK    1  A    between atoms: C1_1  and  C7_7 
REMARK    2  A    between atoms: C2_2  and  C8_8 
REMARK    3  A    between atoms: C4_4  and  C9_9 
ROOT
HETATM    1  C8  UNL     1     -34.165   4.937   4.143  1.00 20.00     0.233 A 
HETATM    2  C9  UNL     1     -34.547   5.009   5.585  1.00 20.00     0.186 A 
HETATM    3  O10 UNL     1     -35.447   5.406   4.540  1.00 20.00    -0.358 OA
ENDROOT
BRANCH   1   4
HETATM    4  C2  UNL     1     -33.378   6.000   3.519  1.00 20.00    -0.071 C 
HETATM    5  C1  UNL     1     -32.732   6.874   3.007  1.00 20.00    -0.099 C 
BRANCH   5   6
HETATM    6  C7  UNL     1     -31.946   7.937   2.384  1.00 20.00     0.065 A 
HETATM    7  C5  UNL     1     -32.659   9.176   1.963  1.00 20.00     0.018 A 
HETATM    8  C6  UNL     1     -32.162   8.206   0.933  1.00 20.00     0.018 A 
ENDBRANCH   5   6
ENDBRANCH   1   4
BRANCH   2   9
HETATM    9  C4  UNL     1     -33.926   5.968   6.489  1.00 20.00    -0.002 C 
HETATM   10  C3  UNL     1     -34.237   7.268   6.532  1.00 20.00     0.009 C 
ENDBRANCH   2   9
TORSDOF 3
ENDMDL
MODEL 7
REMARK VINA RESULT:      -3.7     10.801     11.847
REMARK  3 active torsions:
REMARK  status: ('A' for Active; 'I' for Inactive)
REMARK    1  A    between atoms: C1_1  and  C7_7 
REMARK    2  A    between atoms: C2_2  and  C8_8 
REMARK    3  A    between atoms: C4_4  and  C9_9 
ROOT
HETATM    1  C8  UNL     1     -41.353  15.133   7.274  1.00 20.00     0.233 A 
HETATM    2  C9  UNL     1     -40.969  15.669   8.614  1.00 20.00     0.186 A 
HETATM    3  O10 UNL     1     -40.422  16.200   7.398  1.00 20.00    -0.358 OA
ENDROOT
BRANCH   1   4
HETATM    4  C2  UNL     1     -40.717  13.932   6.734  1.00 20.00    -0.071 C 
HETATM    5  C1  UNL     1     -40.194  12.946   6.291  1.00 20.00    -0.099 C 
BRANCH   5   6
HETATM    6  C7  UNL     1     -39.558  11.745   5.750  1.00 20.00     0.065 A 
HETATM    7  C5  UNL     1     -38.165  11.866   5.236  1.00 20.00     0.018 A 
HETATM    8  C6  UNL     1     -39.308  11.691   4.281  1.00 20.00     0.018 A 
ENDBRANCH   5   6
ENDBRANCH   1   4
BRANCH   2   9
HETATM    9  C4  UNL     1     -40.178  14.883   9.550  1.00 20.00    -0.002 C 
HETATM   10  C3  UNL     1     -40.494  14.710  10.838  1.00 20.00     0.009 C 
ENDBRANCH   2   9
TORSDOF 3
ENDMDL
MODEL 8
REMARK VINA RESULT:      -3.7      1.852      2.904
REMARK  3 active torsions:
REMARK  status: ('A' for Active; 'I' for Inactive)
REMARK    1  A    between atoms: C1_1  and  C7_7 
REMARK    2  A    between atoms: C2_2  and  C8_8 
REMARK    3  A    between atoms: C4_4  and  C9_9 
ROOT
HETATM    1  C8  UNL     1     -32.989  17.535  -1.738  1.00 20.00     0.233 A 
HETATM    2  C9  UNL     1     -33.927  18.672  -1.496  1.00 20.00     0.186 A 
HETATM    3  O10 UNL     1     -33.924  17.500  -0.667  1.00 20.00    -0.358 OA
ENDROOT
BRANCH   1   4
HETATM    4  C2  UNL     1     -33.287  16.514  -2.740  1.00 20.00    -0.071 C 
HETATM    5  C1  UNL     1     -33.532  15.675  -3.564  1.00 20.00    -0.099 C 
BRANCH   5   6
HETATM    6  C7  UNL     1     -33.830  14.654  -4.567  1.00 20.00     0.065 A 
HETATM    7  C5  UNL     1     -34.025  15.098  -5.976  1.00 20.00     0.018 A 
HETATM    8  C6  UNL     1     -35.198  14.640  -5.162  1.00 20.00     0.018 A 
ENDBRANCH   5   6
ENDBRANCH   1   4
BRANCH   2   9
HETATM    9  C4  UNL     1     -35.010  18.974  -2.421  1.00 20.00    -0.002 C 
HETATM   10  C3  UNL     1     -36.265  19.241  -2.043  1.00 20.00     0.009 C 
ENDBRANCH   2   9
TORSDOF 3
ENDMDL
MODEL 9
REMARK VINA RESULT:      -3.6     10.414     11.559
REMARK  3 active torsions:
REMARK  status: ('A' for Active; 'I' for Inactive)
REMARK    1  A    between atoms: C1_1  and  C7_7 
REMARK    2  A    between atoms: C2_2  and  C8_8 
REMARK    3  A    between atoms: C4_4  and  C9_9 
ROOT
HETATM    1  C8  UNL     1     -42.688  14.674   6.060  1.00 20.00     0.233 A 
HETATM    2  C9  UNL     1     -42.325  15.991   6.663  1.00 20.00     0.186 A 
HETATM    3  O10 UNL     1     -42.396  15.800   5.243  1.00 20.00    -0.358 OA
ENDROOT
BRANCH   1   4
HETATM    4  C2  UNL     1     -41.686  13.622   5.893  1.00 20.00    -0.071 C 
HETATM    5  C1  UNL     1     -40.863  12.757   5.758  1.00 20.00    -0.099 C 
BRANCH   5   6
HETATM    6  C7  UNL     1     -39.861  11.706   5.592  1.00 20.00     0.065 A 
HETATM    7  C5  UNL     1     -38.428  12.113   5.530  1.00 20.00     0.018 A 
HETATM    8  C6  UNL     1     -39.131  11.638   4.293  1.00 20.00     0.018 A 
ENDBRANCH   5   6
ENDBRANCH   1   4
BRANCH   2   9
HETATM    9  C4  UNL     1     -41.064  16.185   7.365  1.00 20.00    -0.002 C 
HETATM   10  C3  UNL     1     -40.726  17.311   8.002  1.00 20.00     0.009 C 
ENDBRANCH   2   9
TORSDOF 3
ENDMDL
