MODEL 1
REMARK VINA RESULT:      -4.0      0.000      0.000
REMARK  1 active torsions:
REMARK  status: ('A' for Active; 'I' for Inactive)
REMARK    1  A    between atoms: C2_2  and  C3_3 
ROOT
HETATM    1  C1  UNL     1     -33.190  16.928  -2.002  1.00 20.00    -0.007 C 
HETATM    2  C2  UNL     1     -33.661  17.209  -3.221  1.00 20.00    -0.012 C 
HETATM    3  C4  UNL     1     -32.966  19.263  -2.312  1.00 20.00     0.022 C 
HETATM    4  C5  UNL     1     -33.803  18.677  -3.466  1.00 20.00     0.019 C 
HETATM    5  C6  UNL     1     -32.933  18.181  -1.208  1.00 20.00    -0.029 C 
HETATM    6  C8  UNL     1     -33.297  19.154  -4.822  1.00 20.00     0.015 C 
HETATM    7  C9  UNL     1     -31.568  18.141  -0.516  1.00 20.00     0.019 C 
HETATM    8  C10 UNL     1     -34.043  18.398  -0.174  1.00 20.00     0.019 C 
ENDROOT
BRANCH   2   9
HETATM    9  C3  UNL     1     -34.042  16.163  -4.155  1.00 20.00     0.151 C 
HETATM   10  C7  UNL     1     -33.222  14.891  -4.187  1.00 20.00     0.096 C 
HETATM   11  O11 UNL     1     -35.009  16.307  -4.917  1.00 20.00    -0.293 OA
ENDBRANCH   2   9
TORSDOF 1
ENDMDL
MODEL 2
REMARK VINA RESULT:      -3.8     12.013     13.239
REMARK  1 active torsions:
REMARK  status: ('A' for Active; 'I' for Inactive)
REMARK    1  A    between atoms: C2_2  and  C3_3 
ROOT
HETATM    1  C1  UNL     1     -40.387  14.734   7.062  1.00 20.00    -0.007 C 
HETATM    2  C2  UNL     1     -41.003  13.627   6.637  1.00 20.00    -0.012 C 
HETATM    3  C4  UNL     1     -42.379  14.522   8.321  1.00 20.00     0.022 C 
HETATM    4  C5  UNL     1     -42.157  13.233   7.504  1.00 20.00     0.019 C 
HETATM    5  C6  UNL     1     -41.033  15.282   8.306  1.00 20.00    -0.029 C 
HETATM    6  C8  UNL     1     -43.417  12.825   6.751  1.00 20.00     0.015 C 
HETATM    7  C9  UNL     1     -41.254  16.793   8.210  1.00 20.00     0.019 C 
HETATM    8  C10 UNL     1     -40.186  14.950   9.540  1.00 20.00     0.019 C 
ENDROOT
BRANCH   2   9
HETATM    9  C3  UNL     1     -40.528  12.878   5.486  1.00 20.00     0.151 C 
HETATM   10  C7  UNL     1     -39.648  11.669   5.726  1.00 20.00     0.096 C 
HETATM   11  O11 UNL     1     -40.825  13.220   4.333  1.00 20.00    -0.293 OA
ENDBRANCH   2   9
TORSDOF 1
ENDMDL
MODEL 3
REMARK VINA RESULT:      -3.8      1.473      2.810
REMARK  1 active torsions:
REMARK  status: ('A' for Active; 'I' for Inactive)
REMARK    1  A    between atoms: C2_2  and  C3_3 
ROOT
HETATM    1  C1  UNL     1     -34.704  18.209  -3.512  1.00 20.00    -0.007 C 
HETATM    2  C2  UNL     1     -34.537  17.165  -4.329  1.00 20.00    -0.012 C 
HETATM    3  C4  UNL     1     -33.293  16.674  -2.395  1.00 20.00     0.022 C 
HETATM    4  C5  UNL     1     -33.478  16.220  -3.856  1.00 20.00     0.019 C 
HETATM    5  C6  UNL     1     -33.770  18.143  -2.333  1.00 20.00    -0.029 C 
HETATM    6  C8  UNL     1     -33.849  14.744  -3.941  1.00 20.00     0.015 C 
HETATM    7  C9  UNL     1     -34.499  18.432  -1.019  1.00 20.00     0.019 C 
HETATM    8  C10 UNL     1     -32.605  19.121  -2.518  1.00 20.00     0.019 C 
ENDROOT
BRANCH   2   9
HETATM    9  C3  UNL     1     -35.283  17.034  -5.569  1.00 20.00     0.151 C 
HETATM   10  C7  UNL     1     -36.776  16.797  -5.491  1.00 20.00     0.096 C 
HETATM   11  O11 UNL     1     -34.714  17.104  -6.668  1.00 20.00    -0.293 OA
ENDBRANCH   2   9
TORSDOF 1
ENDMDL
MODEL 4
REMARK VINA RESULT:      -3.8     11.538     12.828
REMARK  1 active torsions:
REMARK  status: ('A' for Active; 'I' for Inactive)
REMARK    1  A    between atoms: C2_2  and  C3_3 
ROOT
HETATM    1  C1  UNL     1     -41.375  14.011   4.496  1.00 20.00    -0.007 C 
HETATM    2  C2  UNL     1     -41.230  13.256   5.590  1.00 20.00    -0.012 C 
HETATM    3  C4  UNL     1     -43.417  14.114   5.685  1.00 20.00     0.022 C 
HETATM    4  C5  UNL     1     -42.358  13.415   6.560  1.00 20.00     0.019 C 
HETATM    5  C6  UNL     1     -42.644  14.818   4.547  1.00 20.00    -0.029 C 
HETATM    6  C8  UNL     1     -42.888  12.113   7.147  1.00 20.00     0.015 C 
HETATM    7  C9  UNL     1     -43.415  14.742   3.227  1.00 20.00     0.019 C 
HETATM    8  C10 UNL     1     -42.336  16.279   4.895  1.00 20.00     0.019 C 
ENDROOT
BRANCH   2   9
HETATM    9  C3  UNL     1     -40.053  12.431   5.802  1.00 20.00     0.151 C 
HETATM   10  C7  UNL     1     -39.399  11.785   4.599  1.00 20.00     0.096 C 
HETATM   11  O11 UNL     1     -39.596  12.249   6.939  1.00 20.00    -0.293 OA
ENDBRANCH   2   9
TORSDOF 1
ENDMDL
MODEL 5
REMARK VINA RESULT:      -3.7     11.763     12.930
REMARK  1 active torsions:
REMARK  status: ('A' for Active; 'I' for Inactive)
REMARK    1  A    between atoms: C2_2  and  C3_3 
ROOT
HETATM    1  C1  UNL     1     -33.680   7.834   4.740  1.00 20.00    -0.007 C 
HETATM    2  C2  UNL     1     -34.016   6.645   4.230  1.00 20.00    -0.012 C 
HETATM    3  C4  UNL     1     -32.059   7.299   3.103  1.00 20.00     0.022 C 
HETATM    4  C5  UNL     1     -33.217   6.285   3.018  1.00 20.00     0.019 C 
HETATM    5  C6  UNL     1     -32.582   8.486   3.943  1.00 20.00    -0.029 C 
HETATM    6  C8  UNL     1     -32.704   4.851   2.989  1.00 20.00     0.015 C 
HETATM    7  C9  UNL     1     -31.484   9.047   4.849  1.00 20.00     0.019 C 
HETATM    8  C10 UNL     1     -33.152   9.597   3.054  1.00 20.00     0.019 C 
ENDROOT
BRANCH   2   9
HETATM    9  C3  UNL     1     -35.094   5.847   4.790  1.00 20.00     0.151 C 
HETATM   10  C7  UNL     1     -34.853   5.128   6.101  1.00 20.00     0.096 C 
HETATM   11  O11 UNL     1     -36.183   5.747   4.209  1.00 20.00    -0.293 OA
ENDBRANCH   2   9
TORSDOF 1
ENDMDL
MODEL 6
REMARK VINA RESULT:      -3.7      2.074      4.389
REMARK  1 active torsions:
REMARK  status: ('A' for Active; 'I' for Inactive)
REMARK    1  A    between atoms: C2_2  and  C3_3 
ROOT
HETATM    1  C1  UNL     1     -33.998  15.772  -4.138  1.00 20.00    -0.007 C 
HETATM    2  C2  UNL     1     -34.174  17.074  -3.894  1.00 20.00    -0.012 C 
HETATM    3  C4  UNL     1     -35.872  16.468  -5.403  1.00 20.00     0.022 C 
HETATM    4  C5  UNL     1     -35.176  17.707  -4.806  1.00 20.00     0.019 C 
HETATM    5  C6  UNL     1     -34.866  15.301  -5.275  1.00 20.00    -0.029 C 
HETATM    6  C8  UNL     1     -36.173  18.633  -4.121  1.00 20.00     0.015 C 
HETATM    7  C9  UNL     1     -35.581  13.991  -4.934  1.00 20.00     0.019 C 
HETATM    8  C10 UNL     1     -34.034  15.133  -6.550  1.00 20.00     0.019 C 
ENDROOT
BRANCH   2   9
HETATM    9  C3  UNL     1     -33.403  17.776  -2.881  1.00 20.00     0.151 C 
HETATM   10  C7  UNL     1     -33.498  17.301  -1.447  1.00 20.00     0.096 C 
HETATM   11  O11 UNL     1     -32.690  18.744  -3.177  1.00 20.00    -0.293 OA
ENDBRANCH   2   9
TORSDOF 1
ENDMDL
MODEL 7
REMARK VINA RESULT:      -3.7     12.275     14.025
REMARK  1 active torsions:
REMARK  status: ('A' for Active; 'I' for Inactive)
REMARK    1  A    between atoms: C2_2  and  C3_3 
ROOT
HETATM    1  C1  UNL     1     -40.284  14.078   6.893  1.00 20.00    -0.007 C 
HETATM    2  C2  UNL     1     -41.048  14.528   7.893  1.00 20.00    -0.012 C 
HETATM    3  C4  UNL     1     -42.221  12.720   6.953  1.00 20.00     0.022 C 
HETATM    4  C5  UNL     1     -42.414  13.919   7.902  1.00 20.00     0.019 C 
HETATM    5  C6  UNL     1     -41.020  13.074   6.046  1.00 20.00    -0.029 C 
HETATM    6  C8  UNL     1     -42.909  13.473   9.272  1.00 20.00     0.015 C 
HETATM    7  C9  UNL     1     -40.162  11.840   5.759  1.00 20.00     0.019 C 
HETATM    8  C10 UNL     1     -41.478  13.716   4.731  1.00 20.00     0.019 C 
ENDROOT
BRANCH   2   9
HETATM    9  C3  UNL     1     -40.581  15.550   8.815  1.00 20.00     0.151 C 
HETATM   10  C7  UNL     1     -40.968  16.990   8.550  1.00 20.00     0.096 C 
HETATM   11  O11 UNL     1     -39.876  15.258   9.791  1.00 20.00    -0.293 OA
ENDBRANCH   2   9
TORSDOF 1
ENDMDL
MODEL 8
REMARK VINA RESULT:      -3.6      2.147      4.732
REMARK  1 active torsions:
REMARK  status: ('A' for Active; 'I' for Inactive)
REMARK    1  A    between atoms: C2_2  and  C3_3 
ROOT
HETATM    1  C1  UNL     1     -34.893  17.360  -5.077  1.00 20.00    -0.007 C 
HETATM    2  C2  UNL     1     -34.081  16.794  -4.178  1.00 20.00    -0.012 C 
HETATM    3  C4  UNL     1     -34.604  15.102  -5.724  1.00 20.00     0.022 C 
HETATM    4  C5  UNL     1     -33.997  15.309  -4.322  1.00 20.00     0.019 C 
HETATM    5  C6  UNL     1     -35.502  16.332  -5.993  1.00 20.00    -0.029 C 
HETATM    6  C8  UNL     1     -32.589  14.732  -4.232  1.00 20.00     0.015 C 
HETATM    7  C9  UNL     1     -35.421  16.763  -7.459  1.00 20.00     0.019 C 
HETATM    8  C10 UNL     1     -36.959  16.062  -5.601  1.00 20.00     0.019 C 
ENDROOT
BRANCH   2   9
HETATM    9  C3  UNL     1     -33.420  17.574  -3.144  1.00 20.00     0.151 C 
HETATM   10  C7  UNL     1     -33.551  17.121  -1.706  1.00 20.00     0.096 C 
HETATM   11  O11 UNL     1     -32.771  18.591  -3.427  1.00 20.00    -0.293 OA
ENDBRANCH   2   9
TORSDOF 1
ENDMDL
MODEL 9
REMARK VINA RESULT:      -3.6      1.878      3.893
REMARK  1 active torsions:
REMARK  status: ('A' for Active; 'I' for Inactive)
REMARK    1  A    between atoms: C2_2  and  C3_3 
ROOT
HETATM    1  C1  UNL     1     -35.098  16.702  -5.463  1.00 20.00    -0.007 C 
HETATM    2  C2  UNL     1     -34.326  16.070  -4.573  1.00 20.00    -0.012 C 
HETATM    3  C4  UNL     1     -34.198  18.353  -4.026  1.00 20.00     0.022 C 
HETATM    4  C5  UNL     1     -33.503  17.005  -3.748  1.00 20.00     0.019 C 
HETATM    5  C6  UNL     1     -34.921  18.195  -5.384  1.00 20.00    -0.029 C 
HETATM    6  C8  UNL     1     -33.472  16.690  -2.257  1.00 20.00     0.015 C 
HETATM    7  C9  UNL     1     -36.266  18.925  -5.381  1.00 20.00     0.019 C 
HETATM    8  C10 UNL     1     -34.052  18.693  -6.545  1.00 20.00     0.019 C 
ENDROOT
BRANCH   2   9
HETATM    9  C3  UNL     1     -34.276  14.619  -4.496  1.00 20.00     0.151 C 
HETATM   10  C7  UNL     1     -35.575  13.847  -4.591  1.00 20.00     0.096 C 
HETATM   11  O11 UNL     1     -33.200  14.023  -4.347  1.00 20.00    -0.293 OA
ENDBRANCH   2   9
TORSDOF 1
ENDMDL
