MODEL 1
REMARK VINA RESULT:      -4.5      0.000      0.000
REMARK  2 active torsions:
REMARK  status: ('A' for Active; 'I' for Inactive)
REMARK    1  A    between atoms: C3_3  and  C4_4 
REMARK    2  A    between atoms: C5_5  and  C7_7 
ROOT
HETATM    1  C1  UNL     1     -33.841   7.015   6.406  1.00 20.00    -0.007 C 
HETATM    2  C2  UNL     1     -34.340   5.779   6.350  1.00 20.00     0.042 C 
HETATM    3  C4  UNL     1     -33.782   7.741   5.097  1.00 20.00     0.084 C 
HETATM    4  C5  UNL     1     -33.989   6.718   3.962  1.00 20.00     0.065 C 
HETATM    5  S9  UNL     1     -34.810   5.278   4.764  1.00 20.00    -0.136 SA
ENDROOT
BRANCH   3   6
HETATM    6  C3  UNL     1     -32.484   8.487   5.037  1.00 20.00     0.240 C 
HETATM    7  O8  UNL     1     -32.277   9.423   4.272  1.00 20.00    -0.306 OA
ENDBRANCH   3   6
BRANCH   4   8
HETATM    8  C7  UNL     1     -32.729   6.219   3.260  1.00 20.00     0.012 C 
HETATM    9  C6  UNL     1     -32.961   4.923   2.549  1.00 20.00     0.006 C 
ENDBRANCH   4   8
TORSDOF 2
ENDMDL
MODEL 2
REMARK VINA RESULT:      -3.9      2.266      3.535
REMARK  2 active torsions:
REMARK  status: ('A' for Active; 'I' for Inactive)
REMARK    1  A    between atoms: C3_3  and  C4_4 
REMARK    2  A    between atoms: C5_5  and  C7_7 
ROOT
HETATM    1  C1  UNL     1     -33.868   4.919   3.910  1.00 20.00    -0.007 C 
HETATM    2  C2  UNL     1     -32.910   5.232   3.036  1.00 20.00     0.042 C 
HETATM    3  C4  UNL     1     -34.603   6.084   4.497  1.00 20.00     0.084 C 
HETATM    4  C5  UNL     1     -33.804   7.368   4.196  1.00 20.00     0.065 C 
HETATM    5  S9  UNL     1     -32.721   6.930   2.772  1.00 20.00    -0.136 SA
ENDROOT
BRANCH   3   6
HETATM    6  C3  UNL     1     -34.819   5.811   5.955  1.00 20.00     0.240 C 
HETATM    7  O8  UNL     1     -34.194   4.963   6.583  1.00 20.00    -0.306 OA
ENDBRANCH   3   6
BRANCH   4   8
HETATM    8  C7  UNL     1     -32.921   7.898   5.322  1.00 20.00     0.012 C 
HETATM    9  C6  UNL     1     -32.142   9.104   4.902  1.00 20.00     0.006 C 
ENDBRANCH   4   8
TORSDOF 2
ENDMDL
MODEL 3
REMARK VINA RESULT:      -3.6     15.464     16.587
REMARK  2 active torsions:
REMARK  status: ('A' for Active; 'I' for Inactive)
REMARK    1  A    between atoms: C3_3  and  C4_4 
REMARK    2  A    between atoms: C5_5  and  C7_7 
ROOT
HETATM    1  C1  UNL     1     -21.907  19.047   9.569  1.00 20.00    -0.007 C 
HETATM    2  C2  UNL     1     -21.313  18.617  10.684  1.00 20.00     0.042 C 
HETATM    3  C4  UNL     1     -23.392  19.215   9.661  1.00 20.00     0.084 C 
HETATM    4  C5  UNL     1     -23.888  18.496  10.932  1.00 20.00     0.065 C 
HETATM    5  S9  UNL     1     -22.397  18.341  12.001  1.00 20.00    -0.136 SA
ENDROOT
BRANCH   3   6
HETATM    6  C3  UNL     1     -23.996  18.715   8.384  1.00 20.00     0.240 C 
HETATM    7  O8  UNL     1     -23.647  19.102   7.274  1.00 20.00    -0.306 OA
ENDBRANCH   3   6
BRANCH   4   8
HETATM    8  C7  UNL     1     -24.482  17.104  10.736  1.00 20.00     0.012 C 
HETATM    9  C6  UNL     1     -24.366  16.267  11.970  1.00 20.00     0.006 C 
ENDBRANCH   4   8
TORSDOF 2
ENDMDL
MODEL 4
REMARK VINA RESULT:      -3.5      2.507      3.933
REMARK  2 active torsions:
REMARK  status: ('A' for Active; 'I' for Inactive)
REMARK    1  A    between atoms: C3_3  and  C4_4 
REMARK    2  A    between atoms: C5_5  and  C7_7 
ROOT
HETATM    1  C1  UNL     1     -32.972   5.858   2.901  1.00 20.00    -0.007 C 
HETATM    2  C2  UNL     1     -32.093   6.856   2.789  1.00 20.00     0.042 C 
HETATM    3  C4  UNL     1     -34.153   6.144   3.777  1.00 20.00     0.084 C 
HETATM    4  C5  UNL     1     -33.852   7.408   4.607  1.00 20.00     0.065 C 
HETATM    5  S9  UNL     1     -32.511   8.271   3.688  1.00 20.00    -0.136 SA
ENDROOT
BRANCH   3   6
HETATM    6  C3  UNL     1     -34.439   4.917   4.587  1.00 20.00     0.240 C 
HETATM    7  O8  UNL     1     -33.931   3.823   4.360  1.00 20.00    -0.306 OA
ENDBRANCH   3   6
BRANCH   4   8
HETATM    8  C7  UNL     1     -33.379   7.181   6.041  1.00 20.00     0.012 C 
HETATM    9  C6  UNL     1     -34.505   6.794   6.946  1.00 20.00     0.006 C 
ENDBRANCH   4   8
TORSDOF 2
ENDMDL
MODEL 5
REMARK VINA RESULT:      -3.5      2.197      3.422
REMARK  2 active torsions:
REMARK  status: ('A' for Active; 'I' for Inactive)
REMARK    1  A    between atoms: C3_3  and  C4_4 
REMARK    2  A    between atoms: C5_5  and  C7_7 
ROOT
HETATM    1  C1  UNL     1     -32.155   7.586   3.749  1.00 20.00    -0.007 C 
HETATM    2  C2  UNL     1     -32.447   8.273   4.856  1.00 20.00     0.042 C 
HETATM    3  C4  UNL     1     -33.256   6.712   3.232  1.00 20.00     0.084 C 
HETATM    4  C5  UNL     1     -34.325   6.568   4.334  1.00 20.00     0.065 C 
HETATM    5  S9  UNL     1     -34.044   7.999   5.458  1.00 20.00    -0.136 SA
ENDROOT
BRANCH   3   6
HETATM    6  C3  UNL     1     -32.649   5.419   2.779  1.00 20.00     0.240 C 
HETATM    7  O8  UNL     1     -33.157   4.695   1.929  1.00 20.00    -0.306 OA
ENDBRANCH   3   6
BRANCH   4   8
HETATM    8  C7  UNL     1     -34.275   5.290   5.166  1.00 20.00     0.012 C 
HETATM    9  C6  UNL     1     -34.601   5.545   6.603  1.00 20.00     0.006 C 
ENDBRANCH   4   8
TORSDOF 2
ENDMDL
MODEL 6
REMARK VINA RESULT:      -3.4     12.601     13.264
REMARK  2 active torsions:
REMARK  status: ('A' for Active; 'I' for Inactive)
REMARK    1  A    between atoms: C3_3  and  C4_4 
REMARK    2  A    between atoms: C5_5  and  C7_7 
ROOT
HETATM    1  C1  UNL     1     -34.207  19.263  -1.259  1.00 20.00    -0.007 C 
HETATM    2  C2  UNL     1     -35.328  18.995  -1.933  1.00 20.00     0.042 C 
HETATM    3  C4  UNL     1     -32.938  18.868  -1.949  1.00 20.00     0.084 C 
HETATM    4  C5  UNL     1     -33.288  17.922  -3.115  1.00 20.00     0.065 C 
HETATM    5  S9  UNL     1     -35.068  18.240  -3.466  1.00 20.00    -0.136 SA
ENDROOT
BRANCH   3   6
HETATM    6  C3  UNL     1     -32.015  18.282  -0.925  1.00 20.00     0.240 C 
HETATM    7  O8  UNL     1     -30.908  18.743  -0.669  1.00 20.00    -0.306 OA
ENDBRANCH   3   6
BRANCH   4   8
HETATM    8  C7  UNL     1     -33.113  16.428  -2.853  1.00 20.00     0.012 C 
HETATM    9  C6  UNL     1     -33.543  15.601  -4.023  1.00 20.00     0.006 C 
ENDBRANCH   4   8
TORSDOF 2
ENDMDL
MODEL 7
REMARK VINA RESULT:      -3.3     13.083     13.869
REMARK  2 active torsions:
REMARK  status: ('A' for Active; 'I' for Inactive)
REMARK    1  A    between atoms: C3_3  and  C4_4 
REMARK    2  A    between atoms: C5_5  and  C7_7 
ROOT
HETATM    1  C1  UNL     1     -33.878  14.949  -4.222  1.00 20.00    -0.007 C 
HETATM    2  C2  UNL     1     -33.455  15.890  -3.376  1.00 20.00     0.042 C 
HETATM    3  C4  UNL     1     -34.482  15.459  -5.494  1.00 20.00     0.084 C 
HETATM    4  C5  UNL     1     -34.779  16.963  -5.326  1.00 20.00     0.065 C 
HETATM    5  S9  UNL     1     -33.701  17.507  -3.935  1.00 20.00    -0.136 SA
ENDROOT
BRANCH   3   6
HETATM    6  C3  UNL     1     -35.681  14.618  -5.810  1.00 20.00     0.240 C 
HETATM    7  O8  UNL     1     -35.978  14.264  -6.946  1.00 20.00    -0.306 OA
ENDBRANCH   3   6
BRANCH   4   8
HETATM    8  C7  UNL     1     -36.220  17.337  -4.988  1.00 20.00     0.012 C 
HETATM    9  C6  UNL     1     -36.290  18.403  -3.941  1.00 20.00     0.006 C 
ENDBRANCH   4   8
TORSDOF 2
ENDMDL
MODEL 8
REMARK VINA RESULT:      -3.2     12.581     13.424
REMARK  2 active torsions:
REMARK  status: ('A' for Active; 'I' for Inactive)
REMARK    1  A    between atoms: C3_3  and  C4_4 
REMARK    2  A    between atoms: C5_5  and  C7_7 
ROOT
HETATM    1  C1  UNL     1     -33.479  16.587  -2.251  1.00 20.00    -0.007 C 
HETATM    2  C2  UNL     1     -33.891  17.799  -1.873  1.00 20.00     0.042 C 
HETATM    3  C4  UNL     1     -33.384  16.378  -3.731  1.00 20.00     0.084 C 
HETATM    4  C5  UNL     1     -34.139  17.523  -4.436  1.00 20.00     0.065 C 
HETATM    5  S9  UNL     1     -34.233  18.871  -3.185  1.00 20.00    -0.136 SA
ENDROOT
BRANCH   3   6
HETATM    6  C3  UNL     1     -33.900  15.006  -4.040  1.00 20.00     0.240 C 
HETATM    7  O8  UNL     1     -33.174  14.054  -4.306  1.00 20.00    -0.306 OA
ENDBRANCH   3   6
BRANCH   4   8
HETATM    8  C7  UNL     1     -35.557  17.211  -4.909  1.00 20.00     0.012 C 
HETATM    9  C6  UNL     1     -36.556  18.176  -4.354  1.00 20.00     0.006 C 
ENDBRANCH   4   8
TORSDOF 2
ENDMDL
MODEL 9
REMARK VINA RESULT:      -3.1     13.728     14.558
REMARK  2 active torsions:
REMARK  status: ('A' for Active; 'I' for Inactive)
REMARK    1  A    between atoms: C3_3  and  C4_4 
REMARK    2  A    between atoms: C5_5  and  C7_7 
ROOT
HETATM    1  C1  UNL     1     -35.153  17.008  -7.058  1.00 20.00    -0.007 C 
HETATM    2  C2  UNL     1     -34.435  18.113  -6.844  1.00 20.00     0.042 C 
HETATM    3  C4  UNL     1     -35.666  16.332  -5.824  1.00 20.00     0.084 C 
HETATM    4  C5  UNL     1     -34.917  16.906  -4.604  1.00 20.00     0.065 C 
HETATM    5  S9  UNL     1     -34.249  18.524  -5.176  1.00 20.00    -0.136 SA
ENDROOT
BRANCH   3   6
HETATM    6  C3  UNL     1     -35.517  14.853  -6.009  1.00 20.00     0.240 C 
HETATM    7  O8  UNL     1     -35.983  14.241  -6.964  1.00 20.00    -0.306 OA
ENDBRANCH   3   6
BRANCH   4   8
HETATM    8  C7  UNL     1     -33.756  16.073  -4.067  1.00 20.00     0.012 C 
HETATM    9  C6  UNL     1     -33.329  16.521  -2.705  1.00 20.00     0.006 C 
ENDBRANCH   4   8
TORSDOF 2
ENDMDL
