MODEL 1
REMARK VINA RESULT:      -4.1      0.000      0.000
REMARK  2 active torsions:
REMARK  status: ('A' for Active; 'I' for Inactive)
REMARK    1  A    between atoms: C7_7  and  O11_11 
REMARK    2  A    between atoms: C10_10  and  O11_11 
ROOT
HETATM    1  C1  UNL     1     -35.602   6.121   4.381  1.00 20.00    -0.019 C 
HETATM    2  C2  UNL     1     -35.062   4.888   4.379  1.00 20.00    -0.019 C 
HETATM    3  C3  UNL     1     -34.640   6.542   6.609  1.00 20.00    -0.019 C 
HETATM    4  C4  UNL     1     -34.097   5.305   6.606  1.00 20.00    -0.019 C 
HETATM    5  C5  UNL     1     -34.658   7.021   5.165  1.00 20.00     0.060 C 
HETATM    6  C6  UNL     1     -33.759   4.972   5.161  1.00 20.00     0.060 C 
HETATM    7  C7  UNL     1     -33.322   6.386   4.744  1.00 20.00     0.144 C 
ENDROOT
BRANCH   7   8
HETATM    8  O11 UNL     1     -33.028   6.528   3.365  1.00 20.00    -0.379 OA
BRANCH   8   9
HETATM    9  C10 UNL     1     -32.052   7.539   3.136  1.00 20.00     0.114 C 
HETATM   10  C8  UNL     1     -32.216   8.082   1.724  1.00 20.00     0.039 C 
HETATM   11  C9  UNL     1     -32.207   8.630   4.184  1.00 20.00     0.039 C 
ENDBRANCH   8   9
ENDBRANCH   7   8
TORSDOF 2
ENDMDL
MODEL 2
REMARK VINA RESULT:      -4.0     10.184     11.321
REMARK  2 active torsions:
REMARK  status: ('A' for Active; 'I' for Inactive)
REMARK    1  A    between atoms: C7_7  and  O11_11 
REMARK    2  A    between atoms: C10_10  and  O11_11 
ROOT
HETATM    1  C1  UNL     1     -41.047  14.325   9.764  1.00 20.00    -0.019 C 
HETATM    2  C2  UNL     1     -40.065  15.145   9.344  1.00 20.00    -0.019 C 
HETATM    3  C3  UNL     1     -42.672  15.560   8.386  1.00 20.00    -0.019 C 
HETATM    4  C4  UNL     1     -41.687  16.381   7.963  1.00 20.00    -0.019 C 
HETATM    5  C5  UNL     1     -42.041  14.195   8.619  1.00 20.00     0.060 C 
HETATM    6  C6  UNL     1     -40.409  15.557   7.920  1.00 20.00     0.060 C 
HETATM    7  C7  UNL     1     -41.052  14.245   7.441  1.00 20.00     0.144 C 
ENDROOT
BRANCH   7   8
HETATM    8  O11 UNL     1     -40.168  13.140   7.388  1.00 20.00    -0.379 OA
BRANCH   8   9
HETATM    9  C10 UNL     1     -40.276  12.438   6.155  1.00 20.00     0.114 C 
HETATM   10  C8  UNL     1     -41.044  13.292   5.158  1.00 20.00     0.039 C 
HETATM   11  C9  UNL     1     -38.882  12.095   5.651  1.00 20.00     0.039 C 
ENDBRANCH   8   9
ENDBRANCH   7   8
TORSDOF 2
ENDMDL
MODEL 3
REMARK VINA RESULT:      -4.0      9.542     10.464
REMARK  2 active torsions:
REMARK  status: ('A' for Active; 'I' for Inactive)
REMARK    1  A    between atoms: C7_7  and  O11_11 
REMARK    2  A    between atoms: C10_10  and  O11_11 
ROOT
HETATM    1  C1  UNL     1     -42.630  14.807   5.687  1.00 20.00    -0.019 C 
HETATM    2  C2  UNL     1     -43.307  13.660   5.888  1.00 20.00    -0.019 C 
HETATM    3  C3  UNL     1     -41.836  14.750   8.017  1.00 20.00    -0.019 C 
HETATM    4  C4  UNL     1     -42.513  13.600   8.219  1.00 20.00    -0.019 C 
HETATM    5  C5  UNL     1     -41.387  14.751   6.563  1.00 20.00     0.060 C 
HETATM    6  C6  UNL     1     -42.511  12.846   6.898  1.00 20.00     0.060 C 
HETATM    7  C7  UNL     1     -41.092  13.245   6.460  1.00 20.00     0.144 C 
ENDROOT
BRANCH   7   8
HETATM    8  O11 UNL     1     -40.735  12.818   5.157  1.00 20.00    -0.379 OA
BRANCH   8   9
HETATM    9  C10 UNL     1     -39.773  11.770   5.191  1.00 20.00     0.114 C 
HETATM   10  C8  UNL     1     -39.008  11.750   3.876  1.00 20.00     0.039 C 
HETATM   11  C9  UNL     1     -38.849  11.978   6.381  1.00 20.00     0.039 C 
ENDBRANCH   8   9
ENDBRANCH   7   8
TORSDOF 2
ENDMDL
MODEL 4
REMARK VINA RESULT:      -3.8     12.094     13.211
REMARK  2 active torsions:
REMARK  status: ('A' for Active; 'I' for Inactive)
REMARK    1  A    between atoms: C7_7  and  O11_11 
REMARK    2  A    between atoms: C10_10  and  O11_11 
ROOT
HETATM    1  C1  UNL     1     -32.537  19.262  -2.175  1.00 20.00    -0.019 C 
HETATM    2  C2  UNL     1     -33.875  19.229  -2.323  1.00 20.00    -0.019 C 
HETATM    3  C3  UNL     1     -32.746  18.126  -0.000  1.00 20.00    -0.019 C 
HETATM    4  C4  UNL     1     -34.088  18.091  -0.149  1.00 20.00    -0.019 C 
HETATM    5  C5  UNL     1     -32.143  18.018  -1.393  1.00 20.00     0.060 C 
HETATM    6  C6  UNL     1     -34.366  17.962  -1.639  1.00 20.00     0.060 C 
HETATM    7  C7  UNL     1     -33.181  17.039  -1.968  1.00 20.00     0.144 C 
ENDROOT
BRANCH   7   8
HETATM    8  O11 UNL     1     -33.011  16.768  -3.348  1.00 20.00    -0.379 OA
BRANCH   8   9
HETATM    9  C10 UNL     1     -34.089  15.999  -3.871  1.00 20.00     0.114 C 
HETATM   10  C8  UNL     1     -34.617  16.670  -5.130  1.00 20.00     0.039 C 
HETATM   11  C9  UNL     1     -33.607  14.583  -4.144  1.00 20.00     0.039 C 
ENDBRANCH   8   9
ENDBRANCH   7   8
TORSDOF 2
ENDMDL
MODEL 5
REMARK VINA RESULT:      -3.8     12.503     14.162
REMARK  2 active torsions:
REMARK  status: ('A' for Active; 'I' for Inactive)
REMARK    1  A    between atoms: C7_7  and  O11_11 
REMARK    2  A    between atoms: C10_10  and  O11_11 
ROOT
HETATM    1  C1  UNL     1     -35.481  14.562  -5.592  1.00 20.00    -0.019 C 
HETATM    2  C2  UNL     1     -36.385  15.547  -5.750  1.00 20.00    -0.019 C 
HETATM    3  C3  UNL     1     -34.122  15.514  -7.412  1.00 20.00    -0.019 C 
HETATM    4  C4  UNL     1     -35.028  16.502  -7.570  1.00 20.00    -0.019 C 
HETATM    5  C5  UNL     1     -34.119  15.148  -5.935  1.00 20.00     0.060 C 
HETATM    6  C6  UNL     1     -35.621  16.785  -6.197  1.00 20.00     0.060 C 
HETATM    7  C7  UNL     1     -34.329  16.571  -5.391  1.00 20.00     0.144 C 
ENDROOT
BRANCH   7   8
HETATM    8  O11 UNL     1     -34.496  16.629  -3.986  1.00 20.00    -0.379 OA
BRANCH   8   9
HETATM    9  C10 UNL     1     -33.340  17.150  -3.339  1.00 20.00     0.114 C 
HETATM   10  C8  UNL     1     -33.138  18.597  -3.764  1.00 20.00     0.039 C 
HETATM   11  C9  UNL     1     -33.508  17.021  -1.833  1.00 20.00     0.039 C 
ENDBRANCH   8   9
ENDBRANCH   7   8
TORSDOF 2
ENDMDL
MODEL 6
REMARK VINA RESULT:      -3.7     12.566     13.878
REMARK  2 active torsions:
REMARK  status: ('A' for Active; 'I' for Inactive)
REMARK    1  A    between atoms: C7_7  and  O11_11 
REMARK    2  A    between atoms: C10_10  and  O11_11 
ROOT
HETATM    1  C1  UNL     1     -34.769  16.319  -7.036  1.00 20.00    -0.019 C 
HETATM    2  C2  UNL     1     -33.985  15.306  -6.622  1.00 20.00    -0.019 C 
HETATM    3  C3  UNL     1     -36.650  15.395  -5.742  1.00 20.00    -0.019 C 
HETATM    4  C4  UNL     1     -35.863  14.380  -5.326  1.00 20.00    -0.019 C 
HETATM    5  C5  UNL     1     -35.751  16.611  -5.911  1.00 20.00     0.060 C 
HETATM    6  C6  UNL     1     -34.448  14.928  -5.223  1.00 20.00     0.060 C 
HETATM    7  C7  UNL     1     -34.830  16.327  -4.712  1.00 20.00     0.144 C 
ENDROOT
BRANCH   7   8
HETATM    8  O11 UNL     1     -33.743  17.229  -4.598  1.00 20.00    -0.379 OA
BRANCH   8   9
HETATM    9  C10 UNL     1     -33.678  17.814  -3.302  1.00 20.00     0.114 C 
HETATM   10  C8  UNL     1     -34.988  18.532  -3.011  1.00 20.00     0.039 C 
HETATM   11  C9  UNL     1     -33.388  16.729  -2.278  1.00 20.00     0.039 C 
ENDBRANCH   8   9
ENDBRANCH   7   8
TORSDOF 2
ENDMDL
MODEL 7
REMARK VINA RESULT:      -3.7     11.833     13.160
REMARK  2 active torsions:
REMARK  status: ('A' for Active; 'I' for Inactive)
REMARK    1  A    between atoms: C7_7  and  O11_11 
REMARK    2  A    between atoms: C10_10  and  O11_11 
ROOT
HETATM    1  C1  UNL     1     -28.430  -2.852   9.979  1.00 20.00    -0.019 C 
HETATM    2  C2  UNL     1     -28.577  -3.117  11.291  1.00 20.00    -0.019 C 
HETATM    3  C3  UNL     1     -27.928  -0.500  10.506  1.00 20.00    -0.019 C 
HETATM    4  C4  UNL     1     -28.075  -0.765  11.822  1.00 20.00    -0.019 C 
HETATM    5  C5  UNL     1     -27.376  -1.761   9.859  1.00 20.00     0.060 C 
HETATM    6  C6  UNL     1     -27.620  -2.200  12.039  1.00 20.00     0.060 C 
HETATM    7  C7  UNL     1     -26.465  -2.183  11.024  1.00 20.00     0.144 C 
ENDROOT
BRANCH   7   8
HETATM    8  O11 UNL     1     -25.830  -3.435  10.832  1.00 20.00    -0.379 OA
BRANCH   8   9
HETATM    9  C10 UNL     1     -24.416  -3.302  10.753  1.00 20.00     0.114 C 
HETATM   10  C8  UNL     1     -23.998  -3.262   9.290  1.00 20.00     0.039 C 
HETATM   11  C9  UNL     1     -23.989  -2.046  11.498  1.00 20.00     0.039 C 
ENDBRANCH   8   9
ENDBRANCH   7   8
TORSDOF 2
ENDMDL
MODEL 8
REMARK VINA RESULT:      -3.6     11.789     13.225
REMARK  2 active torsions:
REMARK  status: ('A' for Active; 'I' for Inactive)
REMARK    1  A    between atoms: C7_7  and  O11_11 
REMARK    2  A    between atoms: C10_10  and  O11_11 
ROOT
HETATM    1  C1  UNL     1     -27.106  -0.500  11.329  1.00 20.00    -0.019 C 
HETATM    2  C2  UNL     1     -27.700  -0.578  10.123  1.00 20.00    -0.019 C 
HETATM    3  C3  UNL     1     -28.594  -2.268  12.179  1.00 20.00    -0.019 C 
HETATM    4  C4  UNL     1     -29.189  -2.347  10.970  1.00 20.00    -0.019 C 
HETATM    5  C5  UNL     1     -27.139  -1.896  11.934  1.00 20.00     0.060 C 
HETATM    6  C6  UNL     1     -28.126  -2.026   9.930  1.00 20.00     0.060 C 
HETATM    7  C7  UNL     1     -26.954  -2.716  10.646  1.00 20.00     0.144 C 
ENDROOT
BRANCH   7   8
HETATM    8  O11 UNL     1     -25.694  -2.532  10.026  1.00 20.00    -0.379 OA
BRANCH   8   9
HETATM    9  C10 UNL     1     -24.661  -3.230  10.713  1.00 20.00     0.114 C 
HETATM   10  C8  UNL     1     -24.973  -4.719  10.705  1.00 20.00     0.039 C 
HETATM   11  C9  UNL     1     -23.326  -2.928  10.050  1.00 20.00     0.039 C 
ENDBRANCH   8   9
ENDBRANCH   7   8
TORSDOF 2
ENDMDL
MODEL 9
REMARK VINA RESULT:      -3.6     10.306     11.357
REMARK  2 active torsions:
REMARK  status: ('A' for Active; 'I' for Inactive)
REMARK    1  A    between atoms: C7_7  and  O11_11 
REMARK    2  A    between atoms: C10_10  and  O11_11 
ROOT
HETATM    1  C1  UNL     1     -42.642  14.788   8.539  1.00 20.00    -0.019 C 
HETATM    2  C2  UNL     1     -42.234  14.056   9.592  1.00 20.00    -0.019 C 
HETATM    3  C3  UNL     1     -40.861  16.429   8.986  1.00 20.00    -0.019 C 
HETATM    4  C4  UNL     1     -40.451  15.694  10.041  1.00 20.00    -0.019 C 
HETATM    5  C5  UNL     1     -41.406  15.455   7.952  1.00 20.00     0.060 C 
HETATM    6  C6  UNL     1     -40.727  14.237   9.702  1.00 20.00     0.060 C 
HETATM    7  C7  UNL     1     -40.388  14.329   8.205  1.00 20.00     0.144 C 
ENDROOT
BRANCH   7   8
HETATM    8  O11 UNL     1     -40.646  13.147   7.469  1.00 20.00    -0.379 OA
BRANCH   8   9
HETATM    9  C10 UNL     1     -40.035  13.182   6.184  1.00 20.00     0.114 C 
HETATM   10  C8  UNL     1     -39.197  11.927   5.994  1.00 20.00     0.039 C 
HETATM   11  C9  UNL     1     -41.114  13.309   5.120  1.00 20.00     0.039 C 
ENDBRANCH   8   9
ENDBRANCH   7   8
TORSDOF 2
ENDMDL
