MODEL 1
REMARK VINA RESULT:      -4.1      0.000      0.000
REMARK  3 active torsions:
REMARK  status: ('A' for Active; 'I' for Inactive)
REMARK    1  A    between atoms: C3_3  and  C8_8 
REMARK    2  A    between atoms: C6_6  and  C9_9 
REMARK    3  A    between atoms: C7_7  and  C10_10 
ROOT
HETATM    1  C5  UNL     1     -34.474  14.374  -4.389  1.00 20.00     0.019 C 
HETATM    2  C8  UNL     1     -34.852  15.738  -5.146  1.00 20.00     0.078 C 
HETATM    3  C9  UNL     1     -33.113  15.079  -4.113  1.00 20.00    -0.001 C 
HETATM    4  C10 UNL     1     -34.032  16.377  -3.988  1.00 20.00     0.010 C 
ENDROOT
BRANCH   2   5
HETATM    5  C3  UNL     1     -34.384  15.941  -6.592  1.00 20.00     0.223 C 
HETATM    6  O11 UNL     1     -34.038  14.997  -7.297  1.00 20.00    -0.279 OA
HETATM    7 CL12 UNL     1     -34.416  17.613  -7.061  1.00 20.00    -0.043 Cl
ENDBRANCH   2   5
BRANCH   4   8
HETATM    8  C7  UNL     1     -33.048  17.415  -3.452  1.00 20.00     0.014 C 
HETATM    9  C2  UNL     1     -33.020  17.465  -1.947  1.00 20.00    -0.025 C 
HETATM   10  C1  UNL     1     -34.178  18.011  -1.537  1.00 20.00    -0.025 C 
HETATM   11  C6  UNL     1     -35.052  18.180  -2.774  1.00 20.00     0.013 C 
HETATM   12  C4  UNL     1     -33.941  18.656  -3.711  1.00 20.00     0.017 C 
ENDBRANCH   4   8
TORSDOF 3
ENDMDL
MODEL 2
REMARK VINA RESULT:      -4.0     12.452     13.595
REMARK  3 active torsions:
REMARK  status: ('A' for Active; 'I' for Inactive)
REMARK    1  A    between atoms: C3_3  and  C8_8 
REMARK    2  A    between atoms: C6_6  and  C9_9 
REMARK    3  A    between atoms: C7_7  and  C10_10 
ROOT
HETATM    1  C5  UNL     1     -32.155   8.699   4.539  1.00 20.00     0.019 C 
HETATM    2  C8  UNL     1     -32.216   7.220   3.919  1.00 20.00     0.078 C 
HETATM    3  C9  UNL     1     -33.710   8.632   4.465  1.00 20.00    -0.001 C 
HETATM    4  C10 UNL     1     -33.467   7.099   4.836  1.00 20.00     0.010 C 
ENDROOT
BRANCH   2   5
HETATM    5  C3  UNL     1     -32.382   7.055   2.403  1.00 20.00     0.223 C 
HETATM    6  O11 UNL     1     -32.200   7.989   1.628  1.00 20.00    -0.279 OA
HETATM    7 CL12 UNL     1     -32.840   5.437   1.969  1.00 20.00    -0.043 Cl
ENDBRANCH   2   5
BRANCH   4   8
HETATM    8  C7  UNL     1     -34.887   6.610   5.114  1.00 20.00     0.014 C 
HETATM    9  C2  UNL     1     -35.078   6.162   6.538  1.00 20.00    -0.025 C 
HETATM   10  C1  UNL     1     -34.401   5.011   6.698  1.00 20.00    -0.025 C 
HETATM   11  C6  UNL     1     -33.621   4.773   5.410  1.00 20.00     0.013 C 
HETATM   12  C4  UNL     1     -34.727   5.216   4.450  1.00 20.00     0.017 C 
ENDBRANCH   4   8
TORSDOF 3
ENDMDL
MODEL 3
REMARK VINA RESULT:      -4.0     12.697     13.936
REMARK  3 active torsions:
REMARK  status: ('A' for Active; 'I' for Inactive)
REMARK    1  A    between atoms: C3_3  and  C8_8 
REMARK    2  A    between atoms: C6_6  and  C9_9 
REMARK    3  A    between atoms: C7_7  and  C10_10 
ROOT
HETATM    1  C5  UNL     1     -41.690  13.659   5.215  1.00 20.00     0.019 C 
HETATM    2  C8  UNL     1     -40.289  13.632   5.997  1.00 20.00     0.078 C 
HETATM    3  C9  UNL     1     -42.277  13.122   6.554  1.00 20.00    -0.001 C 
HETATM    4  C10 UNL     1     -41.174  14.079   7.197  1.00 20.00     0.010 C 
ENDROOT
BRANCH   2   5
HETATM    5  C3  UNL     1     -39.514  12.312   6.091  1.00 20.00     0.223 C 
HETATM    6  O11 UNL     1     -39.024  11.926   7.149  1.00 20.00    -0.279 OA
HETATM    7 CL12 UNL     1     -39.438  11.488   4.565  1.00 20.00    -0.043 Cl
ENDBRANCH   2   5
BRANCH   4   8
HETATM    8  C7  UNL     1     -41.546  14.045   8.677  1.00 20.00     0.014 C 
HETATM    9  C2  UNL     1     -42.540  15.113   9.050  1.00 20.00    -0.025 C 
HETATM   10  C1  UNL     1     -41.904  16.297   8.998  1.00 20.00    -0.025 C 
HETATM   11  C6  UNL     1     -40.515  16.030   8.431  1.00 20.00     0.013 C 
HETATM   12  C4  UNL     1     -40.257  14.733   9.200  1.00 20.00     0.017 C 
ENDBRANCH   4   8
TORSDOF 3
ENDMDL
MODEL 4
REMARK VINA RESULT:      -4.0     11.696     12.815
REMARK  3 active torsions:
REMARK  status: ('A' for Active; 'I' for Inactive)
REMARK    1  A    between atoms: C3_3  and  C8_8 
REMARK    2  A    between atoms: C6_6  and  C9_9 
REMARK    3  A    between atoms: C7_7  and  C10_10 
ROOT
HETATM    1  C5  UNL     1     -31.201   7.816   4.064  1.00 20.00     0.019 C 
HETATM    2  C8  UNL     1     -32.346   7.551   2.971  1.00 20.00     0.078 C 
HETATM    3  C9  UNL     1     -32.360   8.419   4.913  1.00 20.00    -0.001 C 
HETATM    4  C10 UNL     1     -33.207   7.250   4.232  1.00 20.00     0.010 C 
ENDROOT
BRANCH   2   5
HETATM    5  C3  UNL     1     -32.763   8.695   2.038  1.00 20.00     0.223 C 
HETATM    6  O11 UNL     1     -33.371   9.677   2.454  1.00 20.00    -0.279 OA
HETATM    7 CL12 UNL     1     -32.275   8.410   0.396  1.00 20.00    -0.043 Cl
ENDBRANCH   2   5
BRANCH   4   8
HETATM    8  C7  UNL     1     -34.520   7.314   5.009  1.00 20.00     0.014 C 
HETATM    9  C2  UNL     1     -34.435   6.632   6.349  1.00 20.00    -0.025 C 
HETATM   10  C1  UNL     1     -34.361   5.308   6.128  1.00 20.00    -0.025 C 
HETATM   11  C6  UNL     1     -34.235   5.115   4.621  1.00 20.00     0.013 C 
HETATM   12  C4  UNL     1     -35.246   6.191   4.221  1.00 20.00     0.017 C 
ENDBRANCH   4   8
TORSDOF 3
ENDMDL
MODEL 5
REMARK VINA RESULT:      -3.8     24.582     25.721
REMARK  3 active torsions:
REMARK  status: ('A' for Active; 'I' for Inactive)
REMARK    1  A    between atoms: C3_3  and  C8_8 
REMARK    2  A    between atoms: C6_6  and  C9_9 
REMARK    3  A    between atoms: C7_7  and  C10_10 
ROOT
HETATM    1  C5  UNL     1     -27.606  -0.418  10.182  1.00 20.00     0.019 C 
HETATM    2  C8  UNL     1     -27.807  -2.008  10.090  1.00 20.00     0.078 C 
HETATM    3  C9  UNL     1     -26.965  -0.730  11.567  1.00 20.00    -0.001 C 
HETATM    4  C10 UNL     1     -26.427  -2.026  10.808  1.00 20.00     0.010 C 
ENDROOT
BRANCH   2   5
HETATM    5  C3  UNL     1     -29.017  -2.647  10.782  1.00 20.00     0.223 C 
HETATM    6  O11 UNL     1     -30.054  -2.020  10.976  1.00 20.00    -0.279 OA
HETATM    7 CL12 UNL     1     -28.720  -4.299  11.225  1.00 20.00    -0.043 Cl
ENDBRANCH   2   5
BRANCH   4   8
HETATM    8  C7  UNL     1     -25.450  -2.609  11.827  1.00 20.00     0.014 C 
HETATM    9  C2  UNL     1     -24.072  -2.014  11.716  1.00 20.00    -0.025 C 
HETATM   10  C1  UNL     1     -23.520  -2.473  10.579  1.00 20.00    -0.025 C 
HETATM   11  C6  UNL     1     -24.603  -3.256   9.845  1.00 20.00     0.013 C 
HETATM   12  C4  UNL     1     -25.189  -3.943  11.079  1.00 20.00     0.017 C 
ENDBRANCH   4   8
TORSDOF 3
ENDMDL
MODEL 6
REMARK VINA RESULT:      -3.8     12.398     13.322
REMARK  3 active torsions:
REMARK  status: ('A' for Active; 'I' for Inactive)
REMARK    1  A    between atoms: C3_3  and  C8_8 
REMARK    2  A    between atoms: C6_6  and  C9_9 
REMARK    3  A    between atoms: C7_7  and  C10_10 
ROOT
HETATM    1  C5  UNL     1     -35.099   6.251   5.811  1.00 20.00     0.019 C 
HETATM    2  C8  UNL     1     -34.481   6.062   4.342  1.00 20.00     0.078 C 
HETATM    3  C9  UNL     1     -33.630   6.561   6.226  1.00 20.00    -0.001 C 
HETATM    4  C10 UNL     1     -33.572   7.244   4.784  1.00 20.00     0.010 C 
ENDROOT
BRANCH   2   5
HETATM    5  C3  UNL     1     -33.836   4.720   3.973  1.00 20.00     0.223 C 
HETATM    6  O11 UNL     1     -33.987   3.719   4.668  1.00 20.00    -0.279 OA
HETATM    7 CL12 UNL     1     -32.910   4.821   2.507  1.00 20.00    -0.043 Cl
ENDBRANCH   2   5
BRANCH   4   8
HETATM    8  C7  UNL     1     -32.223   7.959   4.825  1.00 20.00     0.014 C 
HETATM    9  C2  UNL     1     -32.356   9.454   4.702  1.00 20.00    -0.025 C 
HETATM   10  C1  UNL     1     -32.724   9.728   3.439  1.00 20.00    -0.025 C 
HETATM   11  C6  UNL     1     -32.995   8.391   2.756  1.00 20.00     0.013 C 
HETATM   12  C4  UNL     1     -31.809   7.640   3.365  1.00 20.00     0.017 C 
ENDBRANCH   4   8
TORSDOF 3
ENDMDL
MODEL 7
REMARK VINA RESULT:      -3.5      3.956      5.376
REMARK  3 active torsions:
REMARK  status: ('A' for Active; 'I' for Inactive)
REMARK    1  A    between atoms: C3_3  and  C8_8 
REMARK    2  A    between atoms: C6_6  and  C9_9 
REMARK    3  A    between atoms: C7_7  and  C10_10 
ROOT
HETATM    1  C5  UNL     1     -34.266  17.966   0.446  1.00 20.00     0.019 C 
HETATM    2  C8  UNL     1     -32.932  17.781  -0.426  1.00 20.00     0.078 C 
HETATM    3  C9  UNL     1     -34.461  19.258  -0.403  1.00 20.00    -0.001 C 
HETATM    4  C10 UNL     1     -33.825  18.361  -1.560  1.00 20.00     0.010 C 
ENDROOT
BRANCH   2   5
HETATM    5  C3  UNL     1     -31.663  18.537  -0.015  1.00 20.00     0.223 C 
HETATM    6  O11 UNL     1     -30.849  18.932  -0.846  1.00 20.00    -0.279 OA
HETATM    7 CL12 UNL     1     -31.552  18.742   1.706  1.00 20.00    -0.043 Cl
ENDBRANCH   2   5
BRANCH   4   8
HETATM    8  C7  UNL     1     -34.031  19.239  -2.793  1.00 20.00     0.014 C 
HETATM    9  C2  UNL     1     -35.306  18.917  -3.527  1.00 20.00    -0.025 C 
HETATM   10  C1  UNL     1     -35.144  17.721  -4.119  1.00 20.00    -0.025 C 
HETATM   11  C6  UNL     1     -33.806  17.167  -3.642  1.00 20.00     0.013 C 
HETATM   12  C4  UNL     1     -33.035  18.486  -3.713  1.00 20.00     0.017 C 
ENDBRANCH   4   8
TORSDOF 3
ENDMDL
MODEL 8
REMARK VINA RESULT:      -3.5      2.321      4.212
REMARK  3 active torsions:
REMARK  status: ('A' for Active; 'I' for Inactive)
REMARK    1  A    between atoms: C3_3  and  C8_8 
REMARK    2  A    between atoms: C6_6  and  C9_9 
REMARK    3  A    between atoms: C7_7  and  C10_10 
ROOT
HETATM    1  C5  UNL     1     -32.825  14.796  -4.155  1.00 20.00     0.019 C 
HETATM    2  C8  UNL     1     -33.317  16.324  -4.176  1.00 20.00     0.078 C 
HETATM    3  C9  UNL     1     -34.347  14.463  -4.200  1.00 20.00    -0.001 C 
HETATM    4  C10 UNL     1     -34.404  15.756  -5.133  1.00 20.00     0.010 C 
ENDROOT
BRANCH   2   5
HETATM    5  C3  UNL     1     -33.751  16.985  -2.862  1.00 20.00     0.223 C 
HETATM    6  O11 UNL     1     -33.297  16.626  -1.779  1.00 20.00    -0.279 OA
HETATM    7 CL12 UNL     1     -34.915  18.247  -3.119  1.00 20.00    -0.043 Cl
ENDBRANCH   2   5
BRANCH   4   8
HETATM    8  C7  UNL     1     -35.836  15.705  -5.661  1.00 20.00     0.014 C 
HETATM    9  C2  UNL     1     -35.953  14.936  -6.950  1.00 20.00    -0.025 C 
HETATM   10  C1  UNL     1     -35.377  15.673  -7.917  1.00 20.00    -0.025 C 
HETATM   11  C6  UNL     1     -34.730  16.872  -7.234  1.00 20.00     0.013 C 
HETATM   12  C4  UNL     1     -35.862  17.142  -6.242  1.00 20.00     0.017 C 
ENDBRANCH   4   8
TORSDOF 3
ENDMDL
MODEL 9
REMARK VINA RESULT:      -3.4     12.686     13.832
REMARK  3 active torsions:
REMARK  status: ('A' for Active; 'I' for Inactive)
REMARK    1  A    between atoms: C3_3  and  C8_8 
REMARK    2  A    between atoms: C6_6  and  C9_9 
REMARK    3  A    between atoms: C7_7  and  C10_10 
ROOT
HETATM    1  C5  UNL     1     -40.862  12.274   6.031  1.00 20.00     0.019 C 
HETATM    2  C8  UNL     1     -41.981  13.425   6.007  1.00 20.00     0.078 C 
HETATM    3  C9  UNL     1     -39.905  13.423   6.468  1.00 20.00    -0.001 C 
HETATM    4  C10 UNL     1     -41.197  13.942   7.247  1.00 20.00     0.010 C 
ENDROOT
BRANCH   2   5
HETATM    5  C3  UNL     1     -42.098  14.324   4.770  1.00 20.00     0.223 C 
HETATM    6  O11 UNL     1     -41.628  13.993   3.685  1.00 20.00    -0.279 OA
HETATM    7 CL12 UNL     1     -42.948  15.799   5.112  1.00 20.00    -0.043 Cl
ENDBRANCH   2   5
BRANCH   4   8
HETATM    8  C7  UNL     1     -40.623  15.072   8.099  1.00 20.00     0.014 C 
HETATM    9  C2  UNL     1     -40.164  14.601   9.454  1.00 20.00    -0.025 C 
HETATM   10  C1  UNL     1     -41.259  14.303  10.174  1.00 20.00    -0.025 C 
HETATM   11  C6  UNL     1     -42.454  14.424   9.235  1.00 20.00     0.013 C 
HETATM   12  C4  UNL     1     -41.984  15.689   8.515  1.00 20.00     0.017 C 
ENDBRANCH   4   8
TORSDOF 3
ENDMDL
