MODEL 1
REMARK VINA RESULT:      -6.1      0.000      0.000
REMARK  1 active torsions:
REMARK  status: ('A' for Active; 'I' for Inactive)
REMARK    1  A    between atoms: C7_7  and  C9_9 
ROOT
HETATM    1  C1  UNL     1     -34.594   5.436   6.238  1.00 20.00    -0.004 A 
HETATM    2  C2  UNL     1     -33.925   6.649   6.630  1.00 20.00    -0.004 A 
HETATM    3  C3  UNL     1     -34.808   5.136   4.950  1.00 20.00    -0.017 A 
HETATM    4  C4  UNL     1     -33.531   7.557   5.729  1.00 20.00    -0.020 A 
HETATM    5  C5  UNL     1     -33.319   5.395   2.978  1.00 20.00    -0.021 C 
HETATM    6  C6  UNL     1     -32.263   6.191   2.794  1.00 20.00    -0.017 C 
HETATM    7  C8  UNL     1     -34.383   6.033   3.818  1.00 20.00     0.039 A 
HETATM    8  C9  UNL     1     -32.419   7.511   3.468  1.00 20.00     0.086 C 
HETATM    9  C10 UNL     1     -33.751   7.396   4.242  1.00 20.00     0.034 A 
ENDROOT
BRANCH   8  10
HETATM   10  C7  UNL     1     -32.486   8.550   2.390  1.00 20.00     0.131 C 
HETATM   11  C11 UNL     1     -32.053   8.127   1.014  1.00 20.00     0.091 C 
HETATM   12  O12 UNL     1     -32.878   9.693   2.621  1.00 20.00    -0.298 OA
ENDBRANCH   8  10
TORSDOF 1
ENDMDL
MODEL 2
REMARK VINA RESULT:      -4.5     15.477     16.054
REMARK  1 active torsions:
REMARK  status: ('A' for Active; 'I' for Inactive)
REMARK    1  A    between atoms: C7_7  and  C9_9 
ROOT
HETATM    1  C1  UNL     1     -25.872  17.878  12.327  1.00 20.00    -0.004 A 
HETATM    2  C2  UNL     1     -26.252  18.982  11.486  1.00 20.00    -0.004 A 
HETATM    3  C3  UNL     1     -24.884  17.041  11.985  1.00 20.00    -0.017 A 
HETATM    4  C4  UNL     1     -25.669  19.194  10.299  1.00 20.00    -0.020 A 
HETATM    5  C5  UNL     1     -22.667  17.514  10.967  1.00 20.00    -0.021 C 
HETATM    6  C6  UNL     1     -22.251  18.567  10.261  1.00 20.00    -0.017 C 
HETATM    7  C8  UNL     1     -24.103  17.175  10.705  1.00 20.00     0.039 A 
HETATM    8  C9  UNL     1     -23.321  19.129   9.389  1.00 20.00     0.086 C 
HETATM    9  C10 UNL     1     -24.580  18.308   9.742  1.00 20.00     0.034 A 
ENDROOT
BRANCH   8  10
HETATM   10  C7  UNL     1     -22.891  18.913   7.970  1.00 20.00     0.131 C 
HETATM   11  C11 UNL     1     -21.559  18.248   7.760  1.00 20.00     0.091 C 
HETATM   12  O12 UNL     1     -23.595  19.263   7.023  1.00 20.00    -0.298 OA
ENDBRANCH   8  10
TORSDOF 1
ENDMDL
MODEL 3
REMARK VINA RESULT:      -4.5     11.886     13.364
REMARK  1 active torsions:
REMARK  status: ('A' for Active; 'I' for Inactive)
REMARK    1  A    between atoms: C7_7  and  C9_9 
ROOT
HETATM    1  C1  UNL     1     -33.934  17.731  -2.422  1.00 20.00    -0.004 A 
HETATM    2  C2  UNL     1     -33.437  16.390  -2.591  1.00 20.00    -0.004 A 
HETATM    3  C3  UNL     1     -34.604  18.360  -3.395  1.00 20.00    -0.017 A 
HETATM    4  C4  UNL     1     -33.579  15.729  -3.746  1.00 20.00    -0.020 A 
HETATM    5  C5  UNL     1     -36.352  17.507  -4.942  1.00 20.00    -0.021 C 
HETATM    6  C6  UNL     1     -36.632  16.259  -5.322  1.00 20.00    -0.017 C 
HETATM    7  C8  UNL     1     -34.885  17.732  -4.735  1.00 20.00     0.039 A 
HETATM    8  C9  UNL     1     -35.411  15.413  -5.447  1.00 20.00     0.086 C 
HETATM    9  C10 UNL     1     -34.259  16.319  -4.959  1.00 20.00     0.034 A 
ENDROOT
BRANCH   8  10
HETATM   10  C7  UNL     1     -35.268  15.057  -6.895  1.00 20.00     0.131 C 
HETATM   11  C11 UNL     1     -34.084  15.635  -7.621  1.00 20.00     0.091 C 
HETATM   12  O12 UNL     1     -36.080  14.326  -7.462  1.00 20.00    -0.298 OA
ENDBRANCH   8  10
TORSDOF 1
ENDMDL
MODEL 4
REMARK VINA RESULT:      -4.3     11.759     13.255
REMARK  1 active torsions:
REMARK  status: ('A' for Active; 'I' for Inactive)
REMARK    1  A    between atoms: C7_7  and  C9_9 
ROOT
HETATM    1  C1  UNL     1     -32.869  17.977  -2.836  1.00 20.00    -0.004 A 
HETATM    2  C2  UNL     1     -33.379  18.741  -3.945  1.00 20.00    -0.004 A 
HETATM    3  C3  UNL     1     -33.229  16.703  -2.637  1.00 20.00    -0.017 A 
HETATM    4  C4  UNL     1     -34.275  18.229  -4.798  1.00 20.00    -0.020 A 
HETATM    5  C5  UNL     1     -33.520  14.849  -4.265  1.00 20.00    -0.021 C 
HETATM    6  C6  UNL     1     -33.743  14.884  -5.580  1.00 20.00    -0.017 C 
HETATM    7  C8  UNL     1     -34.190  15.972  -3.535  1.00 20.00     0.039 A 
HETATM    8  C9  UNL     1     -34.608  16.030  -5.981  1.00 20.00     0.086 C 
HETATM    9  C10 UNL     1     -34.826  16.828  -4.676  1.00 20.00     0.034 A 
ENDROOT
BRANCH   8  10
HETATM   10  C7  UNL     1     -35.888  15.453  -6.505  1.00 20.00     0.131 C 
HETATM   11  C11 UNL     1     -37.122  16.302  -6.362  1.00 20.00     0.091 C 
HETATM   12  O12 UNL     1     -35.927  14.340  -7.026  1.00 20.00    -0.298 OA
ENDBRANCH   8  10
TORSDOF 1
ENDMDL
MODEL 5
REMARK VINA RESULT:      -4.3      1.569      4.110
REMARK  1 active torsions:
REMARK  status: ('A' for Active; 'I' for Inactive)
REMARK    1  A    between atoms: C7_7  and  C9_9 
ROOT
HETATM    1  C1  UNL     1     -32.241   8.565   1.250  1.00 20.00    -0.004 A 
HETATM    2  C2  UNL     1     -32.882   9.461   2.176  1.00 20.00    -0.004 A 
HETATM    3  C3  UNL     1     -31.929   7.308   1.590  1.00 20.00    -0.017 A 
HETATM    4  C4  UNL     1     -33.151   9.096   3.436  1.00 20.00    -0.020 A 
HETATM    5  C5  UNL     1     -33.226   5.635   2.890  1.00 20.00    -0.021 C 
HETATM    6  C6  UNL     1     -34.222   5.805   3.762  1.00 20.00    -0.017 C 
HETATM    7  C8  UNL     1     -32.210   6.734   2.952  1.00 20.00     0.039 A 
HETATM    8  C9  UNL     1     -34.062   7.042   4.578  1.00 20.00     0.086 C 
HETATM    9  C10 UNL     1     -32.810   7.733   3.992  1.00 20.00     0.034 A 
ENDROOT
BRANCH   8  10
HETATM   10  C7  UNL     1     -33.851   6.611   5.996  1.00 20.00     0.131 C 
HETATM   11  C11 UNL     1     -34.610   5.396   6.455  1.00 20.00     0.091 C 
HETATM   12  O12 UNL     1     -33.092   7.221   6.749  1.00 20.00    -0.298 OA
ENDBRANCH   8  10
TORSDOF 1
ENDMDL
MODEL 6
REMARK VINA RESULT:      -4.2     11.636     13.040
REMARK  1 active torsions:
REMARK  status: ('A' for Active; 'I' for Inactive)
REMARK    1  A    between atoms: C7_7  and  C9_9 
ROOT
HETATM    1  C1  UNL     1     -34.637  16.106  -5.387  1.00 20.00    -0.004 A 
HETATM    2  C2  UNL     1     -33.674  15.332  -4.648  1.00 20.00    -0.004 A 
HETATM    3  C3  UNL     1     -35.147  17.243  -4.899  1.00 20.00    -0.017 A 
HETATM    4  C4  UNL     1     -33.281  15.687  -3.418  1.00 20.00    -0.020 A 
HETATM    5  C5  UNL     1     -34.037  19.099  -3.675  1.00 20.00    -0.021 C 
HETATM    6  C6  UNL     1     -32.897  19.114  -2.983  1.00 20.00    -0.017 C 
HETATM    7  C8  UNL     1     -34.771  17.799  -3.551  1.00 20.00     0.039 A 
HETATM    8  C9  UNL     1     -32.651  17.834  -2.260  1.00 20.00     0.086 C 
HETATM    9  C10 UNL     1     -33.807  16.910  -2.703  1.00 20.00     0.034 A 
ENDROOT
BRANCH   8  10
HETATM   10  C7  UNL     1     -32.709  18.138  -0.794  1.00 20.00     0.131 C 
HETATM   11  C11 UNL     1     -31.418  18.539  -0.134  1.00 20.00     0.091 C 
HETATM   12  O12 UNL     1     -33.762  18.064  -0.162  1.00 20.00    -0.298 OA
ENDBRANCH   8  10
TORSDOF 1
ENDMDL
MODEL 7
REMARK VINA RESULT:      -4.1     11.652     13.308
REMARK  1 active torsions:
REMARK  status: ('A' for Active; 'I' for Inactive)
REMARK    1  A    between atoms: C7_7  and  C9_9 
ROOT
HETATM    1  C1  UNL     1     -36.148  17.293  -5.075  1.00 20.00    -0.004 A 
HETATM    2  C2  UNL     1     -36.646  18.225  -4.096  1.00 20.00    -0.004 A 
HETATM    3  C3  UNL     1     -34.868  16.902  -5.084  1.00 20.00    -0.017 A 
HETATM    4  C4  UNL     1     -35.841  18.781  -3.182  1.00 20.00    -0.020 A 
HETATM    5  C5  UNL     1     -33.364  16.302  -3.200  1.00 20.00    -0.021 C 
HETATM    6  C6  UNL     1     -33.434  16.622  -1.906  1.00 20.00    -0.017 C 
HETATM    7  C8  UNL     1     -33.850  17.402  -4.094  1.00 20.00     0.039 A 
HETATM    8  C9  UNL     1     -33.973  17.995  -1.686  1.00 20.00     0.086 C 
HETATM    9  C10 UNL     1     -34.361  18.490  -3.097  1.00 20.00     0.034 A 
ENDROOT
BRANCH   8  10
HETATM   10  C7  UNL     1     -32.867  18.812  -1.091  1.00 20.00     0.131 C 
HETATM   11  C11 UNL     1     -32.939  19.074   0.388  1.00 20.00     0.091 C 
HETATM   12  O12 UNL     1     -31.944  19.245  -1.780  1.00 20.00    -0.298 OA
ENDBRANCH   8  10
TORSDOF 1
ENDMDL
MODEL 8
REMARK VINA RESULT:      -4.0     11.792     13.232
REMARK  1 active torsions:
REMARK  status: ('A' for Active; 'I' for Inactive)
REMARK    1  A    between atoms: C7_7  and  C9_9 
ROOT
HETATM    1  C1  UNL     1     -36.516  15.782  -5.655  1.00 20.00    -0.004 A 
HETATM    2  C2  UNL     1     -36.918  17.044  -5.093  1.00 20.00    -0.004 A 
HETATM    3  C3  UNL     1     -35.248  15.356  -5.590  1.00 20.00    -0.017 A 
HETATM    4  C4  UNL     1     -36.034  17.874  -4.524  1.00 20.00    -0.020 A 
HETATM    5  C5  UNL     1     -33.616  15.468  -3.720  1.00 20.00    -0.021 C 
HETATM    6  C6  UNL     1     -33.580  16.272  -2.655  1.00 20.00    -0.017 C 
HETATM    7  C8  UNL     1     -34.147  16.153  -4.942  1.00 20.00     0.039 A 
HETATM    8  C9  UNL     1     -34.072  17.646  -2.960  1.00 20.00     0.086 C 
HETATM    9  C10 UNL     1     -34.558  17.567  -4.424  1.00 20.00     0.034 A 
ENDROOT
BRANCH   8  10
HETATM   10  C7  UNL     1     -32.908  18.575  -2.805  1.00 20.00     0.131 C 
HETATM   11  C11 UNL     1     -32.257  18.626  -1.451  1.00 20.00     0.091 C 
HETATM   12  O12 UNL     1     -32.504  19.263  -3.742  1.00 20.00    -0.298 OA
ENDBRANCH   8  10
TORSDOF 1
ENDMDL
MODEL 9
REMARK VINA RESULT:      -3.9     10.564     11.501
REMARK  1 active torsions:
REMARK  status: ('A' for Active; 'I' for Inactive)
REMARK    1  A    between atoms: C7_7  and  C9_9 
ROOT
HETATM    1  C1  UNL     1     -42.349  16.106   9.006  1.00 20.00    -0.004 A 
HETATM    2  C2  UNL     1     -40.927  15.887   8.956  1.00 20.00    -0.004 A 
HETATM    3  C3  UNL     1     -43.168  15.624   8.064  1.00 20.00    -0.017 A 
HETATM    4  C4  UNL     1     -40.352  15.233   7.938  1.00 20.00    -0.020 A 
HETATM    5  C5  UNL     1     -43.172  13.414   6.926  1.00 20.00    -0.021 C 
HETATM    6  C6  UNL     1     -42.190  12.524   6.771  1.00 20.00    -0.017 C 
HETATM    7  C8  UNL     1     -42.680  14.829   6.882  1.00 20.00     0.039 A 
HETATM    8  C9  UNL     1     -40.858  13.167   6.588  1.00 20.00     0.086 C 
HETATM    9  C10 UNL     1     -41.130  14.677   6.768  1.00 20.00     0.034 A 
ENDROOT
BRANCH   8  10
HETATM   10  C7  UNL     1     -40.400  12.843   5.199  1.00 20.00     0.131 C 
HETATM   11  C11 UNL     1     -39.240  11.895   5.072  1.00 20.00     0.091 C 
HETATM   12  O12 UNL     1     -40.948  13.329   4.210  1.00 20.00    -0.298 OA
ENDBRANCH   8  10
TORSDOF 1
ENDMDL
