MODEL 1
REMARK VINA RESULT:      -6.2      0.000      0.000
REMARK  1 active torsions:
REMARK  status: ('A' for Active; 'I' for Inactive)
REMARK    1  A    between atoms: C1_1  and  C7_7 
ROOT
HETATM    1  C2  UNL     1     -34.789   5.759   6.442  1.00 20.00     0.001 C 
HETATM    2  C3  UNL     1     -32.530   6.618   2.734  1.00 20.00     0.014 C 
HETATM    3  C4  UNL     1     -34.692   4.857   5.218  1.00 20.00     0.005 C 
HETATM    4  C5  UNL     1     -33.687   6.782   6.211  1.00 20.00     0.006 C 
HETATM    5  C6  UNL     1     -33.214   5.327   3.160  1.00 20.00     0.006 C 
HETATM    6  C7  UNL     1     -32.498   7.444   4.019  1.00 20.00     0.076 C 
HETATM    7  C8  UNL     1     -34.336   5.805   4.074  1.00 20.00    -0.010 C 
HETATM    8  C9  UNL     1     -33.815   7.103   4.723  1.00 20.00     0.002 C 
ENDROOT
BRANCH   6   9
HETATM    9  C1  UNL     1     -32.412   8.907   3.722  1.00 20.00     0.223 C 
HETATM   10  O10 UNL     1     -32.098   9.723   4.584  1.00 20.00    -0.279 OA
HETATM   11 CL11 UNL     1     -32.800   9.262   2.067  1.00 20.00    -0.043 Cl
ENDBRANCH   6   9
TORSDOF 1
ENDMDL
MODEL 2
REMARK VINA RESULT:      -6.0      1.405      1.475
REMARK  1 active torsions:
REMARK  status: ('A' for Active; 'I' for Inactive)
REMARK    1  A    between atoms: C1_1  and  C7_7 
ROOT
HETATM    1  C2  UNL     1     -34.511   6.642   6.702  1.00 20.00     0.001 C 
HETATM    2  C3  UNL     1     -33.002   5.491   2.703  1.00 20.00     0.014 C 
HETATM    3  C4  UNL     1     -34.808   5.340   5.969  1.00 20.00     0.005 C 
HETATM    4  C5  UNL     1     -33.350   7.231   5.913  1.00 20.00     0.006 C 
HETATM    5  C6  UNL     1     -33.755   4.646   3.721  1.00 20.00     0.006 C 
HETATM    6  C7  UNL     1     -32.578   6.720   3.505  1.00 20.00     0.076 C 
HETATM    7  C8  UNL     1     -34.575   5.672   4.495  1.00 20.00    -0.010 C 
HETATM    8  C9  UNL     1     -33.748   6.972   4.461  1.00 20.00     0.002 C 
ENDROOT
BRANCH   6   9
HETATM    9  C1  UNL     1     -32.351   7.898   2.613  1.00 20.00     0.223 C 
HETATM   10  O10 UNL     1     -32.066   7.763   1.426  1.00 20.00    -0.279 OA
HETATM   11 CL11 UNL     1     -32.538   9.404   3.458  1.00 20.00    -0.043 Cl
ENDBRANCH   6   9
TORSDOF 1
ENDMDL
MODEL 3
REMARK VINA RESULT:      -5.1      1.860      2.659
REMARK  1 active torsions:
REMARK  status: ('A' for Active; 'I' for Inactive)
REMARK    1  A    between atoms: C1_1  and  C7_7 
ROOT
HETATM    1  C2  UNL     1     -35.075   5.499   6.193  1.00 20.00     0.001 C 
HETATM    2  C3  UNL     1     -32.599   8.587   4.211  1.00 20.00     0.014 C 
HETATM    3  C4  UNL     1     -34.463   6.725   6.859  1.00 20.00     0.005 C 
HETATM    4  C5  UNL     1     -34.928   5.797   4.708  1.00 20.00     0.006 C 
HETATM    5  C6  UNL     1     -33.182   8.586   5.617  1.00 20.00     0.006 C 
HETATM    6  C7  UNL     1     -33.344   7.448   3.517  1.00 20.00     0.076 C 
HETATM    7  C8  UNL     1     -33.290   7.103   5.955  1.00 20.00    -0.010 C 
HETATM    8  C9  UNL     1     -33.524   6.389   4.608  1.00 20.00     0.002 C 
ENDROOT
BRANCH   6   9
HETATM    9  C1  UNL     1     -32.556   6.906   2.367  1.00 20.00     0.223 C 
HETATM   10  O10 UNL     1     -31.948   7.644   1.597  1.00 20.00    -0.279 OA
HETATM   11 CL11 UNL     1     -32.627   5.173   2.285  1.00 20.00    -0.043 Cl
ENDBRANCH   6   9
TORSDOF 1
ENDMDL
MODEL 4
REMARK VINA RESULT:      -4.9      1.405      2.330
REMARK  1 active torsions:
REMARK  status: ('A' for Active; 'I' for Inactive)
REMARK    1  A    between atoms: C1_1  and  C7_7 
ROOT
HETATM    1  C2  UNL     1     -35.062   5.075   5.386  1.00 20.00     0.001 C 
HETATM    2  C3  UNL     1     -32.838   8.882   4.987  1.00 20.00     0.014 C 
HETATM    3  C4  UNL     1     -34.571   5.954   6.529  1.00 20.00     0.005 C 
HETATM    4  C5  UNL     1     -34.920   5.975   4.167  1.00 20.00     0.006 C 
HETATM    5  C6  UNL     1     -33.440   8.251   6.236  1.00 20.00     0.006 C 
HETATM    6  C7  UNL     1     -33.470   8.085   3.847  1.00 20.00     0.076 C 
HETATM    7  C8  UNL     1     -33.422   6.759   5.923  1.00 20.00    -0.010 C 
HETATM    8  C9  UNL     1     -33.572   6.656   4.392  1.00 20.00     0.002 C 
ENDROOT
BRANCH   6   9
HETATM    9  C1  UNL     1     -32.620   8.131   2.617  1.00 20.00     0.223 C 
HETATM   10  O10 UNL     1     -31.844   7.223   2.336  1.00 20.00    -0.279 OA
HETATM   11 CL11 UNL     1     -32.881   9.581   1.697  1.00 20.00    -0.043 Cl
ENDBRANCH   6   9
TORSDOF 1
ENDMDL
MODEL 5
REMARK VINA RESULT:      -4.7      2.603      3.866
REMARK  1 active torsions:
REMARK  status: ('A' for Active; 'I' for Inactive)
REMARK    1  A    between atoms: C1_1  and  C7_7 
ROOT
HETATM    1  C2  UNL     1     -32.495   9.050   3.141  1.00 20.00     0.001 C 
HETATM    2  C3  UNL     1     -33.814   4.861   3.696  1.00 20.00     0.014 C 
HETATM    3  C4  UNL     1     -32.114   7.863   2.265  1.00 20.00     0.005 C 
HETATM    4  C5  UNL     1     -33.655   8.515   3.969  1.00 20.00     0.006 C 
HETATM    5  C6  UNL     1     -33.058   5.479   2.528  1.00 20.00     0.006 C 
HETATM    6  C7  UNL     1     -34.321   6.075   4.474  1.00 20.00     0.076 C 
HETATM    7  C8  UNL     1     -32.312   6.646   3.167  1.00 20.00    -0.010 C 
HETATM    8  C9  UNL     1     -33.197   7.107   4.343  1.00 20.00     0.002 C 
ENDROOT
BRANCH   6   9
HETATM    9  C1  UNL     1     -34.572   5.734   5.908  1.00 20.00     0.223 C 
HETATM   10  O10 UNL     1     -34.910   4.605   6.253  1.00 20.00    -0.279 OA
HETATM   11 CL11 UNL     1     -34.330   7.098   6.956  1.00 20.00    -0.043 Cl
ENDBRANCH   6   9
TORSDOF 1
ENDMDL
MODEL 6
REMARK VINA RESULT:      -4.5      2.440      3.798
REMARK  1 active torsions:
REMARK  status: ('A' for Active; 'I' for Inactive)
REMARK    1  A    between atoms: C1_1  and  C7_7 
ROOT
HETATM    1  C2  UNL     1     -32.348   9.046   2.606  1.00 20.00     0.001 C 
HETATM    2  C3  UNL     1     -33.925   5.156   4.011  1.00 20.00     0.014 C 
HETATM    3  C4  UNL     1     -32.178   7.702   1.910  1.00 20.00     0.005 C 
HETATM    4  C5  UNL     1     -33.435   8.771   3.636  1.00 20.00     0.006 C 
HETATM    5  C6  UNL     1     -33.273   5.499   2.679  1.00 20.00     0.006 C 
HETATM    6  C7  UNL     1     -34.229   6.523   4.620  1.00 20.00     0.076 C 
HETATM    7  C8  UNL     1     -32.360   6.671   3.023  1.00 20.00    -0.010 C 
HETATM    8  C9  UNL     1     -33.050   7.402   4.192  1.00 20.00     0.002 C 
ENDROOT
BRANCH   6   9
HETATM    9  C1  UNL     1     -34.327   6.444   6.110  1.00 20.00     0.223 C 
HETATM   10  O10 UNL     1     -34.286   7.449   6.814  1.00 20.00    -0.279 OA
HETATM   11 CL11 UNL     1     -34.495   4.808   6.669  1.00 20.00    -0.043 Cl
ENDBRANCH   6   9
TORSDOF 1
ENDMDL
MODEL 7
REMARK VINA RESULT:      -4.4      2.643      4.262
REMARK  1 active torsions:
REMARK  status: ('A' for Active; 'I' for Inactive)
REMARK    1  A    between atoms: C1_1  and  C7_7 
ROOT
HETATM    1  C2  UNL     1     -32.101   8.901   3.400  1.00 20.00     0.001 C 
HETATM    2  C3  UNL     1     -34.157   6.494   6.494  1.00 20.00     0.014 C 
HETATM    3  C4  UNL     1     -32.448   9.357   4.811  1.00 20.00     0.005 C 
HETATM    4  C5  UNL     1     -32.302   7.394   3.460  1.00 20.00     0.006 C 
HETATM    5  C6  UNL     1     -33.482   7.852   6.630  1.00 20.00     0.006 C 
HETATM    6  C7  UNL     1     -33.667   5.988   5.139  1.00 20.00     0.076 C 
HETATM    7  C8  UNL     1     -33.602   8.448   5.232  1.00 20.00    -0.010 C 
HETATM    8  C9  UNL     1     -33.590   7.245   4.267  1.00 20.00     0.002 C 
ENDROOT
BRANCH   6   9
HETATM    9  C1  UNL     1     -34.615   4.989   4.557  1.00 20.00     0.223 C 
HETATM   10  O10 UNL     1     -34.299   3.813   4.404  1.00 20.00    -0.279 OA
HETATM   11 CL11 UNL     1     -36.147   5.700   4.151  1.00 20.00    -0.043 Cl
ENDBRANCH   6   9
TORSDOF 1
ENDMDL
MODEL 8
REMARK VINA RESULT:      -4.3     11.959     13.268
REMARK  1 active torsions:
REMARK  status: ('A' for Active; 'I' for Inactive)
REMARK    1  A    between atoms: C1_1  and  C7_7 
ROOT
HETATM    1  C2  UNL     1     -32.667  18.083  -1.431  1.00 20.00     0.001 C 
HETATM    2  C3  UNL     1     -34.583  17.409  -5.364  1.00 20.00     0.014 C 
HETATM    3  C4  UNL     1     -32.978  19.149  -2.474  1.00 20.00     0.005 C 
HETATM    4  C5  UNL     1     -33.466  16.880  -1.910  1.00 20.00     0.006 C 
HETATM    5  C6  UNL     1     -34.260  18.725  -4.670  1.00 20.00     0.006 C 
HETATM    6  C7  UNL     1     -34.417  16.373  -4.254  1.00 20.00     0.076 C 
HETATM    7  C8  UNL     1     -33.064  18.378  -3.791  1.00 20.00    -0.010 C 
HETATM    8  C9  UNL     1     -33.241  16.892  -3.421  1.00 20.00     0.002 C 
ENDROOT
BRANCH   6   9
HETATM    9  C1  UNL     1     -34.120  15.019  -4.817  1.00 20.00     0.223 C 
HETATM   10  O10 UNL     1     -34.067  14.022  -4.103  1.00 20.00    -0.279 OA
HETATM   11 CL11 UNL     1     -33.875  15.064  -6.535  1.00 20.00    -0.043 Cl
ENDBRANCH   6   9
TORSDOF 1
ENDMDL
MODEL 9
REMARK VINA RESULT:      -4.2      2.508      4.174
REMARK  1 active torsions:
REMARK  status: ('A' for Active; 'I' for Inactive)
REMARK    1  A    between atoms: C1_1  and  C7_7 
ROOT
HETATM    1  C2  UNL     1     -32.170   7.291   1.901  1.00 20.00     0.001 C 
HETATM    2  C3  UNL     1     -33.512   7.884   6.077  1.00 20.00     0.014 C 
HETATM    3  C4  UNL     1     -32.007   8.561   2.727  1.00 20.00     0.005 C 
HETATM    4  C5  UNL     1     -32.554   6.246   2.939  1.00 20.00     0.006 C 
HETATM    5  C6  UNL     1     -32.644   8.789   5.214  1.00 20.00     0.006 C 
HETATM    6  C7  UNL     1     -33.531   6.567   5.305  1.00 20.00     0.076 C 
HETATM    7  C8  UNL     1     -33.096   8.463   3.794  1.00 20.00    -0.010 C 
HETATM    8  C9  UNL     1     -33.545   6.988   3.832  1.00 20.00     0.002 C 
ENDROOT
BRANCH   6   9
HETATM    9  C1  UNL     1     -34.741   5.756   5.643  1.00 20.00     0.223 C 
HETATM   10  O10 UNL     1     -34.848   5.176   6.719  1.00 20.00    -0.279 OA
HETATM   11 CL11 UNL     1     -35.909   5.757   4.357  1.00 20.00    -0.043 Cl
ENDBRANCH   6   9
TORSDOF 1
ENDMDL
