MODEL 1
REMARK VINA RESULT:      -5.1      0.000      0.000
REMARK  1 active torsions:
REMARK  status: ('A' for Active; 'I' for Inactive)
REMARK    1  A    between atoms: C1_1  and  C6_6 
ROOT
HETATM    1  C2  UNL     1     -33.750   7.217   6.708  1.00 20.00     0.001 C 
HETATM    2  C3  UNL     1     -33.811   8.183   5.538  1.00 20.00     0.001 C 
HETATM    3  C4  UNL     1     -34.404   5.930   6.199  1.00 20.00     0.018 C 
HETATM    4  C5  UNL     1     -33.579   7.280   4.335  1.00 20.00     0.018 C 
HETATM    5  C6  UNL     1     -34.392   6.019   4.660  1.00 20.00     0.032 C 
HETATM    6  C7  UNL     1     -35.801   6.167   4.143  1.00 20.00     0.025 C 
ENDROOT
BRANCH   5   7
HETATM    7  C1  UNL     1     -33.798   4.773   4.008  1.00 20.00     0.227 C 
HETATM    8  O8  UNL     1     -33.956   3.656   4.491  1.00 20.00    -0.279 OA
HETATM    9 CL9  UNL     1     -32.916   5.150   2.560  1.00 20.00    -0.043 Cl
ENDBRANCH   5   7
TORSDOF 1
ENDMDL
MODEL 2
REMARK VINA RESULT:      -4.6      1.962      2.791
REMARK  1 active torsions:
REMARK  status: ('A' for Active; 'I' for Inactive)
REMARK    1  A    between atoms: C1_1  and  C6_6 
ROOT
HETATM    1  C2  UNL     1     -35.037   5.142   5.337  1.00 20.00     0.001 C 
HETATM    2  C3  UNL     1     -34.579   5.792   6.630  1.00 20.00     0.001 C 
HETATM    3  C4  UNL     1     -34.772   6.186   4.249  1.00 20.00     0.018 C 
HETATM    4  C5  UNL     1     -33.354   6.587   6.201  1.00 20.00     0.018 C 
HETATM    5  C6  UNL     1     -33.762   7.186   4.847  1.00 20.00     0.032 C 
HETATM    6  C7  UNL     1     -34.427   8.524   5.054  1.00 20.00     0.025 C 
ENDROOT
BRANCH   5   7
HETATM    7  C1  UNL     1     -32.557   7.415   3.938  1.00 20.00     0.227 C 
HETATM    8  O8  UNL     1     -31.758   8.323   4.144  1.00 20.00    -0.279 OA
HETATM    9 CL9  UNL     1     -32.489   6.262   2.641  1.00 20.00    -0.043 Cl
ENDBRANCH   5   7
TORSDOF 1
ENDMDL
MODEL 3
REMARK VINA RESULT:      -4.4      2.057      3.078
REMARK  1 active torsions:
REMARK  status: ('A' for Active; 'I' for Inactive)
REMARK    1  A    between atoms: C1_1  and  C6_6 
ROOT
HETATM    1  C2  UNL     1     -32.489   6.571   2.986  1.00 20.00     0.001 C 
HETATM    2  C3  UNL     1     -33.078   5.214   2.643  1.00 20.00     0.001 C 
HETATM    3  C4  UNL     1     -33.455   7.180   4.004  1.00 20.00     0.018 C 
HETATM    4  C5  UNL     1     -33.653   4.743   3.971  1.00 20.00     0.018 C 
HETATM    5  C6  UNL     1     -34.287   6.009   4.566  1.00 20.00     0.032 C 
HETATM    6  C7  UNL     1     -35.719   6.131   4.111  1.00 20.00     0.025 C 
ENDROOT
BRANCH   5   7
HETATM    7  C1  UNL     1     -34.297   5.979   6.092  1.00 20.00     0.227 C 
HETATM    8  O8  UNL     1     -34.448   4.933   6.715  1.00 20.00    -0.279 OA
HETATM    9 CL9  UNL     1     -34.075   7.560   6.779  1.00 20.00    -0.043 Cl
ENDBRANCH   5   7
TORSDOF 1
ENDMDL
MODEL 4
REMARK VINA RESULT:      -4.3      1.831      2.141
REMARK  1 active torsions:
REMARK  status: ('A' for Active; 'I' for Inactive)
REMARK    1  A    between atoms: C1_1  and  C6_6 
ROOT
HETATM    1  C2  UNL     1     -32.551   8.200   4.818  1.00 20.00     0.001 C 
HETATM    2  C3  UNL     1     -32.567   7.807   3.351  1.00 20.00     0.001 C 
HETATM    3  C4  UNL     1     -33.741   7.468   5.442  1.00 20.00     0.018 C 
HETATM    4  C5  UNL     1     -33.014   6.353   3.391  1.00 20.00     0.018 C 
HETATM    5  C6  UNL     1     -34.112   6.335   4.463  1.00 20.00     0.032 C 
HETATM    6  C7  UNL     1     -35.453   6.619   3.834  1.00 20.00     0.025 C 
ENDROOT
BRANCH   5   7
HETATM    7  C1  UNL     1     -34.214   4.977   5.153  1.00 20.00     0.227 C 
HETATM    8  O8  UNL     1     -34.051   3.928   4.538  1.00 20.00    -0.279 OA
HETATM    9 CL9  UNL     1     -34.574   5.129   6.846  1.00 20.00    -0.043 Cl
ENDBRANCH   5   7
TORSDOF 1
ENDMDL
MODEL 5
REMARK VINA RESULT:      -4.0     16.207     17.146
REMARK  1 active torsions:
REMARK  status: ('A' for Active; 'I' for Inactive)
REMARK    1  A    between atoms: C1_1  and  C6_6 
ROOT
HETATM    1  C2  UNL     1     -25.802  17.457  12.325  1.00 20.00     0.001 C 
HETATM    2  C3  UNL     1     -24.842  16.289  12.190  1.00 20.00     0.001 C 
HETATM    3  C4  UNL     1     -24.969  18.699  11.996  1.00 20.00     0.018 C 
HETATM    4  C5  UNL     1     -23.968  16.696  11.012  1.00 20.00     0.018 C 
HETATM    5  C6  UNL     1     -23.724  18.195  11.239  1.00 20.00     0.032 C 
HETATM    6  C7  UNL     1     -22.492  18.395  12.085  1.00 20.00     0.025 C 
ENDROOT
BRANCH   5   7
HETATM    7  C1  UNL     1     -23.497  18.941   9.926  1.00 20.00     0.227 C 
HETATM    8  O8  UNL     1     -22.372  19.254   9.549  1.00 20.00    -0.279 OA
HETATM    9 CL9  UNL     1     -24.986  19.263   9.091  1.00 20.00    -0.043 Cl
ENDBRANCH   5   7
TORSDOF 1
ENDMDL
MODEL 6
REMARK VINA RESULT:      -3.7      9.445     10.059
REMARK  1 active torsions:
REMARK  status: ('A' for Active; 'I' for Inactive)
REMARK    1  A    between atoms: C1_1  and  C6_6 
ROOT
HETATM    1  C2  UNL     1     -42.646  13.332   7.908  1.00 20.00     0.001 C 
HETATM    2  C3  UNL     1     -42.054  14.699   7.615  1.00 20.00     0.001 C 
HETATM    3  C4  UNL     1     -42.155  12.431   6.772  1.00 20.00     0.018 C 
HETATM    4  C5  UNL     1     -40.682  14.364   7.045  1.00 20.00     0.018 C 
HETATM    5  C6  UNL     1     -40.947  13.152   6.141  1.00 20.00     0.032 C 
HETATM    6  C7  UNL     1     -41.295  13.614   4.748  1.00 20.00     0.025 C 
ENDROOT
BRANCH   5   7
HETATM    7  C1  UNL     1     -39.722  12.248   6.026  1.00 20.00     0.227 C 
HETATM    8  O8  UNL     1     -39.082  11.901   7.014  1.00 20.00    -0.279 OA
HETATM    9 CL9  UNL     1     -39.386  11.808   4.380  1.00 20.00    -0.043 Cl
ENDBRANCH   5   7
TORSDOF 1
ENDMDL
MODEL 7
REMARK VINA RESULT:      -3.7      2.409      3.125
REMARK  1 active torsions:
REMARK  status: ('A' for Active; 'I' for Inactive)
REMARK    1  A    between atoms: C1_1  and  C6_6 
ROOT
HETATM    1  C2  UNL     1     -34.587   5.371   6.376  1.00 20.00     0.001 C 
HETATM    2  C3  UNL     1     -35.355   5.159   5.084  1.00 20.00     0.001 C 
HETATM    3  C4  UNL     1     -33.354   6.187   5.980  1.00 20.00     0.018 C 
HETATM    4  C5  UNL     1     -35.147   6.472   4.342  1.00 20.00     0.018 C 
HETATM    5  C6  UNL     1     -33.674   6.814   4.609  1.00 20.00     0.032 C 
HETATM    6  C7  UNL     1     -32.801   6.198   3.545  1.00 20.00     0.025 C 
ENDROOT
BRANCH   5   7
HETATM    7  C1  UNL     1     -33.425   8.320   4.583  1.00 20.00     0.227 C 
HETATM    8  O8  UNL     1     -33.761   9.045   5.514  1.00 20.00    -0.279 OA
HETATM    9 CL9  UNL     1     -32.639   8.828   3.119  1.00 20.00    -0.043 Cl
ENDBRANCH   5   7
TORSDOF 1
ENDMDL
MODEL 8
REMARK VINA RESULT:      -3.7     13.361     14.185
REMARK  1 active torsions:
REMARK  status: ('A' for Active; 'I' for Inactive)
REMARK    1  A    between atoms: C1_1  and  C6_6 
ROOT
HETATM    1  C2  UNL     1     -33.921  16.906  -3.935  1.00 20.00     0.001 C 
HETATM    2  C3  UNL     1     -33.191  15.578  -3.848  1.00 20.00     0.001 C 
HETATM    3  C4  UNL     1     -34.561  16.921  -5.325  1.00 20.00     0.018 C 
HETATM    4  C5  UNL     1     -34.114  14.629  -4.599  1.00 20.00     0.018 C 
HETATM    5  C6  UNL     1     -34.588  15.455  -5.803  1.00 20.00     0.032 C 
HETATM    6  C7  UNL     1     -33.636  15.275  -6.959  1.00 20.00     0.025 C 
ENDROOT
BRANCH   5   7
HETATM    7  C1  UNL     1     -35.971  15.023  -6.283  1.00 20.00     0.227 C 
HETATM    8  O8  UNL     1     -36.114  14.255  -7.230  1.00 20.00    -0.279 OA
HETATM    9 CL9  UNL     1     -37.243  15.739  -5.342  1.00 20.00    -0.043 Cl
ENDBRANCH   5   7
TORSDOF 1
ENDMDL
MODEL 9
REMARK VINA RESULT:      -3.6      2.111      2.914
REMARK  1 active torsions:
REMARK  status: ('A' for Active; 'I' for Inactive)
REMARK    1  A    between atoms: C1_1  and  C6_6 
ROOT
HETATM    1  C2  UNL     1     -32.318   7.556   2.973  1.00 20.00     0.001 C 
HETATM    2  C3  UNL     1     -32.751   8.795   3.736  1.00 20.00     0.001 C 
HETATM    3  C4  UNL     1     -32.718   6.377   3.864  1.00 20.00     0.018 C 
HETATM    4  C5  UNL     1     -34.053   8.356   4.393  1.00 20.00     0.018 C 
HETATM    5  C6  UNL     1     -33.764   6.922   4.857  1.00 20.00     0.032 C 
HETATM    6  C7  UNL     1     -33.189   6.937   6.251  1.00 20.00     0.025 C 
ENDROOT
BRANCH   5   7
HETATM    7  C1  UNL     1     -35.030   6.069   4.898  1.00 20.00     0.227 C 
HETATM    8  O8  UNL     1     -35.907   6.177   4.046  1.00 20.00    -0.279 OA
HETATM    9 CL9  UNL     1     -35.044   4.983   6.253  1.00 20.00    -0.043 Cl
ENDBRANCH   5   7
TORSDOF 1
ENDMDL
