MODEL 1
REMARK VINA RESULT:      -4.4      0.000      0.000
REMARK  1 active torsions:
REMARK  status: ('A' for Active; 'I' for Inactive)
REMARK    1  A    between atoms: C1_1  and  C4_4 
ROOT
HETATM    1  C2  UNL     1     -35.442   5.808   4.546  1.00 20.00     0.031 A 
HETATM    2  C3  UNL     1     -34.465   5.132   5.461  1.00 20.00     0.031 A 
HETATM    3  C4  UNL     1     -33.968   6.107   4.422  1.00 20.00     0.078 A 
HETATM    4 BR7  UNL     1     -33.058   5.360   2.897  1.00 20.00    -0.077 Br
ENDROOT
BRANCH   3   5
HETATM    5  C1  UNL     1     -33.469   7.421   4.860  1.00 20.00     0.142 C 
HETATM    6  C5  UNL     1     -32.329   8.009   4.074  1.00 20.00     0.092 C 
HETATM    7  O6  UNL     1     -33.962   8.010   5.821  1.00 20.00    -0.297 OA
ENDBRANCH   3   5
TORSDOF 1
ENDMDL
MODEL 2
REMARK VINA RESULT:      -4.3      2.216      2.373
REMARK  1 active torsions:
REMARK  status: ('A' for Active; 'I' for Inactive)
REMARK    1  A    between atoms: C1_1  and  C4_4 
ROOT
HETATM    1  C2  UNL     1     -34.499   4.850   4.913  1.00 20.00     0.031 A 
HETATM    2  C3  UNL     1     -35.432   5.891   4.371  1.00 20.00     0.031 A 
HETATM    3  C4  UNL     1     -34.010   6.263   4.712  1.00 20.00     0.078 A 
HETATM    4 BR7  UNL     1     -33.749   7.323   6.300  1.00 20.00    -0.077 Br
ENDROOT
BRANCH   3   5
HETATM    5  C1  UNL     1     -33.065   6.541   3.618  1.00 20.00     0.142 C 
HETATM    6  C5  UNL     1     -32.394   7.887   3.628  1.00 20.00     0.092 C 
HETATM    7  O6  UNL     1     -32.834   5.711   2.740  1.00 20.00    -0.297 OA
ENDBRANCH   3   5
TORSDOF 1
ENDMDL
MODEL 3
REMARK VINA RESULT:      -4.0      1.509      2.798
REMARK  1 active torsions:
REMARK  status: ('A' for Active; 'I' for Inactive)
REMARK    1  A    between atoms: C1_1  and  C4_4 
ROOT
HETATM    1  C2  UNL     1     -32.851   7.740   5.390  1.00 20.00     0.031 A 
HETATM    2  C3  UNL     1     -33.835   8.389   4.462  1.00 20.00     0.031 A 
HETATM    3  C4  UNL     1     -33.670   6.889   4.451  1.00 20.00     0.078 A 
HETATM    4 BR7  UNL     1     -32.745   6.130   2.940  1.00 20.00    -0.077 Br
ENDROOT
BRANCH   3   5
HETATM    5  C1  UNL     1     -34.746   6.050   5.005  1.00 20.00     0.142 C 
HETATM    6  C5  UNL     1     -34.533   5.505   6.391  1.00 20.00     0.092 C 
HETATM    7  O6  UNL     1     -35.769   5.809   4.366  1.00 20.00    -0.297 OA
ENDBRANCH   3   5
TORSDOF 1
ENDMDL
MODEL 4
REMARK VINA RESULT:      -4.0      2.160      2.663
REMARK  1 active torsions:
REMARK  status: ('A' for Active; 'I' for Inactive)
REMARK    1  A    between atoms: C1_1  and  C4_4 
ROOT
HETATM    1  C2  UNL     1     -34.015   8.275   4.867  1.00 20.00     0.031 A 
HETATM    2  C3  UNL     1     -33.070   7.486   5.722  1.00 20.00     0.031 A 
HETATM    3  C4  UNL     1     -33.669   6.856   4.489  1.00 20.00     0.078 A 
HETATM    4 BR7  UNL     1     -35.036   5.528   4.770  1.00 20.00    -0.077 Br
ENDROOT
BRANCH   3   5
HETATM    5  C1  UNL     1     -32.806   6.621   3.319  1.00 20.00     0.142 C 
HETATM    6  C5  UNL     1     -32.855   5.248   2.707  1.00 20.00     0.092 C 
HETATM    7  O6  UNL     1     -32.082   7.505   2.864  1.00 20.00    -0.297 OA
ENDBRANCH   3   5
TORSDOF 1
ENDMDL
MODEL 5
REMARK VINA RESULT:      -3.8      2.251      2.671
REMARK  1 active torsions:
REMARK  status: ('A' for Active; 'I' for Inactive)
REMARK    1  A    between atoms: C1_1  and  C4_4 
ROOT
HETATM    1  C2  UNL     1     -34.058   6.460   6.057  1.00 20.00     0.031 A 
HETATM    2  C3  UNL     1     -35.098   6.907   5.073  1.00 20.00     0.031 A 
HETATM    3  C4  UNL     1     -33.744   6.457   4.581  1.00 20.00     0.078 A 
HETATM    4 BR7  UNL     1     -32.551   7.832   3.947  1.00 20.00    -0.077 Br
ENDROOT
BRANCH   3   5
HETATM    5  C1  UNL     1     -33.634   5.168   3.879  1.00 20.00     0.142 C 
HETATM    6  C5  UNL     1     -32.934   5.180   2.547  1.00 20.00     0.092 C 
HETATM    7  O6  UNL     1     -34.091   4.132   4.359  1.00 20.00    -0.297 OA
ENDBRANCH   3   5
TORSDOF 1
ENDMDL
MODEL 6
REMARK VINA RESULT:      -3.6      2.276      2.568
REMARK  1 active torsions:
REMARK  status: ('A' for Active; 'I' for Inactive)
REMARK    1  A    between atoms: C1_1  and  C4_4 
ROOT
HETATM    1  C2  UNL     1     -34.083   8.180   4.845  1.00 20.00     0.031 A 
HETATM    2  C3  UNL     1     -33.069   7.463   5.686  1.00 20.00     0.031 A 
HETATM    3  C4  UNL     1     -33.699   6.760   4.509  1.00 20.00     0.078 A 
HETATM    4 BR7  UNL     1     -34.998   5.395   4.909  1.00 20.00    -0.077 Br
ENDROOT
BRANCH   3   5
HETATM    5  C1  UNL     1     -32.882   6.508   3.311  1.00 20.00     0.142 C 
HETATM    6  C5  UNL     1     -32.168   7.692   2.716  1.00 20.00     0.092 C 
HETATM    7  O6  UNL     1     -32.787   5.384   2.820  1.00 20.00    -0.297 OA
ENDBRANCH   3   5
TORSDOF 1
ENDMDL
MODEL 7
REMARK VINA RESULT:      -3.6      2.280      3.310
REMARK  1 active torsions:
REMARK  status: ('A' for Active; 'I' for Inactive)
REMARK    1  A    between atoms: C1_1  and  C4_4 
ROOT
HETATM    1  C2  UNL     1     -33.549   8.476   3.904  1.00 20.00     0.031 A 
HETATM    2  C3  UNL     1     -32.194   8.071   4.403  1.00 20.00     0.031 A 
HETATM    3  C4  UNL     1     -33.371   7.147   4.594  1.00 20.00     0.078 A 
HETATM    4 BR7  UNL     1     -34.076   6.999   6.382  1.00 20.00    -0.077 Br
ENDROOT
BRANCH   3   5
HETATM    5  C1  UNL     1     -33.445   5.913   3.794  1.00 20.00     0.142 C 
HETATM    6  C5  UNL     1     -34.267   4.787   4.360  1.00 20.00     0.092 C 
HETATM    7  O6  UNL     1     -32.864   5.810   2.715  1.00 20.00    -0.297 OA
ENDBRANCH   3   5
TORSDOF 1
ENDMDL
MODEL 8
REMARK VINA RESULT:      -3.5     15.992     16.684
REMARK  1 active torsions:
REMARK  status: ('A' for Active; 'I' for Inactive)
REMARK    1  A    between atoms: C1_1  and  C4_4 
ROOT
HETATM    1  C2  UNL     1     -24.275  16.573  11.140  1.00 20.00     0.031 A 
HETATM    2  C3  UNL     1     -24.837  17.940  10.885  1.00 20.00     0.031 A 
HETATM    3  C4  UNL     1     -23.345  17.724  10.846  1.00 20.00     0.078 A 
HETATM    4 BR7  UNL     1     -22.329  18.417  12.330  1.00 20.00    -0.077 Br
ENDROOT
BRANCH   3   5
HETATM    5  C1  UNL     1     -22.653  17.766   9.547  1.00 20.00     0.142 C 
HETATM    6  C5  UNL     1     -22.303  19.128   9.011  1.00 20.00     0.092 C 
HETATM    7  O6  UNL     1     -22.374  16.739   8.932  1.00 20.00    -0.297 OA
ENDBRANCH   3   5
TORSDOF 1
ENDMDL
MODEL 9
REMARK VINA RESULT:      -3.3      9.322      9.822
REMARK  1 active torsions:
REMARK  status: ('A' for Active; 'I' for Inactive)
REMARK    1  A    between atoms: C1_1  and  C4_4 
ROOT
HETATM    1  C2  UNL     1     -41.205   5.542  -0.172  1.00 20.00     0.031 A 
HETATM    2  C3  UNL     1     -42.485   5.463  -0.951  1.00 20.00     0.031 A 
HETATM    3  C4  UNL     1     -42.329   6.500   0.135  1.00 20.00     0.078 A 
HETATM    4 BR7  UNL     1     -43.303   6.196   1.769  1.00 20.00    -0.077 Br
ENDROOT
BRANCH   3   5
HETATM    5  C1  UNL     1     -42.184   7.914  -0.248  1.00 20.00     0.142 C 
HETATM    6  C5  UNL     1     -40.847   8.552   0.014  1.00 20.00     0.092 C 
HETATM    7  O6  UNL     1     -43.110   8.542  -0.757  1.00 20.00    -0.297 OA
ENDBRANCH   3   5
TORSDOF 1
ENDMDL
