MODEL 1
REMARK VINA RESULT:      -5.8      0.000      0.000
REMARK  2 active torsions:
REMARK  status: ('A' for Active; 'I' for Inactive)
REMARK    1  A    between atoms: C4_4  and  C5_5 
REMARK    2  A    between atoms: C5_5  and  C8_8 
ROOT
HETATM    1  C1  UNL     1     -34.863   6.059   6.764  1.00 20.00    -0.027 A 
HETATM    2  C2  UNL     1     -34.966   5.035   5.906  1.00 20.00    -0.026 A 
HETATM    3  C3  UNL     1     -33.428   7.308   5.112  1.00 20.00    -0.012 A 
HETATM    4  C4  UNL     1     -33.537   6.278   4.258  1.00 20.00    -0.003 A 
HETATM    5  C6  UNL     1     -34.086   7.309   6.463  1.00 20.00     0.054 A 
HETATM    6  C7  UNL     1     -34.316   5.030   4.551  1.00 20.00     0.069 A 
ENDROOT
BRANCH   4   7
HETATM    7  C5  UNL     1     -32.855   6.386   2.966  1.00 20.00     0.261 C 
HETATM    8  O9  UNL     1     -32.859   5.446   2.169  1.00 20.00    -0.283 OA
BRANCH   7   9
HETATM    9  C8  UNL     1     -32.158   7.681   2.663  1.00 20.00     0.455 C 
HETATM   10  F10 UNL     1     -32.953   8.760   2.875  1.00 20.00    -0.163 F 
HETATM   11  F11 UNL     1     -31.748   7.744   1.370  1.00 20.00    -0.163 F 
HETATM   12  F12 UNL     1     -31.053   7.852   3.434  1.00 20.00    -0.163 F 
ENDBRANCH   7   9
ENDBRANCH   4   7
TORSDOF 2
ENDMDL
MODEL 2
REMARK VINA RESULT:      -5.7      0.111      1.448
REMARK  2 active torsions:
REMARK  status: ('A' for Active; 'I' for Inactive)
REMARK    1  A    between atoms: C4_4  and  C5_5 
REMARK    2  A    between atoms: C5_5  and  C8_8 
ROOT
HETATM    1  C1  UNL     1     -34.856   6.162   6.744  1.00 20.00    -0.027 A 
HETATM    2  C2  UNL     1     -34.101   7.242   6.501  1.00 20.00    -0.026 A 
HETATM    3  C3  UNL     1     -34.281   5.240   4.471  1.00 20.00    -0.012 A 
HETATM    4  C4  UNL     1     -33.526   6.324   4.236  1.00 20.00    -0.003 A 
HETATM    5  C6  UNL     1     -35.029   5.041   5.759  1.00 20.00     0.054 A 
HETATM    6  C7  UNL     1     -33.346   7.444   5.218  1.00 20.00     0.069 A 
ENDROOT
BRANCH   4   7
HETATM    7  C5  UNL     1     -32.839   6.413   2.945  1.00 20.00     0.261 C 
HETATM    8  O9  UNL     1     -32.840   5.462   2.162  1.00 20.00    -0.283 OA
BRANCH   7   9
HETATM    9  C8  UNL     1     -32.143   7.705   2.624  1.00 20.00     0.455 C 
HETATM   10  F10 UNL     1     -32.933   8.787   2.841  1.00 20.00    -0.163 F 
HETATM   11  F11 UNL     1     -31.751   7.759   1.326  1.00 20.00    -0.163 F 
HETATM   12  F12 UNL     1     -31.027   7.878   3.379  1.00 20.00    -0.163 F 
ENDBRANCH   7   9
ENDBRANCH   4   7
TORSDOF 2
ENDMDL
MODEL 3
REMARK VINA RESULT:      -5.6      2.977      4.273
REMARK  2 active torsions:
REMARK  status: ('A' for Active; 'I' for Inactive)
REMARK    1  A    between atoms: C4_4  and  C5_5 
REMARK    2  A    between atoms: C5_5  and  C8_8 
ROOT
HETATM    1  C1  UNL     1     -31.746   8.140   2.818  1.00 20.00    -0.027 A 
HETATM    2  C2  UNL     1     -32.067   6.899   2.423  1.00 20.00    -0.026 A 
HETATM    3  C3  UNL     1     -33.456   8.002   4.663  1.00 20.00    -0.012 A 
HETATM    4  C4  UNL     1     -33.770   6.760   4.263  1.00 20.00    -0.003 A 
HETATM    5  C6  UNL     1     -32.402   8.828   3.980  1.00 20.00     0.054 A 
HETATM    6  C7  UNL     1     -33.115   6.067   3.106  1.00 20.00     0.069 A 
ENDROOT
BRANCH   4   7
HETATM    7  C5  UNL     1     -34.813   6.046   5.003  1.00 20.00     0.261 C 
HETATM    8  O9  UNL     1     -35.833   5.651   4.436  1.00 20.00    -0.283 OA
BRANCH   7   9
HETATM    9  C8  UNL     1     -34.583   5.821   6.470  1.00 20.00     0.455 C 
HETATM   10  F10 UNL     1     -34.700   6.963   7.195  1.00 20.00    -0.163 F 
HETATM   11  F11 UNL     1     -33.343   5.325   6.717  1.00 20.00    -0.163 F 
HETATM   12  F12 UNL     1     -35.471   4.935   6.990  1.00 20.00    -0.163 F 
ENDBRANCH   7   9
ENDBRANCH   4   7
TORSDOF 2
ENDMDL
MODEL 4
REMARK VINA RESULT:      -5.6      2.991      4.358
REMARK  2 active torsions:
REMARK  status: ('A' for Active; 'I' for Inactive)
REMARK    1  A    between atoms: C4_4  and  C5_5 
REMARK    2  A    between atoms: C5_5  and  C8_8 
ROOT
HETATM    1  C1  UNL     1     -32.125   8.333   1.941  1.00 20.00    -0.027 A 
HETATM    2  C2  UNL     1     -32.227   6.997   1.997  1.00 20.00    -0.026 A 
HETATM    3  C3  UNL     1     -33.122   8.512   4.248  1.00 20.00    -0.012 A 
HETATM    4  C4  UNL     1     -33.219   7.175   4.297  1.00 20.00    -0.003 A 
HETATM    5  C6  UNL     1     -32.558   9.238   3.058  1.00 20.00     0.054 A 
HETATM    6  C7  UNL     1     -32.784   6.266   3.185  1.00 20.00     0.069 A 
ENDROOT
BRANCH   4   7
HETATM    7  C5  UNL     1     -33.784   6.573   5.507  1.00 20.00     0.261 C 
HETATM    8  O9  UNL     1     -33.434   6.956   6.625  1.00 20.00    -0.283 OA
BRANCH   7   9
HETATM    9  C8  UNL     1     -34.798   5.481   5.324  1.00 20.00     0.455 C 
HETATM   10  F10 UNL     1     -34.261   4.361   4.779  1.00 20.00    -0.163 F 
HETATM   11  F11 UNL     1     -35.813   5.866   4.508  1.00 20.00    -0.163 F 
HETATM   12  F12 UNL     1     -35.361   5.112   6.503  1.00 20.00    -0.163 F 
ENDBRANCH   7   9
ENDBRANCH   4   7
TORSDOF 2
ENDMDL
MODEL 5
REMARK VINA RESULT:      -5.6      1.291      2.189
REMARK  2 active torsions:
REMARK  status: ('A' for Active; 'I' for Inactive)
REMARK    1  A    between atoms: C4_4  and  C5_5 
REMARK    2  A    between atoms: C5_5  and  C8_8 
ROOT
HETATM    1  C1  UNL     1     -34.780   5.378   6.257  1.00 20.00    -0.027 A 
HETATM    2  C2  UNL     1     -34.248   6.554   6.620  1.00 20.00    -0.026 A 
HETATM    3  C3  UNL     1     -33.847   5.665   3.934  1.00 20.00    -0.012 A 
HETATM    4  C4  UNL     1     -33.316   6.840   4.305  1.00 20.00    -0.003 A 
HETATM    5  C6  UNL     1     -34.639   4.802   4.877  1.00 20.00     0.054 A 
HETATM    6  C7  UNL     1     -33.451   7.417   5.683  1.00 20.00     0.069 A 
ENDROOT
BRANCH   4   7
HETATM    7  C5  UNL     1     -32.562   7.597   3.303  1.00 20.00     0.261 C 
HETATM    8  O9  UNL     1     -31.706   7.047   2.608  1.00 20.00    -0.283 OA
BRANCH   7   9
HETATM    9  C8  UNL     1     -32.878   9.059   3.165  1.00 20.00     0.455 C 
HETATM   10  F10 UNL     1     -32.121   9.833   3.983  1.00 20.00    -0.163 F 
HETATM   11  F11 UNL     1     -34.176   9.325   3.463  1.00 20.00    -0.163 F 
HETATM   12  F12 UNL     1     -32.667   9.503   1.899  1.00 20.00    -0.163 F 
ENDBRANCH   7   9
ENDBRANCH   4   7
TORSDOF 2
ENDMDL
MODEL 6
REMARK VINA RESULT:      -5.3      3.009      4.565
REMARK  2 active torsions:
REMARK  status: ('A' for Active; 'I' for Inactive)
REMARK    1  A    between atoms: C4_4  and  C5_5 
REMARK    2  A    between atoms: C5_5  and  C8_8 
ROOT
HETATM    1  C1  UNL     1     -32.174   8.383   1.986  1.00 20.00    -0.027 A 
HETATM    2  C2  UNL     1     -32.573   9.183   2.985  1.00 20.00    -0.026 A 
HETATM    3  C3  UNL     1     -32.852   6.360   3.325  1.00 20.00    -0.012 A 
HETATM    4  C4  UNL     1     -33.250   7.167   4.320  1.00 20.00    -0.003 A 
HETATM    5  C6  UNL     1     -32.270   6.885   2.043  1.00 20.00     0.054 A 
HETATM    6  C7  UNL     1     -33.161   8.664   4.266  1.00 20.00     0.069 A 
ENDROOT
BRANCH   4   7
HETATM    7  C5  UNL     1     -33.804   6.546   5.525  1.00 20.00     0.261 C 
HETATM    8  O9  UNL     1     -33.451   6.915   6.646  1.00 20.00    -0.283 OA
BRANCH   7   9
HETATM    9  C8  UNL     1     -34.812   5.449   5.332  1.00 20.00     0.455 C 
HETATM   10  F10 UNL     1     -34.270   4.340   4.769  1.00 20.00    -0.163 F 
HETATM   11  F11 UNL     1     -35.833   5.838   4.526  1.00 20.00    -0.163 F 
HETATM   12  F12 UNL     1     -35.367   5.060   6.509  1.00 20.00    -0.163 F 
ENDBRANCH   7   9
ENDBRANCH   4   7
TORSDOF 2
ENDMDL
MODEL 7
REMARK VINA RESULT:      -5.3      1.939      2.621
REMARK  2 active torsions:
REMARK  status: ('A' for Active; 'I' for Inactive)
REMARK    1  A    between atoms: C4_4  and  C5_5 
REMARK    2  A    between atoms: C5_5  and  C8_8 
ROOT
HETATM    1  C1  UNL     1     -34.441   4.323   4.994  1.00 20.00    -0.027 A 
HETATM    2  C2  UNL     1     -34.007   4.901   3.865  1.00 20.00    -0.026 A 
HETATM    3  C3  UNL     1     -34.197   6.513   6.217  1.00 20.00    -0.012 A 
HETATM    4  C4  UNL     1     -33.764   7.084   5.083  1.00 20.00    -0.003 A 
HETATM    5  C6  UNL     1     -34.587   5.063   6.294  1.00 20.00     0.054 A 
HETATM    6  C7  UNL     1     -33.621   6.351   3.782  1.00 20.00     0.069 A 
ENDROOT
BRANCH   4   7
HETATM    7  C5  UNL     1     -33.412   8.506   5.123  1.00 20.00     0.261 C 
HETATM    8  O9  UNL     1     -34.003   9.281   5.877  1.00 20.00    -0.283 OA
BRANCH   7   9
HETATM    9  C8  UNL     1     -32.310   8.967   4.214  1.00 20.00     0.455 C 
HETATM   10  F10 UNL     1     -32.726   9.122   2.932  1.00 20.00    -0.163 F 
HETATM   11  F11 UNL     1     -31.276   8.088   4.187  1.00 20.00    -0.163 F 
HETATM   12  F12 UNL     1     -31.800  10.163   4.607  1.00 20.00    -0.163 F 
ENDBRANCH   7   9
ENDBRANCH   4   7
TORSDOF 2
ENDMDL
MODEL 8
REMARK VINA RESULT:      -5.2      9.257     10.178
REMARK  2 active torsions:
REMARK  status: ('A' for Active; 'I' for Inactive)
REMARK    1  A    between atoms: C4_4  and  C5_5 
REMARK    2  A    between atoms: C5_5  and  C8_8 
ROOT
HETATM    1  C1  UNL     1     -42.342  13.934   8.955  1.00 20.00    -0.027 A 
HETATM    2  C2  UNL     1     -43.001  13.073   8.167  1.00 20.00    -0.026 A 
HETATM    3  C3  UNL     1     -40.506  14.110   7.237  1.00 20.00    -0.012 A 
HETATM    4  C4  UNL     1     -41.173  13.247   6.455  1.00 20.00    -0.003 A 
HETATM    5  C6  UNL     1     -41.024  14.550   8.578  1.00 20.00     0.054 A 
HETATM    6  C7  UNL     1     -42.491  12.634   6.824  1.00 20.00     0.069 A 
ENDROOT
BRANCH   4   7
HETATM    7  C5  UNL     1     -40.574  12.889   5.167  1.00 20.00     0.261 C 
HETATM    8  O9  UNL     1     -40.954  13.423   4.123  1.00 20.00    -0.283 OA
BRANCH   7   9
HETATM    9  C8  UNL     1     -39.487  11.853   5.178  1.00 20.00     0.455 C 
HETATM   10  F10 UNL     1     -39.445  11.133   4.029  1.00 20.00    -0.163 F 
HETATM   11  F11 UNL     1     -39.648  10.964   6.192  1.00 20.00    -0.163 F 
HETATM   12  F12 UNL     1     -38.259  12.411   5.336  1.00 20.00    -0.163 F 
ENDBRANCH   7   9
ENDBRANCH   4   7
TORSDOF 2
ENDMDL
MODEL 9
REMARK VINA RESULT:      -5.2     12.366     12.771
REMARK  2 active torsions:
REMARK  status: ('A' for Active; 'I' for Inactive)
REMARK    1  A    between atoms: C4_4  and  C5_5 
REMARK    2  A    between atoms: C5_5  and  C8_8 
ROOT
HETATM    1  C1  UNL     1     -31.787  19.034   2.269  1.00 20.00    -0.027 A 
HETATM    2  C2  UNL     1     -33.043  19.232   1.844  1.00 20.00    -0.026 A 
HETATM    3  C3  UNL     1     -31.078  18.450  -0.078  1.00 20.00    -0.012 A 
HETATM    4  C4  UNL     1     -32.338  18.650  -0.495  1.00 20.00    -0.003 A 
HETATM    5  C6  UNL     1     -30.666  18.624   1.357  1.00 20.00     0.054 A 
HETATM    6  C7  UNL     1     -33.460  19.065   0.410  1.00 20.00     0.069 A 
ENDROOT
BRANCH   4   7
HETATM    7  C5  UNL     1     -32.627  18.453  -1.917  1.00 20.00     0.261 C 
HETATM    8  O9  UNL     1     -32.236  19.262  -2.760  1.00 20.00    -0.283 OA
BRANCH   7   9
HETATM    9  C8  UNL     1     -33.412  17.230  -2.296  1.00 20.00     0.455 C 
HETATM   10  F10 UNL     1     -32.682  16.351  -3.028  1.00 20.00    -0.163 F 
HETATM   11  F11 UNL     1     -34.508  17.542  -3.034  1.00 20.00    -0.163 F 
HETATM   12  F12 UNL     1     -33.854  16.556  -1.202  1.00 20.00    -0.163 F 
ENDBRANCH   7   9
ENDBRANCH   4   7
TORSDOF 2
ENDMDL
