MODEL 1
REMARK VINA RESULT:      -4.3      0.000      0.000
REMARK  2 active torsions:
REMARK  status: ('A' for Active; 'I' for Inactive)
REMARK    1  A    between atoms: C3_3  and  C8_8 
REMARK    2  A    between atoms: C9_9  and  N11_11 
ROOT
HETATM    1  C1  UNL     1     -29.969  18.808   3.261  1.00 20.00     0.089 C 
HETATM    2  C9  UNL     1     -31.366  19.159   3.011  1.00 20.00     0.395 C 
HETATM    3  N10 UNL     1     -28.860  18.532   3.463  1.00 20.00    -0.195 NA
ENDROOT
BRANCH   2   4
HETATM    4  N11 UNL     1     -31.827  18.592   1.743  1.00 20.00     0.101 N 
HETATM    5  C6  UNL     1     -33.229  18.959   1.497  1.00 20.00     0.274 C 
HETATM    6  C4  UNL     1     -33.744  18.328   0.202  1.00 20.00     0.039 C 
HETATM    7  C8  UNL     1     -32.866  18.711  -0.987  1.00 20.00     0.011 C 
HETATM    8  C5  UNL     1     -31.399  18.406  -0.686  1.00 20.00     0.039 C 
HETATM    9  C7  UNL     1     -30.963  19.032   0.639  1.00 20.00     0.274 C 
BRANCH   7  10
HETATM   10  C3  UNL     1     -33.293  17.960  -2.210  1.00 20.00    -0.032 C 
HETATM   11  C2  UNL     1     -33.425  16.631  -2.265  1.00 20.00     0.007 C 
ENDBRANCH   7  10
ENDBRANCH   2   4
TORSDOF 2
ENDMDL
MODEL 2
REMARK VINA RESULT:      -4.1      2.867      4.785
REMARK  2 active torsions:
REMARK  status: ('A' for Active; 'I' for Inactive)
REMARK    1  A    between atoms: C3_3  and  C8_8 
REMARK    2  A    between atoms: C9_9  and  N11_11 
ROOT
HETATM    1  C1  UNL     1     -31.766  18.756  -0.935  1.00 20.00     0.089 C 
HETATM    2  C9  UNL     1     -33.013  18.996  -1.659  1.00 20.00     0.395 C 
HETATM    3  N10 UNL     1     -30.777  18.568  -0.357  1.00 20.00    -0.195 NA
ENDROOT
BRANCH   2   4
HETATM    4  N11 UNL     1     -33.120  18.110  -2.819  1.00 20.00     0.101 N 
HETATM    5  C6  UNL     1     -33.350  16.724  -2.387  1.00 20.00     0.274 C 
HETATM    6  C4  UNL     1     -33.409  15.776  -3.586  1.00 20.00     0.039 C 
HETATM    7  C8  UNL     1     -34.476  16.216  -4.587  1.00 20.00     0.011 C 
HETATM    8  C5  UNL     1     -34.279  17.684  -4.963  1.00 20.00     0.039 C 
HETATM    9  C7  UNL     1     -34.188  18.568  -3.718  1.00 20.00     0.274 C 
BRANCH   7  10
HETATM   10  C3  UNL     1     -34.410  15.369  -5.820  1.00 20.00    -0.032 C 
HETATM   11  C2  UNL     1     -35.483  14.907  -6.470  1.00 20.00     0.007 C 
ENDBRANCH   7  10
ENDBRANCH   2   4
TORSDOF 2
ENDMDL
MODEL 3
REMARK VINA RESULT:      -4.1      4.709      7.587
REMARK  2 active torsions:
REMARK  status: ('A' for Active; 'I' for Inactive)
REMARK    1  A    between atoms: C3_3  and  C8_8 
REMARK    2  A    between atoms: C9_9  and  N11_11 
ROOT
HETATM    1  C1  UNL     1     -35.424  15.338  -6.969  1.00 20.00     0.089 C 
HETATM    2  C9  UNL     1     -34.673  16.552  -6.656  1.00 20.00     0.395 C 
HETATM    3  N10 UNL     1     -36.021  14.376  -7.222  1.00 20.00    -0.195 NA
ENDROOT
BRANCH   2   4
HETATM    4  N11 UNL     1     -34.596  16.759  -5.209  1.00 20.00     0.101 N 
HETATM    5  C6  UNL     1     -33.698  15.769  -4.596  1.00 20.00     0.274 C 
HETATM    6  C4  UNL     1     -33.651  15.937  -3.077  1.00 20.00     0.039 C 
HETATM    7  C8  UNL     1     -33.240  17.356  -2.689  1.00 20.00     0.011 C 
HETATM    8  C5  UNL     1     -34.125  18.378  -3.400  1.00 20.00     0.039 C 
HETATM    9  C7  UNL     1     -34.159  18.129  -4.909  1.00 20.00     0.274 C 
BRANCH   7  10
HETATM   10  C3  UNL     1     -33.352  17.541  -1.207  1.00 20.00    -0.032 C 
HETATM   11  C2  UNL     1     -32.526  18.305  -0.483  1.00 20.00     0.007 C 
ENDBRANCH   7  10
ENDBRANCH   2   4
TORSDOF 2
ENDMDL
MODEL 4
REMARK VINA RESULT:      -4.0      4.257      6.951
REMARK  2 active torsions:
REMARK  status: ('A' for Active; 'I' for Inactive)
REMARK    1  A    between atoms: C3_3  and  C8_8 
REMARK    2  A    between atoms: C9_9  and  N11_11 
ROOT
HETATM    1  C1  UNL     1     -34.420  15.832  -6.631  1.00 20.00     0.089 C 
HETATM    2  C9  UNL     1     -35.201  16.784  -5.844  1.00 20.00     0.395 C 
HETATM    3  N10 UNL     1     -33.803  15.075  -7.258  1.00 20.00    -0.195 NA
ENDROOT
BRANCH   2   4
HETATM    4  N11 UNL     1     -34.450  17.231  -4.670  1.00 20.00     0.101 N 
HETATM    5  C6  UNL     1     -35.266  18.142  -3.856  1.00 20.00     0.274 C 
HETATM    6  C4  UNL     1     -34.476  18.662  -2.653  1.00 20.00     0.039 C 
HETATM    7  C8  UNL     1     -33.938  17.512  -1.805  1.00 20.00     0.011 C 
HETATM    8  C5  UNL     1     -33.165  16.525  -2.678  1.00 20.00     0.039 C 
HETATM    9  C7  UNL     1     -33.997  16.077  -3.881  1.00 20.00     0.274 C 
BRANCH   7  10
HETATM   10  C3  UNL     1     -33.041  18.038  -0.728  1.00 20.00    -0.032 C 
HETATM   11  C2  UNL     1     -31.858  18.619  -0.955  1.00 20.00     0.007 C 
ENDBRANCH   7  10
ENDBRANCH   2   4
TORSDOF 2
ENDMDL
MODEL 5
REMARK VINA RESULT:      -3.7      2.457      4.111
REMARK  2 active torsions:
REMARK  status: ('A' for Active; 'I' for Inactive)
REMARK    1  A    between atoms: C3_3  and  C8_8 
REMARK    2  A    between atoms: C9_9  and  N11_11 
ROOT
HETATM    1  C1  UNL     1     -32.072  18.660  -0.422  1.00 20.00     0.089 C 
HETATM    2  C9  UNL     1     -33.528  18.547  -0.367  1.00 20.00     0.395 C 
HETATM    3  N10 UNL     1     -30.916  18.752  -0.462  1.00 20.00    -0.195 NA
ENDROOT
BRANCH   2   4
HETATM    4  N11 UNL     1     -34.040  17.831  -1.536  1.00 20.00     0.101 N 
HETATM    5  C6  UNL     1     -34.549  18.781  -2.537  1.00 20.00     0.274 C 
HETATM    6  C4  UNL     1     -35.138  18.047  -3.742  1.00 20.00     0.039 C 
HETATM    7  C8  UNL     1     -34.117  17.097  -4.366  1.00 20.00     0.011 C 
HETATM    8  C5  UNL     1     -33.532  16.172  -3.300  1.00 20.00     0.039 C 
HETATM    9  C7  UNL     1     -32.997  16.968  -2.108  1.00 20.00     0.274 C 
BRANCH   7  10
HETATM   10  C3  UNL     1     -34.761  16.278  -5.441  1.00 20.00    -0.032 C 
HETATM   11  C2  UNL     1     -34.200  15.200  -5.999  1.00 20.00     0.007 C 
ENDBRANCH   7  10
ENDBRANCH   2   4
TORSDOF 2
ENDMDL
MODEL 6
REMARK VINA RESULT:      -3.7     11.423     12.346
REMARK  2 active torsions:
REMARK  status: ('A' for Active; 'I' for Inactive)
REMARK    1  A    between atoms: C3_3  and  C8_8 
REMARK    2  A    between atoms: C9_9  and  N11_11 
ROOT
HETATM    1  C1  UNL     1     -32.424   8.875   1.012  1.00 20.00     0.089 C 
HETATM    2  C9  UNL     1     -31.747   7.649   1.433  1.00 20.00     0.395 C 
HETATM    3  N10 UNL     1     -32.958   9.848   0.675  1.00 20.00    -0.195 NA
ENDROOT
BRANCH   2   4
HETATM    4  N11 UNL     1     -32.189   7.241   2.767  1.00 20.00     0.101 N 
HETATM    5  C6  UNL     1     -32.647   8.408   3.535  1.00 20.00     0.274 C 
HETATM    6  C4  UNL     1     -33.061   8.007   4.951  1.00 20.00     0.039 C 
HETATM    7  C8  UNL     1     -34.132   6.918   4.928  1.00 20.00     0.011 C 
HETATM    8  C5  UNL     1     -33.682   5.747   4.056  1.00 20.00     0.039 C 
HETATM    9  C7  UNL     1     -33.245   6.224   2.669  1.00 20.00     0.274 C 
BRANCH   7  10
HETATM   10  C3  UNL     1     -34.407   6.432   6.317  1.00 20.00    -0.032 C 
HETATM   11  C2  UNL     1     -34.526   5.142   6.650  1.00 20.00     0.007 C 
ENDBRANCH   7  10
ENDBRANCH   2   4
TORSDOF 2
ENDMDL
MODEL 7
REMARK VINA RESULT:      -3.6     11.311     11.876
REMARK  2 active torsions:
REMARK  status: ('A' for Active; 'I' for Inactive)
REMARK    1  A    between atoms: C3_3  and  C8_8 
REMARK    2  A    between atoms: C9_9  and  N11_11 
ROOT
HETATM    1  C1  UNL     1     -34.383   5.933   6.339  1.00 20.00     0.089 C 
HETATM    2  C9  UNL     1     -33.739   7.235   6.177  1.00 20.00     0.395 C 
HETATM    3  N10 UNL     1     -34.894   4.900   6.472  1.00 20.00    -0.195 NA
ENDROOT
BRANCH   2   4
HETATM    4  N11 UNL     1     -33.559   7.555   4.760  1.00 20.00     0.101 N 
HETATM    5  C6  UNL     1     -32.632   8.685   4.603  1.00 20.00     0.274 C 
HETATM    6  C4  UNL     1     -32.477   9.069   3.130  1.00 20.00     0.039 C 
HETATM    7  C8  UNL     1     -32.024   7.874   2.292  1.00 20.00     0.011 C 
HETATM    8  C5  UNL     1     -32.944   6.678   2.530  1.00 20.00     0.039 C 
HETATM    9  C7  UNL     1     -33.087   6.376   4.023  1.00 20.00     0.274 C 
BRANCH   7  10
HETATM   10  C3  UNL     1     -32.030   8.230   0.838  1.00 20.00    -0.032 C 
HETATM   11  C2  UNL     1     -32.683   9.278   0.326  1.00 20.00     0.007 C 
ENDBRANCH   7  10
ENDBRANCH   2   4
TORSDOF 2
ENDMDL
MODEL 8
REMARK VINA RESULT:      -3.6      2.302      5.234
REMARK  2 active torsions:
REMARK  status: ('A' for Active; 'I' for Inactive)
REMARK    1  A    between atoms: C3_3  and  C8_8 
REMARK    2  A    between atoms: C9_9  and  N11_11 
ROOT
HETATM    1  C1  UNL     1     -34.251  17.710  -3.113  1.00 20.00     0.089 C 
HETATM    2  C9  UNL     1     -34.525  18.479  -1.901  1.00 20.00     0.395 C 
HETATM    3  N10 UNL     1     -34.037  17.101  -4.077  1.00 20.00    -0.195 NA
ENDROOT
BRANCH   2   4
HETATM    4  N11 UNL     1     -33.508  18.223  -0.880  1.00 20.00     0.101 N 
HETATM    5  C6  UNL     1     -32.188  18.669  -1.350  1.00 20.00     0.274 C 
HETATM    6  C4  UNL     1     -31.103  18.358  -0.317  1.00 20.00     0.039 C 
HETATM    7  C8  UNL     1     -31.435  18.980   1.038  1.00 20.00     0.011 C 
HETATM    8  C5  UNL     1     -32.843  18.580   1.476  1.00 20.00     0.039 C 
HETATM    9  C7  UNL     1     -33.870  18.881   0.383  1.00 20.00     0.274 C 
BRANCH   7  10
HETATM   10  C3  UNL     1     -30.444  18.535   2.069  1.00 20.00    -0.032 C 
HETATM   11  C2  UNL     1     -30.362  19.049   3.301  1.00 20.00     0.007 C 
ENDBRANCH   7  10
ENDBRANCH   2   4
TORSDOF 2
ENDMDL
MODEL 9
REMARK VINA RESULT:      -3.5     12.124     13.191
REMARK  2 active torsions:
REMARK  status: ('A' for Active; 'I' for Inactive)
REMARK    1  A    between atoms: C3_3  and  C8_8 
REMARK    2  A    between atoms: C9_9  and  N11_11 
ROOT
HETATM    1  C1  UNL     1     -42.446  13.641  10.550  1.00 20.00     0.089 C 
HETATM    2  C9  UNL     1     -42.799  14.631   9.536  1.00 20.00     0.395 C 
HETATM    3  N10 UNL     1     -42.167  12.856  11.359  1.00 20.00    -0.195 NA
ENDROOT
BRANCH   2   4
HETATM    4  N11 UNL     1     -42.242  14.264   8.233  1.00 20.00     0.101 N 
HETATM    5  C6  UNL     1     -40.773  14.292   8.276  1.00 20.00     0.274 C 
HETATM    6  C4  UNL     1     -40.176  13.964   6.906  1.00 20.00     0.039 C 
HETATM    7  C8  UNL     1     -40.678  12.616   6.392  1.00 20.00     0.011 C 
HETATM    8  C5  UNL     1     -42.205  12.567   6.433  1.00 20.00     0.039 C 
HETATM    9  C7  UNL     1     -42.735  12.943   7.818  1.00 20.00     0.274 C 
BRANCH   7  10
HETATM   10  C3  UNL     1     -40.207  12.389   4.989  1.00 20.00    -0.032 C 
HETATM   11  C2  UNL     1     -39.003  11.901   4.673  1.00 20.00     0.007 C 
ENDBRANCH   7  10
ENDBRANCH   2   4
TORSDOF 2
ENDMDL
