MODEL 1
REMARK VINA RESULT:      -4.0      0.000      0.000
REMARK  3 active torsions:
REMARK  status: ('A' for Active; 'I' for Inactive)
REMARK    1  A    between atoms: C1_1  and  C8_8 
REMARK    2  A    between atoms: C8_8  and  C9_9 
REMARK    3  A    between atoms: C9_9  and  C10_10 
ROOT
HETATM    1  C8  UNL     1     -33.062  15.936  -3.683  1.00 20.00     0.055 C 
ENDROOT
BRANCH   1   2
HETATM    2  C1  UNL     1     -34.219  15.237  -4.315  1.00 20.00     0.006 C 
HETATM    3  C2  UNL     1     -35.146  15.974  -5.231  1.00 20.00     0.056 C 
HETATM    4  C3  UNL     1     -35.799  14.794  -5.908  1.00 20.00     0.027 C 
HETATM    5  C4  UNL     1     -35.725  13.712  -4.845  1.00 20.00     0.149 C 
HETATM    6  N11 UNL     1     -34.495  13.991  -4.077  1.00 20.00    -0.298 NA
ENDBRANCH   1   2
BRANCH   1   7
HETATM    7  C9  UNL     1     -33.449  16.526  -2.323  1.00 20.00     0.014 C 
BRANCH   7   8
HETATM    8  C10 UNL     1     -33.311  18.066  -2.194  1.00 20.00    -0.051 C 
HETATM    9  C5  UNL     1     -33.010  18.714  -3.555  1.00 20.00     0.014 C 
HETATM   10  C6  UNL     1     -32.202  18.443  -1.198  1.00 20.00     0.014 C 
HETATM   11  C7  UNL     1     -34.648  18.626  -1.671  1.00 20.00     0.014 C 
ENDBRANCH   7   8
ENDBRANCH   1   7
TORSDOF 3
ENDMDL
MODEL 2
REMARK VINA RESULT:      -4.0      1.290      1.761
REMARK  3 active torsions:
REMARK  status: ('A' for Active; 'I' for Inactive)
REMARK    1  A    between atoms: C1_1  and  C8_8 
REMARK    2  A    between atoms: C8_8  and  C9_9 
REMARK    3  A    between atoms: C9_9  and  C10_10 
ROOT
HETATM    1  C8  UNL     1     -33.055  16.797  -3.313  1.00 20.00     0.055 C 
ENDROOT
BRANCH   1   2
HETATM    2  C1  UNL     1     -33.980  16.053  -4.218  1.00 20.00     0.006 C 
HETATM    3  C2  UNL     1     -33.987  14.557  -4.239  1.00 20.00     0.056 C 
HETATM    4  C3  UNL     1     -35.317  14.333  -4.914  1.00 20.00     0.027 C 
HETATM    5  C4  UNL     1     -35.470  15.575  -5.775  1.00 20.00     0.149 C 
HETATM    6  N11 UNL     1     -34.782  16.656  -5.042  1.00 20.00    -0.298 NA
ENDBRANCH   1   2
BRANCH   1   7
HETATM    7  C9  UNL     1     -33.570  16.790  -1.871  1.00 20.00     0.014 C 
BRANCH   7   8
HETATM    8  C10 UNL     1     -33.466  18.140  -1.113  1.00 20.00    -0.051 C 
HETATM    9  C5  UNL     1     -32.027  18.683  -1.138  1.00 20.00     0.014 C 
HETATM   10  C6  UNL     1     -33.926  17.995   0.347  1.00 20.00     0.014 C 
HETATM   11  C7  UNL     1     -34.385  19.158  -1.815  1.00 20.00     0.014 C 
ENDBRANCH   7   8
ENDBRANCH   1   7
TORSDOF 3
ENDMDL
MODEL 3
REMARK VINA RESULT:      -3.9      1.254      2.121
REMARK  3 active torsions:
REMARK  status: ('A' for Active; 'I' for Inactive)
REMARK    1  A    between atoms: C1_1  and  C8_8 
REMARK    2  A    between atoms: C8_8  and  C9_9 
REMARK    3  A    between atoms: C9_9  and  C10_10 
ROOT
HETATM    1  C8  UNL     1     -33.123  16.841  -3.439  1.00 20.00     0.055 C 
ENDROOT
BRANCH   1   2
HETATM    2  C1  UNL     1     -34.012  16.005  -4.299  1.00 20.00     0.006 C 
HETATM    3  C2  UNL     1     -33.998  14.514  -4.186  1.00 20.00     0.056 C 
HETATM    4  C3  UNL     1     -35.306  14.209  -4.874  1.00 20.00     0.027 C 
HETATM    5  C4  UNL     1     -35.451  15.367  -5.847  1.00 20.00     0.149 C 
HETATM    6  N11 UNL     1     -34.798  16.520  -5.195  1.00 20.00    -0.298 NA
ENDBRANCH   1   2
BRANCH   1   7
HETATM    7  C9  UNL     1     -33.548  16.767  -1.969  1.00 20.00     0.014 C 
BRANCH   7   8
HETATM    8  C10 UNL     1     -33.510  18.108  -1.189  1.00 20.00    -0.051 C 
HETATM    9  C5  UNL     1     -33.888  17.904   0.288  1.00 20.00     0.014 C 
HETATM   10  C6  UNL     1     -34.459  19.143  -1.816  1.00 20.00     0.014 C 
HETATM   11  C7  UNL     1     -32.073  18.661  -1.254  1.00 20.00     0.014 C 
ENDBRANCH   7   8
ENDBRANCH   1   7
TORSDOF 3
ENDMDL
MODEL 4
REMARK VINA RESULT:      -3.7      3.299      6.166
REMARK  3 active torsions:
REMARK  status: ('A' for Active; 'I' for Inactive)
REMARK    1  A    between atoms: C1_1  and  C8_8 
REMARK    2  A    between atoms: C8_8  and  C9_9 
REMARK    3  A    between atoms: C9_9  and  C10_10 
ROOT
HETATM    1  C8  UNL     1     -33.470  19.055  -0.169  1.00 20.00     0.055 C 
ENDROOT
BRANCH   1   2
HETATM    2  C1  UNL     1     -32.435  18.942   0.901  1.00 20.00     0.006 C 
HETATM    3  C2  UNL     1     -31.073  18.406   0.589  1.00 20.00     0.056 C 
HETATM    4  C3  UNL     1     -30.335  18.906   1.807  1.00 20.00     0.027 C 
HETATM    5  C4  UNL     1     -31.424  18.954   2.864  1.00 20.00     0.149 C 
HETATM    6  N11 UNL     1     -32.673  19.260   2.137  1.00 20.00    -0.298 NA
ENDBRANCH   1   2
BRANCH   1   7
HETATM    7  C9  UNL     1     -33.587  17.752  -0.964  1.00 20.00     0.014 C 
BRANCH   7   8
HETATM    8  C10 UNL     1     -33.703  17.911  -2.503  1.00 20.00    -0.051 C 
HETATM    9  C5  UNL     1     -33.400  16.586  -3.224  1.00 20.00     0.014 C 
HETATM   10  C6  UNL     1     -32.749  18.999  -3.023  1.00 20.00     0.014 C 
HETATM   11  C7  UNL     1     -35.149  18.328  -2.835  1.00 20.00     0.014 C 
ENDBRANCH   7   8
ENDBRANCH   1   7
TORSDOF 3
ENDMDL
MODEL 5
REMARK VINA RESULT:      -3.7      1.924      4.908
REMARK  3 active torsions:
REMARK  status: ('A' for Active; 'I' for Inactive)
REMARK    1  A    between atoms: C1_1  and  C8_8 
REMARK    2  A    between atoms: C8_8  and  C9_9 
REMARK    3  A    between atoms: C9_9  and  C10_10 
ROOT
HETATM    1  C8  UNL     1     -33.748  17.445  -4.242  1.00 20.00     0.055 C 
ENDROOT
BRANCH   1   2
HETATM    2  C1  UNL     1     -34.032  17.859  -2.836  1.00 20.00     0.006 C 
HETATM    3  C2  UNL     1     -33.558  17.027  -1.686  1.00 20.00     0.056 C 
HETATM    4  C3  UNL     1     -33.684  18.049  -0.583  1.00 20.00     0.027 C 
HETATM    5  C4  UNL     1     -34.815  18.935  -1.075  1.00 20.00     0.149 C 
HETATM    6  N11 UNL     1     -34.724  18.920  -2.549  1.00 20.00    -0.298 NA
ENDBRANCH   1   2
BRANCH   1   7
HETATM    7  C9  UNL     1     -34.934  16.685  -4.844  1.00 20.00     0.014 C 
BRANCH   7   8
HETATM    8  C10 UNL     1     -34.626  15.251  -5.352  1.00 20.00    -0.051 C 
HETATM    9  C5  UNL     1     -33.636  14.531  -4.421  1.00 20.00     0.014 C 
HETATM   10  C6  UNL     1     -34.052  15.278  -6.778  1.00 20.00     0.014 C 
HETATM   11  C7  UNL     1     -35.946  14.456  -5.372  1.00 20.00     0.014 C 
ENDBRANCH   7   8
ENDBRANCH   1   7
TORSDOF 3
ENDMDL
MODEL 6
REMARK VINA RESULT:      -3.6      1.922      4.919
REMARK  3 active torsions:
REMARK  status: ('A' for Active; 'I' for Inactive)
REMARK    1  A    between atoms: C1_1  and  C8_8 
REMARK    2  A    between atoms: C8_8  and  C9_9 
REMARK    3  A    between atoms: C9_9  and  C10_10 
ROOT
HETATM    1  C8  UNL     1     -33.711  17.387  -4.177  1.00 20.00     0.055 C 
ENDROOT
BRANCH   1   2
HETATM    2  C1  UNL     1     -34.032  17.860  -2.798  1.00 20.00     0.006 C 
HETATM    3  C2  UNL     1     -33.572  17.088  -1.601  1.00 20.00     0.056 C 
HETATM    4  C3  UNL     1     -33.736  18.157  -0.549  1.00 20.00     0.027 C 
HETATM    5  C4  UNL     1     -34.868  19.004  -1.105  1.00 20.00     0.149 C 
HETATM    6  N11 UNL     1     -34.743  18.923  -2.574  1.00 20.00    -0.298 NA
ENDBRANCH   1   2
BRANCH   1   7
HETATM    7  C9  UNL     1     -34.914  16.685  -4.813  1.00 20.00     0.014 C 
BRANCH   7   8
HETATM    8  C10 UNL     1     -34.654  15.248  -5.339  1.00 20.00    -0.051 C 
HETATM    9  C5  UNL     1     -34.016  15.274  -6.738  1.00 20.00     0.014 C 
HETATM   10  C6  UNL     1     -35.956  14.431  -5.391  1.00 20.00     0.014 C 
HETATM   11  C7  UNL     1     -33.679  14.551  -4.370  1.00 20.00     0.014 C 
ENDBRANCH   7   8
ENDBRANCH   1   7
TORSDOF 3
ENDMDL
MODEL 7
REMARK VINA RESULT:      -3.6      1.526      4.899
REMARK  3 active torsions:
REMARK  status: ('A' for Active; 'I' for Inactive)
REMARK    1  A    between atoms: C1_1  and  C8_8 
REMARK    2  A    between atoms: C8_8  and  C9_9 
REMARK    3  A    between atoms: C9_9  and  C10_10 
ROOT
HETATM    1  C8  UNL     1     -33.745  15.475  -3.827  1.00 20.00     0.055 C 
ENDROOT
BRANCH   1   2
HETATM    2  C1  UNL     1     -33.430  16.796  -3.208  1.00 20.00     0.006 C 
HETATM    3  C2  UNL     1     -33.476  16.972  -1.723  1.00 20.00     0.056 C 
HETATM    4  C3  UNL     1     -32.681  18.250  -1.609  1.00 20.00     0.027 C 
HETATM    5  C4  UNL     1     -32.953  18.935  -2.937  1.00 20.00     0.149 C 
HETATM    6  N11 UNL     1     -33.142  17.846  -3.917  1.00 20.00    -0.298 NA
ENDBRANCH   1   2
BRANCH   1   7
HETATM    7  C9  UNL     1     -34.088  15.629  -5.312  1.00 20.00     0.014 C 
BRANCH   7   8
HETATM    8  C10 UNL     1     -35.565  15.341  -5.694  1.00 20.00    -0.051 C 
HETATM    9  C5  UNL     1     -36.478  16.520  -5.318  1.00 20.00     0.014 C 
HETATM   10  C6  UNL     1     -36.077  14.064  -5.007  1.00 20.00     0.014 C 
HETATM   11  C7  UNL     1     -35.634  15.136  -7.220  1.00 20.00     0.014 C 
ENDBRANCH   7   8
ENDBRANCH   1   7
TORSDOF 3
ENDMDL
MODEL 8
REMARK VINA RESULT:      -3.6     10.711     11.924
REMARK  3 active torsions:
REMARK  status: ('A' for Active; 'I' for Inactive)
REMARK    1  A    between atoms: C1_1  and  C8_8 
REMARK    2  A    between atoms: C8_8  and  C9_9 
REMARK    3  A    between atoms: C9_9  and  C10_10 
ROOT
HETATM    1  C8  UNL     1     -32.420   7.652   4.119  1.00 20.00     0.055 C 
ENDROOT
BRANCH   1   2
HETATM    2  C1  UNL     1     -32.489   8.384   2.819  1.00 20.00     0.006 C 
HETATM    3  C2  UNL     1     -31.939   7.771   1.570  1.00 20.00     0.056 C 
HETATM    4  C3  UNL     1     -32.632   8.643   0.551  1.00 20.00     0.027 C 
HETATM    5  C4  UNL     1     -32.817   9.951   1.300  1.00 20.00     0.149 C 
HETATM    6  N11 UNL     1     -32.986   9.580   2.719  1.00 20.00    -0.298 NA
ENDBRANCH   1   2
BRANCH   1   7
HETATM    7  C9  UNL     1     -33.809   7.523   4.753  1.00 20.00     0.014 C 
BRANCH   7   8
HETATM    8  C10 UNL     1     -34.410   6.092   4.768  1.00 20.00    -0.051 C 
HETATM    9  C5  UNL     1     -34.470   5.528   6.197  1.00 20.00     0.014 C 
HETATM   10  C6  UNL     1     -33.594   5.137   3.881  1.00 20.00     0.014 C 
HETATM   11  C7  UNL     1     -35.846   6.168   4.212  1.00 20.00     0.014 C 
ENDBRANCH   7   8
ENDBRANCH   1   7
TORSDOF 3
ENDMDL
MODEL 9
REMARK VINA RESULT:      -3.5     10.697     11.905
REMARK  3 active torsions:
REMARK  status: ('A' for Active; 'I' for Inactive)
REMARK    1  A    between atoms: C1_1  and  C8_8 
REMARK    2  A    between atoms: C8_8  and  C9_9 
REMARK    3  A    between atoms: C9_9  and  C10_10 
ROOT
HETATM    1  C8  UNL     1     -32.410   7.655   4.099  1.00 20.00     0.055 C 
ENDROOT
BRANCH   1   2
HETATM    2  C1  UNL     1     -32.491   8.384   2.799  1.00 20.00     0.006 C 
HETATM    3  C2  UNL     1     -31.960   7.765   1.544  1.00 20.00     0.056 C 
HETATM    4  C3  UNL     1     -32.660   8.639   0.532  1.00 20.00     0.027 C 
HETATM    5  C4  UNL     1     -32.829   9.950   1.280  1.00 20.00     0.149 C 
HETATM    6  N11 UNL     1     -32.982   9.582   2.702  1.00 20.00    -0.298 NA
ENDBRANCH   1   2
BRANCH   1   7
HETATM    7  C9  UNL     1     -33.790   7.538   4.753  1.00 20.00     0.014 C 
BRANCH   7   8
HETATM    8  C10 UNL     1     -34.418   6.118   4.748  1.00 20.00    -0.051 C 
HETATM    9  C5  UNL     1     -33.582   5.143   3.902  1.00 20.00     0.014 C 
HETATM   10  C6  UNL     1     -35.858   6.150   4.208  1.00 20.00     0.014 C 
HETATM   11  C7  UNL     1     -34.452   5.603   6.199  1.00 20.00     0.014 C 
ENDBRANCH   7   8
ENDBRANCH   1   7
TORSDOF 3
ENDMDL
