MODEL 1
REMARK VINA RESULT:      -3.7      0.000      0.000
REMARK  1 active torsions:
REMARK  status: ('A' for Active; 'I' for Inactive)
REMARK    1  A    between atoms: C2_2  and  C3_3 
ROOT
HETATM    1  C1  UNL     1     -41.738  13.748   5.121  1.00 20.00    -0.011 C 
HETATM    2  C2  UNL     1     -40.729  13.097   5.719  1.00 20.00    -0.019 C 
HETATM    3  C4  UNL     1     -41.572  15.610   6.686  1.00 20.00     0.010 C 
HETATM    4  C5  UNL     1     -40.396  14.850   7.367  1.00 20.00     0.011 C 
HETATM    5  C6  UNL     1     -42.499  14.456   6.228  1.00 20.00     0.017 C 
HETATM    6  C7  UNL     1     -40.811  13.365   7.203  1.00 20.00     0.030 C 
HETATM    7  C8  UNL     1     -42.355  13.418   7.377  1.00 20.00    -0.033 C 
HETATM    8  C9  UNL     1     -43.075  12.072   7.120  1.00 20.00     0.016 C 
HETATM    9  C10 UNL     1     -42.836  13.906   8.756  1.00 20.00     0.016 C 
ENDROOT
BRANCH   2  10
HETATM   10  C3  UNL     1     -39.727  12.291   5.053  1.00 20.00     0.265 C 
HETATM   11  O11 UNL     1     -38.521  12.365   5.309  1.00 20.00    -0.302 OA
ENDBRANCH   2  10
TORSDOF 1
ENDMDL
MODEL 2
REMARK VINA RESULT:      -3.6     20.466     21.903
REMARK  1 active torsions:
REMARK  status: ('A' for Active; 'I' for Inactive)
REMARK    1  A    between atoms: C2_2  and  C3_3 
ROOT
HETATM    1  C1  UNL     1     -28.027  -2.314  10.166  1.00 20.00    -0.011 C 
HETATM    2  C2  UNL     1     -28.449  -2.455  11.432  1.00 20.00    -0.019 C 
HETATM    3  C4  UNL     1     -26.068  -3.706  10.576  1.00 20.00     0.010 C 
HETATM    4  C5  UNL     1     -26.571  -3.872  12.041  1.00 20.00     0.011 C 
HETATM    5  C6  UNL     1     -26.510  -2.263  10.229  1.00 20.00     0.017 C 
HETATM    6  C7  UNL     1     -27.234  -2.499  12.329  1.00 20.00     0.030 C 
HETATM    7  C8  UNL     1     -26.310  -1.505  11.572  1.00 20.00    -0.033 C 
HETATM    8  C9  UNL     1     -26.814  -0.042  11.565  1.00 20.00     0.016 C 
HETATM    9  C10 UNL     1     -24.856  -1.457  12.079  1.00 20.00     0.016 C 
ENDROOT
BRANCH   2  10
HETATM   10  C3  UNL     1     -29.828  -2.563  11.859  1.00 20.00     0.265 C 
HETATM   11  O11 UNL     1     -30.786  -2.380  11.102  1.00 20.00    -0.302 OA
ENDBRANCH   2  10
TORSDOF 1
ENDMDL
MODEL 3
REMARK VINA RESULT:      -3.5     11.390     12.632
REMARK  1 active torsions:
REMARK  status: ('A' for Active; 'I' for Inactive)
REMARK    1  A    between atoms: C2_2  and  C3_3 
ROOT
HETATM    1  C1  UNL     1     -33.175  18.159  -3.869  1.00 20.00    -0.011 C 
HETATM    2  C2  UNL     1     -33.372  16.981  -3.258  1.00 20.00    -0.019 C 
HETATM    3  C4  UNL     1     -32.347  19.180  -1.815  1.00 20.00     0.010 C 
HETATM    4  C5  UNL     1     -32.571  17.805  -1.117  1.00 20.00     0.011 C 
HETATM    5  C6  UNL     1     -33.506  19.228  -2.842  1.00 20.00     0.017 C 
HETATM    6  C7  UNL     1     -33.827  17.257  -1.844  1.00 20.00     0.030 C 
HETATM    7  C8  UNL     1     -34.673  18.538  -2.083  1.00 20.00    -0.033 C 
HETATM    8  C9  UNL     1     -35.947  18.314  -2.932  1.00 20.00     0.016 C 
HETATM    9  C10 UNL     1     -35.132  19.260  -0.802  1.00 20.00     0.016 C 
ENDROOT
BRANCH   2  10
HETATM   10  C3  UNL     1     -33.168  15.675  -3.848  1.00 20.00     0.265 C 
HETATM   11  O11 UNL     1     -34.016  14.779  -3.815  1.00 20.00    -0.302 OA
ENDBRANCH   2  10
TORSDOF 1
ENDMDL
MODEL 4
REMARK VINA RESULT:      -3.5      1.025      2.110
REMARK  1 active torsions:
REMARK  status: ('A' for Active; 'I' for Inactive)
REMARK    1  A    between atoms: C2_2  and  C3_3 
ROOT
HETATM    1  C1  UNL     1     -41.945  12.284   6.780  1.00 20.00    -0.011 C 
HETATM    2  C2  UNL     1     -40.888  12.652   6.040  1.00 20.00    -0.019 C 
HETATM    3  C4  UNL     1     -43.378  13.936   5.702  1.00 20.00     0.010 C 
HETATM    4  C5  UNL     1     -42.147  14.349   4.842  1.00 20.00     0.011 C 
HETATM    5  C6  UNL     1     -42.730  13.555   7.056  1.00 20.00     0.017 C 
HETATM    6  C7  UNL     1     -40.963  14.145   5.824  1.00 20.00     0.030 C 
HETATM    7  C8  UNL     1     -41.568  14.580   7.187  1.00 20.00    -0.033 C 
HETATM    8  C9  UNL     1     -40.640  14.346   8.403  1.00 20.00     0.016 C 
HETATM    9  C10 UNL     1     -42.009  16.054   7.261  1.00 20.00     0.016 C 
ENDROOT
BRANCH   2  10
HETATM   10  C3  UNL     1     -39.864  11.767   5.527  1.00 20.00     0.265 C 
HETATM   11  O11 UNL     1     -38.686  12.108   5.385  1.00 20.00    -0.302 OA
ENDBRANCH   2  10
TORSDOF 1
ENDMDL
MODEL 5
REMARK VINA RESULT:      -3.5     20.324     21.858
REMARK  1 active torsions:
REMARK  status: ('A' for Active; 'I' for Inactive)
REMARK    1  A    between atoms: C2_2  and  C3_3 
ROOT
HETATM    1  C1  UNL     1     -26.234  -2.500  10.119  1.00 20.00    -0.011 C 
HETATM    2  C2  UNL     1     -25.811  -2.143  11.341  1.00 20.00    -0.019 C 
HETATM    3  C4  UNL     1     -28.008  -0.827  10.155  1.00 20.00     0.010 C 
HETATM    4  C5  UNL     1     -27.503  -0.415  11.569  1.00 20.00     0.011 C 
HETATM    5  C6  UNL     1     -27.746  -2.354  10.136  1.00 20.00     0.017 C 
HETATM    6  C7  UNL     1     -27.020  -1.763  12.164  1.00 20.00     0.030 C 
HETATM    7  C8  UNL     1     -28.053  -2.778  11.600  1.00 20.00    -0.033 C 
HETATM    8  C9  UNL     1     -27.736  -4.258  11.919  1.00 20.00     0.016 C 
HETATM    9  C10 UNL     1     -29.506  -2.542  12.052  1.00 20.00     0.016 C 
ENDROOT
BRANCH   2  10
HETATM   10  C3  UNL     1     -24.434  -2.112  11.785  1.00 20.00     0.265 C 
HETATM   11  O11 UNL     1     -23.859  -1.076  12.132  1.00 20.00    -0.302 OA
ENDBRANCH   2  10
TORSDOF 1
ENDMDL
MODEL 6
REMARK VINA RESULT:      -3.3      8.738     10.346
REMARK  1 active torsions:
REMARK  status: ('A' for Active; 'I' for Inactive)
REMARK    1  A    between atoms: C2_2  and  C3_3 
ROOT
HETATM    1  C1  UNL     1     -42.875   4.956   0.791  1.00 20.00    -0.011 C 
HETATM    2  C2  UNL     1     -42.884   5.292  -0.508  1.00 20.00    -0.019 C 
HETATM    3  C4  UNL     1     -43.401   7.238   1.470  1.00 20.00     0.010 C 
HETATM    4  C5  UNL     1     -43.417   7.616  -0.042  1.00 20.00     0.011 C 
HETATM    5  C6  UNL     1     -42.300   6.150   1.532  1.00 20.00     0.017 C 
HETATM    6  C7  UNL     1     -42.324   6.690  -0.635  1.00 20.00     0.030 C 
HETATM    7  C8  UNL     1     -41.256   6.650   0.494  1.00 20.00    -0.033 C 
HETATM    8  C9  UNL     1     -40.087   5.670   0.236  1.00 20.00     0.016 C 
HETATM    9  C10 UNL     1     -40.612   8.009   0.825  1.00 20.00     0.016 C 
ENDROOT
BRANCH   2  10
HETATM   10  C3  UNL     1     -43.362   4.464  -1.595  1.00 20.00     0.265 C 
HETATM   11  O11 UNL     1     -42.681   4.193  -2.588  1.00 20.00    -0.302 OA
ENDBRANCH   2  10
TORSDOF 1
ENDMDL
MODEL 7
REMARK VINA RESULT:      -3.3     20.223     21.494
REMARK  1 active torsions:
REMARK  status: ('A' for Active; 'I' for Inactive)
REMARK    1  A    between atoms: C2_2  and  C3_3 
ROOT
HETATM    1  C1  UNL     1     -28.248  -1.875  12.332  1.00 20.00    -0.011 C 
HETATM    2  C2  UNL     1     -28.831  -2.454  11.272  1.00 20.00    -0.019 C 
HETATM    3  C4  UNL     1     -27.024  -0.316  10.911  1.00 20.00     0.010 C 
HETATM    4  C5  UNL     1     -27.714  -0.990   9.687  1.00 20.00     0.011 C 
HETATM    5  C6  UNL     1     -26.842  -1.503  11.890  1.00 20.00     0.017 C 
HETATM    6  C7  UNL     1     -27.833  -2.469  10.137  1.00 20.00     0.030 C 
HETATM    7  C8  UNL     1     -26.522  -2.692  10.941  1.00 20.00    -0.033 C 
HETATM    8  C9  UNL     1     -26.428  -4.067  11.644  1.00 20.00     0.016 C 
HETATM    9  C10 UNL     1     -25.226  -2.537  10.123  1.00 20.00     0.016 C 
ENDROOT
BRANCH   2  10
HETATM   10  C3  UNL     1     -30.186  -2.960  11.221  1.00 20.00     0.265 C 
HETATM   11  O11 UNL     1     -31.180  -2.250  11.401  1.00 20.00    -0.302 OA
ENDBRANCH   2  10
TORSDOF 1
ENDMDL
MODEL 8
REMARK VINA RESULT:      -3.2     12.668     14.015
REMARK  1 active torsions:
REMARK  status: ('A' for Active; 'I' for Inactive)
REMARK    1  A    between atoms: C2_2  and  C3_3 
ROOT
HETATM    1  C1  UNL     1     -33.868  15.034  -5.857  1.00 20.00    -0.011 C 
HETATM    2  C2  UNL     1     -34.020  15.817  -4.779  1.00 20.00    -0.019 C 
HETATM    3  C4  UNL     1     -34.482  16.849  -7.365  1.00 20.00     0.010 C 
HETATM    4  C5  UNL     1     -34.647  17.753  -6.106  1.00 20.00     0.011 C 
HETATM    5  C6  UNL     1     -34.939  15.463  -6.845  1.00 20.00     0.017 C 
HETATM    6  C7  UNL     1     -35.174  16.757  -5.040  1.00 20.00     0.030 C 
HETATM    7  C8  UNL     1     -36.095  15.820  -5.869  1.00 20.00    -0.033 C 
HETATM    8  C9  UNL     1     -36.662  14.617  -5.079  1.00 20.00     0.016 C 
HETATM    9  C10 UNL     1     -37.305  16.513  -6.524  1.00 20.00     0.016 C 
ENDROOT
BRANCH   2  10
HETATM   10  C3  UNL     1     -33.208  15.778  -3.581  1.00 20.00     0.265 C 
HETATM   11  O11 UNL     1     -33.518  16.355  -2.535  1.00 20.00    -0.302 OA
ENDBRANCH   2  10
TORSDOF 1
ENDMDL
MODEL 9
REMARK VINA RESULT:      -3.2     12.754     14.168
REMARK  1 active torsions:
REMARK  status: ('A' for Active; 'I' for Inactive)
REMARK    1  A    between atoms: C2_2  and  C3_3 
ROOT
HETATM    1  C1  UNL     1     -34.428  15.540  -4.761  1.00 20.00    -0.011 C 
HETATM    2  C2  UNL     1     -35.582  15.093  -5.278  1.00 20.00    -0.019 C 
HETATM    3  C4  UNL     1     -35.298  17.810  -4.572  1.00 20.00     0.010 C 
HETATM    4  C5  UNL     1     -36.637  17.278  -5.165  1.00 20.00     0.011 C 
HETATM    5  C6  UNL     1     -34.239  16.946  -5.303  1.00 20.00     0.017 C 
HETATM    6  C7  UNL     1     -36.158  16.182  -6.152  1.00 20.00     0.030 C 
HETATM    7  C8  UNL     1     -34.846  16.783  -6.726  1.00 20.00    -0.033 C 
HETATM    8  C9  UNL     1     -34.056  15.830  -7.653  1.00 20.00     0.016 C 
HETATM    9  C10 UNL     1     -35.022  18.097  -7.509  1.00 20.00     0.016 C 
ENDROOT
BRANCH   2  10
HETATM   10  C3  UNL     1     -36.177  13.797  -5.027  1.00 20.00     0.265 C 
HETATM   11  O11 UNL     1     -35.711  12.984  -4.224  1.00 20.00    -0.302 OA
ENDBRANCH   2  10
TORSDOF 1
ENDMDL
