MODEL 1
REMARK VINA RESULT:      -4.9      0.000      0.000
REMARK  5 active torsions:
REMARK  status: ('A' for Active; 'I' for Inactive)
REMARK    1  A    between atoms: C1_1  and  C5_5 
REMARK    2  A    between atoms: C2_2  and  C9_9 
REMARK    3  A    between atoms: C3_3  and  C6_6 
REMARK    4  A    between atoms: C9_9  and  C11_11 
REMARK    5  A    between atoms: C10_10  and  C11_11 
ROOT
HETATM    1  C4  UNL     1     -34.964   6.046   6.283  1.00 20.00     0.022 A 
HETATM    2  C5  UNL     1     -34.398   7.145   5.457  1.00 20.00     0.020 A 
HETATM    3  C6  UNL     1     -34.911   5.917   4.786  1.00 20.00     0.063 A 
ENDROOT
BRANCH   2   4
HETATM    4  C1  UNL     1     -32.926   7.380   5.535  1.00 20.00    -0.025 C 
HETATM    5  C2  UNL     1     -32.262   8.232   4.740  1.00 20.00    -0.030 C 
BRANCH   5   6
HETATM    6  C9  UNL     1     -32.919   9.057   3.670  1.00 20.00     0.027 C 
BRANCH   6   7
HETATM    7  C11 UNL     1     -32.502   8.642   2.256  1.00 20.00     0.003 C 
BRANCH   7   8
HETATM    8  C10 UNL     1     -32.879   9.675   1.191  1.00 20.00    -0.004 C 
HETATM    9  C8  UNL     1     -32.852   9.070  -0.204  1.00 20.00     0.005 C 
ENDBRANCH   7   8
ENDBRANCH   6   7
ENDBRANCH   5   6
ENDBRANCH   2   4
BRANCH   3  10
HETATM   10  C3  UNL     1     -34.024   4.914   4.183  1.00 20.00     0.128 C 
HETATM   11  C7  UNL     1     -33.329   5.307   2.906  1.00 20.00     0.091 C 
HETATM   12  O12 UNL     1     -33.854   3.809   4.696  1.00 20.00    -0.298 OA
ENDBRANCH   3  10
TORSDOF 5
ENDMDL
MODEL 2
REMARK VINA RESULT:      -4.4     11.570     12.441
REMARK  5 active torsions:
REMARK  status: ('A' for Active; 'I' for Inactive)
REMARK    1  A    between atoms: C1_1  and  C5_5 
REMARK    2  A    between atoms: C2_2  and  C9_9 
REMARK    3  A    between atoms: C3_3  and  C6_6 
REMARK    4  A    between atoms: C9_9  and  C11_11 
REMARK    5  A    between atoms: C10_10  and  C11_11 
ROOT
HETATM    1  C4  UNL     1     -32.703  14.620  -4.325  1.00 20.00     0.022 A 
HETATM    2  C5  UNL     1     -33.655  15.423  -3.515  1.00 20.00     0.020 A 
HETATM    3  C6  UNL     1     -34.181  14.529  -4.586  1.00 20.00     0.063 A 
ENDROOT
BRANCH   2   4
HETATM    4  C1  UNL     1     -33.663  16.901  -3.721  1.00 20.00    -0.025 C 
HETATM    5  C2  UNL     1     -33.662  17.795  -2.720  1.00 20.00    -0.030 C 
BRANCH   5   6
HETATM    6  C9  UNL     1     -33.654  17.419  -1.266  1.00 20.00     0.027 C 
BRANCH   6   7
HETATM    7  C11 UNL     1     -33.012  18.488  -0.376  1.00 20.00     0.003 C 
BRANCH   7   8
HETATM    8  C10 UNL     1     -31.483  18.482  -0.438  1.00 20.00    -0.004 C 
HETATM    9  C8  UNL     1     -30.872  18.457   0.954  1.00 20.00     0.005 C 
ENDBRANCH   7   8
ENDBRANCH   6   7
ENDBRANCH   5   6
ENDBRANCH   2   4
BRANCH   3  10
HETATM   10  C3  UNL     1     -34.720  15.043  -5.852  1.00 20.00     0.128 C 
HETATM   11  C7  UNL     1     -36.123  15.586  -5.819  1.00 20.00     0.091 C 
HETATM   12  O12 UNL     1     -34.056  15.032  -6.888  1.00 20.00    -0.298 OA
ENDBRANCH   3  10
TORSDOF 5
ENDMDL
MODEL 3
REMARK VINA RESULT:      -4.3      2.069      5.054
REMARK  5 active torsions:
REMARK  status: ('A' for Active; 'I' for Inactive)
REMARK    1  A    between atoms: C1_1  and  C5_5 
REMARK    2  A    between atoms: C2_2  and  C9_9 
REMARK    3  A    between atoms: C3_3  and  C6_6 
REMARK    4  A    between atoms: C9_9  and  C11_11 
REMARK    5  A    between atoms: C10_10  and  C11_11 
ROOT
HETATM    1  C4  UNL     1     -33.129   8.146   3.651  1.00 20.00     0.022 A 
HETATM    2  C5  UNL     1     -32.290   6.968   3.311  1.00 20.00     0.020 A 
HETATM    3  C6  UNL     1     -31.949   8.299   2.733  1.00 20.00     0.063 A 
ENDROOT
BRANCH   2   4
HETATM    4  C1  UNL     1     -32.892   5.919   2.436  1.00 20.00    -0.025 C 
HETATM    5  C2  UNL     1     -33.525   4.831   2.902  1.00 20.00    -0.030 C 
BRANCH   5   6
HETATM    6  C9  UNL     1     -33.706   4.533   4.362  1.00 20.00     0.027 C 
BRANCH   6   7
HETATM    7  C11 UNL     1     -34.953   5.195   4.957  1.00 20.00     0.003 C 
BRANCH   7   8
HETATM    8  C10 UNL     1     -34.778   5.596   6.424  1.00 20.00    -0.004 C 
HETATM    9  C8  UNL     1     -34.131   6.967   6.550  1.00 20.00     0.005 C 
ENDBRANCH   7   8
ENDBRANCH   6   7
ENDBRANCH   5   6
ENDBRANCH   2   4
BRANCH   3  10
HETATM   10  C3  UNL     1     -32.176   8.631   1.320  1.00 20.00     0.128 C 
HETATM   11  C7  UNL     1     -33.049   9.825   1.038  1.00 20.00     0.091 C 
HETATM   12  O12 UNL     1     -31.675   7.969   0.413  1.00 20.00    -0.298 OA
ENDBRANCH   3  10
TORSDOF 5
ENDMDL
MODEL 4
REMARK VINA RESULT:      -4.1      2.181      4.784
REMARK  5 active torsions:
REMARK  status: ('A' for Active; 'I' for Inactive)
REMARK    1  A    between atoms: C1_1  and  C5_5 
REMARK    2  A    between atoms: C2_2  and  C9_9 
REMARK    3  A    between atoms: C3_3  and  C6_6 
REMARK    4  A    between atoms: C9_9  and  C11_11 
REMARK    5  A    between atoms: C10_10  and  C11_11 
ROOT
HETATM    1  C4  UNL     1     -31.247   7.818   3.330  1.00 20.00     0.022 A 
HETATM    2  C5  UNL     1     -32.647   7.392   3.590  1.00 20.00     0.020 A 
HETATM    3  C6  UNL     1     -32.239   7.753   2.202  1.00 20.00     0.063 A 
ENDROOT
BRANCH   2   4
HETATM    4  C1  UNL     1     -33.520   8.321   4.366  1.00 20.00    -0.025 C 
HETATM    5  C2  UNL     1     -33.962   8.069   5.608  1.00 20.00    -0.030 C 
BRANCH   5   6
HETATM    6  C9  UNL     1     -33.633   6.819   6.372  1.00 20.00     0.027 C 
BRANCH   6   7
HETATM    7  C11 UNL     1     -34.776   5.799   6.369  1.00 20.00     0.003 C 
BRANCH   7   8
HETATM    8  C10 UNL     1     -35.137   5.306   4.965  1.00 20.00    -0.004 C 
HETATM    9  C8  UNL     1     -34.062   4.385   4.409  1.00 20.00     0.005 C 
ENDBRANCH   7   8
ENDBRANCH   6   7
ENDBRANCH   5   6
ENDBRANCH   2   4
BRANCH   3  10
HETATM   10  C3  UNL     1     -32.668   8.997   1.550  1.00 20.00     0.128 C 
HETATM   11  C7  UNL     1     -32.720   8.988   0.045  1.00 20.00     0.091 C 
HETATM   12  O12 UNL     1     -32.972   9.996   2.200  1.00 20.00    -0.298 OA
ENDBRANCH   3  10
TORSDOF 5
ENDMDL
MODEL 5
REMARK VINA RESULT:      -4.0     11.839     13.029
REMARK  5 active torsions:
REMARK  status: ('A' for Active; 'I' for Inactive)
REMARK    1  A    between atoms: C1_1  and  C5_5 
REMARK    2  A    between atoms: C2_2  and  C9_9 
REMARK    3  A    between atoms: C3_3  and  C6_6 
REMARK    4  A    between atoms: C9_9  and  C11_11 
REMARK    5  A    between atoms: C10_10  and  C11_11 
ROOT
HETATM    1  C4  UNL     1     -35.693  17.229  -5.047  1.00 20.00     0.022 A 
HETATM    2  C5  UNL     1     -34.238  17.243  -4.747  1.00 20.00     0.020 A 
HETATM    3  C6  UNL     1     -34.699  16.853  -6.110  1.00 20.00     0.063 A 
ENDROOT
BRANCH   2   4
HETATM    4  C1  UNL     1     -33.713  16.197  -3.821  1.00 20.00    -0.025 C 
HETATM    5  C2  UNL     1     -33.234  16.457  -2.594  1.00 20.00    -0.030 C 
BRANCH   5   6
HETATM    6  C9  UNL     1     -33.167  17.834  -2.000  1.00 20.00     0.027 C 
BRANCH   6   7
HETATM    7  C11 UNL     1     -33.714  17.896  -0.571  1.00 20.00     0.003 C 
BRANCH   7   8
HETATM    8  C10 UNL     1     -32.707  18.462   0.433  1.00 20.00    -0.004 C 
HETATM    9  C8  UNL     1     -31.348  18.685  -0.211  1.00 20.00     0.005 C 
ENDBRANCH   7   8
ENDBRANCH   6   7
ENDBRANCH   5   6
ENDBRANCH   2   4
BRANCH   3  10
HETATM   10  C3  UNL     1     -34.654  15.467  -6.595  1.00 20.00     0.128 C 
HETATM   11  C7  UNL     1     -35.870  14.620  -6.332  1.00 20.00     0.091 C 
HETATM   12  O12 UNL     1     -33.673  15.023  -7.189  1.00 20.00    -0.298 OA
ENDBRANCH   3  10
TORSDOF 5
ENDMDL
MODEL 6
REMARK VINA RESULT:      -4.0     11.658     13.143
REMARK  5 active torsions:
REMARK  status: ('A' for Active; 'I' for Inactive)
REMARK    1  A    between atoms: C1_1  and  C5_5 
REMARK    2  A    between atoms: C2_2  and  C9_9 
REMARK    3  A    between atoms: C3_3  and  C6_6 
REMARK    4  A    between atoms: C9_9  and  C11_11 
REMARK    5  A    between atoms: C10_10  and  C11_11 
ROOT
HETATM    1  C4  UNL     1     -33.323  18.619  -4.012  1.00 20.00     0.022 A 
HETATM    2  C5  UNL     1     -34.092  17.462  -3.485  1.00 20.00     0.020 A 
HETATM    3  C6  UNL     1     -33.855  18.643  -2.606  1.00 20.00     0.063 A 
ENDROOT
BRANCH   2   4
HETATM    4  C1  UNL     1     -33.345  16.194  -3.230  1.00 20.00    -0.025 C 
HETATM    5  C2  UNL     1     -33.568  15.050  -3.895  1.00 20.00    -0.030 C 
BRANCH   5   6
HETATM    6  C9  UNL     1     -34.597  14.902  -4.978  1.00 20.00     0.027 C 
BRANCH   6   7
HETATM    7  C11 UNL     1     -34.021  15.117  -6.382  1.00 20.00     0.003 C 
BRANCH   7   8
HETATM    8  C10 UNL     1     -34.542  16.389  -7.056  1.00 20.00    -0.004 C 
HETATM    9  C8  UNL     1     -35.958  16.714  -6.608  1.00 20.00     0.005 C 
ENDBRANCH   7   8
ENDBRANCH   6   7
ENDBRANCH   5   6
ENDBRANCH   2   4
BRANCH   3  10
HETATM   10  C3  UNL     1     -32.912  18.616  -1.481  1.00 20.00     0.128 C 
HETATM   11  C7  UNL     1     -33.434  18.083  -0.173  1.00 20.00     0.091 C 
HETATM   12  O12 UNL     1     -31.752  19.007  -1.601  1.00 20.00    -0.298 OA
ENDBRANCH   3  10
TORSDOF 5
ENDMDL
MODEL 7
REMARK VINA RESULT:      -3.8     11.292     13.144
REMARK  5 active torsions:
REMARK  status: ('A' for Active; 'I' for Inactive)
REMARK    1  A    between atoms: C1_1  and  C5_5 
REMARK    2  A    between atoms: C2_2  and  C9_9 
REMARK    3  A    between atoms: C3_3  and  C6_6 
REMARK    4  A    between atoms: C9_9  and  C11_11 
REMARK    5  A    between atoms: C10_10  and  C11_11 
ROOT
HETATM    1  C4  UNL     1     -35.276  16.573  -7.287  1.00 20.00     0.022 A 
HETATM    2  C5  UNL     1     -34.534  17.151  -6.137  1.00 20.00     0.020 A 
HETATM    3  C6  UNL     1     -34.532  15.674  -6.339  1.00 20.00     0.063 A 
ENDROOT
BRANCH   2   4
HETATM    4  C1  UNL     1     -35.334  17.739  -5.023  1.00 20.00    -0.025 C 
HETATM    5  C2  UNL     1     -34.853  17.952  -3.788  1.00 20.00    -0.030 C 
BRANCH   5   6
HETATM    6  C9  UNL     1     -33.447  17.623  -3.373  1.00 20.00     0.027 C 
BRANCH   6   7
HETATM    7  C11 UNL     1     -33.373  16.947  -2.000  1.00 20.00     0.003 C 
BRANCH   7   8
HETATM    8  C10 UNL     1     -33.229  17.944  -0.848  1.00 20.00    -0.004 C 
HETATM    9  C8  UNL     1     -31.803  18.462  -0.738  1.00 20.00     0.005 C 
ENDBRANCH   7   8
ENDBRANCH   6   7
ENDBRANCH   5   6
ENDBRANCH   2   4
BRANCH   3  10
HETATM   10  C3  UNL     1     -35.286  14.755  -5.477  1.00 20.00     0.128 C 
HETATM   11  C7  UNL     1     -34.562  14.204  -4.278  1.00 20.00     0.091 C 
HETATM   12  O12 UNL     1     -36.453  14.453  -5.721  1.00 20.00    -0.298 OA
ENDBRANCH   3  10
TORSDOF 5
ENDMDL
MODEL 8
REMARK VINA RESULT:      -3.8      1.224      1.973
REMARK  5 active torsions:
REMARK  status: ('A' for Active; 'I' for Inactive)
REMARK    1  A    between atoms: C1_1  and  C5_5 
REMARK    2  A    between atoms: C2_2  and  C9_9 
REMARK    3  A    between atoms: C3_3  and  C6_6 
REMARK    4  A    between atoms: C9_9  and  C11_11 
REMARK    5  A    between atoms: C10_10  and  C11_11 
ROOT
HETATM    1  C4  UNL     1     -34.068   8.116   5.946  1.00 20.00     0.022 A 
HETATM    2  C5  UNL     1     -33.560   8.200   4.552  1.00 20.00     0.020 A 
HETATM    3  C6  UNL     1     -34.602   7.188   4.891  1.00 20.00     0.063 A 
ENDROOT
BRANCH   2   4
HETATM    4  C1  UNL     1     -32.158   7.756   4.299  1.00 20.00    -0.025 C 
HETATM    5  C2  UNL     1     -31.698   7.382   3.096  1.00 20.00    -0.030 C 
BRANCH   5   6
HETATM    6  C9  UNL     1     -32.539   7.363   1.851  1.00 20.00     0.027 C 
BRANCH   6   7
HETATM    7  C11 UNL     1     -31.913   8.150   0.696  1.00 20.00     0.003 C 
BRANCH   7   8
HETATM    8  C10 UNL     1     -32.745   9.365   0.277  1.00 20.00    -0.004 C 
HETATM    9  C8  UNL     1     -33.099  10.233   1.474  1.00 20.00     0.005 C 
ENDBRANCH   7   8
ENDBRANCH   6   7
ENDBRANCH   5   6
ENDBRANCH   2   4
BRANCH   3  10
HETATM   10  C3  UNL     1     -34.310   5.752   4.983  1.00 20.00     0.128 C 
HETATM   11  C7  UNL     1     -34.382   5.133   6.353  1.00 20.00     0.091 C 
HETATM   12  O12 UNL     1     -34.024   5.087   3.989  1.00 20.00    -0.298 OA
ENDBRANCH   3  10
TORSDOF 5
ENDMDL
MODEL 9
REMARK VINA RESULT:      -3.7     10.487     11.523
REMARK  5 active torsions:
REMARK  status: ('A' for Active; 'I' for Inactive)
REMARK    1  A    between atoms: C1_1  and  C5_5 
REMARK    2  A    between atoms: C2_2  and  C9_9 
REMARK    3  A    between atoms: C3_3  and  C6_6 
REMARK    4  A    between atoms: C9_9  and  C11_11 
REMARK    5  A    between atoms: C10_10  and  C11_11 
ROOT
HETATM    1  C4  UNL     1     -40.368  15.067   9.555  1.00 20.00     0.022 A 
HETATM    2  C5  UNL     1     -40.461  14.480   8.193  1.00 20.00     0.020 A 
HETATM    3  C6  UNL     1     -40.446  15.963   8.351  1.00 20.00     0.063 A 
ENDROOT
BRANCH   2   4
HETATM    4  C1  UNL     1     -41.733  13.793   7.822  1.00 20.00    -0.025 C 
HETATM    5  C2  UNL     1     -41.896  13.079   6.698  1.00 20.00    -0.030 C 
BRANCH   5   6
HETATM    6  C9  UNL     1     -40.818  12.882   5.671  1.00 20.00     0.027 C 
BRANCH   6   7
HETATM    7  C11 UNL     1     -39.708  11.937   6.145  1.00 20.00     0.003 C 
BRANCH   7   8
HETATM    8  C10 UNL     1     -38.499  11.915   5.207  1.00 20.00    -0.004 C 
HETATM    9  C8  UNL     1     -38.921  11.696   3.762  1.00 20.00     0.005 C 
ENDBRANCH   7   8
ENDBRANCH   6   7
ENDBRANCH   5   6
ENDBRANCH   2   4
BRANCH   3  10
HETATM   10  C3  UNL     1     -41.641  16.793   8.149  1.00 20.00     0.128 C 
HETATM   11  C7  UNL     1     -41.907  17.266   6.745  1.00 20.00     0.091 C 
HETATM   12  O12 UNL     1     -42.389  17.085   9.081  1.00 20.00    -0.298 OA
ENDBRANCH   3  10
TORSDOF 5
ENDMDL
