MODEL 1
REMARK VINA RESULT:      -4.0      0.000      0.000
REMARK  1 active torsions:
REMARK  status: ('A' for Active; 'I' for Inactive)
REMARK    1  A    between atoms: C1_1  and  C6_6 
ROOT
HETATM    1  C1  UNL     1     -32.570   7.685   2.267  1.00 20.00    -0.100 C 
HETATM    2  C2  UNL     1     -32.501   8.464   1.355  1.00 20.00    -0.111 C 
HETATM    3  C7  UNL     1     -32.417   9.413   0.247  1.00 20.00     0.112 C 
ENDROOT
BRANCH   1   4
HETATM    4  C6  UNL     1     -32.654   6.735   3.377  1.00 20.00     0.090 C 
HETATM    5  C4  UNL     1     -33.613   7.183   4.461  1.00 20.00     0.072 C 
HETATM    6  C3  UNL     1     -34.055   5.844   4.962  1.00 20.00     0.004 C 
HETATM    7  C8  UNL     1     -34.719   5.712   6.294  1.00 20.00     0.065 C 
HETATM    8  N9  UNL     1     -33.866   4.829   4.175  1.00 20.00    -0.297 NA
HETATM    9  C5  UNL     1     -33.238   5.391   2.961  1.00 20.00     0.166 C 
ENDBRANCH   1   4
TORSDOF 1
ENDMDL
MODEL 2
REMARK VINA RESULT:      -3.9     12.096     12.685
REMARK  1 active torsions:
REMARK  status: ('A' for Active; 'I' for Inactive)
REMARK    1  A    between atoms: C1_1  and  C6_6 
ROOT
HETATM    1  C1  UNL     1     -30.744  18.966   1.556  1.00 20.00    -0.100 C 
HETATM    2  C2  UNL     1     -29.892  18.870   2.396  1.00 20.00    -0.111 C 
HETATM    3  C7  UNL     1     -28.854  18.751   3.419  1.00 20.00     0.112 C 
ENDROOT
BRANCH   1   4
HETATM    4  C6  UNL     1     -31.785  19.085   0.533  1.00 20.00     0.090 C 
HETATM    5  C4  UNL     1     -31.496  18.247  -0.696  1.00 20.00     0.072 C 
HETATM    6  C3  UNL     1     -32.900  17.958  -1.127  1.00 20.00     0.004 C 
HETATM    7  C8  UNL     1     -33.187  17.480  -2.513  1.00 20.00     0.065 C 
HETATM    8  N9  UNL     1     -33.832  18.108  -0.236  1.00 20.00    -0.297 NA
HETATM    9  C5  UNL     1     -33.130  18.538   0.992  1.00 20.00     0.166 C 
ENDBRANCH   1   4
TORSDOF 1
ENDMDL
MODEL 3
REMARK VINA RESULT:      -3.9     11.705     12.188
REMARK  1 active torsions:
REMARK  status: ('A' for Active; 'I' for Inactive)
REMARK    1  A    between atoms: C1_1  and  C6_6 
ROOT
HETATM    1  C1  UNL     1     -32.924  17.488  -1.832  1.00 20.00    -0.100 C 
HETATM    2  C2  UNL     1     -33.259  16.668  -2.643  1.00 20.00    -0.111 C 
HETATM    3  C7  UNL     1     -33.667  15.671  -3.630  1.00 20.00     0.112 C 
ENDROOT
BRANCH   1   4
HETATM    4  C6  UNL     1     -32.516  18.487  -0.842  1.00 20.00     0.090 C 
HETATM    5  C4  UNL     1     -33.218  18.315   0.489  1.00 20.00     0.072 C 
HETATM    6  C3  UNL     1     -32.154  18.851   1.395  1.00 20.00     0.004 C 
HETATM    7  C8  UNL     1     -32.483  19.263   2.793  1.00 20.00     0.065 C 
HETATM    8  N9  UNL     1     -30.947  18.903   0.920  1.00 20.00    -0.297 NA
HETATM    9  C5  UNL     1     -31.047  18.367  -0.454  1.00 20.00     0.166 C 
ENDBRANCH   1   4
TORSDOF 1
ENDMDL
MODEL 4
REMARK VINA RESULT:      -3.8     12.222     12.798
REMARK  1 active torsions:
REMARK  status: ('A' for Active; 'I' for Inactive)
REMARK    1  A    between atoms: C1_1  and  C6_6 
ROOT
HETATM    1  C1  UNL     1     -29.403  18.839   3.016  1.00 20.00    -0.100 C 
HETATM    2  C2  UNL     1     -28.524  18.492   3.758  1.00 20.00    -0.111 C 
HETATM    3  C7  UNL     1     -27.456  18.069   4.661  1.00 20.00     0.112 C 
ENDROOT
BRANCH   1   4
HETATM    4  C6  UNL     1     -30.474  19.263   2.112  1.00 20.00     0.090 C 
HETATM    5  C4  UNL     1     -30.676  18.307   0.954  1.00 20.00     0.072 C 
HETATM    6  C3  UNL     1     -32.139  18.516   0.720  1.00 20.00     0.004 C 
HETATM    7  C8  UNL     1     -32.772  18.093  -0.565  1.00 20.00     0.065 C 
HETATM    8  N9  UNL     1     -32.821  19.041   1.692  1.00 20.00    -0.297 NA
HETATM    9  C5  UNL     1     -31.844  19.262   2.778  1.00 20.00     0.166 C 
ENDBRANCH   1   4
TORSDOF 1
ENDMDL
MODEL 5
REMARK VINA RESULT:      -3.7     15.692     16.298
REMARK  1 active torsions:
REMARK  status: ('A' for Active; 'I' for Inactive)
REMARK    1  A    between atoms: C1_1  and  C6_6 
ROOT
HETATM    1  C1  UNL     1     -24.976  19.261   7.997  1.00 20.00    -0.100 C 
HETATM    2  C2  UNL     1     -25.893  19.260   7.222  1.00 20.00    -0.111 C 
HETATM    3  C7  UNL     1     -27.009  19.259   6.279  1.00 20.00     0.112 C 
ENDROOT
BRANCH   1   4
HETATM    4  C6  UNL     1     -23.857  19.263   8.942  1.00 20.00     0.090 C 
HETATM    5  C4  UNL     1     -24.266  18.829  10.335  1.00 20.00     0.072 C 
HETATM    6  C3  UNL     1     -22.977  18.217  10.786  1.00 20.00     0.004 C 
HETATM    7  C8  UNL     1     -22.718  17.973  12.237  1.00 20.00     0.065 C 
HETATM    8  N9  UNL     1     -22.129  17.883   9.862  1.00 20.00    -0.297 NA
HETATM    9  C5  UNL     1     -22.782  18.244   8.586  1.00 20.00     0.166 C 
ENDBRANCH   1   4
TORSDOF 1
ENDMDL
MODEL 6
REMARK VINA RESULT:      -3.6     11.558     12.593
REMARK  1 active torsions:
REMARK  status: ('A' for Active; 'I' for Inactive)
REMARK    1  A    between atoms: C1_1  and  C6_6 
ROOT
HETATM    1  C1  UNL     1     -33.270  16.894  -2.500  1.00 20.00    -0.100 C 
HETATM    2  C2  UNL     1     -32.688  17.585  -1.709  1.00 20.00    -0.111 C 
HETATM    3  C7  UNL     1     -31.981  18.426  -0.747  1.00 20.00     0.112 C 
ENDROOT
BRANCH   1   4
HETATM    4  C6  UNL     1     -33.979  16.051  -3.465  1.00 20.00     0.090 C 
HETATM    5  C4  UNL     1     -34.600  16.847  -4.595  1.00 20.00     0.072 C 
HETATM    6  C3  UNL     1     -34.533  15.819  -5.680  1.00 20.00     0.004 C 
HETATM    7  C8  UNL     1     -35.366  15.960  -6.913  1.00 20.00     0.065 C 
HETATM    8  N9  UNL     1     -33.701  14.837  -5.512  1.00 20.00    -0.297 NA
HETATM    9  C5  UNL     1     -33.052  15.097  -4.209  1.00 20.00     0.166 C 
ENDBRANCH   1   4
TORSDOF 1
ENDMDL
MODEL 7
REMARK VINA RESULT:      -3.6     11.850     12.692
REMARK  1 active torsions:
REMARK  status: ('A' for Active; 'I' for Inactive)
REMARK    1  A    between atoms: C1_1  and  C6_6 
ROOT
HETATM    1  C1  UNL     1     -33.116  17.850  -1.703  1.00 20.00    -0.100 C 
HETATM    2  C2  UNL     1     -32.989  18.130  -0.542  1.00 20.00    -0.111 C 
HETATM    3  C7  UNL     1     -32.835  18.471   0.871  1.00 20.00     0.112 C 
ENDROOT
BRANCH   1   4
HETATM    4  C6  UNL     1     -33.269  17.508  -3.118  1.00 20.00     0.090 C 
HETATM    5  C4  UNL     1     -33.354  16.014  -3.355  1.00 20.00     0.072 C 
HETATM    6  C3  UNL     1     -34.214  16.012  -4.579  1.00 20.00     0.004 C 
HETATM    7  C8  UNL     1     -34.291  14.802  -5.452  1.00 20.00     0.065 C 
HETATM    8  N9  UNL     1     -34.905  17.085  -4.816  1.00 20.00    -0.297 NA
HETATM    9  C5  UNL     1     -34.583  18.007  -3.707  1.00 20.00     0.166 C 
ENDBRANCH   1   4
TORSDOF 1
ENDMDL
MODEL 8
REMARK VINA RESULT:      -3.6     11.829     12.837
REMARK  1 active torsions:
REMARK  status: ('A' for Active; 'I' for Inactive)
REMARK    1  A    between atoms: C1_1  and  C6_6 
ROOT
HETATM    1  C1  UNL     1     -32.850  17.687  -1.570  1.00 20.00    -0.100 C 
HETATM    2  C2  UNL     1     -32.066  18.229  -0.838  1.00 20.00    -0.111 C 
HETATM    3  C7  UNL     1     -31.113  18.889   0.051  1.00 20.00     0.112 C 
ENDROOT
BRANCH   1   4
HETATM    4  C6  UNL     1     -33.804  17.026  -2.461  1.00 20.00     0.090 C 
HETATM    5  C4  UNL     1     -34.520  17.997  -3.378  1.00 20.00     0.072 C 
HETATM    6  C3  UNL     1     -34.757  17.095  -4.548  1.00 20.00     0.004 C 
HETATM    7  C8  UNL     1     -35.771  17.449  -5.587  1.00 20.00     0.065 C 
HETATM    8  N9  UNL     1     -34.022  16.029  -4.628  1.00 20.00    -0.297 NA
HETATM    9  C5  UNL     1     -33.132  16.081  -3.449  1.00 20.00     0.166 C 
ENDBRANCH   1   4
TORSDOF 1
ENDMDL
MODEL 9
REMARK VINA RESULT:      -3.4     12.164     12.935
REMARK  1 active torsions:
REMARK  status: ('A' for Active; 'I' for Inactive)
REMARK    1  A    between atoms: C1_1  and  C6_6 
ROOT
HETATM    1  C1  UNL     1     -34.172  16.840  -4.335  1.00 20.00    -0.100 C 
HETATM    2  C2  UNL     1     -34.371  16.071  -5.236  1.00 20.00    -0.111 C 
HETATM    3  C7  UNL     1     -34.613  15.137  -6.334  1.00 20.00     0.112 C 
ENDROOT
BRANCH   1   4
HETATM    4  C6  UNL     1     -33.930  17.776  -3.236  1.00 20.00     0.090 C 
HETATM    5  C4  UNL     1     -33.291  17.115  -2.032  1.00 20.00     0.072 C 
HETATM    6  C3  UNL     1     -32.520  18.281  -1.497  1.00 20.00     0.004 C 
HETATM    7  C8  UNL     1     -32.010  18.275  -0.093  1.00 20.00     0.065 C 
HETATM    8  N9  UNL     1     -32.294  19.263  -2.315  1.00 20.00    -0.297 NA
HETATM    9  C5  UNL     1     -32.916  18.856  -3.592  1.00 20.00     0.166 C 
ENDBRANCH   1   4
TORSDOF 1
ENDMDL
