MODEL 1
REMARK VINA RESULT:      -4.0      0.000      0.000
REMARK  4 active torsions:
REMARK  status: ('A' for Active; 'I' for Inactive)
REMARK    1  A    between atoms: C5_5  and  N8_8 
REMARK    2  A    between atoms: C6_6  and  C7_7 
REMARK    3  A    between atoms: C6_6  and  N8_8 
REMARK    4  A    between atoms: C7_7  and  O9_9 
ROOT
HETATM    1  C1  UNL     1     -32.905   4.989   2.440  1.00 20.00     0.013 C 
HETATM    2  C2  UNL     1     -32.645   6.125   2.730  1.00 20.00    -0.087 C 
HETATM    3  C5  UNL     1     -32.327   7.512   3.077  1.00 20.00     0.364 C 
ENDROOT
BRANCH   3   4
HETATM    4  N8  UNL     1     -32.525   7.744   4.508  1.00 20.00     0.097 N 
HETATM    5  C3  UNL     1     -32.254   9.143   4.840  1.00 20.00     0.311 C 
BRANCH   4   6
HETATM    6  C6  UNL     1     -33.885   7.379   4.902  1.00 20.00     0.299 C 
BRANCH   6   7
HETATM    7  C7  UNL     1     -33.905   7.006   6.373  1.00 20.00     0.197 C 
BRANCH   7   8
HETATM    8  O9  UNL     1     -34.282   5.641   6.509  1.00 20.00    -0.394 OA
HETATM    9  C4  UNL     1     -34.997   5.184   5.369  1.00 20.00     0.201 C 
ENDBRANCH   7   8
ENDBRANCH   6   7
ENDBRANCH   4   6
ENDBRANCH   3   4
TORSDOF 4
ENDMDL
MODEL 2
REMARK VINA RESULT:      -3.6     12.644     13.647
REMARK  4 active torsions:
REMARK  status: ('A' for Active; 'I' for Inactive)
REMARK    1  A    between atoms: C5_5  and  N8_8 
REMARK    2  A    between atoms: C6_6  and  C7_7 
REMARK    3  A    between atoms: C6_6  and  N8_8 
REMARK    4  A    between atoms: C7_7  and  O9_9 
ROOT
HETATM    1  C1  UNL     1     -33.569  17.328  -1.386  1.00 20.00     0.013 C 
HETATM    2  C2  UNL     1     -33.433  16.712  -2.407  1.00 20.00    -0.087 C 
HETATM    3  C5  UNL     1     -33.262  15.958  -3.652  1.00 20.00     0.364 C 
ENDROOT
BRANCH   3   4
HETATM    4  N8  UNL     1     -34.414  16.148  -4.533  1.00 20.00     0.097 N 
HETATM    5  C3  UNL     1     -34.423  17.507  -5.075  1.00 20.00     0.311 C 
BRANCH   4   6
HETATM    6  C6  UNL     1     -34.397  15.165  -5.615  1.00 20.00     0.299 C 
BRANCH   6   7
HETATM    7  C7  UNL     1     -35.765  14.518  -5.736  1.00 20.00     0.197 C 
BRANCH   7   8
HETATM    8  O9  UNL     1     -36.060  14.291  -7.108  1.00 20.00    -0.394 OA
HETATM    9  C4  UNL     1     -35.813  15.450  -7.892  1.00 20.00     0.201 C 
ENDBRANCH   7   8
ENDBRANCH   6   7
ENDBRANCH   4   6
ENDBRANCH   3   4
TORSDOF 4
ENDMDL
MODEL 3
REMARK VINA RESULT:      -3.4      1.877      3.042
REMARK  4 active torsions:
REMARK  status: ('A' for Active; 'I' for Inactive)
REMARK    1  A    between atoms: C5_5  and  N8_8 
REMARK    2  A    between atoms: C6_6  and  C7_7 
REMARK    3  A    between atoms: C6_6  and  N8_8 
REMARK    4  A    between atoms: C7_7  and  O9_9 
ROOT
HETATM    1  C1  UNL     1     -32.884   5.154   2.454  1.00 20.00     0.013 C 
HETATM    2  C2  UNL     1     -33.592   5.004   3.411  1.00 20.00    -0.087 C 
HETATM    3  C5  UNL     1     -34.457   4.816   4.579  1.00 20.00     0.364 C 
ENDROOT
BRANCH   3   4
HETATM    4  N8  UNL     1     -34.783   6.103   5.193  1.00 20.00     0.097 N 
HETATM    5  C3  UNL     1     -34.461   6.084   6.620  1.00 20.00     0.311 C 
BRANCH   4   6
HETATM    6  C6  UNL     1     -34.066   7.186   4.521  1.00 20.00     0.299 C 
BRANCH   6   7
HETATM    7  C7  UNL     1     -33.291   7.995   5.546  1.00 20.00     0.197 C 
BRANCH   7   8
HETATM    8  O9  UNL     1     -32.266   8.730   4.890  1.00 20.00    -0.394 OA
HETATM    9  C4  UNL     1     -32.409   8.674   3.477  1.00 20.00     0.201 C 
ENDBRANCH   7   8
ENDBRANCH   6   7
ENDBRANCH   4   6
ENDBRANCH   3   4
TORSDOF 4
ENDMDL
MODEL 4
REMARK VINA RESULT:      -3.4      1.729      3.220
REMARK  4 active torsions:
REMARK  status: ('A' for Active; 'I' for Inactive)
REMARK    1  A    between atoms: C5_5  and  N8_8 
REMARK    2  A    between atoms: C6_6  and  C7_7 
REMARK    3  A    between atoms: C6_6  and  N8_8 
REMARK    4  A    between atoms: C7_7  and  O9_9 
ROOT
HETATM    1  C1  UNL     1     -34.856   5.237   6.246  1.00 20.00     0.013 C 
HETATM    2  C2  UNL     1     -34.221   6.251   6.325  1.00 20.00    -0.087 C 
HETATM    3  C5  UNL     1     -33.444   7.489   6.427  1.00 20.00     0.364 C 
ENDROOT
BRANCH   3   4
HETATM    4  N8  UNL     1     -33.476   8.225   5.163  1.00 20.00     0.097 N 
HETATM    5  C3  UNL     1     -32.279   9.055   5.025  1.00 20.00     0.311 C 
BRANCH   4   6
HETATM    6  C6  UNL     1     -33.590   7.300   4.037  1.00 20.00     0.299 C 
BRANCH   6   7
HETATM    7  C7  UNL     1     -32.315   7.342   3.213  1.00 20.00     0.197 C 
BRANCH   7   8
HETATM    8  O9  UNL     1     -32.291   6.232   2.325  1.00 20.00    -0.394 OA
HETATM    9  C4  UNL     1     -33.123   5.177   2.787  1.00 20.00     0.201 C 
ENDBRANCH   7   8
ENDBRANCH   6   7
ENDBRANCH   4   6
ENDBRANCH   3   4
TORSDOF 4
ENDMDL
MODEL 5
REMARK VINA RESULT:      -3.4     12.471     13.184
REMARK  4 active torsions:
REMARK  status: ('A' for Active; 'I' for Inactive)
REMARK    1  A    between atoms: C5_5  and  N8_8 
REMARK    2  A    between atoms: C6_6  and  C7_7 
REMARK    3  A    between atoms: C6_6  and  N8_8 
REMARK    4  A    between atoms: C7_7  and  O9_9 
ROOT
HETATM    1  C1  UNL     1     -33.880  14.737  -4.433  1.00 20.00     0.013 C 
HETATM    2  C2  UNL     1     -33.571  15.590  -3.647  1.00 20.00    -0.087 C 
HETATM    3  C5  UNL     1     -33.193  16.627  -2.684  1.00 20.00     0.364 C 
ENDROOT
BRANCH   3   4
HETATM    4  N8  UNL     1     -33.176  17.943  -3.322  1.00 20.00     0.097 N 
HETATM    5  C3  UNL     1     -34.527  18.331  -3.726  1.00 20.00     0.311 C 
BRANCH   4   6
HETATM    6  C6  UNL     1     -32.605  18.941  -2.418  1.00 20.00     0.299 C 
BRANCH   6   7
HETATM    7  C7  UNL     1     -32.203  18.275  -1.114  1.00 20.00     0.197 C 
BRANCH   7   8
HETATM    8  O9  UNL     1     -30.945  18.786  -0.692  1.00 20.00    -0.394 OA
HETATM    9  C4  UNL     1     -30.969  19.163   0.677  1.00 20.00     0.201 C 
ENDBRANCH   7   8
ENDBRANCH   6   7
ENDBRANCH   4   6
ENDBRANCH   3   4
TORSDOF 4
ENDMDL
MODEL 6
REMARK VINA RESULT:      -3.4      1.112      2.788
REMARK  4 active torsions:
REMARK  status: ('A' for Active; 'I' for Inactive)
REMARK    1  A    between atoms: C5_5  and  N8_8 
REMARK    2  A    between atoms: C6_6  and  C7_7 
REMARK    3  A    between atoms: C6_6  and  N8_8 
REMARK    4  A    between atoms: C7_7  and  O9_9 
ROOT
HETATM    1  C1  UNL     1     -32.431   8.995   4.922  1.00 20.00     0.013 C 
HETATM    2  C2  UNL     1     -32.286   8.159   4.073  1.00 20.00    -0.087 C 
HETATM    3  C5  UNL     1     -32.103   7.140   3.037  1.00 20.00     0.364 C 
ENDROOT
BRANCH   3   4
HETATM    4  N8  UNL     1     -33.289   6.289   2.934  1.00 20.00     0.097 N 
HETATM    5  C3  UNL     1     -32.903   4.908   2.648  1.00 20.00     0.311 C 
BRANCH   4   6
HETATM    6  C6  UNL     1     -34.074   6.357   4.166  1.00 20.00     0.299 C 
BRANCH   6   7
HETATM    7  C7  UNL     1     -34.415   4.952   4.629  1.00 20.00     0.197 C 
BRANCH   7   8
HETATM    8  O9  UNL     1     -34.611   4.953   6.037  1.00 20.00    -0.394 OA
HETATM    9  C4  UNL     1     -34.386   6.242   6.591  1.00 20.00     0.201 C 
ENDBRANCH   7   8
ENDBRANCH   6   7
ENDBRANCH   4   6
ENDBRANCH   3   4
TORSDOF 4
ENDMDL
MODEL 7
REMARK VINA RESULT:      -3.3     12.106     12.827
REMARK  4 active torsions:
REMARK  status: ('A' for Active; 'I' for Inactive)
REMARK    1  A    between atoms: C5_5  and  N8_8 
REMARK    2  A    between atoms: C6_6  and  C7_7 
REMARK    3  A    between atoms: C6_6  and  N8_8 
REMARK    4  A    between atoms: C7_7  and  O9_9 
ROOT
HETATM    1  C1  UNL     1     -33.763  18.103  -0.210  1.00 20.00     0.013 C 
HETATM    2  C2  UNL     1     -33.597  17.444  -1.198  1.00 20.00    -0.087 C 
HETATM    3  C5  UNL     1     -33.392  16.635  -2.403  1.00 20.00     0.364 C 
ENDROOT
BRANCH   3   4
HETATM    4  N8  UNL     1     -34.084  17.228  -3.547  1.00 20.00     0.097 N 
HETATM    5  C3  UNL     1     -33.347  18.391  -4.043  1.00 20.00     0.311 C 
BRANCH   4   6
HETATM    6  C6  UNL     1     -34.253  16.238  -4.610  1.00 20.00     0.299 C 
BRANCH   6   7
HETATM    7  C7  UNL     1     -33.637  14.919  -4.179  1.00 20.00     0.197 C 
BRANCH   7   8
HETATM    8  O9  UNL     1     -34.625  13.897  -4.233  1.00 20.00    -0.394 OA
HETATM    9  C4  UNL     1     -35.683  14.243  -5.115  1.00 20.00     0.201 C 
ENDBRANCH   7   8
ENDBRANCH   6   7
ENDBRANCH   4   6
ENDBRANCH   3   4
TORSDOF 4
ENDMDL
MODEL 8
REMARK VINA RESULT:      -3.3      1.004      1.727
REMARK  4 active torsions:
REMARK  status: ('A' for Active; 'I' for Inactive)
REMARK    1  A    between atoms: C5_5  and  N8_8 
REMARK    2  A    between atoms: C6_6  and  C7_7 
REMARK    3  A    between atoms: C6_6  and  N8_8 
REMARK    4  A    between atoms: C7_7  and  O9_9 
ROOT
HETATM    1  C1  UNL     1     -32.839   9.424   1.533  1.00 20.00     0.013 C 
HETATM    2  C2  UNL     1     -32.548   8.507   2.249  1.00 20.00    -0.087 C 
HETATM    3  C5  UNL     1     -32.190   7.384   3.120  1.00 20.00     0.364 C 
ENDROOT
BRANCH   3   4
HETATM    4  N8  UNL     1     -32.510   7.690   4.515  1.00 20.00     0.097 N 
HETATM    5  C3  UNL     1     -32.247   9.100   4.801  1.00 20.00     0.311 C 
BRANCH   4   6
HETATM    6  C6  UNL     1     -33.904   7.360   4.804  1.00 20.00     0.299 C 
BRANCH   6   7
HETATM    7  C7  UNL     1     -34.032   6.913   6.249  1.00 20.00     0.197 C 
BRANCH   7   8
HETATM    8  O9  UNL     1     -34.583   5.602   6.290  1.00 20.00    -0.394 OA
HETATM    9  C4  UNL     1     -34.817   5.095   4.984  1.00 20.00     0.201 C 
ENDBRANCH   7   8
ENDBRANCH   6   7
ENDBRANCH   4   6
ENDBRANCH   3   4
TORSDOF 4
ENDMDL
MODEL 9
REMARK VINA RESULT:      -3.3      2.209      3.768
REMARK  4 active torsions:
REMARK  status: ('A' for Active; 'I' for Inactive)
REMARK    1  A    between atoms: C5_5  and  N8_8 
REMARK    2  A    between atoms: C6_6  and  C7_7 
REMARK    3  A    between atoms: C6_6  and  N8_8 
REMARK    4  A    between atoms: C7_7  and  O9_9 
ROOT
HETATM    1  C1  UNL     1     -34.939   5.137   5.865  1.00 20.00     0.013 C 
HETATM    2  C2  UNL     1     -34.342   6.169   6.004  1.00 20.00    -0.087 C 
HETATM    3  C5  UNL     1     -33.612   7.427   6.179  1.00 20.00     0.364 C 
ENDROOT
BRANCH   3   4
HETATM    4  N8  UNL     1     -33.420   8.096   4.892  1.00 20.00     0.097 N 
HETATM    5  C3  UNL     1     -32.347   9.087   4.986  1.00 20.00     0.311 C 
BRANCH   4   6
HETATM    6  C6  UNL     1     -33.123   7.118   3.847  1.00 20.00     0.299 C 
BRANCH   6   7
HETATM    7  C7  UNL     1     -31.914   7.576   3.051  1.00 20.00     0.197 C 
BRANCH   7   8
HETATM    8  O9  UNL     1     -32.225   7.550   1.663  1.00 20.00    -0.394 OA
HETATM    9  C4  UNL     1     -32.486   8.855   1.165  1.00 20.00     0.201 C 
ENDBRANCH   7   8
ENDBRANCH   6   7
ENDBRANCH   4   6
ENDBRANCH   3   4
TORSDOF 4
ENDMDL
