MODEL 1
REMARK VINA RESULT:      -4.0      0.000      0.000
REMARK  0 active torsions:
REMARK  status: ('A' for Active; 'I' for Inactive)
ROOT
HETATM    1  C1  UNL     1     -24.702  19.217   8.211  1.00 20.00     0.066 C 
HETATM    2  C2  UNL     1     -22.243  18.730  11.851  1.00 20.00     0.031 C 
HETATM    3  C3  UNL     1     -21.769  18.361  10.442  1.00 20.00     0.009 C 
HETATM    4  C4  UNL     1     -23.416  17.856  12.313  1.00 20.00     0.272 C 
HETATM    5  C5  UNL     1     -24.947  18.800  10.651  1.00 20.00     0.292 C 
HETATM    6  C6  UNL     1     -23.747  16.880  10.144  1.00 20.00     0.278 C 
HETATM    7  C7  UNL     1     -23.990  19.159   9.498  1.00 20.00     0.127 C 
HETATM    8  C8  UNL     1     -22.952  18.021   9.516  1.00 20.00     0.033 C 
HETATM    9  N9  UNL     1     -25.263  19.263   7.196  1.00 20.00    -0.197 NA
HETATM   10  N10 UNL     1     -24.418  17.560  11.266  1.00 20.00     0.090 N 
ENDROOT
TORSDOF 0
ENDMDL
MODEL 2
REMARK VINA RESULT:      -3.5     19.816     21.209
REMARK  0 active torsions:
REMARK  status: ('A' for Active; 'I' for Inactive)
ROOT
HETATM    1  C1  UNL     1     -29.330  -3.767  10.444  1.00 20.00     0.066 C 
HETATM    2  C2  UNL     1     -27.076  -0.193  11.738  1.00 20.00     0.031 C 
HETATM    3  C3  UNL     1     -27.586  -0.413  10.311  1.00 20.00     0.009 C 
HETATM    4  C4  UNL     1     -26.013  -1.225  12.137  1.00 20.00     0.272 C 
HETATM    5  C5  UNL     1     -27.612  -3.079  12.107  1.00 20.00     0.292 C 
HETATM    6  C6  UNL     1     -26.387  -2.591  10.198  1.00 20.00     0.278 C 
HETATM    7  C7  UNL     1     -28.617  -2.622  11.032  1.00 20.00     0.127 C 
HETATM    8  C8  UNL     1     -27.736  -1.912   9.986  1.00 20.00     0.033 C 
HETATM    9  N9  UNL     1     -29.893  -4.671   9.981  1.00 20.00    -0.197 NA
HETATM   10  N10 UNL     1     -26.280  -2.601  11.668  1.00 20.00     0.090 N 
ENDROOT
TORSDOF 0
ENDMDL
MODEL 3
REMARK VINA RESULT:      -3.5     23.135     24.383
REMARK  0 active torsions:
REMARK  status: ('A' for Active; 'I' for Inactive)
ROOT
HETATM    1  C1  UNL     1     -42.916   4.227   0.955  1.00 20.00     0.066 C 
HETATM    2  C2  UNL     1     -40.931   7.982  -0.268  1.00 20.00     0.031 C 
HETATM    3  C3  UNL     1     -40.776   7.343   1.116  1.00 20.00     0.009 C 
HETATM    4  C4  UNL     1     -42.368   8.449  -0.531  1.00 20.00     0.272 C 
HETATM    5  C5  UNL     1     -43.245   6.163  -0.572  1.00 20.00     0.292 C 
HETATM    6  C6  UNL     1     -43.247   7.355   1.418  1.00 20.00     0.278 C 
HETATM    7  C7  UNL     1     -42.288   5.433   0.390  1.00 20.00     0.127 C 
HETATM    8  C8  UNL     1     -41.999   6.480   1.482  1.00 20.00     0.033 C 
HETATM    9  N9  UNL     1     -43.410   3.276   1.400  1.00 20.00    -0.197 NA
HETATM   10  N10 UNL     1     -43.417   7.532  -0.035  1.00 20.00     0.090 N 
ENDROOT
TORSDOF 0
ENDMDL
MODEL 4
REMARK VINA RESULT:      -3.4     14.160     16.417
REMARK  0 active torsions:
REMARK  status: ('A' for Active; 'I' for Inactive)
ROOT
HETATM    1  C1  UNL     1     -33.597  18.144  -0.099  1.00 20.00     0.066 C 
HETATM    2  C2  UNL     1     -34.439  16.538  -4.130  1.00 20.00     0.031 C 
HETATM    3  C3  UNL     1     -33.127  16.308  -3.373  1.00 20.00     0.009 C 
HETATM    4  C4  UNL     1     -34.652  18.016  -4.481  1.00 20.00     0.272 C 
HETATM    5  C5  UNL     1     -34.922  18.672  -2.138  1.00 20.00     0.292 C 
HETATM    6  C6  UNL     1     -32.821  18.765  -3.119  1.00 20.00     0.278 C 
HETATM    7  C7  UNL     1     -34.039  17.640  -1.410  1.00 20.00     0.127 C 
HETATM    8  C8  UNL     1     -32.847  17.439  -2.365  1.00 20.00     0.033 C 
HETATM    9  N9  UNL     1     -33.249  18.541   0.935  1.00 20.00    -0.197 NA
HETATM   10  N10 UNL     1     -34.249  18.968  -3.424  1.00 20.00     0.090 N 
ENDROOT
TORSDOF 0
ENDMDL
MODEL 5
REMARK VINA RESULT:      -3.3     17.057     19.415
REMARK  0 active torsions:
REMARK  status: ('A' for Active; 'I' for Inactive)
ROOT
HETATM    1  C1  UNL     1     -33.620  16.354  -3.351  1.00 20.00     0.066 C 
HETATM    2  C2  UNL     1     -34.580  15.825  -7.633  1.00 20.00     0.031 C 
HETATM    3  C3  UNL     1     -34.458  17.188  -6.945  1.00 20.00     0.009 C 
HETATM    4  C4  UNL     1     -35.756  15.005  -7.086  1.00 20.00     0.272 C 
HETATM    5  C5  UNL     1     -34.716  14.732  -4.886  1.00 20.00     0.292 C 
HETATM    6  C6  UNL     1     -36.158  16.511  -5.259  1.00 20.00     0.278 C 
HETATM    7  C7  UNL     1     -33.882  16.022  -4.761  1.00 20.00     0.127 C 
HETATM    8  C8  UNL     1     -34.759  17.092  -5.437  1.00 20.00     0.033 C 
HETATM    9  N9  UNL     1     -33.412  16.616  -2.239  1.00 20.00    -0.197 NA
HETATM   10  N10 UNL     1     -35.948  15.098  -5.623  1.00 20.00     0.090 N 
ENDROOT
TORSDOF 0
ENDMDL
MODEL 6
REMARK VINA RESULT:      -3.3     19.446     20.730
REMARK  0 active torsions:
REMARK  status: ('A' for Active; 'I' for Inactive)
ROOT
HETATM    1  C1  UNL     1     -25.223  -2.866  10.082  1.00 20.00     0.066 C 
HETATM    2  C2  UNL     1     -29.010  -2.019  12.198  1.00 20.00     0.031 C 
HETATM    3  C3  UNL     1     -28.931  -2.544  10.761  1.00 20.00     0.009 C 
HETATM    4  C4  UNL     1     -28.415  -0.611  12.332  1.00 20.00     0.272 C 
HETATM    5  C5  UNL     1     -26.140  -1.384  11.857  1.00 20.00     0.292 C 
HETATM    6  C6  UNL     1     -27.480  -0.626  10.120  1.00 20.00     0.278 C 
HETATM    7  C7  UNL     1     -26.395  -2.586  10.928  1.00 20.00     0.127 C 
HETATM    8  C8  UNL     1     -27.606  -2.146  10.084  1.00 20.00     0.033 C 
HETATM    9  N9  UNL     1     -24.299  -3.087   9.415  1.00 20.00    -0.197 NA
HETATM   10  N10 UNL     1     -27.185  -0.381  11.544  1.00 20.00     0.090 N 
ENDROOT
TORSDOF 0
ENDMDL
MODEL 7
REMARK VINA RESULT:      -3.3     17.563     18.779
REMARK  0 active torsions:
REMARK  status: ('A' for Active; 'I' for Inactive)
ROOT
HETATM    1  C1  UNL     1     -39.282  12.463   5.877  1.00 20.00     0.066 C 
HETATM    2  C2  UNL     1     -42.922  13.415   8.196  1.00 20.00     0.031 C 
HETATM    3  C3  UNL     1     -42.857  12.339   7.108  1.00 20.00     0.009 C 
HETATM    4  C4  UNL     1     -42.701  14.823   7.630  1.00 20.00     0.272 C 
HETATM    5  C5  UNL     1     -40.365  14.369   7.053  1.00 20.00     0.292 C 
HETATM    6  C6  UNL     1     -42.025  14.018   5.471  1.00 20.00     0.278 C 
HETATM    7  C7  UNL     1     -40.393  12.857   6.759  1.00 20.00     0.127 C 
HETATM    8  C8  UNL     1     -41.756  12.643   6.074  1.00 20.00     0.033 C 
HETATM    9  N9  UNL     1     -38.405  12.152   5.183  1.00 20.00    -0.197 NA
HETATM   10  N10 UNL     1     -41.660  14.913   6.583  1.00 20.00     0.090 N 
ENDROOT
TORSDOF 0
ENDMDL
MODEL 8
REMARK VINA RESULT:      -3.2     17.708     19.549
REMARK  0 active torsions:
REMARK  status: ('A' for Active; 'I' for Inactive)
ROOT
HETATM    1  C1  UNL     1     -37.279  16.338  -6.244  1.00 20.00     0.066 C 
HETATM    2  C2  UNL     1     -33.704  16.040  -3.662  1.00 20.00     0.031 C 
HETATM    3  C3  UNL     1     -34.070  17.283  -4.478  1.00 20.00     0.009 C 
HETATM    4  C4  UNL     1     -33.375  14.838  -4.557  1.00 20.00     0.272 C 
HETATM    5  C5  UNL     1     -35.677  14.646  -5.372  1.00 20.00     0.292 C 
HETATM    6  C6  UNL     1     -34.143  15.920  -6.559  1.00 20.00     0.278 C 
HETATM    7  C7  UNL     1     -36.163  16.107  -5.312  1.00 20.00     0.127 C 
HETATM    8  C8  UNL     1     -34.920  16.923  -5.712  1.00 20.00     0.033 C 
HETATM    9  N9  UNL     1     -38.159  16.519  -6.978  1.00 20.00    -0.197 NA
HETATM   10  N10 UNL     1     -34.244  14.695  -5.745  1.00 20.00     0.090 N 
ENDROOT
TORSDOF 0
ENDMDL
MODEL 9
REMARK VINA RESULT:      -3.1     19.592     20.563
REMARK  0 active torsions:
REMARK  status: ('A' for Active; 'I' for Inactive)
ROOT
HETATM    1  C1  UNL     1     -35.499  14.069  -4.833  1.00 20.00     0.066 C 
HETATM    2  C2  UNL     1     -34.757  17.985  -6.742  1.00 20.00     0.031 C 
HETATM    3  C3  UNL     1     -36.123  17.533  -6.219  1.00 20.00     0.009 C 
HETATM    4  C4  UNL     1     -34.274  17.123  -7.916  1.00 20.00     0.272 C 
HETATM    5  C5  UNL     1     -34.006  15.132  -6.516  1.00 20.00     0.292 C 
HETATM    6  C6  UNL     1     -36.009  15.488  -7.632  1.00 20.00     0.278 C 
HETATM    7  C7  UNL     1     -35.089  15.346  -5.441  1.00 20.00     0.127 C 
HETATM    8  C8  UNL     1     -36.250  15.997  -6.215  1.00 20.00     0.033 C 
HETATM    9  N9  UNL     1     -35.821  13.062  -4.354  1.00 20.00    -0.197 NA
HETATM   10  N10 UNL     1     -34.555  15.678  -7.779  1.00 20.00     0.090 N 
ENDROOT
TORSDOF 0
ENDMDL
