MODEL 1
REMARK VINA RESULT:      -4.0      0.000      0.000
REMARK  1 active torsions:
REMARK  status: ('A' for Active; 'I' for Inactive)
REMARK    1  A    between atoms: C1_1  and  C2_2 
ROOT
HETATM    1  C2  UNL     1     -33.968   7.658   4.454  1.00 20.00     0.084 A 
HETATM    2  C3  UNL     1     -32.525   7.897   4.827  1.00 20.00     0.018 A 
HETATM    3  C4  UNL     1     -32.874   7.500   3.408  1.00 20.00     0.048 A 
HETATM    4  C6  UNL     1     -32.068   9.268   5.197  1.00 20.00     0.012 C 
HETATM    5  C7  UNL     1     -32.465   6.136   2.930  1.00 20.00     0.034 C 
HETATM    6 CL9  UNL     1     -32.837   8.736   2.128  1.00 20.00    -0.118 Cl
ENDROOT
BRANCH   1   7
HETATM    7  C1  UNL     1     -34.663   6.483   4.996  1.00 20.00     0.129 C 
HETATM    8  C5  UNL     1     -34.263   6.038   6.377  1.00 20.00     0.091 C 
HETATM    9  O8  UNL     1     -35.530   5.894   4.354  1.00 20.00    -0.298 OA
ENDBRANCH   1   7
TORSDOF 1
ENDMDL
MODEL 2
REMARK VINA RESULT:      -4.0     15.434     16.321
REMARK  1 active torsions:
REMARK  status: ('A' for Active; 'I' for Inactive)
REMARK    1  A    between atoms: C1_1  and  C2_2 
ROOT
HETATM    1  C2  UNL     1     -22.558  17.427   9.967  1.00 20.00     0.084 A 
HETATM    2  C3  UNL     1     -22.668  18.619  10.887  1.00 20.00     0.018 A 
HETATM    3  C4  UNL     1     -23.924  18.006  10.303  1.00 20.00     0.048 A 
HETATM    4  C6  UNL     1     -22.295  18.486  12.325  1.00 20.00     0.012 C 
HETATM    5  C7  UNL     1     -24.691  18.797   9.281  1.00 20.00     0.034 C 
HETATM    6 CL9  UNL     1     -24.963  17.001  11.341  1.00 20.00    -0.118 Cl
ENDROOT
BRANCH   1   7
HETATM    7  C1  UNL     1     -21.975  17.606   8.631  1.00 20.00     0.129 C 
HETATM    8  C5  UNL     1     -21.293  18.919   8.361  1.00 20.00     0.091 C 
HETATM    9  O8  UNL     1     -22.039  16.724   7.777  1.00 20.00    -0.298 OA
ENDBRANCH   1   7
TORSDOF 1
ENDMDL
MODEL 3
REMARK VINA RESULT:      -3.8      2.366      3.284
REMARK  1 active torsions:
REMARK  status: ('A' for Active; 'I' for Inactive)
REMARK    1  A    between atoms: C1_1  and  C2_2 
ROOT
HETATM    1  C2  UNL     1     -32.972   6.699   4.367  1.00 20.00     0.084 A 
HETATM    2  C3  UNL     1     -33.848   7.883   4.699  1.00 20.00     0.018 A 
HETATM    3  C4  UNL     1     -34.348   6.480   4.978  1.00 20.00     0.048 A 
HETATM    4  C6  UNL     1     -33.445   8.829   5.779  1.00 20.00     0.012 C 
HETATM    5  C7  UNL     1     -35.479   5.950   4.142  1.00 20.00     0.034 C 
HETATM    6 CL9  UNL     1     -34.371   5.884   6.655  1.00 20.00    -0.118 Cl
ENDROOT
BRANCH   1   7
HETATM    7  C1  UNL     1     -32.715   6.371   2.959  1.00 20.00     0.129 C 
HETATM    8  C5  UNL     1     -32.336   7.514   2.057  1.00 20.00     0.091 C 
HETATM    9  O8  UNL     1     -32.802   5.218   2.540  1.00 20.00    -0.298 OA
ENDBRANCH   1   7
TORSDOF 1
ENDMDL
MODEL 4
REMARK VINA RESULT:      -3.6      9.850     10.579
REMARK  1 active torsions:
REMARK  status: ('A' for Active; 'I' for Inactive)
REMARK    1  A    between atoms: C1_1  and  C2_2 
ROOT
HETATM    1  C2  UNL     1     -40.411  14.048   6.610  1.00 20.00     0.084 A 
HETATM    2  C3  UNL     1     -40.597  12.601   6.223  1.00 20.00     0.018 A 
HETATM    3  C4  UNL     1     -41.696  13.601   5.930  1.00 20.00     0.048 A 
HETATM    4  C6  UNL     1     -39.744  11.999   5.158  1.00 20.00     0.012 C 
HETATM    5  C7  UNL     1     -42.976  13.498   6.708  1.00 20.00     0.034 C 
HETATM    6 CL9  UNL     1     -41.930  14.167   4.259  1.00 20.00    -0.118 Cl
ENDROOT
BRANCH   1   7
HETATM    7  C1  UNL     1     -40.402  14.414   8.032  1.00 20.00     0.129 C 
HETATM    8  C5  UNL     1     -40.547  15.876   8.356  1.00 20.00     0.091 C 
HETATM    9  O8  UNL     1     -40.286  13.566   8.915  1.00 20.00    -0.298 OA
ENDBRANCH   1   7
TORSDOF 1
ENDMDL
MODEL 5
REMARK VINA RESULT:      -3.5     11.945     12.813
REMARK  1 active torsions:
REMARK  status: ('A' for Active; 'I' for Inactive)
REMARK    1  A    between atoms: C1_1  and  C2_2 
ROOT
HETATM    1  C2  UNL     1     -34.239  15.992  -5.115  1.00 20.00     0.084 A 
HETATM    2  C3  UNL     1     -34.238  15.145  -6.365  1.00 20.00     0.018 A 
HETATM    3  C4  UNL     1     -35.430  15.099  -5.430  1.00 20.00     0.048 A 
HETATM    4  C6  UNL     1     -34.284  15.795  -7.706  1.00 20.00     0.012 C 
HETATM    5  C7  UNL     1     -35.669  13.840  -4.646  1.00 20.00     0.034 C 
HETATM    6 CL9  UNL     1     -36.930  15.936  -5.897  1.00 20.00    -0.118 Cl
ENDROOT
BRANCH   1   7
HETATM    7  C1  UNL     1     -33.318  15.657  -4.022  1.00 20.00     0.129 C 
HETATM    8  C5  UNL     1     -33.522  16.382  -2.719  1.00 20.00     0.091 C 
HETATM    9  O8  UNL     1     -32.427  14.822  -4.163  1.00 20.00    -0.298 OA
ENDBRANCH   1   7
TORSDOF 1
ENDMDL
MODEL 6
REMARK VINA RESULT:      -3.4     11.959     12.580
REMARK  1 active torsions:
REMARK  status: ('A' for Active; 'I' for Inactive)
REMARK    1  A    between atoms: C1_1  and  C2_2 
ROOT
HETATM    1  C2  UNL     1     -32.967  17.340  -1.790  1.00 20.00     0.084 A 
HETATM    2  C3  UNL     1     -32.411  18.683  -1.385  1.00 20.00     0.018 A 
HETATM    3  C4  UNL     1     -33.826  18.310  -0.992  1.00 20.00     0.048 A 
HETATM    4  C6  UNL     1     -31.290  18.760  -0.403  1.00 20.00     0.012 C 
HETATM    5  C7  UNL     1     -34.961  19.042  -1.648  1.00 20.00     0.034 C 
HETATM    6 CL9  UNL     1     -34.164  17.846   0.693  1.00 20.00    -0.118 Cl
ENDROOT
BRANCH   1   7
HETATM    7  C1  UNL     1     -33.249  17.080  -3.208  1.00 20.00     0.129 C 
HETATM    8  C5  UNL     1     -33.676  15.682  -3.567  1.00 20.00     0.091 C 
HETATM    9  O8  UNL     1     -33.144  17.962  -4.058  1.00 20.00    -0.298 OA
ENDBRANCH   1   7
TORSDOF 1
ENDMDL
MODEL 7
REMARK VINA RESULT:      -3.4      9.728     10.494
REMARK  1 active torsions:
REMARK  status: ('A' for Active; 'I' for Inactive)
REMARK    1  A    between atoms: C1_1  and  C2_2 
ROOT
HETATM    1  C2  UNL     1     -40.784  13.650   6.073  1.00 20.00     0.084 A 
HETATM    2  C3  UNL     1     -41.925  13.660   5.085  1.00 20.00     0.018 A 
HETATM    3  C4  UNL     1     -42.215  13.488   6.562  1.00 20.00     0.048 A 
HETATM    4  C6  UNL     1     -42.250  14.907   4.334  1.00 20.00     0.012 C 
HETATM    5  C7  UNL     1     -42.714  12.153   7.037  1.00 20.00     0.034 C 
HETATM    6 CL9  UNL     1     -42.884  14.859   7.479  1.00 20.00    -0.118 Cl
ENDROOT
BRANCH   1   7
HETATM    7  C1  UNL     1     -39.854  12.512   6.082  1.00 20.00     0.129 C 
HETATM    8  C5  UNL     1     -39.619  11.821   4.766  1.00 20.00     0.091 C 
HETATM    9  O8  UNL     1     -39.295  12.146   7.113  1.00 20.00    -0.298 OA
ENDBRANCH   1   7
TORSDOF 1
ENDMDL
MODEL 8
REMARK VINA RESULT:      -3.4      2.229      3.498
REMARK  1 active torsions:
REMARK  status: ('A' for Active; 'I' for Inactive)
REMARK    1  A    between atoms: C1_1  and  C2_2 
ROOT
HETATM    1  C2  UNL     1     -33.940   7.431   4.261  1.00 20.00     0.084 A 
HETATM    2  C3  UNL     1     -33.216   6.118   4.086  1.00 20.00     0.018 A 
HETATM    3  C4  UNL     1     -34.476   6.173   4.926  1.00 20.00     0.048 A 
HETATM    4  C6  UNL     1     -33.164   5.469   2.744  1.00 20.00     0.012 C 
HETATM    5  C7  UNL     1     -34.348   5.980   6.410  1.00 20.00     0.034 C 
HETATM    6 CL9  UNL     1     -35.992   5.523   4.258  1.00 20.00    -0.118 Cl
ENDROOT
BRANCH   1   7
HETATM    7  C1  UNL     1     -33.315   8.494   5.058  1.00 20.00     0.129 C 
HETATM    8  C5  UNL     1     -31.867   8.791   4.772  1.00 20.00     0.091 C 
HETATM    9  O8  UNL     1     -33.944   9.112   5.915  1.00 20.00    -0.298 OA
ENDBRANCH   1   7
TORSDOF 1
ENDMDL
MODEL 9
REMARK VINA RESULT:      -3.2     11.763     12.426
REMARK  1 active torsions:
REMARK  status: ('A' for Active; 'I' for Inactive)
REMARK    1  A    between atoms: C1_1  and  C2_2 
ROOT
HETATM    1  C2  UNL     1     -33.845  16.325  -2.908  1.00 20.00     0.084 A 
HETATM    2  C3  UNL     1     -32.886  17.465  -2.661  1.00 20.00     0.018 A 
HETATM    3  C4  UNL     1     -34.188  17.726  -3.390  1.00 20.00     0.048 A 
HETATM    4  C6  UNL     1     -32.628  17.932  -1.268  1.00 20.00     0.012 C 
HETATM    5  C7  UNL     1     -34.127  18.068  -4.851  1.00 20.00     0.034 C 
HETATM    6 CL9  UNL     1     -35.515  18.543  -2.529  1.00 20.00    -0.118 Cl
ENDROOT
BRANCH   1   7
HETATM    7  C1  UNL     1     -33.475  15.272  -3.863  1.00 20.00     0.129 C 
HETATM    8  C5  UNL     1     -34.597  14.440  -4.421  1.00 20.00     0.091 C 
HETATM    9  O8  UNL     1     -32.305  15.083  -4.193  1.00 20.00    -0.298 OA
ENDBRANCH   1   7
TORSDOF 1
ENDMDL
