MODEL 1
REMARK VINA RESULT:      -5.2      0.000      0.000
REMARK  2 active torsions:
REMARK  status: ('A' for Active; 'I' for Inactive)
REMARK    1  A    between atoms: C4_4  and  C6_6 
REMARK    2  A    between atoms: C7_7  and  C9_9 
ROOT
HETATM    1  C1  UNL     1     -32.888   8.723   5.320  1.00 20.00    -0.003 C 
HETATM    2  C2  UNL     1     -33.758   7.630   5.666  1.00 20.00     0.011 C 
HETATM    3  C3  UNL     1     -32.160   8.711   4.196  1.00 20.00    -0.021 C 
HETATM    4  C4  UNL     1     -33.988   6.627   4.807  1.00 20.00    -0.012 C 
HETATM    5  C8  UNL     1     -32.183   7.562   3.216  1.00 20.00     0.016 C 
HETATM    6  C9  UNL     1     -33.356   6.549   3.434  1.00 20.00     0.051 C 
HETATM    7  C10 UNL     1     -32.200   8.095   1.778  1.00 20.00     0.015 C 
ENDROOT
BRANCH   4   8
HETATM    8  C6  UNL     1     -34.967   5.618   5.234  1.00 20.00     0.266 C 
HETATM    9  O11 UNL     1     -34.885   5.032   6.305  1.00 20.00    -0.302 OA
ENDBRANCH   4   8
BRANCH   6  10
HETATM   10  C7  UNL     1     -32.866   5.162   3.112  1.00 20.00    -0.027 C 
HETATM   11  C5  UNL     1     -33.005   4.579   1.917  1.00 20.00     0.007 C 
ENDBRANCH   6  10
TORSDOF 2
ENDMDL
MODEL 2
REMARK VINA RESULT:      -4.8      1.685      3.272
REMARK  2 active torsions:
REMARK  status: ('A' for Active; 'I' for Inactive)
REMARK    1  A    between atoms: C4_4  and  C6_6 
REMARK    2  A    between atoms: C7_7  and  C9_9 
ROOT
HETATM    1  C1  UNL     1     -34.610   5.397   6.234  1.00 20.00    -0.003 C 
HETATM    2  C2  UNL     1     -34.341   4.855   4.928  1.00 20.00     0.011 C 
HETATM    3  C3  UNL     1     -34.231   6.636   6.571  1.00 20.00    -0.021 C 
HETATM    4  C4  UNL     1     -33.835   5.620   3.950  1.00 20.00    -0.012 C 
HETATM    5  C8  UNL     1     -33.491   7.553   5.625  1.00 20.00     0.016 C 
HETATM    6  C9  UNL     1     -33.495   7.083   4.132  1.00 20.00     0.051 C 
HETATM    7  C10 UNL     1     -34.041   8.981   5.735  1.00 20.00     0.015 C 
ENDROOT
BRANCH   4   8
HETATM    8  C6  UNL     1     -33.693   4.982   2.635  1.00 20.00     0.266 C 
HETATM    9  O11 UNL     1     -32.643   4.480   2.255  1.00 20.00    -0.302 OA
ENDBRANCH   4   8
BRANCH   6  10
HETATM   10  C7  UNL     1     -32.174   7.442   3.506  1.00 20.00    -0.027 C 
HETATM   11  C5  UNL     1     -32.048   8.140   2.373  1.00 20.00     0.007 C 
ENDBRANCH   6  10
TORSDOF 2
ENDMDL
MODEL 3
REMARK VINA RESULT:      -4.5      1.840      3.297
REMARK  2 active torsions:
REMARK  status: ('A' for Active; 'I' for Inactive)
REMARK    1  A    between atoms: C4_4  and  C6_6 
REMARK    2  A    between atoms: C7_7  and  C9_9 
ROOT
HETATM    1  C1  UNL     1     -34.661   5.638   5.776  1.00 20.00    -0.003 C 
HETATM    2  C2  UNL     1     -34.158   6.960   6.043  1.00 20.00     0.011 C 
HETATM    3  C3  UNL     1     -34.476   5.044   4.591  1.00 20.00    -0.021 C 
HETATM    4  C4  UNL     1     -33.357   7.587   5.170  1.00 20.00    -0.012 C 
HETATM    5  C8  UNL     1     -33.742   5.704   3.448  1.00 20.00     0.016 C 
HETATM    6  C9  UNL     1     -32.932   6.982   3.851  1.00 20.00     0.051 C 
HETATM    7  C10 UNL     1     -32.825   4.690   2.752  1.00 20.00     0.015 C 
ENDROOT
BRANCH   4   8
HETATM    8  C6  UNL     1     -32.830   8.891   5.594  1.00 20.00     0.266 C 
HETATM    9  O11 UNL     1     -31.813   9.378   5.117  1.00 20.00    -0.302 OA
ENDBRANCH   4   8
BRANCH   6  10
HETATM   10  C7  UNL     1     -33.000   7.976   2.722  1.00 20.00    -0.027 C 
HETATM   11  C5  UNL     1     -32.097   8.053   1.738  1.00 20.00     0.007 C 
ENDBRANCH   6  10
TORSDOF 2
ENDMDL
MODEL 4
REMARK VINA RESULT:      -4.2      2.042      3.346
REMARK  2 active torsions:
REMARK  status: ('A' for Active; 'I' for Inactive)
REMARK    1  A    between atoms: C4_4  and  C6_6 
REMARK    2  A    between atoms: C7_7  and  C9_9 
ROOT
HETATM    1  C1  UNL     1     -33.653   8.564   5.835  1.00 20.00    -0.003 C 
HETATM    2  C2  UNL     1     -32.864   8.613   4.632  1.00 20.00     0.011 C 
HETATM    3  C3  UNL     1     -34.325   7.460   6.188  1.00 20.00    -0.021 C 
HETATM    4  C4  UNL     1     -32.650   7.513   3.898  1.00 20.00    -0.012 C 
HETATM    5  C8  UNL     1     -34.319   6.197   5.361  1.00 20.00     0.016 C 
HETATM    6  C9  UNL     1     -33.217   6.155   4.250  1.00 20.00     0.051 C 
HETATM    7  C10 UNL     1     -34.202   4.969   6.273  1.00 20.00     0.015 C 
ENDROOT
BRANCH   4   8
HETATM    8  C6  UNL     1     -31.751   7.667   2.746  1.00 20.00     0.266 C 
HETATM    9  O11 UNL     1     -32.146   8.034   1.647  1.00 20.00    -0.302 OA
ENDBRANCH   4   8
BRANCH   6  10
HETATM   10  C7  UNL     1     -33.768   5.440   3.046  1.00 20.00    -0.027 C 
HETATM   11  C5  UNL     1     -33.056   4.607   2.279  1.00 20.00     0.007 C 
ENDBRANCH   6  10
TORSDOF 2
ENDMDL
MODEL 5
REMARK VINA RESULT:      -4.2      1.958      4.069
REMARK  2 active torsions:
REMARK  status: ('A' for Active; 'I' for Inactive)
REMARK    1  A    between atoms: C4_4  and  C6_6 
REMARK    2  A    between atoms: C7_7  and  C9_9 
ROOT
HETATM    1  C1  UNL     1     -32.588   5.823   2.535  1.00 20.00    -0.003 C 
HETATM    2  C2  UNL     1     -32.167   7.140   2.936  1.00 20.00     0.011 C 
HETATM    3  C3  UNL     1     -33.560   5.169   3.185  1.00 20.00    -0.021 C 
HETATM    4  C4  UNL     1     -32.830   7.823   3.880  1.00 20.00    -0.012 C 
HETATM    5  C8  UNL     1     -34.277   5.746   4.382  1.00 20.00     0.016 C 
HETATM    6  C9  UNL     1     -34.042   7.278   4.602  1.00 20.00     0.051 C 
HETATM    7  C10 UNL     1     -35.779   5.444   4.294  1.00 20.00     0.015 C 
ENDROOT
BRANCH   4   8
HETATM    8  C6  UNL     1     -32.364   9.192   4.138  1.00 20.00     0.266 C 
HETATM    9  O11 UNL     1     -31.759   9.502   5.156  1.00 20.00    -0.302 OA
ENDBRANCH   4   8
BRANCH   6  10
HETATM   10  C7  UNL     1     -33.996   7.555   6.081  1.00 20.00    -0.027 C 
HETATM   11  C5  UNL     1     -34.073   6.608   7.022  1.00 20.00     0.007 C 
ENDBRANCH   6  10
TORSDOF 2
ENDMDL
MODEL 6
REMARK VINA RESULT:      -4.1      1.587      3.213
REMARK  2 active torsions:
REMARK  status: ('A' for Active; 'I' for Inactive)
REMARK    1  A    between atoms: C4_4  and  C6_6 
REMARK    2  A    between atoms: C7_7  and  C9_9 
ROOT
HETATM    1  C1  UNL     1     -32.252   8.595   4.086  1.00 20.00    -0.003 C 
HETATM    2  C2  UNL     1     -32.303   7.540   3.108  1.00 20.00     0.011 C 
HETATM    3  C3  UNL     1     -33.003   8.561   5.194  1.00 20.00    -0.021 C 
HETATM    4  C4  UNL     1     -32.991   6.413   3.338  1.00 20.00    -0.012 C 
HETATM    5  C8  UNL     1     -33.961   7.435   5.501  1.00 20.00     0.016 C 
HETATM    6  C9  UNL     1     -33.770   6.161   4.611  1.00 20.00     0.051 C 
HETATM    7  C10 UNL     1     -33.881   7.062   6.987  1.00 20.00     0.015 C 
ENDROOT
BRANCH   4   8
HETATM    8  C6  UNL     1     -32.892   5.370   2.308  1.00 20.00     0.266 C 
HETATM    9  O11 UNL     1     -32.586   4.214   2.569  1.00 20.00    -0.302 OA
ENDBRANCH   4   8
BRANCH   6  10
HETATM   10  C7  UNL     1     -35.119   5.550   4.340  1.00 20.00    -0.027 C 
HETATM   11  C5  UNL     1     -36.200   6.253   3.983  1.00 20.00     0.007 C 
ENDBRANCH   6  10
TORSDOF 2
ENDMDL
MODEL 7
REMARK VINA RESULT:      -4.1      2.186      4.321
REMARK  2 active torsions:
REMARK  status: ('A' for Active; 'I' for Inactive)
REMARK    1  A    between atoms: C4_4  and  C6_6 
REMARK    2  A    between atoms: C7_7  and  C9_9 
ROOT
HETATM    1  C1  UNL     1     -32.764   5.246   2.542  1.00 20.00    -0.003 C 
HETATM    2  C2  UNL     1     -32.310   6.611   2.500  1.00 20.00     0.011 C 
HETATM    3  C3  UNL     1     -33.632   4.824   3.469  1.00 20.00    -0.021 C 
HETATM    4  C4  UNL     1     -32.852   7.547   3.292  1.00 20.00    -0.012 C 
HETATM    5  C8  UNL     1     -34.194   5.729   4.540  1.00 20.00     0.016 C 
HETATM    6  C9  UNL     1     -33.952   7.256   4.288  1.00 20.00     0.051 C 
HETATM    7  C10 UNL     1     -35.690   5.452   4.735  1.00 20.00     0.015 C 
ENDROOT
BRANCH   4   8
HETATM    8  C6  UNL     1     -32.375   8.922   3.092  1.00 20.00     0.266 C 
HETATM    9  O11 UNL     1     -32.730   9.612   2.146  1.00 20.00    -0.302 OA
ENDBRANCH   4   8
BRANCH   6  10
HETATM   10  C7  UNL     1     -33.716   7.934   5.611  1.00 20.00    -0.027 C 
HETATM   11  C5  UNL     1     -33.752   7.306   6.791  1.00 20.00     0.007 C 
ENDBRANCH   6  10
TORSDOF 2
ENDMDL
MODEL 8
REMARK VINA RESULT:      -3.9     12.044     13.872
REMARK  2 active torsions:
REMARK  status: ('A' for Active; 'I' for Inactive)
REMARK    1  A    between atoms: C4_4  and  C6_6 
REMARK    2  A    between atoms: C7_7  and  C9_9 
ROOT
HETATM    1  C1  UNL     1     -33.304  15.096  -3.994  1.00 20.00    -0.003 C 
HETATM    2  C2  UNL     1     -34.092  14.876  -5.178  1.00 20.00     0.011 C 
HETATM    3  C3  UNL     1     -33.281  16.285  -3.378  1.00 20.00    -0.021 C 
HETATM    4  C4  UNL     1     -34.948  15.806  -5.624  1.00 20.00    -0.012 C 
HETATM    5  C8  UNL     1     -34.060  17.480  -3.872  1.00 20.00     0.016 C 
HETATM    6  C9  UNL     1     -35.147  17.144  -4.948  1.00 20.00     0.051 C 
HETATM    7  C10 UNL     1     -34.694  18.224  -2.690  1.00 20.00     0.015 C 
ENDROOT
BRANCH   4   8
HETATM    8  C6  UNL     1     -35.766  15.431  -6.785  1.00 20.00     0.266 C 
HETATM    9  O11 UNL     1     -36.011  14.266  -7.071  1.00 20.00    -0.302 OA
ENDBRANCH   4   8
BRANCH   6  10
HETATM   10  C7  UNL     1     -35.217  18.276  -5.937  1.00 20.00    -0.027 C 
HETATM   11  C5  UNL     1     -34.145  18.889  -6.450  1.00 20.00     0.007 C 
ENDBRANCH   6  10
TORSDOF 2
ENDMDL
MODEL 9
REMARK VINA RESULT:      -3.8      1.197      3.010
REMARK  2 active torsions:
REMARK  status: ('A' for Active; 'I' for Inactive)
REMARK    1  A    between atoms: C4_4  and  C6_6 
REMARK    2  A    between atoms: C7_7  and  C9_9 
ROOT
HETATM    1  C1  UNL     1     -32.266   7.316   2.008  1.00 20.00    -0.003 C 
HETATM    2  C2  UNL     1     -32.837   6.027   2.302  1.00 20.00     0.011 C 
HETATM    3  C3  UNL     1     -32.349   8.334   2.874  1.00 20.00    -0.021 C 
HETATM    4  C4  UNL     1     -33.342   5.752   3.513  1.00 20.00    -0.012 C 
HETATM    5  C8  UNL     1     -33.048   8.220   4.209  1.00 20.00     0.016 C 
HETATM    6  C9  UNL     1     -33.370   6.752   4.647  1.00 20.00     0.051 C 
HETATM    7  C10 UNL     1     -32.231   8.933   5.294  1.00 20.00     0.015 C 
ENDROOT
BRANCH   4   8
HETATM    8  C6  UNL     1     -33.809   4.375   3.724  1.00 20.00     0.266 C 
HETATM    9  O11 UNL     1     -33.717   3.806   4.803  1.00 20.00    -0.302 OA
ENDBRANCH   4   8
BRANCH   6  10
HETATM   10  C7  UNL     1     -34.685   6.743   5.381  1.00 20.00    -0.027 C 
HETATM   11  C5  UNL     1     -34.832   6.344   6.649  1.00 20.00     0.007 C 
ENDBRANCH   6  10
TORSDOF 2
ENDMDL
