MODEL 1
REMARK VINA RESULT:      -4.5      0.000      0.000
REMARK  1 active torsions:
REMARK  status: ('A' for Active; 'I' for Inactive)
REMARK    1  A    between atoms: C5_5  and  C7_7 
ROOT
HETATM    1  C1  UNL     1     -34.562  18.045  -3.282  1.00 20.00    -0.003 A 
HETATM    2  C2  UNL     1     -33.586  16.980  -3.167  1.00 20.00    -0.003 A 
HETATM    3  C3  UNL     1     -34.612  18.697  -2.105  1.00 20.00    -0.012 A 
HETATM    4  C4  UNL     1     -33.072  17.018  -1.924  1.00 20.00    -0.012 A 
HETATM    5  C6  UNL     1     -33.998  17.963   0.308  1.00 20.00     0.032 A 
HETATM    6  C7  UNL     1     -32.928  18.937  -0.139  1.00 20.00     0.072 A 
HETATM    7  C8  UNL     1     -33.670  18.108  -1.141  1.00 20.00     0.006 A 
ENDROOT
BRANCH   6   8
HETATM    8  C5  UNL     1     -31.525  18.655   0.185  1.00 20.00     0.128 C 
HETATM    9  C9  UNL     1     -31.206  18.380   1.631  1.00 20.00     0.091 C 
HETATM   10  O10 UNL     1     -30.652  18.641  -0.681  1.00 20.00    -0.298 OA
ENDBRANCH   6   8
TORSDOF 1
ENDMDL
MODEL 2
REMARK VINA RESULT:      -4.3     12.462     13.295
REMARK  1 active torsions:
REMARK  status: ('A' for Active; 'I' for Inactive)
REMARK    1  A    between atoms: C5_5  and  C7_7 
ROOT
HETATM    1  C1  UNL     1     -34.463   4.773   6.052  1.00 20.00    -0.003 A 
HETATM    2  C2  UNL     1     -35.000   6.112   5.915  1.00 20.00    -0.003 A 
HETATM    3  C3  UNL     1     -33.765   4.486   4.938  1.00 20.00    -0.012 A 
HETATM    4  C4  UNL     1     -34.610   6.598   4.721  1.00 20.00    -0.012 A 
HETATM    5  C6  UNL     1     -33.897   5.423   2.520  1.00 20.00     0.032 A 
HETATM    6  C7  UNL     1     -32.620   5.963   3.131  1.00 20.00     0.072 A 
HETATM    7  C8  UNL     1     -33.791   5.615   3.997  1.00 20.00     0.006 A 
ENDROOT
BRANCH   6   8
HETATM    8  C5  UNL     1     -32.249   7.363   2.888  1.00 20.00     0.128 C 
HETATM    9  C9  UNL     1     -32.037   8.228   4.101  1.00 20.00     0.091 C 
HETATM   10  O10 UNL     1     -32.116   7.806   1.748  1.00 20.00    -0.298 OA
ENDBRANCH   6   8
TORSDOF 1
ENDMDL
MODEL 3
REMARK VINA RESULT:      -4.3     11.148     11.961
REMARK  1 active torsions:
REMARK  status: ('A' for Active; 'I' for Inactive)
REMARK    1  A    between atoms: C5_5  and  C7_7 
ROOT
HETATM    1  C1  UNL     1     -34.818   6.149   5.286  1.00 20.00    -0.003 A 
HETATM    2  C2  UNL     1     -34.200   5.337   4.257  1.00 20.00    -0.003 A 
HETATM    3  C3  UNL     1     -34.221   7.355   5.284  1.00 20.00    -0.012 A 
HETATM    4  C4  UNL     1     -33.246   6.076   3.659  1.00 20.00    -0.012 A 
HETATM    5  C6  UNL     1     -31.879   8.126   4.471  1.00 20.00     0.032 A 
HETATM    6  C7  UNL     1     -32.888   8.670   3.481  1.00 20.00     0.072 A 
HETATM    7  C8  UNL     1     -33.175   7.419   4.252  1.00 20.00     0.006 A 
ENDROOT
BRANCH   6   8
HETATM    8  C5  UNL     1     -32.579   8.621   2.047  1.00 20.00     0.128 C 
HETATM    9  C9  UNL     1     -33.005   9.806   1.221  1.00 20.00     0.091 C 
HETATM   10  O10 UNL     1     -31.999   7.660   1.544  1.00 20.00    -0.298 OA
ENDBRANCH   6   8
TORSDOF 1
ENDMDL
MODEL 4
REMARK VINA RESULT:      -4.3     13.876     15.085
REMARK  1 active torsions:
REMARK  status: ('A' for Active; 'I' for Inactive)
REMARK    1  A    between atoms: C5_5  and  C7_7 
ROOT
HETATM    1  C1  UNL     1     -24.906  17.806  12.332  1.00 20.00    -0.003 A 
HETATM    2  C2  UNL     1     -24.786  16.641  11.478  1.00 20.00    -0.003 A 
HETATM    3  C3  UNL     1     -24.000  18.716  11.930  1.00 20.00    -0.012 A 
HETATM    4  C4  UNL     1     -23.809  16.880  10.582  1.00 20.00    -0.012 A 
HETATM    5  C6  UNL     1     -21.766  18.478  10.629  1.00 20.00     0.032 A 
HETATM    6  C7  UNL     1     -22.761  19.111   9.678  1.00 20.00     0.072 A 
HETATM    7  C8  UNL     1     -23.227  18.214  10.784  1.00 20.00     0.006 A 
ENDROOT
BRANCH   6   8
HETATM    8  C5  UNL     1     -22.795  18.667   8.280  1.00 20.00     0.128 C 
HETATM    9  C9  UNL     1     -21.631  17.839   7.804  1.00 20.00     0.091 C 
HETATM   10  O10 UNL     1     -23.729  18.954   7.533  1.00 20.00    -0.298 OA
ENDBRANCH   6   8
TORSDOF 1
ENDMDL
MODEL 5
REMARK VINA RESULT:      -4.2     12.429     13.360
REMARK  1 active torsions:
REMARK  status: ('A' for Active; 'I' for Inactive)
REMARK    1  A    between atoms: C5_5  and  C7_7 
ROOT
HETATM    1  C1  UNL     1     -33.812   7.724   6.810  1.00 20.00    -0.003 A 
HETATM    2  C2  UNL     1     -33.613   8.583   5.660  1.00 20.00    -0.003 A 
HETATM    3  C3  UNL     1     -34.170   6.505   6.366  1.00 20.00    -0.012 A 
HETATM    4  C4  UNL     1     -33.855   7.858   4.551  1.00 20.00    -0.012 A 
HETATM    5  C6  UNL     1     -35.276   5.725   4.151  1.00 20.00     0.032 A 
HETATM    6  C7  UNL     1     -33.831   5.272   4.103  1.00 20.00     0.072 A 
HETATM    7  C8  UNL     1     -34.226   6.479   4.897  1.00 20.00     0.006 A 
ENDROOT
BRANCH   6   8
HETATM    8  C5  UNL     1     -33.083   5.405   2.847  1.00 20.00     0.128 C 
HETATM    9  C9  UNL     1     -32.270   6.661   2.672  1.00 20.00     0.091 C 
HETATM   10  O10 UNL     1     -33.116   4.533   1.980  1.00 20.00    -0.298 OA
ENDBRANCH   6   8
TORSDOF 1
ENDMDL
MODEL 6
REMARK VINA RESULT:      -4.2     10.641     11.749
REMARK  1 active torsions:
REMARK  status: ('A' for Active; 'I' for Inactive)
REMARK    1  A    between atoms: C5_5  and  C7_7 
ROOT
HETATM    1  C1  UNL     1     -39.222  12.183   4.166  1.00 20.00    -0.003 A 
HETATM    2  C2  UNL     1     -38.478  11.831   5.359  1.00 20.00    -0.003 A 
HETATM    3  C3  UNL     1     -40.391  12.730   4.548  1.00 20.00    -0.012 A 
HETATM    4  C4  UNL     1     -39.218  12.177   6.430  1.00 20.00    -0.012 A 
HETATM    5  C6  UNL     1     -41.772  12.515   6.735  1.00 20.00     0.032 A 
HETATM    6  C7  UNL     1     -41.170  13.905   6.732  1.00 20.00     0.072 A 
HETATM    7  C8  UNL     1     -40.493  12.779   6.014  1.00 20.00     0.006 A 
ENDROOT
BRANCH   6   8
HETATM    8  C5  UNL     1     -40.619  14.447   7.979  1.00 20.00     0.128 C 
HETATM    9  C9  UNL     1     -40.365  15.931   8.019  1.00 20.00     0.091 C 
HETATM   10  O10 UNL     1     -40.379  13.726   8.946  1.00 20.00    -0.298 OA
ENDBRANCH   6   8
TORSDOF 1
ENDMDL
MODEL 7
REMARK VINA RESULT:      -4.1     11.148     12.656
REMARK  1 active torsions:
REMARK  status: ('A' for Active; 'I' for Inactive)
REMARK    1  A    between atoms: C5_5  and  C7_7 
ROOT
HETATM    1  C1  UNL     1     -42.444  14.062   8.905  1.00 20.00    -0.003 A 
HETATM    2  C2  UNL     1     -41.093  14.584   8.919  1.00 20.00    -0.003 A 
HETATM    3  C3  UNL     1     -42.634  13.421   7.736  1.00 20.00    -0.012 A 
HETATM    4  C4  UNL     1     -40.501  14.244   7.758  1.00 20.00    -0.012 A 
HETATM    5  C6  UNL     1     -41.473  13.653   5.426  1.00 20.00     0.032 A 
HETATM    6  C7  UNL     1     -41.006  12.341   6.022  1.00 20.00     0.072 A 
HETATM    7  C8  UNL     1     -41.421  13.475   6.907  1.00 20.00     0.006 A 
ENDROOT
BRANCH   6   8
HETATM    8  C5  UNL     1     -39.594  11.960   5.892  1.00 20.00     0.128 C 
HETATM    9  C9  UNL     1     -39.077  11.740   4.495  1.00 20.00     0.091 C 
HETATM   10  O10 UNL     1     -38.867  11.829   6.876  1.00 20.00    -0.298 OA
ENDBRANCH   6   8
TORSDOF 1
ENDMDL
MODEL 8
REMARK VINA RESULT:      -4.1      1.565      3.775
REMARK  1 active torsions:
REMARK  status: ('A' for Active; 'I' for Inactive)
REMARK    1  A    between atoms: C5_5  and  C7_7 
ROOT
HETATM    1  C1  UNL     1     -32.016  18.441   1.202  1.00 20.00    -0.003 A 
HETATM    2  C2  UNL     1     -31.101  18.844   0.153  1.00 20.00    -0.003 A 
HETATM    3  C3  UNL     1     -33.235  18.278   0.655  1.00 20.00    -0.012 A 
HETATM    4  C4  UNL     1     -31.792  18.913  -1.000  1.00 20.00    -0.012 A 
HETATM    5  C6  UNL     1     -34.316  19.262  -1.490  1.00 20.00     0.032 A 
HETATM    6  C7  UNL     1     -34.041  17.799  -1.769  1.00 20.00     0.072 A 
HETATM    7  C8  UNL     1     -33.203  18.558  -0.788  1.00 20.00     0.006 A 
ENDROOT
BRANCH   6   8
HETATM    8  C5  UNL     1     -33.506  17.410  -3.080  1.00 20.00     0.128 C 
HETATM    9  C9  UNL     1     -33.326  15.936  -3.328  1.00 20.00     0.091 C 
HETATM   10  O10 UNL     1     -33.221  18.247  -3.935  1.00 20.00    -0.298 OA
ENDBRANCH   6   8
TORSDOF 1
ENDMDL
MODEL 9
REMARK VINA RESULT:      -4.1      3.945      5.982
REMARK  1 active torsions:
REMARK  status: ('A' for Active; 'I' for Inactive)
REMARK    1  A    between atoms: C5_5  and  C7_7 
ROOT
HETATM    1  C1  UNL     1     -34.001  17.567  -2.698  1.00 20.00    -0.003 A 
HETATM    2  C2  UNL     1     -33.249  16.346  -2.903  1.00 20.00    -0.003 A 
HETATM    3  C3  UNL     1     -34.795  17.755  -3.769  1.00 20.00    -0.012 A 
HETATM    4  C4  UNL     1     -33.609  15.828  -4.093  1.00 20.00    -0.012 A 
HETATM    5  C6  UNL     1     -34.626  16.913  -6.219  1.00 20.00     0.032 A 
HETATM    6  C7  UNL     1     -35.757  16.144  -5.568  1.00 20.00     0.072 A 
HETATM    7  C8  UNL     1     -34.621  16.670  -4.747  1.00 20.00     0.006 A 
ENDROOT
BRANCH   6   8
HETATM    8  C5  UNL     1     -35.892  14.708  -5.839  1.00 20.00     0.128 C 
HETATM    9  C9  UNL     1     -35.985  13.798  -4.643  1.00 20.00     0.091 C 
HETATM   10  O10 UNL     1     -35.931  14.268  -6.987  1.00 20.00    -0.298 OA
ENDBRANCH   6   8
TORSDOF 1
ENDMDL
