MODEL 1
REMARK VINA RESULT:      -3.8      0.000      0.000
REMARK  2 active torsions:
REMARK  status: ('A' for Active; 'I' for Inactive)
REMARK    1  A    between atoms: C3_3  and  C5_5 
REMARK    2  A    between atoms: C3_3  and  O11_11 
ROOT
HETATM    1  C1  UNL     1     -32.827   4.682   2.466  1.00 20.00     0.013 C 
HETATM    2  C2  UNL     1     -33.160   5.591   3.178  1.00 20.00    -0.096 C 
HETATM    3  C4  UNL     1     -35.047   6.882   4.234  1.00 20.00     0.044 A 
HETATM    4  C5  UNL     1     -33.559   6.681   4.032  1.00 20.00     0.118 A 
HETATM    5  C6  UNL     1     -34.220   6.364   5.382  1.00 20.00    -0.018 A 
HETATM    6  C7  UNL     1     -33.989   7.293   6.551  1.00 20.00     0.017 C 
HETATM    7  C8  UNL     1     -34.423   4.927   5.801  1.00 20.00     0.017 C 
ENDROOT
BRANCH   4   8
HETATM    8  C3  UNL     1     -32.717   7.890   3.913  1.00 20.00     0.280 C 
HETATM    9  O10 UNL     1     -31.600   7.997   4.399  1.00 20.00    -0.263 OA
BRANCH   8  10
HETATM   10  O11 UNL     1     -33.381   8.837   3.192  1.00 20.00    -0.325 OA
HETATM   11  C9  UNL     1     -32.760   9.220   1.961  1.00 20.00     0.213 C 
ENDBRANCH   8  10
ENDBRANCH   4   8
TORSDOF 2
ENDMDL
MODEL 2
REMARK VINA RESULT:      -3.7     11.684     13.097
REMARK  2 active torsions:
REMARK  status: ('A' for Active; 'I' for Inactive)
REMARK    1  A    between atoms: C3_3  and  C5_5 
REMARK    2  A    between atoms: C3_3  and  O11_11 
ROOT
HETATM    1  C1  UNL     1     -33.135  15.062  -4.089  1.00 20.00     0.013 C 
HETATM    2  C2  UNL     1     -33.337  16.171  -3.675  1.00 20.00    -0.096 C 
HETATM    3  C4  UNL     1     -33.385  18.643  -4.156  1.00 20.00     0.044 A 
HETATM    4  C5  UNL     1     -33.579  17.502  -3.178  1.00 20.00     0.118 A 
HETATM    5  C6  UNL     1     -34.782  18.290  -3.717  1.00 20.00    -0.018 A 
HETATM    6  C7  UNL     1     -35.494  19.262  -2.806  1.00 20.00     0.017 C 
HETATM    7  C8  UNL     1     -35.699  17.657  -4.738  1.00 20.00     0.017 C 
ENDROOT
BRANCH   4   8
HETATM    8  C3  UNL     1     -33.148  17.721  -1.781  1.00 20.00     0.280 C 
HETATM    9  O10 UNL     1     -33.690  17.212  -0.810  1.00 20.00    -0.263 OA
BRANCH   8  10
HETATM   10  O11 UNL     1     -32.075  18.562  -1.762  1.00 20.00    -0.325 OA
HETATM   11  C9  UNL     1     -31.379  18.643  -0.515  1.00 20.00     0.213 C 
ENDBRANCH   8  10
ENDBRANCH   4   8
TORSDOF 2
ENDMDL
MODEL 3
REMARK VINA RESULT:      -3.6     10.066     11.114
REMARK  2 active torsions:
REMARK  status: ('A' for Active; 'I' for Inactive)
REMARK    1  A    between atoms: C3_3  and  C5_5 
REMARK    2  A    between atoms: C3_3  and  O11_11 
ROOT
HETATM    1  C1  UNL     1     -39.935  11.704   5.705  1.00 20.00     0.013 C 
HETATM    2  C2  UNL     1     -40.570  12.522   6.314  1.00 20.00    -0.096 C 
HETATM    3  C4  UNL     1     -42.510  14.128   6.327  1.00 20.00     0.044 A 
HETATM    4  C5  UNL     1     -41.331  13.503   7.045  1.00 20.00     0.118 A 
HETATM    5  C6  UNL     1     -42.772  13.169   7.459  1.00 20.00    -0.018 A 
HETATM    6  C7  UNL     1     -43.320  13.741   8.746  1.00 20.00     0.017 C 
HETATM    7  C8  UNL     1     -43.360  11.821   7.115  1.00 20.00     0.017 C 
ENDROOT
BRANCH   4   8
HETATM    8  C3  UNL     1     -40.521  14.380   7.916  1.00 20.00     0.280 C 
HETATM    9  O10 UNL     1     -39.969  14.006   8.942  1.00 20.00    -0.263 OA
BRANCH   8  10
HETATM   10  O11 UNL     1     -40.496  15.640   7.397  1.00 20.00    -0.325 OA
HETATM   11  C9  UNL     1     -40.759  16.694   8.328  1.00 20.00     0.213 C 
ENDBRANCH   8  10
ENDBRANCH   4   8
TORSDOF 2
ENDMDL
MODEL 4
REMARK VINA RESULT:      -3.6      9.281     10.626
REMARK  2 active torsions:
REMARK  status: ('A' for Active; 'I' for Inactive)
REMARK    1  A    between atoms: C3_3  and  C5_5 
REMARK    2  A    between atoms: C3_3  and  O11_11 
ROOT
HETATM    1  C1  UNL     1     -42.297  14.660   4.167  1.00 20.00     0.013 C 
HETATM    2  C2  UNL     1     -41.690  14.104   5.042  1.00 20.00    -0.096 C 
HETATM    3  C4  UNL     1     -41.240  11.961   6.287  1.00 20.00     0.044 A 
HETATM    4  C5  UNL     1     -40.961  13.438   6.092  1.00 20.00     0.118 A 
HETATM    5  C6  UNL     1     -39.912  12.382   5.715  1.00 20.00    -0.018 A 
HETATM    6  C7  UNL     1     -38.690  12.213   6.587  1.00 20.00     0.017 C 
HETATM    7  C8  UNL     1     -39.645  12.073   4.260  1.00 20.00     0.017 C 
ENDROOT
BRANCH   4   8
HETATM    8  C3  UNL     1     -40.749  14.257   7.304  1.00 20.00     0.280 C 
HETATM    9  O10 UNL     1     -40.187  15.343   7.306  1.00 20.00    -0.263 OA
BRANCH   8  10
HETATM   10  O11 UNL     1     -41.270  13.613   8.386  1.00 20.00    -0.325 OA
HETATM   11  C9  UNL     1     -42.331  14.299   9.057  1.00 20.00     0.213 C 
ENDBRANCH   8  10
ENDBRANCH   4   8
TORSDOF 2
ENDMDL
MODEL 5
REMARK VINA RESULT:      -3.5     11.599     13.168
REMARK  2 active torsions:
REMARK  status: ('A' for Active; 'I' for Inactive)
REMARK    1  A    between atoms: C3_3  and  C5_5 
REMARK    2  A    between atoms: C3_3  and  O11_11 
ROOT
HETATM    1  C1  UNL     1     -33.335  14.960  -4.111  1.00 20.00     0.013 C 
HETATM    2  C2  UNL     1     -33.520  16.116  -3.845  1.00 20.00    -0.096 C 
HETATM    3  C4  UNL     1     -33.756  18.479  -4.685  1.00 20.00     0.044 A 
HETATM    4  C5  UNL     1     -33.741  17.504  -3.525  1.00 20.00     0.118 A 
HETATM    5  C6  UNL     1     -35.049  18.172  -3.976  1.00 20.00    -0.018 A 
HETATM    6  C7  UNL     1     -35.653  19.261  -3.121  1.00 20.00     0.017 C 
HETATM    7  C8  UNL     1     -36.085  17.366  -4.725  1.00 20.00     0.017 C 
ENDROOT
BRANCH   4   8
HETATM    8  C3  UNL     1     -33.106  17.950  -2.267  1.00 20.00     0.280 C 
HETATM    9  O10 UNL     1     -32.259  18.830  -2.201  1.00 20.00    -0.263 OA
BRANCH   8  10
HETATM   10  O11 UNL     1     -33.611  17.232  -1.223  1.00 20.00    -0.325 OA
HETATM   11  C9  UNL     1     -33.828  17.971  -0.017  1.00 20.00     0.213 C 
ENDBRANCH   8  10
ENDBRANCH   4   8
TORSDOF 2
ENDMDL
MODEL 6
REMARK VINA RESULT:      -3.5     12.197     13.613
REMARK  2 active torsions:
REMARK  status: ('A' for Active; 'I' for Inactive)
REMARK    1  A    between atoms: C3_3  and  C5_5 
REMARK    2  A    between atoms: C3_3  and  O11_11 
ROOT
HETATM    1  C1  UNL     1     -36.627  18.958  -2.915  1.00 20.00     0.013 C 
HETATM    2  C2  UNL     1     -35.743  18.357  -3.464  1.00 20.00    -0.096 C 
HETATM    3  C4  UNL     1     -33.296  18.243  -4.050  1.00 20.00     0.044 A 
HETATM    4  C5  UNL     1     -34.683  17.636  -4.122  1.00 20.00     0.118 A 
HETATM    5  C6  UNL     1     -33.583  16.987  -3.268  1.00 20.00    -0.018 A 
HETATM    6  C7  UNL     1     -32.941  15.706  -3.744  1.00 20.00     0.017 C 
HETATM    7  C8  UNL     1     -33.638  17.097  -1.762  1.00 20.00     0.017 C 
ENDROOT
BRANCH   4   8
HETATM    8  C3  UNL     1     -35.079  16.989  -5.390  1.00 20.00     0.280 C 
HETATM    9  O10 UNL     1     -34.506  17.163  -6.456  1.00 20.00    -0.263 OA
BRANCH   8  10
HETATM   10  O11 UNL     1     -36.163  16.191  -5.174  1.00 20.00    -0.325 OA
HETATM   11  C9  UNL     1     -36.035  14.843  -5.635  1.00 20.00     0.213 C 
ENDBRANCH   8  10
ENDBRANCH   4   8
TORSDOF 2
ENDMDL
MODEL 7
REMARK VINA RESULT:      -3.3     11.971     13.928
REMARK  2 active torsions:
REMARK  status: ('A' for Active; 'I' for Inactive)
REMARK    1  A    between atoms: C3_3  and  C5_5 
REMARK    2  A    between atoms: C3_3  and  O11_11 
ROOT
HETATM    1  C1  UNL     1     -33.257  16.565  -2.653  1.00 20.00     0.013 C 
HETATM    2  C2  UNL     1     -33.843  16.638  -3.699  1.00 20.00    -0.096 C 
HETATM    3  C4  UNL     1     -35.757  17.633  -4.999  1.00 20.00     0.044 A 
HETATM    4  C5  UNL     1     -34.545  16.724  -4.955  1.00 20.00     0.118 A 
HETATM    5  C6  UNL     1     -34.510  18.045  -5.737  1.00 20.00    -0.018 A 
HETATM    6  C7  UNL     1     -34.548  18.009  -7.247  1.00 20.00     0.017 C 
HETATM    7  C8  UNL     1     -33.731  19.220  -5.194  1.00 20.00     0.017 C 
ENDROOT
BRANCH   4   8
HETATM    8  C3  UNL     1     -34.619  15.451  -5.702  1.00 20.00     0.280 C 
HETATM    9  O10 UNL     1     -33.659  14.912  -6.234  1.00 20.00    -0.263 OA
BRANCH   8  10
HETATM   10  O11 UNL     1     -35.904  14.996  -5.700  1.00 20.00    -0.325 OA
HETATM   11  C9  UNL     1     -36.156  13.871  -4.852  1.00 20.00     0.213 C 
ENDBRANCH   8  10
ENDBRANCH   4   8
TORSDOF 2
ENDMDL
MODEL 8
REMARK VINA RESULT:      -3.3     12.016     13.739
REMARK  2 active torsions:
REMARK  status: ('A' for Active; 'I' for Inactive)
REMARK    1  A    between atoms: C3_3  and  C5_5 
REMARK    2  A    between atoms: C3_3  and  O11_11 
ROOT
HETATM    1  C1  UNL     1     -34.135  18.519  -5.130  1.00 20.00     0.013 C 
HETATM    2  C2  UNL     1     -34.610  17.448  -5.391  1.00 20.00    -0.096 C 
HETATM    3  C4  UNL     1     -34.276  15.162  -6.395  1.00 20.00     0.044 A 
HETATM    4  C5  UNL     1     -35.181  16.162  -5.705  1.00 20.00     0.118 A 
HETATM    5  C6  UNL     1     -34.669  14.920  -4.961  1.00 20.00    -0.018 A 
HETATM    6  C7  UNL     1     -35.624  13.783  -4.681  1.00 20.00     0.017 C 
HETATM    7  C8  UNL     1     -33.596  15.064  -3.906  1.00 20.00     0.017 C 
ENDROOT
BRANCH   4   8
HETATM    8  C3  UNL     1     -36.596  16.209  -6.130  1.00 20.00     0.280 C 
HETATM    9  O10 UNL     1     -37.011  15.739  -7.180  1.00 20.00    -0.263 OA
BRANCH   8  10
HETATM   10  O11 UNL     1     -37.336  16.849  -5.180  1.00 20.00    -0.325 OA
HETATM   11  C9  UNL     1     -38.642  16.311  -4.954  1.00 20.00     0.213 C 
ENDBRANCH   8  10
ENDBRANCH   4   8
TORSDOF 2
ENDMDL
MODEL 9
REMARK VINA RESULT:      -3.3     10.185     11.518
REMARK  2 active torsions:
REMARK  status: ('A' for Active; 'I' for Inactive)
REMARK    1  A    between atoms: C3_3  and  C5_5 
REMARK    2  A    between atoms: C3_3  and  O11_11 
ROOT
HETATM    1  C1  UNL     1     -39.834  11.628   5.598  1.00 20.00     0.013 C 
HETATM    2  C2  UNL     1     -40.541  12.456   6.105  1.00 20.00    -0.096 C 
HETATM    3  C4  UNL     1     -40.890  14.879   6.697  1.00 20.00     0.044 A 
HETATM    4  C5  UNL     1     -41.390  13.449   6.714  1.00 20.00     0.118 A 
HETATM    5  C6  UNL     1     -42.058  14.505   5.821  1.00 20.00    -0.018 A 
HETATM    6  C7  UNL     1     -43.417  15.040   6.205  1.00 20.00     0.017 C 
HETATM    7  C8  UNL     1     -41.833  14.478   4.327  1.00 20.00     0.017 C 
ENDROOT
BRANCH   4   8
HETATM    8  C3  UNL     1     -42.096  12.987   7.928  1.00 20.00     0.280 C 
HETATM    9  O10 UNL     1     -42.965  12.126   7.930  1.00 20.00    -0.263 OA
BRANCH   8  10
HETATM   10  O11 UNL     1     -41.628  13.668   9.013  1.00 20.00    -0.325 OA
HETATM   11  C9  UNL     1     -42.604  13.974  10.014  1.00 20.00     0.213 C 
ENDBRANCH   8  10
ENDBRANCH   4   8
TORSDOF 2
ENDMDL
