MODEL 1
REMARK VINA RESULT:      -4.9      0.000      0.000
REMARK  1 active torsions:
REMARK  status: ('A' for Active; 'I' for Inactive)
REMARK    1  A    between atoms: C6_6  and  N10_10 
ROOT
HETATM    1  C1  UNL     1     -34.590   5.222   5.948  1.00 20.00    -0.017 A 
HETATM    2  C2  UNL     1     -34.422   6.370   6.526  1.00 20.00     0.079 A 
HETATM    3  C3  UNL     1     -33.816   7.410   5.721  1.00 20.00     0.047 A 
HETATM    4  C4  UNL     1     -33.544   6.043   3.614  1.00 20.00     0.057 A 
HETATM    5  C5  UNL     1     -34.043   4.829   3.947  1.00 20.00     0.129 A 
HETATM    6  C6  UNL     1     -33.429   7.255   4.434  1.00 20.00     0.135 A 
HETATM    7  N9  UNL     1     -34.585   4.374   5.140  1.00 20.00    -0.218 NA
ENDROOT
BRANCH   6   8
HETATM    8  N10 UNL     1     -32.853   8.407   3.827  1.00 20.00    -0.049 N 
HETATM    9  C7  UNL     1     -32.041   9.164   4.834  1.00 20.00     0.276 C 
HETATM   10  C8  UNL     1     -32.064   8.005   2.617  1.00 20.00     0.276 C 
HETATM   11  H21 UNL     1     -33.609   9.029   3.509  1.00 20.00     0.285 HD
ENDBRANCH   6   8
TORSDOF 1
ENDMDL
MODEL 2
REMARK VINA RESULT:      -4.7      0.435      1.181
REMARK  1 active torsions:
REMARK  status: ('A' for Active; 'I' for Inactive)
REMARK    1  A    between atoms: C6_6  and  N10_10 
ROOT
HETATM    1  C1  UNL     1     -34.723   5.380   5.761  1.00 20.00    -0.017 A 
HETATM    2  C2  UNL     1     -34.410   6.459   6.407  1.00 20.00     0.079 A 
HETATM    3  C3  UNL     1     -33.533   7.384   5.721  1.00 20.00     0.047 A 
HETATM    4  C4  UNL     1     -33.284   6.045   3.593  1.00 20.00     0.057 A 
HETATM    5  C5  UNL     1     -34.036   4.941   3.814  1.00 20.00     0.129 A 
HETATM    6  C6  UNL     1     -33.038   7.191   4.477  1.00 20.00     0.135 A 
HETATM    7  N9  UNL     1     -34.786   4.567   4.919  1.00 20.00    -0.218 NA
ENDROOT
BRANCH   6   8
HETATM    8  N10 UNL     1     -32.191   8.227   3.989  1.00 20.00    -0.049 N 
HETATM    9  C7  UNL     1     -32.645   8.659   2.627  1.00 20.00     0.276 C 
HETATM   10  C8  UNL     1     -32.140   9.352   4.978  1.00 20.00     0.276 C 
HETATM   11  H21 UNL     1     -31.235   7.857   3.893  1.00 20.00     0.285 HD
ENDBRANCH   6   8
TORSDOF 1
ENDMDL
MODEL 3
REMARK VINA RESULT:      -4.5      0.536      1.843
REMARK  1 active torsions:
REMARK  status: ('A' for Active; 'I' for Inactive)
REMARK    1  A    between atoms: C6_6  and  N10_10 
ROOT
HETATM    1  C1  UNL     1     -34.501   4.832   5.273  1.00 20.00    -0.017 A 
HETATM    2  C2  UNL     1     -34.074   4.857   4.049  1.00 20.00     0.079 A 
HETATM    3  C3  UNL     1     -33.514   6.112   3.592  1.00 20.00     0.047 A 
HETATM    4  C4  UNL     1     -33.832   7.389   5.749  1.00 20.00     0.057 A 
HETATM    5  C5  UNL     1     -34.407   6.487   6.580  1.00 20.00     0.129 A 
HETATM    6  C6  UNL     1     -33.414   7.227   4.351  1.00 20.00     0.135 A 
HETATM    7  N9  UNL     1     -34.768   5.165   6.364  1.00 20.00    -0.218 NA
ENDROOT
BRANCH   6   8
HETATM    8  N10 UNL     1     -32.833   8.356   3.705  1.00 20.00    -0.049 N 
HETATM    9  C7  UNL     1     -32.039   9.158   4.692  1.00 20.00     0.276 C 
HETATM   10  C8  UNL     1     -32.026   7.908   2.524  1.00 20.00     0.276 C 
HETATM   11  H21 UNL     1     -33.587   8.961   3.351  1.00 20.00     0.285 HD
ENDBRANCH   6   8
TORSDOF 1
ENDMDL
MODEL 4
REMARK VINA RESULT:      -4.1     15.475     16.563
REMARK  1 active torsions:
REMARK  status: ('A' for Active; 'I' for Inactive)
REMARK    1  A    between atoms: C6_6  and  N10_10 
ROOT
HETATM    1  C1  UNL     1     -23.113  19.029   7.578  1.00 20.00    -0.017 A 
HETATM    2  C2  UNL     1     -24.052  19.263   8.441  1.00 20.00     0.079 A 
HETATM    3  C3  UNL     1     -23.964  18.542   9.694  1.00 20.00     0.047 A 
HETATM    4  C4  UNL     1     -21.840  17.278   9.168  1.00 20.00     0.057 A 
HETATM    5  C5  UNL     1     -21.515  17.693   7.921  1.00 20.00     0.129 A 
HETATM    6  C6  UNL     1     -22.983  17.664  10.005  1.00 20.00     0.135 A 
HETATM    7  N9  UNL     1     -22.151  18.590   7.075  1.00 20.00    -0.218 NA
ENDROOT
BRANCH   6   8
HETATM    8  N10 UNL     1     -23.088  17.062  11.291  1.00 20.00    -0.049 N 
HETATM    9  C7  UNL     1     -22.516  17.977  12.332  1.00 20.00     0.276 C 
HETATM   10  C8  UNL     1     -24.512  16.680  11.562  1.00 20.00     0.276 C 
HETATM   11  H21 UNL     1     -22.529  16.197  11.301  1.00 20.00     0.285 HD
ENDBRANCH   6   8
TORSDOF 1
ENDMDL
MODEL 5
REMARK VINA RESULT:      -4.0      0.867      4.203
REMARK  1 active torsions:
REMARK  status: ('A' for Active; 'I' for Inactive)
REMARK    1  A    between atoms: C6_6  and  N10_10 
ROOT
HETATM    1  C1  UNL     1     -32.121   8.446   3.446  1.00 20.00    -0.017 A 
HETATM    2  C2  UNL     1     -32.278   7.351   2.771  1.00 20.00     0.079 A 
HETATM    3  C3  UNL     1     -33.141   6.351   3.364  1.00 20.00     0.047 A 
HETATM    4  C4  UNL     1     -33.728   7.654   5.448  1.00 20.00     0.057 A 
HETATM    5  C5  UNL     1     -33.049   8.817   5.306  1.00 20.00     0.129 A 
HETATM    6  C6  UNL     1     -33.776   6.493   4.550  1.00 20.00     0.135 A 
HETATM    7  N9  UNL     1     -32.212   9.254   4.291  1.00 20.00    -0.218 NA
ENDROOT
BRANCH   6   8
HETATM    8  N10 UNL     1     -34.576   5.385   4.951  1.00 20.00    -0.049 N 
HETATM    9  C7  UNL     1     -34.009   4.116   4.392  1.00 20.00     0.276 C 
HETATM   10  C8  UNL     1     -34.707   5.365   6.445  1.00 20.00     0.276 C 
HETATM   11  H21 UNL     1     -35.522   5.499   4.561  1.00 20.00     0.285 HD
ENDBRANCH   6   8
TORSDOF 1
ENDMDL
MODEL 6
REMARK VINA RESULT:      -3.8      0.861      3.789
REMARK  1 active torsions:
REMARK  status: ('A' for Active; 'I' for Inactive)
REMARK    1  A    between atoms: C6_6  and  N10_10 
ROOT
HETATM    1  C1  UNL     1     -32.354   8.832   4.154  1.00 20.00    -0.017 A 
HETATM    2  C2  UNL     1     -33.030   8.765   5.257  1.00 20.00     0.079 A 
HETATM    3  C3  UNL     1     -33.775   7.543   5.479  1.00 20.00     0.047 A 
HETATM    4  C4  UNL     1     -33.099   6.384   3.337  1.00 20.00     0.057 A 
HETATM    5  C5  UNL     1     -32.291   7.281   2.723  1.00 20.00     0.129 A 
HETATM    6  C6  UNL     1     -33.801   6.497   4.621  1.00 20.00     0.135 A 
HETATM    7  N9  UNL     1     -31.891   8.550   3.115  1.00 20.00    -0.218 NA
ENDROOT
BRANCH   6   8
HETATM    8  N10 UNL     1     -34.600   5.391   5.032  1.00 20.00    -0.049 N 
HETATM    9  C7  UNL     1     -34.059   4.123   4.445  1.00 20.00     0.276 C 
HETATM   10  C8  UNL     1     -34.693   5.356   6.528  1.00 20.00     0.276 C 
HETATM   11  H21 UNL     1     -35.555   5.517   4.667  1.00 20.00     0.285 HD
ENDBRANCH   6   8
TORSDOF 1
ENDMDL
MODEL 7
REMARK VINA RESULT:      -3.8     12.417     13.566
REMARK  1 active torsions:
REMARK  status: ('A' for Active; 'I' for Inactive)
REMARK    1  A    between atoms: C6_6  and  N10_10 
ROOT
HETATM    1  C1  UNL     1     -34.410  18.281  -1.502  1.00 20.00    -0.017 A 
HETATM    2  C2  UNL     1     -33.526  17.334  -1.455  1.00 20.00     0.079 A 
HETATM    3  C3  UNL     1     -33.318  16.591  -2.681  1.00 20.00     0.047 A 
HETATM    4  C4  UNL     1     -34.997  17.851  -4.087  1.00 20.00     0.057 A 
HETATM    5  C5  UNL     1     -35.511  18.770  -3.235  1.00 20.00     0.129 A 
HETATM    6  C6  UNL     1     -33.976  16.826  -3.839  1.00 20.00     0.135 A 
HETATM    7  N9  UNL     1     -35.233  19.014  -1.899  1.00 20.00    -0.218 NA
ENDROOT
BRANCH   6   8
HETATM    8  N10 UNL     1     -33.621  15.977  -4.926  1.00 20.00    -0.049 N 
HETATM    9  C7  UNL     1     -33.555  14.553  -4.462  1.00 20.00     0.276 C 
HETATM   10  C8  UNL     1     -34.573  16.181  -6.066  1.00 20.00     0.276 C 
HETATM   11  H21 UNL     1     -32.682  16.237  -5.258  1.00 20.00     0.285 HD
ENDBRANCH   6   8
TORSDOF 1
ENDMDL
MODEL 8
REMARK VINA RESULT:      -3.7      1.543      2.588
REMARK  1 active torsions:
REMARK  status: ('A' for Active; 'I' for Inactive)
REMARK    1  A    between atoms: C6_6  and  N10_10 
ROOT
HETATM    1  C1  UNL     1     -34.645   6.094   6.493  1.00 20.00    -0.017 A 
HETATM    2  C2  UNL     1     -34.784   5.059   5.726  1.00 20.00     0.079 A 
HETATM    3  C3  UNL     1     -34.238   5.173   4.390  1.00 20.00     0.047 A 
HETATM    4  C4  UNL     1     -33.346   7.525   4.627  1.00 20.00     0.057 A 
HETATM    5  C5  UNL     1     -33.678   7.872   5.893  1.00 20.00     0.129 A 
HETATM    6  C6  UNL     1     -33.606   6.269   3.912  1.00 20.00     0.135 A 
HETATM    7  N9  UNL     1     -34.349   7.161   6.877  1.00 20.00    -0.218 NA
ENDROOT
BRANCH   6   8
HETATM    8  N10 UNL     1     -33.146   6.172   2.568  1.00 20.00    -0.049 N 
HETATM    9  C7  UNL     1     -32.068   7.184   2.321  1.00 20.00     0.276 C 
HETATM   10  C8  UNL     1     -32.711   4.767   2.278  1.00 20.00     0.276 C 
HETATM   11  H21 UNL     1     -33.926   6.390   1.933  1.00 20.00     0.285 HD
ENDBRANCH   6   8
TORSDOF 1
ENDMDL
MODEL 9
REMARK VINA RESULT:      -3.7     12.527     13.684
REMARK  1 active torsions:
REMARK  status: ('A' for Active; 'I' for Inactive)
REMARK    1  A    between atoms: C6_6  and  N10_10 
ROOT
HETATM    1  C1  UNL     1     -33.967  17.725  -2.602  1.00 20.00    -0.017 A 
HETATM    2  C2  UNL     1     -33.291  16.620  -2.549  1.00 20.00     0.079 A 
HETATM    3  C3  UNL     1     -33.521  15.676  -3.624  1.00 20.00     0.047 A 
HETATM    4  C4  UNL     1     -35.216  17.062  -4.885  1.00 20.00     0.057 A 
HETATM    5  C5  UNL     1     -35.333  18.189  -4.143  1.00 20.00     0.129 A 
HETATM    6  C6  UNL     1     -34.378  15.880  -4.651  1.00 20.00     0.135 A 
HETATM    7  N9  UNL     1     -34.707  18.559  -2.962  1.00 20.00    -0.218 NA
ENDROOT
BRANCH   6   8
HETATM    8  N10 UNL     1     -34.455  14.821  -5.601  1.00 20.00    -0.049 N 
HETATM    9  C7  UNL     1     -35.860  14.304  -5.677  1.00 20.00     0.276 C 
HETATM   10  C8  UNL     1     -33.925  15.283  -6.924  1.00 20.00     0.276 C 
HETATM   11  H21 UNL     1     -33.857  14.045  -5.283  1.00 20.00     0.285 HD
ENDBRANCH   6   8
TORSDOF 1
ENDMDL
