MODEL 1
REMARK VINA RESULT:      -6.2      0.000      0.000
REMARK  0 active torsions:
REMARK  status: ('A' for Active; 'I' for Inactive)
ROOT
HETATM    1  C1  UNL     1     -33.566   5.687   6.768  1.00 20.00     0.012 A 
HETATM    2  C2  UNL     1     -32.415   6.805   3.254  1.00 20.00     0.006 A 
HETATM    3  C3  UNL     1     -34.762   4.820   4.868  1.00 20.00     0.101 C 
HETATM    4  C4  UNL     1     -34.751   5.542   6.168  1.00 20.00     0.016 A 
HETATM    5  C5  UNL     1     -33.548   6.444   3.879  1.00 20.00     0.035 A 
HETATM    6  C6  UNL     1     -32.522   9.360   3.722  1.00 20.00     0.015 A 
HETATM    7  C7  UNL     1     -34.193   6.882   6.293  1.00 20.00     0.017 A 
HETATM    8  C8  UNL     1     -31.812   8.040   3.787  1.00 20.00     0.015 A 
HETATM    9  C9  UNL     1     -33.908   7.491   4.945  1.00 20.00     0.048 A 
HETATM   10  C10 UNL     1     -32.741   8.467   4.915  1.00 20.00     0.004 A 
HETATM   11  N11 UNL     1     -34.214   5.249   3.768  1.00 20.00    -0.269 NA
ENDROOT
TORSDOF 0
ENDMDL
MODEL 2
REMARK VINA RESULT:      -5.5      0.992      3.517
REMARK  0 active torsions:
REMARK  status: ('A' for Active; 'I' for Inactive)
ROOT
HETATM    1  C1  UNL     1     -33.457   9.114   4.022  1.00 20.00     0.012 A 
HETATM    2  C2  UNL     1     -34.478   5.388   4.089  1.00 20.00     0.006 A 
HETATM    3  C3  UNL     1     -32.088   7.554   2.803  1.00 20.00     0.101 C 
HETATM    4  C4  UNL     1     -32.232   8.619   3.832  1.00 20.00     0.016 A 
HETATM    5  C5  UNL     1     -33.360   6.129   4.004  1.00 20.00     0.035 A 
HETATM    6  C6  UNL     1     -34.592   5.175   6.677  1.00 20.00     0.015 A 
HETATM    7  C7  UNL     1     -32.895   8.367   5.105  1.00 20.00     0.017 A 
HETATM    8  C8  UNL     1     -35.203   5.556   5.361  1.00 20.00     0.015 A 
HETATM    9  C9  UNL     1     -33.145   6.896   5.317  1.00 20.00     0.048 A 
HETATM   10  C10 UNL     1     -34.378   6.567   6.145  1.00 20.00     0.004 A 
HETATM   11  N11 UNL     1     -32.601   6.360   2.884  1.00 20.00    -0.269 NA
ENDROOT
TORSDOF 0
ENDMDL
MODEL 3
REMARK VINA RESULT:      -5.3      1.265      2.240
REMARK  0 active torsions:
REMARK  status: ('A' for Active; 'I' for Inactive)
ROOT
HETATM    1  C1  UNL     1     -35.605   5.767   4.345  1.00 20.00     0.012 A 
HETATM    2  C2  UNL     1     -33.031   8.577   4.982  1.00 20.00     0.006 A 
HETATM    3  C3  UNL     1     -34.642   5.928   6.545  1.00 20.00     0.101 C 
HETATM    4  C4  UNL     1     -34.936   5.142   5.318  1.00 20.00     0.016 A 
HETATM    5  C5  UNL     1     -33.289   7.329   5.405  1.00 20.00     0.035 A 
HETATM    6  C6  UNL     1     -31.471   7.987   2.989  1.00 20.00     0.015 A 
HETATM    7  C7  UNL     1     -34.251   5.405   4.059  1.00 20.00     0.017 A 
HETATM    8  C8  UNL     1     -32.688   8.659   3.551  1.00 20.00     0.015 A 
HETATM    9  C9  UNL     1     -33.083   6.338   4.249  1.00 20.00     0.048 A 
HETATM   10  C10 UNL     1     -32.767   7.223   3.053  1.00 20.00     0.004 A 
HETATM   11  N11 UNL     1     -33.844   6.955   6.604  1.00 20.00    -0.269 NA
ENDROOT
TORSDOF 0
ENDMDL
MODEL 4
REMARK VINA RESULT:      -4.5      1.418      3.918
REMARK  0 active torsions:
REMARK  status: ('A' for Active; 'I' for Inactive)
ROOT
HETATM    1  C1  UNL     1     -31.728   6.896   3.102  1.00 20.00     0.012 A 
HETATM    2  C2  UNL     1     -33.539   6.894   6.515  1.00 20.00     0.006 A 
HETATM    3  C3  UNL     1     -32.477   9.010   3.975  1.00 20.00     0.101 C 
HETATM    4  C4  UNL     1     -32.455   7.996   2.887  1.00 20.00     0.016 A 
HETATM    5  C5  UNL     1     -33.546   7.593   5.367  1.00 20.00     0.035 A 
HETATM    6  C6  UNL     1     -35.325   5.114   5.885  1.00 20.00     0.015 A 
HETATM    7  C7  UNL     1     -33.146   6.720   3.019  1.00 20.00     0.017 A 
HETATM    8  C8  UNL     1     -33.950   5.488   6.355  1.00 20.00     0.015 A 
HETATM    9  C9  UNL     1     -34.053   6.702   4.222  1.00 20.00     0.048 A 
HETATM   10  C10 UNL     1     -34.237   5.337   4.868  1.00 20.00     0.004 A 
HETATM   11  N11 UNL     1     -33.012   8.838   5.150  1.00 20.00    -0.269 NA
ENDROOT
TORSDOF 0
ENDMDL
MODEL 5
REMARK VINA RESULT:      -4.2     12.197     12.976
REMARK  0 active torsions:
REMARK  status: ('A' for Active; 'I' for Inactive)
ROOT
HETATM    1  C1  UNL     1     -30.669  18.079   1.584  1.00 20.00     0.012 A 
HETATM    2  C2  UNL     1     -34.024  17.732  -0.301  1.00 20.00     0.006 A 
HETATM    3  C3  UNL     1     -32.574  19.263   2.457  1.00 20.00     0.101 C 
HETATM    4  C4  UNL     1     -31.174  19.259   1.956  1.00 20.00     0.016 A 
HETATM    5  C5  UNL     1     -33.370  18.642   0.439  1.00 20.00     0.035 A 
HETATM    6  C6  UNL     1     -33.107  18.415  -2.635  1.00 20.00     0.015 A 
HETATM    7  C7  UNL     1     -30.868  19.045   0.547  1.00 20.00     0.017 A 
HETATM    8  C8  UNL     1     -33.340  17.393  -1.562  1.00 20.00     0.015 A 
HETATM    9  C9  UNL     1     -32.109  19.107  -0.305  1.00 20.00     0.048 A 
HETATM   10  C10 UNL     1     -32.074  18.238  -1.554  1.00 20.00     0.004 A 
HETATM   11  N11 UNL     1     -33.628  18.994   1.741  1.00 20.00    -0.269 NA
ENDROOT
TORSDOF 0
ENDMDL
MODEL 6
REMARK VINA RESULT:      -4.2     12.326     13.349
REMARK  0 active torsions:
REMARK  status: ('A' for Active; 'I' for Inactive)
ROOT
HETATM    1  C1  UNL     1     -33.488  19.248   1.078  1.00 20.00     0.012 A 
HETATM    2  C2  UNL     1     -32.525  19.263  -2.663  1.00 20.00     0.006 A 
HETATM    3  C3  UNL     1     -31.197  18.780   0.508  1.00 20.00     0.101 C 
HETATM    4  C4  UNL     1     -32.466  18.395   1.183  1.00 20.00     0.016 A 
HETATM    5  C5  UNL     1     -32.159  18.645  -1.528  1.00 20.00     0.035 A 
HETATM    6  C6  UNL     1     -34.357  17.587  -3.432  1.00 20.00     0.015 A 
HETATM    7  C7  UNL     1     -33.640  17.984   0.424  1.00 20.00     0.017 A 
HETATM    8  C8  UNL     1     -33.910  18.974  -3.075  1.00 20.00     0.015 A 
HETATM    9  C9  UNL     1     -33.309  17.756  -1.029  1.00 20.00     0.048 A 
HETATM   10  C10 UNL     1     -34.446  18.040  -1.999  1.00 20.00     0.004 A 
HETATM   11  N11 UNL     1     -31.033  18.881  -0.779  1.00 20.00    -0.269 NA
ENDROOT
TORSDOF 0
ENDMDL
MODEL 7
REMARK VINA RESULT:      -4.2     12.514     13.624
REMARK  0 active torsions:
REMARK  status: ('A' for Active; 'I' for Inactive)
ROOT
HETATM    1  C1  UNL     1     -34.037  17.761  -1.334  1.00 20.00     0.012 A 
HETATM    2  C2  UNL     1     -34.532  17.261  -5.133  1.00 20.00     0.006 A 
HETATM    3  C3  UNL     1     -32.887  19.263  -2.823  1.00 20.00     0.101 C 
HETATM    4  C4  UNL     1     -32.864  18.278  -1.709  1.00 20.00     0.016 A 
HETATM    5  C5  UNL     1     -33.584  17.693  -4.286  1.00 20.00     0.035 A 
HETATM    6  C6  UNL     1     -33.884  14.743  -5.172  1.00 20.00     0.015 A 
HETATM    7  C7  UNL     1     -33.105  16.859  -1.938  1.00 20.00     0.017 A 
HETATM    8  C8  UNL     1     -34.884  15.841  -4.953  1.00 20.00     0.015 A 
HETATM    9  C9  UNL     1     -33.102  16.527  -3.408  1.00 20.00     0.048 A 
HETATM   10  C10 UNL     1     -34.002  15.367  -3.806  1.00 20.00     0.004 A 
HETATM   11  N11 UNL     1     -33.205  18.992  -4.056  1.00 20.00    -0.269 NA
ENDROOT
TORSDOF 0
ENDMDL
MODEL 8
REMARK VINA RESULT:      -4.1     12.597     13.845
REMARK  0 active torsions:
REMARK  status: ('A' for Active; 'I' for Inactive)
ROOT
HETATM    1  C1  UNL     1     -33.922  15.189  -6.701  1.00 20.00     0.012 A 
HETATM    2  C2  UNL     1     -34.367  18.097  -4.197  1.00 20.00     0.006 A 
HETATM    3  C3  UNL     1     -36.111  16.168  -6.497  1.00 20.00     0.101 C 
HETATM    4  C4  UNL     1     -35.218  14.979  -6.456  1.00 20.00     0.016 A 
HETATM    5  C5  UNL     1     -35.087  17.084  -4.708  1.00 20.00     0.035 A 
HETATM    6  C6  UNL     1     -33.372  16.854  -2.143  1.00 20.00     0.015 A 
HETATM    7  C7  UNL     1     -34.263  14.779  -5.373  1.00 20.00     0.017 A 
HETATM    8  C8  UNL     1     -33.209  17.657  -3.399  1.00 20.00     0.015 A 
HETATM    9  C9  UNL     1     -34.499  15.744  -4.241  1.00 20.00     0.048 A 
HETATM   10  C10 UNL     1     -33.253  16.137  -3.461  1.00 20.00     0.004 A 
HETATM   11  N11 UNL     1     -36.073  17.163  -5.659  1.00 20.00    -0.269 NA
ENDROOT
TORSDOF 0
ENDMDL
MODEL 9
REMARK VINA RESULT:      -4.0     12.287     13.428
REMARK  0 active torsions:
REMARK  status: ('A' for Active; 'I' for Inactive)
ROOT
HETATM    1  C1  UNL     1     -32.789  15.311  -4.180  1.00 20.00     0.012 A 
HETATM    2  C2  UNL     1     -32.945  19.062  -3.269  1.00 20.00     0.006 A 
HETATM    3  C3  UNL     1     -34.417  16.674  -5.314  1.00 20.00     0.101 C 
HETATM    4  C4  UNL     1     -34.077  15.487  -4.484  1.00 20.00     0.016 A 
HETATM    5  C5  UNL     1     -33.772  18.086  -3.677  1.00 20.00     0.035 A 
HETATM    6  C6  UNL     1     -33.189  18.719  -0.704  1.00 20.00     0.015 A 
HETATM    7  C7  UNL     1     -33.666  15.619  -3.092  1.00 20.00     0.017 A 
HETATM    8  C8  UNL     1     -32.349  18.819  -1.943  1.00 20.00     0.015 A 
HETATM    9  C9  UNL     1     -33.893  17.018  -2.579  1.00 20.00     0.048 A 
HETATM   10  C10 UNL     1     -32.915  17.475  -1.507  1.00 20.00     0.004 A 
HETATM   11  N11 UNL     1     -34.298  17.913  -4.933  1.00 20.00    -0.269 NA
ENDROOT
TORSDOF 0
ENDMDL
