MODEL 1
REMARK VINA RESULT:      -4.0      0.000      0.000
REMARK  1 active torsions:
REMARK  status: ('A' for Active; 'I' for Inactive)
REMARK    1  A    between atoms: C1_1  and  C8_8 
REMARK       I    between atoms: C1_1  and  N9_9 
ROOT
HETATM    1  C1  UNL     1     -32.924   8.386   4.178  1.00 20.00     0.237 C 
HETATM    2  C2  UNL     1     -34.212   4.719   6.050  1.00 20.00     0.013 A 
HETATM    3  C3  UNL     1     -34.593   6.472   4.150  1.00 20.00     0.130 A 
HETATM    4  C4  UNL     1     -33.670   7.266   6.264  1.00 20.00     0.130 A 
HETATM    5  C5  UNL     1     -35.121   5.614   5.252  1.00 20.00     0.010 A 
HETATM    6  C6  UNL     1     -34.557   6.098   6.543  1.00 20.00     0.010 A 
HETATM    7  N9  UNL     1     -33.688   7.418   4.809  1.00 20.00    -0.350 N 
HETATM    8  O10 UNL     1     -32.173   9.165   4.768  1.00 20.00    -0.272 OA
ENDROOT
BRANCH   1   9
HETATM    9  C8  UNL     1     -33.057   8.444   2.677  1.00 20.00     0.170 C 
HETATM   10  C7  UNL     1     -32.786   9.844   2.175  1.00 20.00     0.036 C 
HETATM   11 CL11 UNL     1     -31.874   7.293   2.033  1.00 20.00    -0.115 Cl
ENDBRANCH   1   9
TORSDOF 1
ENDMDL
MODEL 2
REMARK VINA RESULT:      -3.9     12.329     13.473
REMARK  1 active torsions:
REMARK  status: ('A' for Active; 'I' for Inactive)
REMARK    1  A    between atoms: C1_1  and  C8_8 
REMARK       I    between atoms: C1_1  and  N9_9 
ROOT
HETATM    1  C1  UNL     1     -35.993  15.569  -5.748  1.00 20.00     0.237 C 
HETATM    2  C2  UNL     1     -33.529  16.588  -2.355  1.00 20.00     0.013 A 
HETATM    3  C3  UNL     1     -34.627  17.372  -4.593  1.00 20.00     0.130 A 
HETATM    4  C4  UNL     1     -33.975  15.029  -4.405  1.00 20.00     0.130 A 
HETATM    5  C5  UNL     1     -33.443  17.279  -3.689  1.00 20.00     0.010 A 
HETATM    6  C6  UNL     1     -33.045  15.849  -3.573  1.00 20.00     0.010 A 
HETATM    7  N9  UNL     1     -34.935  15.986  -4.956  1.00 20.00    -0.350 N 
HETATM    8  O10 UNL     1     -36.218  14.391  -6.031  1.00 20.00    -0.272 OA
ENDROOT
BRANCH   1   9
HETATM    9  C8  UNL     1     -36.890  16.664  -6.265  1.00 20.00     0.170 C 
HETATM   10  C7  UNL     1     -37.097  16.520  -7.755  1.00 20.00     0.036 C 
HETATM   11 CL11 UNL     1     -38.421  16.501  -5.388  1.00 20.00    -0.115 Cl
ENDBRANCH   1   9
TORSDOF 1
ENDMDL
MODEL 3
REMARK VINA RESULT:      -3.8     11.940     12.953
REMARK  1 active torsions:
REMARK  status: ('A' for Active; 'I' for Inactive)
REMARK    1  A    between atoms: C1_1  and  C8_8 
REMARK       I    between atoms: C1_1  and  N9_9 
ROOT
HETATM    1  C1  UNL     1     -34.049  15.340  -4.662  1.00 20.00     0.237 C 
HETATM    2  C2  UNL     1     -34.651  18.499  -1.786  1.00 20.00     0.013 A 
HETATM    3  C3  UNL     1     -34.306  17.840  -4.290  1.00 20.00     0.130 A 
HETATM    4  C4  UNL     1     -33.246  16.449  -2.590  1.00 20.00     0.130 A 
HETATM    5  C5  UNL     1     -33.973  18.697  -3.114  1.00 20.00     0.010 A 
HETATM    6  C6  UNL     1     -33.327  17.848  -2.075  1.00 20.00     0.010 A 
HETATM    7  N9  UNL     1     -33.892  16.489  -3.902  1.00 20.00    -0.350 N 
HETATM    8  O10 UNL     1     -33.685  14.220  -4.300  1.00 20.00    -0.272 OA
ENDROOT
BRANCH   1   9
HETATM    9  C8  UNL     1     -34.711  15.533  -6.003  1.00 20.00     0.170 C 
HETATM   10  C7  UNL     1     -33.724  15.289  -7.121  1.00 20.00     0.036 C 
HETATM   11 CL11 UNL     1     -36.046  14.370  -6.063  1.00 20.00    -0.115 Cl
ENDBRANCH   1   9
TORSDOF 1
ENDMDL
MODEL 4
REMARK VINA RESULT:      -3.8     12.408     13.230
REMARK  1 active torsions:
REMARK  status: ('A' for Active; 'I' for Inactive)
REMARK    1  A    between atoms: C1_1  and  C8_8 
REMARK       I    between atoms: C1_1  and  N9_9 
ROOT
HETATM    1  C1  UNL     1     -34.911  16.778  -5.265  1.00 20.00     0.237 C 
HETATM    2  C2  UNL     1     -32.597  18.184  -1.906  1.00 20.00     0.013 A 
HETATM    3  C3  UNL     1     -33.671  16.147  -3.140  1.00 20.00     0.130 A 
HETATM    4  C4  UNL     1     -34.798  18.304  -3.309  1.00 20.00     0.130 A 
HETATM    5  C5  UNL     1     -33.411  16.919  -1.889  1.00 20.00     0.010 A 
HETATM    6  C6  UNL     1     -34.098  18.236  -1.992  1.00 20.00     0.010 A 
HETATM    7  N9  UNL     1     -34.469  17.046  -3.979  1.00 20.00    -0.350 N 
HETATM    8  O10 UNL     1     -35.582  17.561  -5.940  1.00 20.00    -0.272 OA
ENDROOT
BRANCH   1   9
HETATM    9  C8  UNL     1     -34.516  15.434  -5.823  1.00 20.00     0.170 C 
HETATM   10  C7  UNL     1     -35.691  14.484  -5.794  1.00 20.00     0.036 C 
HETATM   11 CL11 UNL     1     -33.974  15.731  -7.484  1.00 20.00    -0.115 Cl
ENDBRANCH   1   9
TORSDOF 1
ENDMDL
MODEL 5
REMARK VINA RESULT:      -3.7     12.148     12.729
REMARK  1 active torsions:
REMARK  status: ('A' for Active; 'I' for Inactive)
REMARK    1  A    between atoms: C1_1  and  C8_8 
REMARK       I    between atoms: C1_1  and  N9_9 
ROOT
HETATM    1  C1  UNL     1     -34.072  18.004  -2.339  1.00 20.00     0.237 C 
HETATM    2  C2  UNL     1     -34.943  14.629  -4.883  1.00 20.00     0.013 A 
HETATM    3  C3  UNL     1     -33.168  15.909  -3.456  1.00 20.00     0.130 A 
HETATM    4  C4  UNL     1     -34.917  17.219  -4.539  1.00 20.00     0.130 A 
HETATM    5  C5  UNL     1     -33.568  15.218  -4.717  1.00 20.00     0.010 A 
HETATM    6  C6  UNL     1     -34.637  16.017  -5.378  1.00 20.00     0.010 A 
HETATM    7  N9  UNL     1     -34.044  17.081  -3.373  1.00 20.00    -0.350 N 
HETATM    8  O10 UNL     1     -34.825  18.978  -2.306  1.00 20.00    -0.272 OA
ENDROOT
BRANCH   1   9
HETATM    9  C8  UNL     1     -33.103  17.749  -1.213  1.00 20.00     0.170 C 
HETATM   10  C7  UNL     1     -31.990  18.771  -1.231  1.00 20.00     0.036 C 
HETATM   11 CL11 UNL     1     -34.047  17.856   0.282  1.00 20.00    -0.115 Cl
ENDBRANCH   1   9
TORSDOF 1
ENDMDL
MODEL 6
REMARK VINA RESULT:      -3.7     12.176     13.535
REMARK  1 active torsions:
REMARK  status: ('A' for Active; 'I' for Inactive)
REMARK    1  A    between atoms: C1_1  and  C8_8 
REMARK       I    between atoms: C1_1  and  N9_9 
ROOT
HETATM    1  C1  UNL     1     -33.750  16.259  -4.000  1.00 20.00     0.237 C 
HETATM    2  C2  UNL     1     -35.861  16.280  -7.763  1.00 20.00     0.013 A 
HETATM    3  C3  UNL     1     -35.882  16.898  -5.225  1.00 20.00     0.130 A 
HETATM    4  C4  UNL     1     -34.620  14.925  -5.905  1.00 20.00     0.130 A 
HETATM    5  C5  UNL     1     -36.543  16.300  -6.423  1.00 20.00     0.010 A 
HETATM    6  C6  UNL     1     -35.772  15.096  -6.839  1.00 20.00     0.010 A 
HETATM    7  N9  UNL     1     -34.703  16.060  -4.986  1.00 20.00    -0.350 N 
HETATM    8  O10 UNL     1     -32.771  15.530  -3.831  1.00 20.00    -0.272 OA
ENDROOT
BRANCH   1   9
HETATM    9  C8  UNL     1     -33.974  17.456  -3.111  1.00 20.00     0.170 C 
HETATM   10  C7  UNL     1     -33.532  17.155  -1.698  1.00 20.00     0.036 C 
HETATM   11 CL11 UNL     1     -33.021  18.775  -3.813  1.00 20.00    -0.115 Cl
ENDBRANCH   1   9
TORSDOF 1
ENDMDL
MODEL 7
REMARK VINA RESULT:      -3.6     12.974     14.199
REMARK  1 active torsions:
REMARK  status: ('A' for Active; 'I' for Inactive)
REMARK    1  A    between atoms: C1_1  and  C8_8 
REMARK       I    between atoms: C1_1  and  N9_9 
ROOT
HETATM    1  C1  UNL     1     -24.583  -1.926  11.502  1.00 20.00     0.237 C 
HETATM    2  C2  UNL     1     -28.893  -1.962  11.308  1.00 20.00     0.013 A 
HETATM    3  C3  UNL     1     -26.634  -2.642  10.185  1.00 20.00     0.130 A 
HETATM    4  C4  UNL     1     -26.677  -0.592  11.506  1.00 20.00     0.130 A 
HETATM    5  C5  UNL     1     -28.001  -2.049  10.099  1.00 20.00     0.010 A 
HETATM    6  C6  UNL     1     -28.028  -0.798  10.906  1.00 20.00     0.010 A 
HETATM    7  N9  UNL     1     -25.892  -1.751  11.083  1.00 20.00    -0.350 N 
HETATM    8  O10 UNL     1     -23.993  -1.152  12.258  1.00 20.00    -0.272 OA
ENDROOT
BRANCH   1   9
HETATM    9  C8  UNL     1     -23.888  -3.153  10.970  1.00 20.00     0.170 C 
HETATM   10  C7  UNL     1     -22.967  -2.788   9.828  1.00 20.00     0.036 C 
HETATM   11 CL11 UNL     1     -22.979  -3.833  12.331  1.00 20.00    -0.115 Cl
ENDBRANCH   1   9
TORSDOF 1
ENDMDL
MODEL 8
REMARK VINA RESULT:      -3.4     10.853     11.283
REMARK  1 active torsions:
REMARK  status: ('A' for Active; 'I' for Inactive)
REMARK    1  A    between atoms: C1_1  and  C8_8 
REMARK       I    between atoms: C1_1  and  N9_9 
ROOT
HETATM    1  C1  UNL     1     -41.428  13.156   7.003  1.00 20.00     0.237 C 
HETATM    2  C2  UNL     1     -41.956  16.726   9.367  1.00 20.00     0.013 A 
HETATM    3  C3  UNL     1     -40.366  15.295   7.868  1.00 20.00     0.130 A 
HETATM    4  C4  UNL     1     -42.027  14.118   9.212  1.00 20.00     0.130 A 
HETATM    5  C5  UNL     1     -40.620  16.085   9.109  1.00 20.00     0.010 A 
HETATM    6  C6  UNL     1     -41.635  15.368   9.929  1.00 20.00     0.010 A 
HETATM    7  N9  UNL     1     -41.273  14.147   7.959  1.00 20.00    -0.350 N 
HETATM    8  O10 UNL     1     -42.203  12.204   7.117  1.00 20.00    -0.272 OA
ENDROOT
BRANCH   1   9
HETATM    9  C8  UNL     1     -40.572  13.301   5.771  1.00 20.00     0.170 C 
HETATM   10  C7  UNL     1     -39.973  11.968   5.382  1.00 20.00     0.036 C 
HETATM   11 CL11 UNL     1     -41.642  13.916   4.499  1.00 20.00    -0.115 Cl
ENDBRANCH   1   9
TORSDOF 1
ENDMDL
MODEL 9
REMARK VINA RESULT:      -3.3      1.977      4.278
REMARK  1 active torsions:
REMARK  status: ('A' for Active; 'I' for Inactive)
REMARK    1  A    between atoms: C1_1  and  C8_8 
REMARK       I    between atoms: C1_1  and  N9_9 
ROOT
HETATM    1  C1  UNL     1     -33.888   6.984   5.476  1.00 20.00     0.237 C 
HETATM    2  C2  UNL     1     -32.761   9.022   1.844  1.00 20.00     0.013 A 
HETATM    3  C3  UNL     1     -32.875   6.766   3.157  1.00 20.00     0.130 A 
HETATM    4  C4  UNL     1     -32.570   8.817   4.442  1.00 20.00     0.130 A 
HETATM    5  C5  UNL     1     -32.122   7.746   2.319  1.00 20.00     0.010 A 
HETATM    6  C6  UNL     1     -31.937   8.998   3.103  1.00 20.00     0.010 A 
HETATM    7  N9  UNL     1     -33.161   7.479   4.405  1.00 20.00    -0.350 N 
HETATM    8  O10 UNL     1     -34.107   7.615   6.511  1.00 20.00    -0.272 OA
ENDROOT
BRANCH   1   9
HETATM    9  C8  UNL     1     -34.420   5.583   5.309  1.00 20.00     0.170 C 
HETATM   10  C7  UNL     1     -34.708   4.962   6.657  1.00 20.00     0.036 C 
HETATM   11 CL11 UNL     1     -35.897   5.729   4.342  1.00 20.00    -0.115 Cl
ENDBRANCH   1   9
TORSDOF 1
ENDMDL
