MODEL 1
REMARK VINA RESULT:      -4.6      0.000      0.000
REMARK  1 active torsions:
REMARK  status: ('A' for Active; 'I' for Inactive)
REMARK    1  A    between atoms: C3_3  and  C6_6 
ROOT
HETATM    1  C1  UNL     1     -32.992   8.461   4.611  1.00 20.00     0.005 C 
HETATM    2  C2  UNL     1     -32.814   7.462   3.729  1.00 20.00     0.040 C 
HETATM    3  C4  UNL     1     -33.769   8.290   5.877  1.00 20.00     0.033 C 
HETATM    4  C5  UNL     1     -34.014   6.814   6.168  1.00 20.00     0.049 C 
HETATM    5  C6  UNL     1     -34.360   6.046   4.888  1.00 20.00     0.116 C 
HETATM    6  C7  UNL     1     -32.003   7.627   2.484  1.00 20.00     0.076 C 
HETATM    7  C8  UNL     1     -35.739   6.391   4.324  1.00 20.00     0.054 C 
HETATM    8  O10 UNL     1     -33.360   6.201   3.869  1.00 20.00    -0.338 OA
ENDROOT
BRANCH   5   9
HETATM    9  C3  UNL     1     -34.302   4.570   5.161  1.00 20.00     0.269 C 
HETATM   10  O9  UNL     1     -33.901   3.746   4.345  1.00 20.00    -0.304 OA
ENDBRANCH   5   9
TORSDOF 1
ENDMDL
MODEL 2
REMARK VINA RESULT:      -3.8     12.329     13.650
REMARK  1 active torsions:
REMARK  status: ('A' for Active; 'I' for Inactive)
REMARK    1  A    between atoms: C3_3  and  C6_6 
ROOT
HETATM    1  C1  UNL     1     -33.757  17.693  -4.299  1.00 20.00     0.005 C 
HETATM    2  C2  UNL     1     -33.462  16.695  -3.449  1.00 20.00     0.040 C 
HETATM    3  C4  UNL     1     -33.514  19.131  -3.971  1.00 20.00     0.033 C 
HETATM    4  C5  UNL     1     -32.612  19.263  -2.748  1.00 20.00     0.049 C 
HETATM    5  C6  UNL     1     -32.977  18.231  -1.676  1.00 20.00     0.116 C 
HETATM    6  C7  UNL     1     -33.670  15.256  -3.798  1.00 20.00     0.076 C 
HETATM    7  C8  UNL     1     -34.317  18.509  -0.993  1.00 20.00     0.054 C 
HETATM    8  O10 UNL     1     -32.952  16.886  -2.179  1.00 20.00    -0.338 OA
ENDROOT
BRANCH   5   9
HETATM    9  C3  UNL     1     -31.898  18.194  -0.632  1.00 20.00     0.269 C 
HETATM   10  O9  UNL     1     -30.866  18.853  -0.702  1.00 20.00    -0.304 OA
ENDBRANCH   5   9
TORSDOF 1
ENDMDL
MODEL 3
REMARK VINA RESULT:      -3.8      9.897     10.867
REMARK  1 active torsions:
REMARK  status: ('A' for Active; 'I' for Inactive)
REMARK    1  A    between atoms: C3_3  and  C6_6 
ROOT
HETATM    1  C1  UNL     1     -40.947  13.248   4.960  1.00 20.00     0.005 C 
HETATM    2  C2  UNL     1     -40.406  12.708   6.066  1.00 20.00     0.040 C 
HETATM    3  C4  UNL     1     -42.170  14.107   4.997  1.00 20.00     0.033 C 
HETATM    4  C5  UNL     1     -42.486  14.540   6.425  1.00 20.00     0.049 C 
HETATM    5  C6  UNL     1     -42.265  13.391   7.414  1.00 20.00     0.116 C 
HETATM    6  C7  UNL     1     -39.160  11.883   6.028  1.00 20.00     0.076 C 
HETATM    7  C8  UNL     1     -43.299  12.271   7.289  1.00 20.00     0.054 C 
HETATM    8  O10 UNL     1     -40.939  12.846   7.333  1.00 20.00    -0.338 OA
ENDROOT
BRANCH   5   9
HETATM    9  C3  UNL     1     -42.298  13.928   8.816  1.00 20.00     0.269 C 
HETATM   10  O9  UNL     1     -41.471  13.633   9.673  1.00 20.00    -0.304 OA
ENDBRANCH   5   9
TORSDOF 1
ENDMDL
MODEL 4
REMARK VINA RESULT:      -3.7      8.877     10.141
REMARK  1 active torsions:
REMARK  status: ('A' for Active; 'I' for Inactive)
REMARK    1  A    between atoms: C3_3  and  C6_6 
ROOT
HETATM    1  C1  UNL     1     -41.215   7.973  -0.032  1.00 20.00     0.005 C 
HETATM    2  C2  UNL     1     -42.546   7.903  -0.210  1.00 20.00     0.040 C 
HETATM    3  C4  UNL     1     -40.337   6.763  -0.033  1.00 20.00     0.033 C 
HETATM    4  C5  UNL     1     -41.082   5.552  -0.582  1.00 20.00     0.049 C 
HETATM    5  C6  UNL     1     -42.527   5.512  -0.073  1.00 20.00     0.116 C 
HETATM    6  C7  UNL     1     -43.415   9.119  -0.248  1.00 20.00     0.076 C 
HETATM    7  C8  UNL     1     -42.639   5.182   1.416  1.00 20.00     0.054 C 
HETATM    8  O10 UNL     1     -43.244   6.721  -0.364  1.00 20.00    -0.338 OA
ENDROOT
BRANCH   5   9
HETATM    9  C3  UNL     1     -43.303   4.492  -0.856  1.00 20.00     0.269 C 
HETATM   10  O9  UNL     1     -43.239   4.383  -2.076  1.00 20.00    -0.304 OA
ENDBRANCH   5   9
TORSDOF 1
ENDMDL
MODEL 5
REMARK VINA RESULT:      -3.7     12.802     13.722
REMARK  1 active torsions:
REMARK  status: ('A' for Active; 'I' for Inactive)
REMARK    1  A    between atoms: C3_3  and  C6_6 
ROOT
HETATM    1  C1  UNL     1     -33.680  16.292  -3.669  1.00 20.00     0.005 C 
HETATM    2  C2  UNL     1     -34.689  16.978  -4.233  1.00 20.00     0.040 C 
HETATM    3  C4  UNL     1     -33.153  15.015  -4.241  1.00 20.00     0.033 C 
HETATM    4  C5  UNL     1     -33.665  14.806  -5.663  1.00 20.00     0.049 C 
HETATM    5  C6  UNL     1     -35.137  15.211  -5.787  1.00 20.00     0.116 C 
HETATM    6  C7  UNL     1     -35.185  18.275  -3.678  1.00 20.00     0.076 C 
HETATM    7  C8  UNL     1     -36.094  14.260  -5.067  1.00 20.00     0.054 C 
HETATM    8  O10 UNL     1     -35.372  16.561  -5.359  1.00 20.00    -0.338 OA
ENDROOT
BRANCH   5   9
HETATM    9  C3  UNL     1     -35.516  15.273  -7.239  1.00 20.00     0.269 C 
HETATM   10  O9  UNL     1     -36.188  14.414  -7.800  1.00 20.00    -0.304 OA
ENDBRANCH   5   9
TORSDOF 1
ENDMDL
MODEL 6
REMARK VINA RESULT:      -3.6      1.540      2.044
REMARK  1 active torsions:
REMARK  status: ('A' for Active; 'I' for Inactive)
REMARK    1  A    between atoms: C3_3  and  C6_6 
ROOT
HETATM    1  C1  UNL     1     -32.200   7.258   2.900  1.00 20.00     0.005 C 
HETATM    2  C2  UNL     1     -32.848   6.109   3.153  1.00 20.00     0.040 C 
HETATM    3  C4  UNL     1     -32.216   8.419   3.843  1.00 20.00     0.033 C 
HETATM    4  C5  UNL     1     -32.752   8.000   5.208  1.00 20.00     0.049 C 
HETATM    5  C6  UNL     1     -33.941   7.045   5.068  1.00 20.00     0.116 C 
HETATM    6  C7  UNL     1     -32.796   4.937   2.225  1.00 20.00     0.076 C 
HETATM    7  C8  UNL     1     -35.205   7.721   4.533  1.00 20.00     0.054 C 
HETATM    8  O10 UNL     1     -33.627   5.891   4.274  1.00 20.00    -0.338 OA
ENDROOT
BRANCH   5   9
HETATM    9  C3  UNL     1     -34.248   6.431   6.404  1.00 20.00     0.269 C 
HETATM   10  O9  UNL     1     -34.539   5.249   6.554  1.00 20.00    -0.304 OA
ENDBRANCH   5   9
TORSDOF 1
ENDMDL
MODEL 7
REMARK VINA RESULT:      -3.5     12.150     13.364
REMARK  1 active torsions:
REMARK  status: ('A' for Active; 'I' for Inactive)
REMARK    1  A    between atoms: C3_3  and  C6_6 
ROOT
HETATM    1  C1  UNL     1     -34.462  17.775  -4.398  1.00 20.00     0.005 C 
HETATM    2  C2  UNL     1     -34.083  16.650  -3.768  1.00 20.00     0.040 C 
HETATM    3  C4  UNL     1     -35.414  17.773  -5.551  1.00 20.00     0.033 C 
HETATM    4  C5  UNL     1     -36.117  16.425  -5.671  1.00 20.00     0.049 C 
HETATM    5  C6  UNL     1     -35.147  15.268  -5.410  1.00 20.00     0.116 C 
HETATM    6  C7  UNL     1     -33.162  16.662  -2.590  1.00 20.00     0.076 C 
HETATM    7  C8  UNL     1     -34.115  15.076  -6.521  1.00 20.00     0.054 C 
HETATM    8  O10 UNL     1     -34.487  15.382  -4.140  1.00 20.00    -0.338 OA
ENDROOT
BRANCH   5   9
HETATM    9  C3  UNL     1     -35.925  13.993  -5.244  1.00 20.00     0.269 C 
HETATM   10  O9  UNL     1     -35.727  13.194  -4.335  1.00 20.00    -0.304 OA
ENDBRANCH   5   9
TORSDOF 1
ENDMDL
MODEL 8
REMARK VINA RESULT:      -3.4      9.726     10.828
REMARK  1 active torsions:
REMARK  status: ('A' for Active; 'I' for Inactive)
REMARK    1  A    between atoms: C3_3  and  C6_6 
ROOT
HETATM    1  C1  UNL     1     -42.541  14.506   8.175  1.00 20.00     0.005 C 
HETATM    2  C2  UNL     1     -41.221  14.683   7.992  1.00 20.00     0.040 C 
HETATM    3  C4  UNL     1     -43.309  13.415   7.500  1.00 20.00     0.033 C 
HETATM    4  C5  UNL     1     -42.364  12.384   6.889  1.00 20.00     0.049 C 
HETATM    5  C6  UNL     1     -41.157  13.060   6.232  1.00 20.00     0.116 C 
HETATM    6  C7  UNL     1     -40.450  15.751   8.701  1.00 20.00     0.076 C 
HETATM    7  C8  UNL     1     -41.506  13.823   4.954  1.00 20.00     0.054 C 
HETATM    8  O10 UNL     1     -40.449  13.919   7.139  1.00 20.00    -0.338 OA
ENDROOT
BRANCH   5   9
HETATM    9  C3  UNL     1     -40.119  12.022   5.910  1.00 20.00     0.269 C 
HETATM   10  O9  UNL     1     -39.183  11.748   6.654  1.00 20.00    -0.304 OA
ENDBRANCH   5   9
TORSDOF 1
ENDMDL
MODEL 9
REMARK VINA RESULT:      -3.4     12.624     14.283
REMARK  1 active torsions:
REMARK  status: ('A' for Active; 'I' for Inactive)
REMARK    1  A    between atoms: C3_3  and  C6_6 
ROOT
HETATM    1  C1  UNL     1     -33.673  15.110  -3.802  1.00 20.00     0.005 C 
HETATM    2  C2  UNL     1     -33.655  16.434  -3.571  1.00 20.00     0.040 C 
HETATM    3  C4  UNL     1     -34.111  14.523  -5.105  1.00 20.00     0.033 C 
HETATM    4  C5  UNL     1     -34.194  15.599  -6.183  1.00 20.00     0.049 C 
HETATM    5  C6  UNL     1     -34.793  16.895  -5.628  1.00 20.00     0.116 C 
HETATM    6  C7  UNL     1     -33.178  17.016  -2.279  1.00 20.00     0.076 C 
HETATM    7  C8  UNL     1     -36.285  16.789  -5.308  1.00 20.00     0.054 C 
HETATM    8  O10 UNL     1     -34.078  17.383  -4.482  1.00 20.00    -0.338 OA
ENDROOT
BRANCH   5   9
HETATM    9  C3  UNL     1     -34.587  18.004  -6.620  1.00 20.00     0.269 C 
HETATM   10  O9  UNL     1     -34.056  17.844  -7.714  1.00 20.00    -0.304 OA
ENDBRANCH   5   9
TORSDOF 1
ENDMDL
