MODEL 1
REMARK VINA RESULT:      -3.8      0.000      0.000
REMARK  2 active torsions:
REMARK  status: ('A' for Active; 'I' for Inactive)
REMARK    1  A    between atoms: C1_1  and  N9_9 
REMARK    2  A    between atoms: C4_4  and  C8_8 
ROOT
HETATM    1  C2  UNL     1     -33.696  17.435  -4.615  1.00 20.00     0.031 C 
HETATM    2  C3  UNL     1     -33.794  15.060  -4.238  1.00 20.00     0.130 C 
HETATM    3  C4  UNL     1     -33.211  16.341  -3.653  1.00 20.00     0.005 C 
HETATM    4  C5  UNL     1     -35.018  16.918  -5.195  1.00 20.00     0.083 C 
HETATM    5  C6  UNL     1     -36.242  17.556  -4.545  1.00 20.00     0.032 C 
HETATM    6  N9  UNL     1     -34.966  15.475  -4.989  1.00 20.00    -0.355 N 
ENDROOT
BRANCH   3   7
HETATM    7  C8  UNL     1     -33.663  16.571  -2.213  1.00 20.00     0.002 C 
HETATM    8  C7  UNL     1     -32.919  17.696  -1.564  1.00 20.00     0.005 C 
ENDBRANCH   3   7
BRANCH   6   9
HETATM    9  C1  UNL     1     -35.843  14.580  -5.560  1.00 20.00     0.351 C 
HETATM   10  O10 UNL     1     -35.933  14.291  -6.748  1.00 20.00    -0.284 OA
ENDBRANCH   6   9
TORSDOF 2
ENDMDL
MODEL 2
REMARK VINA RESULT:      -3.6     13.435     14.332
REMARK  2 active torsions:
REMARK  status: ('A' for Active; 'I' for Inactive)
REMARK    1  A    between atoms: C1_1  and  N9_9 
REMARK    2  A    between atoms: C4_4  and  C8_8 
ROOT
HETATM    1  C2  UNL     1     -40.992  14.469   6.428  1.00 20.00     0.031 C 
HETATM    2  C3  UNL     1     -42.380  12.534   6.776  1.00 20.00     0.130 C 
HETATM    3  C4  UNL     1     -41.208  13.031   5.935  1.00 20.00     0.005 C 
HETATM    4  C5  UNL     1     -41.465  14.482   7.886  1.00 20.00     0.083 C 
HETATM    5  C6  UNL     1     -40.312  14.430   8.885  1.00 20.00     0.032 C 
HETATM    6  N9  UNL     1     -42.347  13.326   7.993  1.00 20.00    -0.355 N 
ENDROOT
BRANCH   3   7
HETATM    7  C8  UNL     1     -39.971  12.152   6.100  1.00 20.00     0.002 C 
HETATM    8  C7  UNL     1     -39.374  11.771   4.782  1.00 20.00     0.005 C 
ENDBRANCH   3   7
BRANCH   6   9
HETATM    9  C1  UNL     1     -43.175  13.080   9.066  1.00 20.00     0.351 C 
HETATM   10  O10 UNL     1     -42.983  12.284   9.978  1.00 20.00    -0.284 OA
ENDBRANCH   6   9
TORSDOF 2
ENDMDL
MODEL 3
REMARK VINA RESULT:      -3.5      1.422      1.656
REMARK  2 active torsions:
REMARK  status: ('A' for Active; 'I' for Inactive)
REMARK    1  A    between atoms: C1_1  and  N9_9 
REMARK    2  A    between atoms: C4_4  and  C8_8 
ROOT
HETATM    1  C2  UNL     1     -33.685  18.378  -4.223  1.00 20.00     0.031 C 
HETATM    2  C3  UNL     1     -33.186  16.301  -3.114  1.00 20.00     0.130 C 
HETATM    3  C4  UNL     1     -33.282  17.802  -2.858  1.00 20.00     0.005 C 
HETATM    4  C5  UNL     1     -34.472  17.266  -4.926  1.00 20.00     0.083 C 
HETATM    5  C6  UNL     1     -35.981  17.485  -4.877  1.00 20.00     0.032 C 
HETATM    6  N9  UNL     1     -34.063  16.044  -4.243  1.00 20.00    -0.355 N 
ENDROOT
BRANCH   3   7
HETATM    7  C8  UNL     1     -34.283  18.132  -1.753  1.00 20.00     0.002 C 
HETATM    8  C7  UNL     1     -33.754  17.788  -0.396  1.00 20.00     0.005 C 
ENDBRANCH   3   7
BRANCH   6   9
HETATM    9  C1  UNL     1     -34.348  14.774  -4.693  1.00 20.00     0.351 C 
HETATM   10  O10 UNL     1     -34.453  13.758  -4.015  1.00 20.00    -0.284 OA
ENDBRANCH   6   9
TORSDOF 2
ENDMDL
MODEL 4
REMARK VINA RESULT:      -3.3     12.174     13.167
REMARK  2 active torsions:
REMARK  status: ('A' for Active; 'I' for Inactive)
REMARK    1  A    between atoms: C1_1  and  N9_9 
REMARK    2  A    between atoms: C4_4  and  C8_8 
ROOT
HETATM    1  C2  UNL     1     -35.002   6.363   4.304  1.00 20.00     0.031 C 
HETATM    2  C3  UNL     1     -33.338   8.056   4.702  1.00 20.00     0.130 C 
HETATM    3  C4  UNL     1     -34.400   7.229   5.420  1.00 20.00     0.005 C 
HETATM    4  C5  UNL     1     -33.880   6.175   3.276  1.00 20.00     0.083 C 
HETATM    5  C6  UNL     1     -33.207   4.809   3.375  1.00 20.00     0.032 C 
HETATM    6  N9  UNL     1     -32.957   7.271   3.541  1.00 20.00    -0.355 N 
ENDROOT
BRANCH   3   7
HETATM    7  C8  UNL     1     -33.810   6.405   6.561  1.00 20.00     0.002 C 
HETATM    8  C7  UNL     1     -34.454   5.058   6.671  1.00 20.00     0.005 C 
ENDBRANCH   3   7
BRANCH   6   9
HETATM    9  C1  UNL     1     -31.919   7.628   2.708  1.00 20.00     0.351 C 
HETATM   10  O10 UNL     1     -31.991   7.906   1.516  1.00 20.00    -0.284 OA
ENDBRANCH   6   9
TORSDOF 2
ENDMDL
MODEL 5
REMARK VINA RESULT:      -3.3      5.016      6.270
REMARK  2 active torsions:
REMARK  status: ('A' for Active; 'I' for Inactive)
REMARK    1  A    between atoms: C1_1  and  N9_9 
REMARK    2  A    between atoms: C4_4  and  C8_8 
ROOT
HETATM    1  C2  UNL     1     -33.667  17.467  -1.034  1.00 20.00     0.031 C 
HETATM    2  C3  UNL     1     -31.519  18.439  -0.551  1.00 20.00     0.130 C 
HETATM    3  C4  UNL     1     -32.427  18.062  -1.717  1.00 20.00     0.005 C 
HETATM    4  C5  UNL     1     -33.756  18.154   0.333  1.00 20.00     0.083 C 
HETATM    5  C6  UNL     1     -34.803  19.263   0.374  1.00 20.00     0.032 C 
HETATM    6  N9  UNL     1     -32.407  18.652   0.578  1.00 20.00    -0.355 N 
ENDROOT
BRANCH   3   7
HETATM    7  C8  UNL     1     -32.753  19.263  -2.601  1.00 20.00     0.002 C 
HETATM    8  C7  UNL     1     -33.029  18.860  -4.016  1.00 20.00     0.005 C 
ENDBRANCH   3   7
BRANCH   6   9
HETATM    9  C1  UNL     1     -31.969  19.137   1.791  1.00 20.00     0.351 C 
HETATM   10  O10 UNL     1     -31.504  18.488   2.721  1.00 20.00    -0.284 OA
ENDBRANCH   6   9
TORSDOF 2
ENDMDL
MODEL 6
REMARK VINA RESULT:      -3.2     12.587     13.501
REMARK  2 active torsions:
REMARK  status: ('A' for Active; 'I' for Inactive)
REMARK    1  A    between atoms: C1_1  and  N9_9 
REMARK    2  A    between atoms: C4_4  and  C8_8 
ROOT
HETATM    1  C2  UNL     1     -42.400  13.153   6.373  1.00 20.00     0.031 C 
HETATM    2  C3  UNL     1     -40.194  13.308   7.322  1.00 20.00     0.130 C 
HETATM    3  C4  UNL     1     -40.986  12.567   6.250  1.00 20.00     0.005 C 
HETATM    4  C5  UNL     1     -42.213  14.579   6.901  1.00 20.00     0.083 C 
HETATM    5  C6  UNL     1     -42.339  15.638   5.809  1.00 20.00     0.032 C 
HETATM    6  N9  UNL     1     -40.890  14.569   7.515  1.00 20.00    -0.355 N 
ENDROOT
BRANCH   3   7
HETATM    7  C8  UNL     1     -40.382  12.752   4.861  1.00 20.00     0.002 C 
HETATM    8  C7  UNL     1     -39.277  11.779   4.594  1.00 20.00     0.005 C 
ENDBRANCH   3   7
BRANCH   6   9
HETATM    9  C1  UNL     1     -40.401  15.576   8.317  1.00 20.00     0.351 C 
HETATM   10  O10 UNL     1     -39.797  15.449   9.376  1.00 20.00    -0.284 OA
ENDBRANCH   6   9
TORSDOF 2
ENDMDL
MODEL 7
REMARK VINA RESULT:      -3.2     12.780     14.125
REMARK  2 active torsions:
REMARK  status: ('A' for Active; 'I' for Inactive)
REMARK    1  A    between atoms: C1_1  and  N9_9 
REMARK    2  A    between atoms: C4_4  and  C8_8 
ROOT
HETATM    1  C2  UNL     1     -43.348   6.391   1.967  1.00 20.00     0.031 C 
HETATM    2  C3  UNL     1     -43.210   6.645  -0.422  1.00 20.00     0.130 C 
HETATM    3  C4  UNL     1     -42.854   7.356   0.880  1.00 20.00     0.005 C 
HETATM    4  C5  UNL     1     -43.266   4.991   1.347  1.00 20.00     0.083 C 
HETATM    5  C6  UNL     1     -42.045   4.204   1.816  1.00 20.00     0.032 C 
HETATM    6  N9  UNL     1     -43.255   5.231  -0.091  1.00 20.00    -0.355 N 
ENDROOT
BRANCH   3   7
HETATM    7  C8  UNL     1     -41.361   7.653   0.981  1.00 20.00     0.002 C 
HETATM    8  C7  UNL     1     -40.724   7.795  -0.366  1.00 20.00     0.005 C 
ENDBRANCH   3   7
BRANCH   6   9
HETATM    9  C1  UNL     1     -43.417   4.247  -1.041  1.00 20.00     0.351 C 
HETATM   10  O10 UNL     1     -43.057   4.286  -2.212  1.00 20.00    -0.284 OA
ENDBRANCH   6   9
TORSDOF 2
ENDMDL
MODEL 8
REMARK VINA RESULT:      -3.1     11.690     12.689
REMARK  2 active torsions:
REMARK  status: ('A' for Active; 'I' for Inactive)
REMARK    1  A    between atoms: C1_1  and  N9_9 
REMARK    2  A    between atoms: C4_4  and  C8_8 
ROOT
HETATM    1  C2  UNL     1     -32.593   6.403   3.028  1.00 20.00     0.031 C 
HETATM    2  C3  UNL     1     -32.293   8.209   4.591  1.00 20.00     0.130 C 
HETATM    3  C4  UNL     1     -32.136   7.867   3.113  1.00 20.00     0.005 C 
HETATM    4  C5  UNL     1     -33.608   6.221   4.162  1.00 20.00     0.083 C 
HETATM    5  C6  UNL     1     -35.054   6.245   3.674  1.00 20.00     0.032 C 
HETATM    6  N9  UNL     1     -33.316   7.306   5.091  1.00 20.00    -0.355 N 
ENDROOT
BRANCH   3   7
HETATM    7  C8  UNL     1     -32.951   8.798   2.219  1.00 20.00     0.002 C 
HETATM    8  C7  UNL     1     -32.456   8.795   0.806  1.00 20.00     0.005 C 
ENDBRANCH   3   7
BRANCH   6   9
HETATM    9  C1  UNL     1     -33.834   7.397   6.364  1.00 20.00     0.351 C 
HETATM   10  O10 UNL     1     -34.594   6.605   6.909  1.00 20.00    -0.284 OA
ENDBRANCH   6   9
TORSDOF 2
ENDMDL
MODEL 9
REMARK VINA RESULT:      -3.1     24.513     25.433
REMARK  2 active torsions:
REMARK  status: ('A' for Active; 'I' for Inactive)
REMARK    1  A    between atoms: C1_1  and  N9_9 
REMARK    2  A    between atoms: C4_4  and  C8_8 
ROOT
HETATM    1  C2  UNL     1     -27.797  -2.136   9.927  1.00 20.00     0.031 C 
HETATM    2  C3  UNL     1     -26.880  -0.745  11.664  1.00 20.00     0.130 C 
HETATM    3  C4  UNL     1     -28.209  -1.168  11.046  1.00 20.00     0.005 C 
HETATM    4  C5  UNL     1     -26.478  -2.765  10.388  1.00 20.00     0.083 C 
HETATM    5  C6  UNL     1     -26.655  -4.174  10.947  1.00 20.00     0.032 C 
HETATM    6  N9  UNL     1     -25.959  -1.833  11.383  1.00 20.00    -0.355 N 
ENDROOT
BRANCH   3   7
HETATM    7  C8  UNL     1     -29.141  -1.805  12.072  1.00 20.00     0.002 C 
HETATM    8  C7  UNL     1     -30.120  -2.743  11.436  1.00 20.00     0.005 C 
ENDBRANCH   3   7
BRANCH   6   9
HETATM    9  C1  UNL     1     -24.682  -1.882  11.898  1.00 20.00     0.351 C 
HETATM   10  O10 UNL     1     -23.875  -0.961  11.958  1.00 20.00    -0.284 OA
ENDBRANCH   6   9
TORSDOF 2
ENDMDL
