MODEL 1
REMARK VINA RESULT:      -5.5      0.000      0.000
REMARK  1 active torsions:
REMARK  status: ('A' for Active; 'I' for Inactive)
REMARK    1  A    between atoms: C1_1  and  C2_2 
ROOT
HETATM    1  C2  UNL     1     -34.513   6.512   4.784  1.00 20.00     0.154 A 
HETATM    2  C3  UNL     1     -33.670   7.777   4.807  1.00 20.00     0.073 A 
HETATM    3  C4  UNL     1     -33.912   7.007   6.054  1.00 20.00     0.259 A 
HETATM    4  C5  UNL     1     -32.305   7.831   4.213  1.00 20.00     0.017 C 
HETATM    5  F7  UNL     1     -34.714   7.524   7.047  1.00 20.00    -0.205 F 
HETATM    6  F8  UNL     1     -32.892   6.317   6.672  1.00 20.00    -0.205 F 
ENDROOT
BRANCH   1   7
HETATM    7  C1  UNL     1     -34.003   5.284   4.166  1.00 20.00     0.229 C 
HETATM    8  O6  UNL     1     -34.142   4.187   4.700  1.00 20.00    -0.279 OA
HETATM    9 CL9  UNL     1     -33.216   5.593   2.648  1.00 20.00    -0.043 Cl
ENDBRANCH   1   7
TORSDOF 1
ENDMDL
MODEL 2
REMARK VINA RESULT:      -5.4      2.550      2.993
REMARK  1 active torsions:
REMARK  status: ('A' for Active; 'I' for Inactive)
REMARK    1  A    between atoms: C1_1  and  C2_2 
ROOT
HETATM    1  C2  UNL     1     -34.328   7.342   4.656  1.00 20.00     0.154 A 
HETATM    2  C3  UNL     1     -34.582   6.488   5.887  1.00 20.00     0.073 A 
HETATM    3  C4  UNL     1     -34.926   5.983   4.533  1.00 20.00     0.259 A 
HETATM    4  C5  UNL     1     -33.473   5.862   6.660  1.00 20.00     0.017 C 
HETATM    5  F7  UNL     1     -36.243   5.835   4.159  1.00 20.00    -0.205 F 
HETATM    6  F8  UNL     1     -34.221   4.947   3.960  1.00 20.00    -0.205 F 
ENDROOT
BRANCH   1   7
HETATM    7  C1  UNL     1     -32.962   7.584   4.180  1.00 20.00     0.229 C 
HETATM    8  O6  UNL     1     -32.452   6.892   3.304  1.00 20.00    -0.279 OA
HETATM    9 CL9  UNL     1     -32.212   8.921   4.997  1.00 20.00    -0.043 Cl
ENDBRANCH   1   7
TORSDOF 1
ENDMDL
MODEL 3
REMARK VINA RESULT:      -5.0      1.962      2.729
REMARK  1 active torsions:
REMARK  status: ('A' for Active; 'I' for Inactive)
REMARK    1  A    between atoms: C1_1  and  C2_2 
ROOT
HETATM    1  C2  UNL     1     -33.397   6.161   4.936  1.00 20.00     0.154 A 
HETATM    2  C3  UNL     1     -34.749   5.493   4.748  1.00 20.00     0.073 A 
HETATM    3  C4  UNL     1     -34.269   5.857   6.105  1.00 20.00     0.259 A 
HETATM    4  C5  UNL     1     -35.910   6.208   4.148  1.00 20.00     0.017 C 
HETATM    5  F7  UNL     1     -33.909   4.876   7.003  1.00 20.00    -0.205 F 
HETATM    6  F8  UNL     1     -34.869   6.867   6.825  1.00 20.00    -0.205 F 
ENDROOT
BRANCH   1   7
HETATM    7  C1  UNL     1     -33.186   7.554   4.527  1.00 20.00     0.229 C 
HETATM    8  O6  UNL     1     -33.576   8.494   5.213  1.00 20.00    -0.279 OA
HETATM    9 CL9  UNL     1     -32.348   7.670   3.009  1.00 20.00    -0.043 Cl
ENDBRANCH   1   7
TORSDOF 1
ENDMDL
MODEL 4
REMARK VINA RESULT:      -4.6      2.627      2.984
REMARK  1 active torsions:
REMARK  status: ('A' for Active; 'I' for Inactive)
REMARK    1  A    between atoms: C1_1  and  C2_2 
ROOT
HETATM    1  C2  UNL     1     -33.878   7.673   4.339  1.00 20.00     0.154 A 
HETATM    2  C3  UNL     1     -33.257   7.136   3.059  1.00 20.00     0.073 A 
HETATM    3  C4  UNL     1     -32.584   8.210   3.833  1.00 20.00     0.259 A 
HETATM    4  C5  UNL     1     -32.651   5.777   2.982  1.00 20.00     0.017 C 
HETATM    5  F7  UNL     1     -32.513   9.490   3.330  1.00 20.00    -0.205 F 
HETATM    6  F8  UNL     1     -31.405   7.971   4.505  1.00 20.00    -0.205 F 
ENDROOT
BRANCH   1   7
HETATM    7  C1  UNL     1     -33.902   6.859   5.559  1.00 20.00     0.229 C 
HETATM    8  O6  UNL     1     -33.181   7.114   6.520  1.00 20.00    -0.279 OA
HETATM    9 CL9  UNL     1     -35.040   5.550   5.449  1.00 20.00    -0.043 Cl
ENDBRANCH   1   7
TORSDOF 1
ENDMDL
MODEL 5
REMARK VINA RESULT:      -4.5      1.807      2.378
REMARK  1 active torsions:
REMARK  status: ('A' for Active; 'I' for Inactive)
REMARK    1  A    between atoms: C1_1  and  C2_2 
ROOT
HETATM    1  C2  UNL     1     -33.361   6.076   4.864  1.00 20.00     0.154 A 
HETATM    2  C3  UNL     1     -34.852   5.948   5.129  1.00 20.00     0.073 A 
HETATM    3  C4  UNL     1     -34.086   7.103   5.663  1.00 20.00     0.259 A 
HETATM    4  C5  UNL     1     -35.867   6.154   4.059  1.00 20.00     0.017 C 
HETATM    5  F7  UNL     1     -33.856   7.220   7.016  1.00 20.00    -0.205 F 
HETATM    6  F8  UNL     1     -34.283   8.375   5.172  1.00 20.00    -0.205 F 
ENDROOT
BRANCH   1   7
HETATM    7  C1  UNL     1     -32.864   6.411   3.526  1.00 20.00     0.229 C 
HETATM    8  O6  UNL     1     -32.480   7.543   3.245  1.00 20.00    -0.279 OA
HETATM    9 CL9  UNL     1     -32.897   5.044   2.454  1.00 20.00    -0.043 Cl
ENDBRANCH   1   7
TORSDOF 1
ENDMDL
MODEL 6
REMARK VINA RESULT:      -4.5      2.373      2.959
REMARK  1 active torsions:
REMARK  status: ('A' for Active; 'I' for Inactive)
REMARK    1  A    between atoms: C1_1  and  C2_2 
ROOT
HETATM    1  C2  UNL     1     -33.599   6.458   5.318  1.00 20.00     0.154 A 
HETATM    2  C3  UNL     1     -33.608   5.175   4.503  1.00 20.00     0.073 A 
HETATM    3  C4  UNL     1     -34.850   5.665   5.154  1.00 20.00     0.259 A 
HETATM    4  C5  UNL     1     -33.491   5.180   3.018  1.00 20.00     0.017 C 
HETATM    5  F7  UNL     1     -35.387   4.987   6.226  1.00 20.00    -0.205 F 
HETATM    6  F8  UNL     1     -35.903   6.146   4.408  1.00 20.00    -0.205 F 
ENDROOT
BRANCH   1   7
HETATM    7  C1  UNL     1     -33.473   7.763   4.661  1.00 20.00     0.229 C 
HETATM    8  O6  UNL     1     -34.434   8.517   4.532  1.00 20.00    -0.279 OA
HETATM    9 CL9  UNL     1     -31.850   8.068   4.120  1.00 20.00    -0.043 Cl
ENDBRANCH   1   7
TORSDOF 1
ENDMDL
MODEL 7
REMARK VINA RESULT:      -4.4      1.682      2.291
REMARK  1 active torsions:
REMARK  status: ('A' for Active; 'I' for Inactive)
REMARK    1  A    between atoms: C1_1  and  C2_2 
ROOT
HETATM    1  C2  UNL     1     -33.427   5.823   4.748  1.00 20.00     0.154 A 
HETATM    2  C3  UNL     1     -34.908   5.852   5.090  1.00 20.00     0.073 A 
HETATM    3  C4  UNL     1     -34.013   6.961   5.511  1.00 20.00     0.259 A 
HETATM    4  C5  UNL     1     -35.955   6.088   4.056  1.00 20.00     0.017 C 
HETATM    5  F7  UNL     1     -33.704   7.138   6.841  1.00 20.00    -0.205 F 
HETATM    6  F8  UNL     1     -34.119   8.213   4.947  1.00 20.00    -0.205 F 
ENDROOT
BRANCH   1   7
HETATM    7  C1  UNL     1     -32.972   6.027   3.369  1.00 20.00     0.229 C 
HETATM    8  O6  UNL     1     -33.146   5.178   2.499  1.00 20.00    -0.279 OA
HETATM    9 CL9  UNL     1     -32.191   7.565   3.159  1.00 20.00    -0.043 Cl
ENDBRANCH   1   7
TORSDOF 1
ENDMDL
MODEL 8
REMARK VINA RESULT:      -4.4      2.023      2.580
REMARK  1 active torsions:
REMARK  status: ('A' for Active; 'I' for Inactive)
REMARK    1  A    between atoms: C1_1  and  C2_2 
ROOT
HETATM    1  C2  UNL     1     -32.777   6.932   4.390  1.00 20.00     0.154 A 
HETATM    2  C3  UNL     1     -34.022   6.636   5.210  1.00 20.00     0.073 A 
HETATM    3  C4  UNL     1     -33.730   8.019   4.752  1.00 20.00     0.259 A 
HETATM    4  C5  UNL     1     -35.184   5.892   4.648  1.00 20.00     0.017 C 
HETATM    5  F7  UNL     1     -33.364   8.989   5.658  1.00 20.00    -0.205 F 
HETATM    6  F8  UNL     1     -34.507   8.630   3.793  1.00 20.00    -0.205 F 
ENDROOT
BRANCH   1   7
HETATM    7  C1  UNL     1     -32.675   6.487   2.997  1.00 20.00     0.229 C 
HETATM    8  O6  UNL     1     -32.884   5.320   2.675  1.00 20.00    -0.279 OA
HETATM    9 CL9  UNL     1     -32.238   7.783   1.926  1.00 20.00    -0.043 Cl
ENDBRANCH   1   7
TORSDOF 1
ENDMDL
MODEL 9
REMARK VINA RESULT:      -4.1     10.079     10.683
REMARK  1 active torsions:
REMARK  status: ('A' for Active; 'I' for Inactive)
REMARK    1  A    between atoms: C1_1  and  C2_2 
ROOT
HETATM    1  C2  UNL     1     -40.233  13.496   6.653  1.00 20.00     0.154 A 
HETATM    2  C3  UNL     1     -40.937  13.497   5.305  1.00 20.00     0.073 A 
HETATM    3  C4  UNL     1     -40.895  12.266   6.135  1.00 20.00     0.259 A 
HETATM    4  C5  UNL     1     -42.227  14.208   5.086  1.00 20.00     0.017 C 
HETATM    5  F7  UNL     1     -40.140  11.185   5.738  1.00 20.00    -0.205 F 
HETATM    6  F8  UNL     1     -42.035  11.770   6.729  1.00 20.00    -0.205 F 
ENDROOT
BRANCH   1   7
HETATM    7  C1  UNL     1     -40.809  14.205   7.799  1.00 20.00     0.229 C 
HETATM    8  O6  UNL     1     -41.474  13.623   8.652  1.00 20.00    -0.279 OA
HETATM    9 CL9  UNL     1     -40.433  15.901   7.775  1.00 20.00    -0.043 Cl
ENDBRANCH   1   7
TORSDOF 1
ENDMDL
