MODEL 1
REMARK VINA RESULT:      -3.9      0.000      0.000
REMARK  1 active torsions:
REMARK  status: ('A' for Active; 'I' for Inactive)
REMARK    1  A    between atoms: C1_1  and  C6_6 
ROOT
HETATM    1  C2  UNL     1     -35.811  17.274  -5.033  1.00 20.00     0.010 C 
HETATM    2  C3  UNL     1     -37.071  16.507  -7.086  1.00 20.00     0.010 C 
HETATM    3  C4  UNL     1     -36.640  14.925  -5.436  1.00 20.00     0.010 C 
HETATM    4  C5  UNL     1     -34.662  17.009  -7.257  1.00 20.00     0.010 C 
HETATM    5  C6  UNL     1     -34.179  15.409  -5.646  1.00 20.00     0.081 C 
HETATM    6  C7  UNL     1     -36.992  16.407  -5.561  1.00 20.00    -0.013 C 
HETATM    7  C8  UNL     1     -34.467  16.912  -5.740  1.00 20.00    -0.001 C 
HETATM    8  C9  UNL     1     -35.714  15.908  -7.482  1.00 20.00    -0.009 C 
HETATM    9  C10 UNL     1     -35.414  14.836  -6.363  1.00 20.00     0.003 C 
ENDROOT
BRANCH   5  10
HETATM   10  C1  UNL     1     -33.935  14.916  -4.254  1.00 20.00     0.223 C 
HETATM   11  O11 UNL     1     -34.233  13.776  -3.912  1.00 20.00    -0.279 OA
HETATM   12 CL12 UNL     1     -33.209  16.132  -3.248  1.00 20.00    -0.043 Cl
ENDBRANCH   5  10
TORSDOF 1
ENDMDL
MODEL 2
REMARK VINA RESULT:      -3.8     13.241     14.141
REMARK  1 active torsions:
REMARK  status: ('A' for Active; 'I' for Inactive)
REMARK    1  A    between atoms: C1_1  and  C6_6 
ROOT
HETATM    1  C2  UNL     1     -41.161  13.805   8.600  1.00 20.00     0.010 C 
HETATM    2  C3  UNL     1     -43.297  14.703   7.588  1.00 20.00     0.010 C 
HETATM    3  C4  UNL     1     -42.498  12.671   6.785  1.00 20.00     0.010 C 
HETATM    4  C5  UNL     1     -41.147  15.782   7.042  1.00 20.00     0.010 C 
HETATM    5  C6  UNL     1     -40.322  13.787   6.189  1.00 20.00     0.081 C 
HETATM    6  C7  UNL     1     -42.591  13.445   8.099  1.00 20.00    -0.013 C 
HETATM    7  C8  UNL     1     -40.342  14.566   7.510  1.00 20.00    -0.001 C 
HETATM    8  C9  UNL     1     -42.376  15.092   6.422  1.00 20.00    -0.009 C 
HETATM    9  C10 UNL     1     -41.827  13.716   5.877  1.00 20.00     0.003 C 
ENDROOT
BRANCH   5  10
HETATM   10  C1  UNL     1     -39.600  12.478   6.259  1.00 20.00     0.223 C 
HETATM   11  O11 UNL     1     -39.047  12.100   7.287  1.00 20.00    -0.279 OA
HETATM   12 CL12 UNL     1     -39.656  11.619   4.750  1.00 20.00    -0.043 Cl
ENDBRANCH   5  10
TORSDOF 1
ENDMDL
MODEL 3
REMARK VINA RESULT:      -3.7     13.222     14.266
REMARK  1 active torsions:
REMARK  status: ('A' for Active; 'I' for Inactive)
REMARK    1  A    between atoms: C1_1  and  C6_6 
ROOT
HETATM    1  C2  UNL     1     -42.573  15.026   5.851  1.00 20.00     0.010 C 
HETATM    2  C3  UNL     1     -42.486  15.512   8.330  1.00 20.00     0.010 C 
HETATM    3  C4  UNL     1     -40.476  15.051   7.254  1.00 20.00     0.010 C 
HETATM    4  C5  UNL     1     -43.417  13.366   7.546  1.00 20.00     0.010 C 
HETATM    5  C6  UNL     1     -41.415  12.843   6.494  1.00 20.00     0.081 C 
HETATM    6  C7  UNL     1     -41.801  15.763   6.985  1.00 20.00    -0.013 C 
HETATM    7  C8  UNL     1     -42.758  13.508   6.170  1.00 20.00    -0.001 C 
HETATM    8  C9  UNL     1     -42.335  13.988   8.447  1.00 20.00    -0.009 C 
HETATM    9  C10 UNL     1     -40.974  13.669   7.714  1.00 20.00     0.003 C 
ENDROOT
BRANCH   5  10
HETATM   10  C1  UNL     1     -40.458  12.801   5.344  1.00 20.00     0.223 C 
HETATM   11  O11 UNL     1     -40.771  13.204   4.229  1.00 20.00    -0.279 OA
HETATM   12 CL12 UNL     1     -38.920  12.132   5.798  1.00 20.00    -0.043 Cl
ENDBRANCH   5  10
TORSDOF 1
ENDMDL
MODEL 4
REMARK VINA RESULT:      -3.6      1.058      2.344
REMARK  1 active torsions:
REMARK  status: ('A' for Active; 'I' for Inactive)
REMARK    1  A    between atoms: C1_1  and  C6_6 
ROOT
HETATM    1  C2  UNL     1     -34.025  15.404  -6.805  1.00 20.00     0.010 C 
HETATM    2  C3  UNL     1     -36.014  16.921  -7.174  1.00 20.00     0.010 C 
HETATM    3  C4  UNL     1     -34.365  17.649  -5.703  1.00 20.00     0.010 C 
HETATM    4  C5  UNL     1     -36.293  14.851  -5.862  1.00 20.00     0.010 C 
HETATM    5  C6  UNL     1     -34.685  15.556  -4.343  1.00 20.00     0.081 C 
HETATM    6  C7  UNL     1     -34.492  16.875  -7.015  1.00 20.00    -0.013 C 
HETATM    7  C8  UNL     1     -34.785  14.719  -5.624  1.00 20.00    -0.001 C 
HETATM    8  C9  UNL     1     -36.460  16.380  -5.807  1.00 20.00    -0.009 C 
HETATM    9  C10 UNL     1     -35.341  16.868  -4.806  1.00 20.00     0.003 C 
ENDROOT
BRANCH   5  10
HETATM   10  C1  UNL     1     -33.299  15.670  -3.790  1.00 20.00     0.223 C 
HETATM   11  O11 UNL     1     -32.372  14.995  -4.229  1.00 20.00    -0.279 OA
HETATM   12 CL12 UNL     1     -33.200  16.836  -2.506  1.00 20.00    -0.043 Cl
ENDBRANCH   5  10
TORSDOF 1
ENDMDL
MODEL 5
REMARK VINA RESULT:      -3.5     13.983     14.950
REMARK  1 active torsions:
REMARK  status: ('A' for Active; 'I' for Inactive)
REMARK    1  A    between atoms: C1_1  and  C6_6 
ROOT
HETATM    1  C2  UNL     1     -42.560  12.515   7.040  1.00 20.00     0.010 C 
HETATM    2  C3  UNL     1     -41.578  13.705   5.037  1.00 20.00     0.010 C 
HETATM    3  C4  UNL     1     -40.288  13.612   6.971  1.00 20.00     0.010 C 
HETATM    4  C5  UNL     1     -43.417  14.762   6.296  1.00 20.00     0.010 C 
HETATM    5  C6  UNL     1     -42.151  14.731   8.241  1.00 20.00     0.081 C 
HETATM    6  C7  UNL     1     -41.275  12.745   6.190  1.00 20.00    -0.013 C 
HETATM    7  C8  UNL     1     -43.187  13.864   7.515  1.00 20.00    -0.001 C 
HETATM    8  C9  UNL     1     -41.970  14.970   5.815  1.00 20.00    -0.009 C 
HETATM    9  C10 UNL     1     -41.100  14.909   7.131  1.00 20.00     0.003 C 
ENDROOT
BRANCH   5  10
HETATM   10  C1  UNL     1     -41.658  14.150   9.529  1.00 20.00     0.223 C 
HETATM   11  O11 UNL     1     -42.214  13.193  10.060  1.00 20.00    -0.279 OA
HETATM   12 CL12 UNL     1     -40.259  14.986  10.131  1.00 20.00    -0.043 Cl
ENDBRANCH   5  10
TORSDOF 1
ENDMDL
MODEL 6
REMARK VINA RESULT:      -3.5     24.875     26.223
REMARK  1 active torsions:
REMARK  status: ('A' for Active; 'I' for Inactive)
REMARK    1  A    between atoms: C1_1  and  C6_6 
ROOT
HETATM    1  C2  UNL     1     -27.674  -1.411  10.065  1.00 20.00     0.010 C 
HETATM    2  C3  UNL     1     -25.433  -2.152  10.971  1.00 20.00     0.010 C 
HETATM    3  C4  UNL     1     -27.147  -3.724  10.926  1.00 20.00     0.010 C 
HETATM    4  C5  UNL     1     -26.840  -0.632  12.309  1.00 20.00     0.010 C 
HETATM    5  C6  UNL     1     -28.562  -2.188  12.329  1.00 20.00     0.081 C 
HETATM    6  C7  UNL     1     -26.619  -2.556  10.093  1.00 20.00    -0.013 C 
HETATM    7  C8  UNL     1     -28.097  -0.981  11.506  1.00 20.00    -0.001 C 
HETATM    8  C9  UNL     1     -26.126  -1.995  12.332  1.00 20.00    -0.009 C 
HETATM    9  C10 UNL     1     -27.293  -3.057  12.305  1.00 20.00     0.003 C 
ENDROOT
BRANCH   5  10
HETATM   10  C1  UNL     1     -29.814  -2.833  11.821  1.00 20.00     0.223 C 
HETATM   11  O11 UNL     1     -30.642  -2.206  11.166  1.00 20.00    -0.279 OA
HETATM   12 CL12 UNL     1     -29.916  -4.507  12.271  1.00 20.00    -0.043 Cl
ENDBRANCH   5  10
TORSDOF 1
ENDMDL
MODEL 7
REMARK VINA RESULT:      -3.5     24.790     26.100
REMARK  1 active torsions:
REMARK  status: ('A' for Active; 'I' for Inactive)
REMARK    1  A    between atoms: C1_1  and  C6_6 
ROOT
HETATM    1  C2  UNL     1     -27.246  -0.935  10.003  1.00 20.00     0.010 C 
HETATM    2  C3  UNL     1     -28.434  -0.615  12.211  1.00 20.00     0.010 C 
HETATM    3  C4  UNL     1     -26.144  -1.020  12.272  1.00 20.00     0.010 C 
HETATM    4  C5  UNL     1     -28.785  -2.696  10.935  1.00 20.00     0.010 C 
HETATM    5  C6  UNL     1     -26.513  -3.165  11.008  1.00 20.00     0.081 C 
HETATM    6  C7  UNL     1     -27.171  -0.281  11.414  1.00 20.00    -0.013 C 
HETATM    7  C8  UNL     1     -27.526  -2.469  10.091  1.00 20.00    -0.001 C 
HETATM    8  C9  UNL     1     -28.322  -2.144  12.295  1.00 20.00    -0.009 C 
HETATM    9  C10 UNL     1     -26.770  -2.425  12.332  1.00 20.00     0.003 C 
ENDROOT
BRANCH   5  10
HETATM   10  C1  UNL     1     -25.106  -3.139  10.499  1.00 20.00     0.223 C 
HETATM   11  O11 UNL     1     -24.847  -2.866   9.331  1.00 20.00    -0.279 OA
HETATM   12 CL12 UNL     1     -23.954  -3.532  11.739  1.00 20.00    -0.043 Cl
ENDBRANCH   5  10
TORSDOF 1
ENDMDL
MODEL 8
REMARK VINA RESULT:      -3.4      1.647      2.046
REMARK  1 active torsions:
REMARK  status: ('A' for Active; 'I' for Inactive)
REMARK    1  A    between atoms: C1_1  and  C6_6 
ROOT
HETATM    1  C2  UNL     1     -36.610  16.705  -5.570  1.00 20.00     0.010 C 
HETATM    2  C3  UNL     1     -35.659  14.856  -7.008  1.00 20.00     0.010 C 
HETATM    3  C4  UNL     1     -35.127  14.838  -4.743  1.00 20.00     0.010 C 
HETATM    4  C5  UNL     1     -34.758  17.143  -7.218  1.00 20.00     0.010 C 
HETATM    5  C6  UNL     1     -34.169  17.154  -4.972  1.00 20.00     0.081 C 
HETATM    6  C7  UNL     1     -36.303  15.181  -5.658  1.00 20.00    -0.013 C 
HETATM    7  C8  UNL     1     -35.343  17.568  -5.867  1.00 20.00    -0.001 C 
HETATM    8  C9  UNL     1     -34.369  15.684  -6.915  1.00 20.00    -0.009 C 
HETATM    9  C10 UNL     1     -34.006  15.679  -5.379  1.00 20.00     0.003 C 
ENDROOT
BRANCH   5  10
HETATM   10  C1  UNL     1     -34.385  17.417  -3.515  1.00 20.00     0.223 C 
HETATM   11  O11 UNL     1     -35.238  18.206  -3.122  1.00 20.00    -0.279 OA
HETATM   12 CL12 UNL     1     -33.307  16.491  -2.516  1.00 20.00    -0.043 Cl
ENDBRANCH   5  10
TORSDOF 1
ENDMDL
MODEL 9
REMARK VINA RESULT:      -3.3     13.999     14.936
REMARK  1 active torsions:
REMARK  status: ('A' for Active; 'I' for Inactive)
REMARK    1  A    between atoms: C1_1  and  C6_6 
ROOT
HETATM    1  C2  UNL     1     -42.773  14.700   8.717  1.00 20.00     0.010 C 
HETATM    2  C3  UNL     1     -41.770  17.009   8.493  1.00 20.00     0.010 C 
HETATM    3  C4  UNL     1     -42.048  15.765   6.547  1.00 20.00     0.010 C 
HETATM    4  C5  UNL     1     -40.426  15.192   9.482  1.00 20.00     0.010 C 
HETATM    5  C6  UNL     1     -40.639  13.933   7.544  1.00 20.00     0.081 C 
HETATM    6  C7  UNL     1     -42.756  16.012   7.879  1.00 20.00    -0.013 C 
HETATM    7  C8  UNL     1     -41.339  14.110   8.897  1.00 20.00    -0.001 C 
HETATM    8  C9  UNL     1     -40.452  16.233   8.348  1.00 20.00    -0.009 C 
HETATM    9  C10 UNL     1     -40.638  15.383   7.031  1.00 20.00     0.003 C 
ENDROOT
BRANCH   5  10
HETATM   10  C1  UNL     1     -41.279  12.917   6.650  1.00 20.00     0.223 C 
HETATM   11  O11 UNL     1     -42.173  12.178   7.051  1.00 20.00    -0.279 OA
HETATM   12 CL12 UNL     1     -40.605  12.937   5.049  1.00 20.00    -0.043 Cl
ENDBRANCH   5  10
TORSDOF 1
ENDMDL
