MODEL 1
REMARK VINA RESULT:      -4.8      0.000      0.000
REMARK  1 active torsions:
REMARK  status: ('A' for Active; 'I' for Inactive)
REMARK    1  A    between atoms: C3_3  and  C6_6 
ROOT
HETATM    1  C1  UNL     1     -34.122   5.899   6.589  1.00 20.00    -0.003 C 
HETATM    2  C2  UNL     1     -33.858   7.203   6.445  1.00 20.00     0.131 C 
HETATM    3  C4  UNL     1     -34.593   5.064   5.444  1.00 20.00     0.032 C 
HETATM    4  C5  UNL     1     -35.075   5.946   4.294  1.00 20.00     0.045 C 
HETATM    5  C6  UNL     1     -34.176   7.165   4.093  1.00 20.00     0.214 C 
HETATM    6  O8  UNL     1     -33.933   7.918   5.280  1.00 20.00    -0.349 OA
ENDROOT
BRANCH   5   7
HETATM    7  C3  UNL     1     -32.857   6.781   3.488  1.00 20.00     0.248 C 
HETATM    8  O7  UNL     1     -31.862   7.489   3.607  1.00 20.00    -0.277 OA
HETATM    9 CL9  UNL     1     -32.942   5.267   2.639  1.00 20.00    -0.041 Cl
ENDBRANCH   5   7
TORSDOF 1
ENDMDL
MODEL 2
REMARK VINA RESULT:      -4.5      1.269      1.269
REMARK  1 active torsions:
REMARK  status: ('A' for Active; 'I' for Inactive)
REMARK    1  A    between atoms: C3_3  and  C6_6 
ROOT
HETATM    1  C1  UNL     1     -34.037   5.950   6.640  1.00 20.00    -0.003 C 
HETATM    2  C2  UNL     1     -33.778   7.225   6.327  1.00 20.00     0.131 C 
HETATM    3  C4  UNL     1     -34.619   5.002   5.645  1.00 20.00     0.032 C 
HETATM    4  C5  UNL     1     -35.200   5.758   4.452  1.00 20.00     0.045 C 
HETATM    5  C6  UNL     1     -34.315   6.931   4.033  1.00 20.00     0.214 C 
HETATM    6  O8  UNL     1     -33.957   7.807   5.101  1.00 20.00    -0.349 OA
ENDROOT
BRANCH   5   7
HETATM    7  C3  UNL     1     -33.061   6.459   3.356  1.00 20.00     0.248 C 
HETATM    8  O7  UNL     1     -32.994   5.357   2.818  1.00 20.00    -0.277 OA
HETATM    9 CL9  UNL     1     -31.787   7.636   3.443  1.00 20.00    -0.041 Cl
ENDBRANCH   5   7
TORSDOF 1
ENDMDL
MODEL 3
REMARK VINA RESULT:      -3.8      2.018      3.280
REMARK  1 active torsions:
REMARK  status: ('A' for Active; 'I' for Inactive)
REMARK    1  A    between atoms: C3_3  and  C6_6 
ROOT
HETATM    1  C1  UNL     1     -32.313   6.476   2.983  1.00 20.00    -0.003 C 
HETATM    2  C2  UNL     1     -33.337   5.619   3.076  1.00 20.00     0.131 C 
HETATM    3  C4  UNL     1     -32.320   7.786   3.699  1.00 20.00     0.032 C 
HETATM    4  C5  UNL     1     -33.728   8.134   4.176  1.00 20.00     0.045 C 
HETATM    5  C6  UNL     1     -34.468   6.911   4.716  1.00 20.00     0.214 C 
HETATM    6  O8  UNL     1     -34.462   5.786   3.837  1.00 20.00    -0.349 OA
ENDROOT
BRANCH   5   7
HETATM    7  C3  UNL     1     -33.924   6.484   6.048  1.00 20.00     0.248 C 
HETATM    8  O7  UNL     1     -33.214   7.224   6.723  1.00 20.00    -0.277 OA
HETATM    9 CL9  UNL     1     -34.419   4.873   6.472  1.00 20.00    -0.041 Cl
ENDBRANCH   5   7
TORSDOF 1
ENDMDL
MODEL 4
REMARK VINA RESULT:      -3.8      9.073      9.669
REMARK  1 active torsions:
REMARK  status: ('A' for Active; 'I' for Inactive)
REMARK    1  A    between atoms: C3_3  and  C6_6 
ROOT
HETATM    1  C1  UNL     1     -43.228   5.670   2.144  1.00 20.00    -0.003 C 
HETATM    2  C2  UNL     1     -43.417   6.944   1.781  1.00 20.00     0.131 C 
HETATM    3  C4  UNL     1     -42.812   4.629   1.160  1.00 20.00     0.032 C 
HETATM    4  C5  UNL     1     -43.019   5.122  -0.270  1.00 20.00     0.045 C 
HETATM    5  C6  UNL     1     -42.630   6.591  -0.430  1.00 20.00     0.214 C 
HETATM    6  O8  UNL     1     -43.225   7.464   0.530  1.00 20.00    -0.349 OA
ENDROOT
BRANCH   5   7
HETATM    7  C3  UNL     1     -41.141   6.773  -0.389  1.00 20.00     0.248 C 
HETATM    8  O7  UNL     1     -40.371   5.854  -0.655  1.00 20.00    -0.277 OA
HETATM    9 CL9  UNL     1     -40.690   8.388   0.066  1.00 20.00    -0.041 Cl
ENDBRANCH   5   7
TORSDOF 1
ENDMDL
MODEL 5
REMARK VINA RESULT:      -3.8      2.285      3.228
REMARK  1 active torsions:
REMARK  status: ('A' for Active; 'I' for Inactive)
REMARK    1  A    between atoms: C3_3  and  C6_6 
ROOT
HETATM    1  C1  UNL     1     -32.203   7.594   4.085  1.00 20.00    -0.003 C 
HETATM    2  C2  UNL     1     -32.514   6.749   3.096  1.00 20.00     0.131 C 
HETATM    3  C4  UNL     1     -33.171   7.912   5.176  1.00 20.00     0.032 C 
HETATM    4  C5  UNL     1     -34.583   7.477   4.791  1.00 20.00     0.045 C 
HETATM    5  C6  UNL     1     -34.589   6.131   4.069  1.00 20.00     0.214 C 
HETATM    6  O8  UNL     1     -33.685   6.052   2.968  1.00 20.00    -0.349 OA
ENDROOT
BRANCH   5   7
HETATM    7  C3  UNL     1     -34.301   5.000   5.012  1.00 20.00     0.248 C 
HETATM    8  O7  UNL     1     -33.897   3.912   4.611  1.00 20.00    -0.277 OA
HETATM    9 CL9  UNL     1     -34.608   5.432   6.666  1.00 20.00    -0.041 Cl
ENDBRANCH   5   7
TORSDOF 1
ENDMDL
MODEL 6
REMARK VINA RESULT:      -3.6      9.331     10.253
REMARK  1 active torsions:
REMARK  status: ('A' for Active; 'I' for Inactive)
REMARK    1  A    between atoms: C3_3  and  C6_6 
ROOT
HETATM    1  C1  UNL     1     -40.901   8.044   0.157  1.00 20.00    -0.003 C 
HETATM    2  C2  UNL     1     -41.799   8.236  -0.816  1.00 20.00     0.131 C 
HETATM    3  C4  UNL     1     -41.233   7.271   1.389  1.00 20.00     0.032 C 
HETATM    4  C5  UNL     1     -42.745   7.104   1.532  1.00 20.00     0.045 C 
HETATM    5  C6  UNL     1     -43.417   6.819   0.190  1.00 20.00     0.214 C 
HETATM    6  O8  UNL     1     -43.075   7.740  -0.846  1.00 20.00    -0.349 OA
ENDROOT
BRANCH   5   7
HETATM    7  C3  UNL     1     -43.124   5.427  -0.287  1.00 20.00     0.248 C 
HETATM    8  O7  UNL     1     -42.902   5.183  -1.470  1.00 20.00    -0.277 OA
HETATM    9 CL9  UNL     1     -43.146   4.272   1.010  1.00 20.00    -0.041 Cl
ENDBRANCH   5   7
TORSDOF 1
ENDMDL
MODEL 7
REMARK VINA RESULT:      -3.5     13.157     13.890
REMARK  1 active torsions:
REMARK  status: ('A' for Active; 'I' for Inactive)
REMARK    1  A    between atoms: C3_3  and  C6_6 
ROOT
HETATM    1  C1  UNL     1     -33.277  16.116  -3.557  1.00 20.00    -0.003 C 
HETATM    2  C2  UNL     1     -34.139  17.077  -3.909  1.00 20.00     0.131 C 
HETATM    3  C4  UNL     1     -33.365  14.739  -4.126  1.00 20.00     0.032 C 
HETATM    4  C5  UNL     1     -34.719  14.515  -4.795  1.00 20.00     0.045 C 
HETATM    5  C6  UNL     1     -35.183  15.745  -5.574  1.00 20.00     0.214 C 
HETATM    6  O8  UNL     1     -35.148  16.960  -4.827  1.00 20.00    -0.349 OA
ENDROOT
BRANCH   5   7
HETATM    7  C3  UNL     1     -34.386  15.930  -6.833  1.00 20.00     0.248 C 
HETATM    8  O7  UNL     1     -33.834  14.986  -7.392  1.00 20.00    -0.277 OA
HETATM    9 CL9  UNL     1     -34.360  17.587  -7.354  1.00 20.00    -0.041 Cl
ENDBRANCH   5   7
TORSDOF 1
ENDMDL
MODEL 8
REMARK VINA RESULT:      -3.4     12.522     13.488
REMARK  1 active torsions:
REMARK  status: ('A' for Active; 'I' for Inactive)
REMARK    1  A    between atoms: C3_3  and  C6_6 
ROOT
HETATM    1  C1  UNL     1     -33.516  16.287  -3.552  1.00 20.00    -0.003 C 
HETATM    2  C2  UNL     1     -33.186  15.132  -4.141  1.00 20.00     0.131 C 
HETATM    3  C4  UNL     1     -34.446  17.259  -4.198  1.00 20.00     0.032 C 
HETATM    4  C5  UNL     1     -34.617  16.940  -5.682  1.00 20.00     0.045 C 
HETATM    5  C6  UNL     1     -34.711  15.436  -5.936  1.00 20.00     0.214 C 
HETATM    6  O8  UNL     1     -33.661  14.673  -5.340  1.00 20.00    -0.349 OA
ENDROOT
BRANCH   5   7
HETATM    7  C3  UNL     1     -36.028  14.882  -5.477  1.00 20.00     0.248 C 
HETATM    8  O7  UNL     1     -37.092  15.422  -5.770  1.00 20.00    -0.277 OA
HETATM    9 CL9  UNL     1     -35.837  13.444  -4.522  1.00 20.00    -0.041 Cl
ENDBRANCH   5   7
TORSDOF 1
ENDMDL
MODEL 9
REMARK VINA RESULT:      -3.4     12.567     13.591
REMARK  1 active torsions:
REMARK  status: ('A' for Active; 'I' for Inactive)
REMARK    1  A    between atoms: C3_3  and  C6_6 
ROOT
HETATM    1  C1  UNL     1     -36.689  15.899  -5.664  1.00 20.00    -0.003 C 
HETATM    2  C2  UNL     1     -36.083  16.974  -5.147  1.00 20.00     0.131 C 
HETATM    3  C4  UNL     1     -35.911  14.745  -6.203  1.00 20.00     0.032 C 
HETATM    4  C5  UNL     1     -34.450  15.133  -6.424  1.00 20.00     0.045 C 
HETATM    5  C6  UNL     1     -33.917  16.016  -5.297  1.00 20.00     0.214 C 
HETATM    6  O8  UNL     1     -34.734  17.148  -5.001  1.00 20.00    -0.349 OA
ENDROOT
BRANCH   5   7
HETATM    7  C3  UNL     1     -33.707  15.230  -4.036  1.00 20.00     0.248 C 
HETATM    8  O7  UNL     1     -33.694  14.003  -4.035  1.00 20.00    -0.277 OA
HETATM    9 CL9  UNL     1     -33.498  16.259  -2.651  1.00 20.00    -0.041 Cl
ENDBRANCH   5   7
TORSDOF 1
ENDMDL
