MODEL 1
REMARK VINA RESULT:      -5.3      0.000      0.000
REMARK  1 active torsions:
REMARK  status: ('A' for Active; 'I' for Inactive)
REMARK    1  A    between atoms: C3_3  and  C6_6 
ROOT
HETATM    1  C1  UNL     1     -34.716   5.228   6.148  1.00 20.00    -0.030 A 
HETATM    2  C2  UNL     1     -34.732   5.246   4.805  1.00 20.00    -0.025 A 
HETATM    3  C4  UNL     1     -34.279   6.575   6.665  1.00 20.00     0.033 A 
HETATM    4  C5  UNL     1     -34.343   6.541   4.225  1.00 20.00     0.024 A 
HETATM    5  C6  UNL     1     -32.954   7.089   4.435  1.00 20.00     0.068 A 
HETATM    6  C7  UNL     1     -34.045   7.418   5.426  1.00 20.00     0.009 A 
ENDROOT
BRANCH   5   7
HETATM    7  C3  UNL     1     -32.466   8.145   3.540  1.00 20.00     0.128 C 
HETATM    8  C8  UNL     1     -32.202   7.753   2.111  1.00 20.00     0.091 C 
HETATM    9  O9  UNL     1     -32.284   9.295   3.937  1.00 20.00    -0.298 OA
ENDBRANCH   5   7
TORSDOF 1
ENDMDL
MODEL 2
REMARK VINA RESULT:      -4.9      0.852      1.561
REMARK  1 active torsions:
REMARK  status: ('A' for Active; 'I' for Inactive)
REMARK    1  A    between atoms: C3_3  and  C6_6 
ROOT
HETATM    1  C1  UNL     1     -35.105   5.420   5.899  1.00 20.00    -0.030 A 
HETATM    2  C2  UNL     1     -34.330   6.262   6.601  1.00 20.00    -0.025 A 
HETATM    3  C4  UNL     1     -34.673   5.423   4.454  1.00 20.00     0.033 A 
HETATM    4  C5  UNL     1     -33.294   6.926   5.794  1.00 20.00     0.024 A 
HETATM    5  C6  UNL     1     -33.677   7.863   4.676  1.00 20.00     0.068 A 
HETATM    6  C7  UNL     1     -33.506   6.390   4.392  1.00 20.00     0.009 A 
ENDROOT
BRANCH   5   7
HETATM    7  C3  UNL     1     -32.674   8.805   4.165  1.00 20.00     0.128 C 
HETATM    8  C8  UNL     1     -32.495   8.858   2.672  1.00 20.00     0.091 C 
HETATM    9  O9  UNL     1     -32.015   9.519   4.920  1.00 20.00    -0.298 OA
ENDBRANCH   5   7
TORSDOF 1
ENDMDL
MODEL 3
REMARK VINA RESULT:      -4.9      1.974      3.890
REMARK  1 active torsions:
REMARK  status: ('A' for Active; 'I' for Inactive)
REMARK    1  A    between atoms: C3_3  and  C6_6 
ROOT
HETATM    1  C1  UNL     1     -32.436   9.022   3.275  1.00 20.00    -0.030 A 
HETATM    2  C2  UNL     1     -32.456   7.781   2.761  1.00 20.00    -0.025 A 
HETATM    3  C4  UNL     1     -32.730   8.960   4.752  1.00 20.00     0.033 A 
HETATM    4  C5  UNL     1     -32.739   6.733   3.754  1.00 20.00     0.024 A 
HETATM    5  C6  UNL     1     -34.065   6.695   4.471  1.00 20.00     0.068 A 
HETATM    6  C7  UNL     1     -32.921   7.487   5.057  1.00 20.00     0.009 A 
ENDROOT
BRANCH   5   7
HETATM    7  C3  UNL     1     -34.479   5.450   5.131  1.00 20.00     0.128 C 
HETATM    8  C8  UNL     1     -34.746   5.526   6.610  1.00 20.00     0.091 C 
HETATM    9  O9  UNL     1     -34.604   4.398   4.507  1.00 20.00    -0.298 OA
ENDBRANCH   5   7
TORSDOF 1
ENDMDL
MODEL 4
REMARK VINA RESULT:      -4.5      1.839      1.940
REMARK  1 active torsions:
REMARK  status: ('A' for Active; 'I' for Inactive)
REMARK    1  A    between atoms: C3_3  and  C6_6 
ROOT
HETATM    1  C1  UNL     1     -34.708   6.057   6.751  1.00 20.00    -0.030 A 
HETATM    2  C2  UNL     1     -35.047   5.246   5.736  1.00 20.00    -0.025 A 
HETATM    3  C4  UNL     1     -33.968   7.256   6.213  1.00 20.00     0.033 A 
HETATM    4  C5  UNL     1     -34.626   5.741   4.415  1.00 20.00     0.024 A 
HETATM    5  C6  UNL     1     -33.162   5.902   4.089  1.00 20.00     0.068 A 
HETATM    6  C7  UNL     1     -33.920   7.050   4.711  1.00 20.00     0.009 A 
ENDROOT
BRANCH   5   7
HETATM    7  C3  UNL     1     -32.757   6.000   2.681  1.00 20.00     0.128 C 
HETATM    8  C8  UNL     1     -32.248   7.338   2.215  1.00 20.00     0.091 C 
HETATM    9  O9  UNL     1     -32.826   5.036   1.920  1.00 20.00    -0.298 OA
ENDBRANCH   5   7
TORSDOF 1
ENDMDL
MODEL 5
REMARK VINA RESULT:      -4.4      1.609      3.758
REMARK  1 active torsions:
REMARK  status: ('A' for Active; 'I' for Inactive)
REMARK    1  A    between atoms: C3_3  and  C6_6 
ROOT
HETATM    1  C1  UNL     1     -32.312   8.409   2.238  1.00 20.00    -0.030 A 
HETATM    2  C2  UNL     1     -32.465   7.089   2.433  1.00 20.00    -0.025 A 
HETATM    3  C4  UNL     1     -32.433   9.131   3.557  1.00 20.00     0.033 A 
HETATM    4  C5  UNL     1     -32.689   6.720   3.839  1.00 20.00     0.024 A 
HETATM    5  C6  UNL     1     -33.922   7.193   4.569  1.00 20.00     0.068 A 
HETATM    6  C7  UNL     1     -32.672   8.041   4.584  1.00 20.00     0.009 A 
ENDROOT
BRANCH   5   7
HETATM    7  C3  UNL     1     -34.325   6.503   5.800  1.00 20.00     0.128 C 
HETATM    8  C8  UNL     1     -34.645   5.037   5.680  1.00 20.00     0.091 C 
HETATM    9  O9  UNL     1     -34.396   7.092   6.877  1.00 20.00    -0.298 OA
ENDBRANCH   5   7
TORSDOF 1
ENDMDL
MODEL 6
REMARK VINA RESULT:      -4.2     12.138     12.588
REMARK  1 active torsions:
REMARK  status: ('A' for Active; 'I' for Inactive)
REMARK    1  A    between atoms: C3_3  and  C6_6 
ROOT
HETATM    1  C1  UNL     1     -32.570  18.398   0.644  1.00 20.00    -0.030 A 
HETATM    2  C2  UNL     1     -33.820  18.148   0.222  1.00 20.00    -0.025 A 
HETATM    3  C4  UNL     1     -31.651  18.515  -0.546  1.00 20.00     0.033 A 
HETATM    4  C5  UNL     1     -33.948  18.072  -1.242  1.00 20.00     0.024 A 
HETATM    5  C6  UNL     1     -33.235  16.993  -2.018  1.00 20.00     0.068 A 
HETATM    6  C7  UNL     1     -32.541  18.308  -1.756  1.00 20.00     0.009 A 
ENDROOT
BRANCH   5   7
HETATM    7  C3  UNL     1     -33.684  16.687  -3.382  1.00 20.00     0.128 C 
HETATM    8  C8  UNL     1     -33.255  15.362  -3.954  1.00 20.00     0.091 C 
HETATM    9  O9  UNL     1     -34.378  17.472  -4.025  1.00 20.00    -0.298 OA
ENDBRANCH   5   7
TORSDOF 1
ENDMDL
MODEL 7
REMARK VINA RESULT:      -4.2     12.137     12.999
REMARK  1 active torsions:
REMARK  status: ('A' for Active; 'I' for Inactive)
REMARK    1  A    between atoms: C3_3  and  C6_6 
ROOT
HETATM    1  C1  UNL     1     -34.514  17.380  -3.989  1.00 20.00    -0.030 A 
HETATM    2  C2  UNL     1     -34.751  18.384  -3.130  1.00 20.00    -0.025 A 
HETATM    3  C4  UNL     1     -33.563  16.392  -3.360  1.00 20.00     0.033 A 
HETATM    4  C5  UNL     1     -34.049  18.243  -1.845  1.00 20.00     0.024 A 
HETATM    5  C6  UNL     1     -32.542  18.258  -1.789  1.00 20.00     0.068 A 
HETATM    6  C7  UNL     1     -33.270  16.949  -1.980  1.00 20.00     0.009 A 
ENDROOT
BRANCH   5   7
HETATM    7  C3  UNL     1     -31.883  18.522  -0.504  1.00 20.00     0.128 C 
HETATM    8  C8  UNL     1     -32.764  18.545   0.716  1.00 20.00     0.091 C 
HETATM    9  O9  UNL     1     -30.670  18.712  -0.427  1.00 20.00    -0.298 OA
ENDBRANCH   5   7
TORSDOF 1
ENDMDL
MODEL 8
REMARK VINA RESULT:      -4.0     12.004     12.903
REMARK  1 active torsions:
REMARK  status: ('A' for Active; 'I' for Inactive)
REMARK    1  A    between atoms: C3_3  and  C6_6 
ROOT
HETATM    1  C1  UNL     1     -32.582  18.596  -2.160  1.00 20.00    -0.030 A 
HETATM    2  C2  UNL     1     -32.928  17.412  -1.629  1.00 20.00    -0.025 A 
HETATM    3  C4  UNL     1     -33.127  18.698  -3.563  1.00 20.00     0.033 A 
HETATM    4  C5  UNL     1     -33.731  16.570  -2.530  1.00 20.00     0.024 A 
HETATM    5  C6  UNL     1     -33.151  16.067  -3.828  1.00 20.00     0.068 A 
HETATM    6  C7  UNL     1     -33.868  17.396  -3.795  1.00 20.00     0.009 A 
ENDROOT
BRANCH   5   7
HETATM    7  C3  UNL     1     -33.794  14.930  -4.498  1.00 20.00     0.128 C 
HETATM    8  C8  UNL     1     -34.016  15.057  -5.982  1.00 20.00     0.091 C 
HETATM    9  O9  UNL     1     -34.131  13.922  -3.880  1.00 20.00    -0.298 OA
ENDBRANCH   5   7
TORSDOF 1
ENDMDL
MODEL 9
REMARK VINA RESULT:      -3.8      9.441     10.190
REMARK  1 active torsions:
REMARK  status: ('A' for Active; 'I' for Inactive)
REMARK    1  A    between atoms: C3_3  and  C6_6 
ROOT
HETATM    1  C1  UNL     1     -43.286  14.671   6.264  1.00 20.00    -0.030 A 
HETATM    2  C2  UNL     1     -42.018  15.114   6.246  1.00 20.00    -0.025 A 
HETATM    3  C4  UNL     1     -43.298  13.191   6.554  1.00 20.00     0.033 A 
HETATM    4  C5  UNL     1     -41.020  14.068   6.518  1.00 20.00     0.024 A 
HETATM    5  C6  UNL     1     -40.858  12.901   5.576  1.00 20.00     0.068 A 
HETATM    6  C7  UNL     1     -41.840  12.808   6.720  1.00 20.00     0.009 A 
ENDROOT
BRANCH   5   7
HETATM    7  C3  UNL     1     -39.623  12.109   5.636  1.00 20.00     0.128 C 
HETATM    8  C8  UNL     1     -39.040  11.666   4.321  1.00 20.00     0.091 C 
HETATM    9  O9  UNL     1     -39.089  11.824   6.707  1.00 20.00    -0.298 OA
ENDBRANCH   5   7
TORSDOF 1
ENDMDL
