MODEL 1
REMARK VINA RESULT:      -3.9      0.000      0.000
REMARK  1 active torsions:
REMARK  status: ('A' for Active; 'I' for Inactive)
REMARK    1  A    between atoms: C1_1  and  C3_3 
ROOT
HETATM    1  C2  UNL     1     -34.665  17.389  -4.326  1.00 20.00     0.090 C 
HETATM    2  C3  UNL     1     -34.291  15.273  -5.950  1.00 20.00     0.195 C 
HETATM    3  C4  UNL     1     -33.466  16.649  -3.748  1.00 20.00     0.054 C 
HETATM    4  C5  UNL     1     -33.465  16.680  -2.225  1.00 20.00     0.022 C 
HETATM    5  S7  UNL     1     -34.720  17.021  -6.098  1.00 20.00    -0.143 SA
HETATM    6  S8  UNL     1     -33.544  14.926  -4.339  1.00 20.00    -0.139 SA
ENDROOT
BRANCH   2   7
HETATM    7  C1  UNL     1     -35.538  14.467  -6.073  1.00 20.00     0.242 C 
HETATM    8  O6  UNL     1     -36.158  14.394  -7.130  1.00 20.00    -0.278 OA
HETATM    9 CL9  UNL     1     -35.962  13.688  -4.580  1.00 20.00    -0.042 Cl
ENDBRANCH   2   7
TORSDOF 1
ENDMDL
MODEL 2
REMARK VINA RESULT:      -3.2      1.241      1.241
REMARK  1 active torsions:
REMARK  status: ('A' for Active; 'I' for Inactive)
REMARK    1  A    between atoms: C1_1  and  C3_3 
ROOT
HETATM    1  C2  UNL     1     -34.623  17.810  -4.159  1.00 20.00     0.090 C 
HETATM    2  C3  UNL     1     -34.523  15.953  -6.106  1.00 20.00     0.195 C 
HETATM    3  C4  UNL     1     -33.512  16.856  -3.743  1.00 20.00     0.054 C 
HETATM    4  C5  UNL     1     -33.487  16.642  -2.235  1.00 20.00     0.022 C 
HETATM    5  S7  UNL     1     -34.745  17.739  -5.963  1.00 20.00    -0.143 SA
HETATM    6  S8  UNL     1     -33.800  15.270  -4.595  1.00 20.00    -0.139 SA
ENDROOT
BRANCH   2   7
HETATM    7  C1  UNL     1     -35.858  15.325  -6.314  1.00 20.00     0.242 C 
HETATM    8  O6  UNL     1     -35.974  14.152  -6.655  1.00 20.00    -0.278 OA
HETATM    9 CL9  UNL     1     -37.158  16.439  -6.019  1.00 20.00    -0.042 Cl
ENDBRANCH   2   7
TORSDOF 1
ENDMDL
MODEL 3
REMARK VINA RESULT:      -3.1      1.743      2.348
REMARK  1 active torsions:
REMARK  status: ('A' for Active; 'I' for Inactive)
REMARK    1  A    between atoms: C1_1  and  C3_3 
ROOT
HETATM    1  C2  UNL     1     -33.262  15.806  -4.054  1.00 20.00     0.090 C 
HETATM    2  C3  UNL     1     -35.608  15.426  -5.319  1.00 20.00     0.195 C 
HETATM    3  C4  UNL     1     -34.082  17.054  -3.757  1.00 20.00     0.054 C 
HETATM    4  C5  UNL     1     -33.216  18.306  -3.734  1.00 20.00     0.022 C 
HETATM    5  S7  UNL     1     -34.428  14.456  -4.357  1.00 20.00    -0.143 SA
HETATM    6  S8  UNL     1     -35.357  17.198  -5.053  1.00 20.00    -0.139 SA
ENDROOT
BRANCH   2   7
HETATM    7  C1  UNL     1     -35.394  15.133  -6.764  1.00 20.00     0.242 C 
HETATM    8  O6  UNL     1     -36.010  14.242  -7.341  1.00 20.00    -0.278 OA
HETATM    9 CL9  UNL     1     -34.207  16.183  -7.475  1.00 20.00    -0.042 Cl
ENDBRANCH   2   7
TORSDOF 1
ENDMDL
MODEL 4
REMARK VINA RESULT:      -3.1      2.603      3.366
REMARK  1 active torsions:
REMARK  status: ('A' for Active; 'I' for Inactive)
REMARK    1  A    between atoms: C1_1  and  C3_3 
ROOT
HETATM    1  C2  UNL     1     -37.017  15.848  -5.470  1.00 20.00     0.090 C 
HETATM    2  C3  UNL     1     -34.328  15.904  -5.344  1.00 20.00     0.195 C 
HETATM    3  C4  UNL     1     -36.645  17.324  -5.521  1.00 20.00     0.054 C 
HETATM    4  C5  UNL     1     -37.643  18.183  -4.755  1.00 20.00     0.022 C 
HETATM    5  S7  UNL     1     -35.615  14.918  -6.137  1.00 20.00    -0.143 SA
HETATM    6  S8  UNL     1     -34.982  17.499  -4.796  1.00 20.00    -0.139 SA
ENDROOT
BRANCH   2   7
HETATM    7  C1  UNL     1     -33.834  15.164  -4.149  1.00 20.00     0.242 C 
HETATM    8  O6  UNL     1     -33.762  13.938  -4.132  1.00 20.00    -0.278 OA
HETATM    9 CL9  UNL     1     -33.397  16.233  -2.851  1.00 20.00    -0.042 Cl
ENDBRANCH   2   7
TORSDOF 1
ENDMDL
MODEL 5
REMARK VINA RESULT:      -3.1      1.865      1.898
REMARK  1 active torsions:
REMARK  status: ('A' for Active; 'I' for Inactive)
REMARK    1  A    between atoms: C1_1  and  C3_3 
ROOT
HETATM    1  C2  UNL     1     -35.344  18.001  -3.824  1.00 20.00     0.090 C 
HETATM    2  C3  UNL     1     -33.869  15.988  -4.837  1.00 20.00     0.195 C 
HETATM    3  C4  UNL     1     -34.065  17.989  -2.999  1.00 20.00     0.054 C 
HETATM    4  C5  UNL     1     -34.335  18.317  -1.536  1.00 20.00     0.022 C 
HETATM    5  S7  UNL     1     -34.943  17.306  -5.446  1.00 20.00    -0.143 SA
HETATM    6  S8  UNL     1     -33.330  16.327  -3.143  1.00 20.00    -0.139 SA
ENDROOT
BRANCH   2   7
HETATM    7  C1  UNL     1     -34.637  14.712  -4.839  1.00 20.00     0.242 C 
HETATM    8  O6  UNL     1     -34.431  13.832  -4.008  1.00 20.00    -0.278 OA
HETATM    9 CL9  UNL     1     -35.807  14.655  -6.122  1.00 20.00    -0.042 Cl
ENDBRANCH   2   7
TORSDOF 1
ENDMDL
MODEL 6
REMARK VINA RESULT:      -3.1     12.696     13.590
REMARK  1 active torsions:
REMARK  status: ('A' for Active; 'I' for Inactive)
REMARK    1  A    between atoms: C1_1  and  C3_3 
ROOT
HETATM    1  C2  UNL     1     -33.300   7.198   6.352  1.00 20.00     0.090 C 
HETATM    2  C3  UNL     1     -34.580   5.940   4.344  1.00 20.00     0.195 C 
HETATM    3  C4  UNL     1     -33.453   8.246   5.258  1.00 20.00     0.054 C 
HETATM    4  C5  UNL     1     -32.235   9.156   5.176  1.00 20.00     0.022 C 
HETATM    5  S7  UNL     1     -34.647   6.006   6.147  1.00 20.00    -0.143 SA
HETATM    6  S8  UNL     1     -33.684   7.365   3.679  1.00 20.00    -0.139 SA
ENDROOT
BRANCH   2   7
HETATM    7  C1  UNL     1     -33.856   4.702   3.942  1.00 20.00     0.242 C 
HETATM    8  O6  UNL     1     -33.982   3.650   4.562  1.00 20.00    -0.278 OA
HETATM    9 CL9  UNL     1     -32.859   4.952   2.541  1.00 20.00    -0.042 Cl
ENDBRANCH   2   7
TORSDOF 1
ENDMDL
MODEL 7
REMARK VINA RESULT:      -2.9      4.561      5.511
REMARK  1 active torsions:
REMARK  status: ('A' for Active; 'I' for Inactive)
REMARK    1  A    between atoms: C1_1  and  C3_3 
ROOT
HETATM    1  C2  UNL     1     -34.836  19.070  -3.311  1.00 20.00     0.090 C 
HETATM    2  C3  UNL     1     -33.637  17.909  -1.198  1.00 20.00     0.195 C 
HETATM    3  C4  UNL     1     -34.693  17.603  -3.690  1.00 20.00     0.054 C 
HETATM    4  C5  UNL     1     -34.371  17.431  -5.169  1.00 20.00     0.022 C 
HETATM    5  S7  UNL     1     -34.908  19.154  -1.504  1.00 20.00    -0.143 SA
HETATM    6  S8  UNL     1     -33.355  16.897  -2.672  1.00 20.00    -0.139 SA
ENDROOT
BRANCH   2   7
HETATM    7  C1  UNL     1     -32.365  18.605  -0.857  1.00 20.00     0.242 C 
HETATM    8  O6  UNL     1     -31.709  19.204  -1.705  1.00 20.00    -0.278 OA
HETATM    9 CL9  UNL     1     -31.967  18.454   0.827  1.00 20.00    -0.042 Cl
ENDBRANCH   2   7
TORSDOF 1
ENDMDL
MODEL 8
REMARK VINA RESULT:      -2.9     13.295     14.132
REMARK  1 active torsions:
REMARK  status: ('A' for Active; 'I' for Inactive)
REMARK    1  A    between atoms: C1_1  and  C3_3 
ROOT
HETATM    1  C2  UNL     1     -42.509  13.339   8.386  1.00 20.00     0.090 C 
HETATM    2  C3  UNL     1     -40.944  13.576   6.208  1.00 20.00     0.195 C 
HETATM    3  C4  UNL     1     -42.034  14.785   8.392  1.00 20.00     0.054 C 
HETATM    4  C5  UNL     1     -41.764  15.284   9.806  1.00 20.00     0.022 C 
HETATM    5  S7  UNL     1     -42.497  12.776   6.666  1.00 20.00    -0.143 SA
HETATM    6  S8  UNL     1     -40.508  14.868   7.397  1.00 20.00    -0.139 SA
ENDROOT
BRANCH   2   7
HETATM    7  C1  UNL     1     -39.864  12.550   6.213  1.00 20.00     0.242 C 
HETATM    8  O6  UNL     1     -39.279  12.233   7.245  1.00 20.00    -0.278 OA
HETATM    9 CL9  UNL     1     -39.568  11.903   4.628  1.00 20.00    -0.042 Cl
ENDBRANCH   2   7
TORSDOF 1
ENDMDL
MODEL 9
REMARK VINA RESULT:      -2.9      2.766      4.140
REMARK  1 active torsions:
REMARK  status: ('A' for Active; 'I' for Inactive)
REMARK    1  A    between atoms: C1_1  and  C3_3 
ROOT
HETATM    1  C2  UNL     1     -34.470  14.811  -4.828  1.00 20.00     0.090 C 
HETATM    2  C3  UNL     1     -33.690  17.285  -4.107  1.00 20.00     0.195 C 
HETATM    3  C4  UNL     1     -34.669  15.669  -6.069  1.00 20.00     0.054 C 
HETATM    4  C5  UNL     1     -35.917  15.262  -6.842  1.00 20.00     0.022 C 
HETATM    5  S7  UNL     1     -33.156  15.580  -3.848  1.00 20.00    -0.143 SA
HETATM    6  S8  UNL     1     -34.809  17.403  -5.524  1.00 20.00    -0.139 SA
ENDROOT
BRANCH   2   7
HETATM    7  C1  UNL     1     -34.420  17.742  -2.892  1.00 20.00     0.242 C 
HETATM    8  O6  UNL     1     -35.431  18.435  -2.969  1.00 20.00    -0.278 OA
HETATM    9 CL9  UNL     1     -33.672  17.181  -1.428  1.00 20.00    -0.042 Cl
ENDBRANCH   2   7
TORSDOF 1
ENDMDL
