MODEL 1
REMARK VINA RESULT:      -4.1      0.000      0.000
REMARK  0 active torsions:
REMARK  status: ('A' for Active; 'I' for Inactive)
ROOT
HETATM    1  C1  UNL     1     -32.414   8.734   0.871  1.00 20.00     0.017 C 
HETATM    2  C2  UNL     1     -32.301   8.095   1.882  1.00 20.00    -0.057 C 
HETATM    3  C3  UNL     1     -32.162   7.317   3.113  1.00 20.00     0.342 C 
HETATM    4  C4  UNL     1     -33.673   7.654   4.777  1.00 20.00     0.150 C 
HETATM    5  C5  UNL     1     -33.635   6.184   4.409  1.00 20.00     0.150 C 
HETATM    6  C6  UNL     1     -33.758   7.924   6.265  1.00 20.00     0.042 C 
HETATM    7  C7  UNL     1     -34.990   5.509   4.384  1.00 20.00     0.042 C 
HETATM    8  O8  UNL     1     -32.432   8.143   4.257  1.00 20.00    -0.343 OA
HETATM    9  O9  UNL     1     -33.068   6.204   3.095  1.00 20.00    -0.343 OA
ENDROOT
TORSDOF 0
ENDMDL
MODEL 2
REMARK VINA RESULT:      -4.0      9.285     10.240
REMARK  0 active torsions:
REMARK  status: ('A' for Active; 'I' for Inactive)
ROOT
HETATM    1  C1  UNL     1     -38.947  11.706   4.129  1.00 20.00     0.017 C 
HETATM    2  C2  UNL     1     -39.740  11.966   4.993  1.00 20.00    -0.057 C 
HETATM    3  C3  UNL     1     -40.706  12.283   6.046  1.00 20.00     0.342 C 
HETATM    4  C4  UNL     1     -40.365  14.151   7.294  1.00 20.00     0.150 C 
HETATM    5  C5  UNL     1     -41.747  14.194   6.674  1.00 20.00     0.150 C 
HETATM    6  C6  UNL     1     -40.310  14.622   8.733  1.00 20.00     0.042 C 
HETATM    7  C7  UNL     1     -42.165  15.560   6.171  1.00 20.00     0.042 C 
HETATM    8  O8  UNL     1     -40.026  12.761   7.217  1.00 20.00    -0.343 OA
HETATM    9  O9  UNL     1     -41.629  13.278   5.580  1.00 20.00    -0.343 OA
ENDROOT
TORSDOF 0
ENDMDL
MODEL 3
REMARK VINA RESULT:      -3.8     11.459     11.942
REMARK  0 active torsions:
REMARK  status: ('A' for Active; 'I' for Inactive)
ROOT
HETATM    1  C1  UNL     1     -33.348  15.880  -3.421  1.00 20.00     0.017 C 
HETATM    2  C2  UNL     1     -33.311  16.928  -2.836  1.00 20.00    -0.057 C 
HETATM    3  C3  UNL     1     -33.267  18.206  -2.124  1.00 20.00     0.342 C 
HETATM    4  C4  UNL     1     -33.673  18.208   0.112  1.00 20.00     0.150 C 
HETATM    5  C5  UNL     1     -32.334  18.862  -0.167  1.00 20.00     0.150 C 
HETATM    6  C6  UNL     1     -34.504  18.909   1.166  1.00 20.00     0.042 C 
HETATM    7  C7  UNL     1     -31.247  18.510   0.827  1.00 20.00     0.042 C 
HETATM    8  O8  UNL     1     -34.329  18.274  -1.159  1.00 20.00    -0.343 OA
HETATM    9  O9  UNL     1     -32.002  18.356  -1.464  1.00 20.00    -0.343 OA
ENDROOT
TORSDOF 0
ENDMDL
MODEL 4
REMARK VINA RESULT:      -3.8      9.262     10.074
REMARK  0 active torsions:
REMARK  status: ('A' for Active; 'I' for Inactive)
ROOT
HETATM    1  C1  UNL     1     -38.941  11.737   3.921  1.00 20.00     0.017 C 
HETATM    2  C2  UNL     1     -39.362  12.084   4.991  1.00 20.00    -0.057 C 
HETATM    3  C3  UNL     1     -39.873  12.508   6.295  1.00 20.00     0.342 C 
HETATM    4  C4  UNL     1     -41.450  14.143   6.355  1.00 20.00     0.150 C 
HETATM    5  C5  UNL     1     -41.955  12.917   7.089  1.00 20.00     0.150 C 
HETATM    6  C6  UNL     1     -41.771  15.456   7.038  1.00 20.00     0.042 C 
HETATM    7  C7  UNL     1     -43.417  12.603   6.853  1.00 20.00     0.042 C 
HETATM    8  O8  UNL     1     -40.033  13.935   6.327  1.00 20.00    -0.343 OA
HETATM    9  O9  UNL     1     -41.132  11.872   6.558  1.00 20.00    -0.343 OA
ENDROOT
TORSDOF 0
ENDMDL
MODEL 5
REMARK VINA RESULT:      -3.6     11.312     12.499
REMARK  0 active torsions:
REMARK  status: ('A' for Active; 'I' for Inactive)
ROOT
HETATM    1  C1  UNL     1     -31.097  18.544  -0.123  1.00 20.00     0.017 C 
HETATM    2  C2  UNL     1     -32.109  18.311  -0.727  1.00 20.00    -0.057 C 
HETATM    3  C3  UNL     1     -33.342  18.030  -1.463  1.00 20.00     0.342 C 
HETATM    4  C4  UNL     1     -33.262  18.018  -3.735  1.00 20.00     0.150 C 
HETATM    5  C5  UNL     1     -33.824  16.702  -3.235  1.00 20.00     0.150 C 
HETATM    6  C6  UNL     1     -33.972  18.580  -4.949  1.00 20.00     0.042 C 
HETATM    7  C7  UNL     1     -33.340  15.485  -3.995  1.00 20.00     0.042 C 
HETATM    8  O8  UNL     1     -33.443  18.888  -2.611  1.00 20.00    -0.343 OA
HETATM    9  O9  UNL     1     -33.360  16.657  -1.881  1.00 20.00    -0.343 OA
ENDROOT
TORSDOF 0
ENDMDL
MODEL 6
REMARK VINA RESULT:      -3.5      9.904     11.078
REMARK  0 active torsions:
REMARK  status: ('A' for Active; 'I' for Inactive)
ROOT
HETATM    1  C1  UNL     1     -39.589  12.044   4.990  1.00 20.00     0.017 C 
HETATM    2  C2  UNL     1     -40.325  12.576   5.777  1.00 20.00    -0.057 C 
HETATM    3  C3  UNL     1     -41.222  13.224   6.735  1.00 20.00     0.342 C 
HETATM    4  C4  UNL     1     -40.322  14.654   8.255  1.00 20.00     0.150 C 
HETATM    5  C5  UNL     1     -41.421  15.353   7.481  1.00 20.00     0.150 C 
HETATM    6  C6  UNL     1     -40.314  14.956   9.739  1.00 20.00     0.042 C 
HETATM    7  C7  UNL     1     -41.114  16.791   7.117  1.00 20.00     0.042 C 
HETATM    8  O8  UNL     1     -40.611  13.269   8.035  1.00 20.00    -0.343 OA
HETATM    9  O9  UNL     1     -41.528  14.556   6.297  1.00 20.00    -0.343 OA
ENDROOT
TORSDOF 0
ENDMDL
MODEL 7
REMARK VINA RESULT:      -3.4     10.999     12.204
REMARK  0 active torsions:
REMARK  status: ('A' for Active; 'I' for Inactive)
ROOT
HETATM    1  C1  UNL     1     -35.886  13.669  -4.734  1.00 20.00     0.017 C 
HETATM    2  C2  UNL     1     -34.969  14.441  -4.650  1.00 20.00    -0.057 C 
HETATM    3  C3  UNL     1     -33.852  15.381  -4.549  1.00 20.00     0.342 C 
HETATM    4  C4  UNL     1     -34.310  17.545  -4.028  1.00 20.00     0.150 C 
HETATM    5  C5  UNL     1     -33.303  16.983  -3.045  1.00 20.00     0.150 C 
HETATM    6  C6  UNL     1     -34.018  18.961  -4.481  1.00 20.00     0.042 C 
HETATM    7  C7  UNL     1     -33.521  17.414  -1.609  1.00 20.00     0.042 C 
HETATM    8  O8  UNL     1     -34.210  16.643  -5.135  1.00 20.00    -0.343 OA
HETATM    9  O9  UNL     1     -33.495  15.570  -3.172  1.00 20.00    -0.343 OA
ENDROOT
TORSDOF 0
ENDMDL
MODEL 8
REMARK VINA RESULT:      -3.4     11.298     12.441
REMARK  0 active torsions:
REMARK  status: ('A' for Active; 'I' for Inactive)
ROOT
HETATM    1  C1  UNL     1     -33.767  17.745  -0.335  1.00 20.00     0.017 C 
HETATM    2  C2  UNL     1     -33.525  17.656  -1.509  1.00 20.00    -0.057 C 
HETATM    3  C3  UNL     1     -33.230  17.548  -2.938  1.00 20.00     0.342 C 
HETATM    4  C4  UNL     1     -34.103  15.793  -4.089  1.00 20.00     0.150 C 
HETATM    5  C5  UNL     1     -34.502  17.094  -4.756  1.00 20.00     0.150 C 
HETATM    6  C6  UNL     1     -33.708  14.692  -5.051  1.00 20.00     0.042 C 
HETATM    7  C7  UNL     1     -35.928  17.124  -5.267  1.00 20.00     0.042 C 
HETATM    8  O8  UNL     1     -32.977  16.179  -3.291  1.00 20.00    -0.343 OA
HETATM    9  O9  UNL     1     -34.333  18.052  -3.706  1.00 20.00    -0.343 OA
ENDROOT
TORSDOF 0
ENDMDL
MODEL 9
REMARK VINA RESULT:      -3.3      9.872     11.160
REMARK  0 active torsions:
REMARK  status: ('A' for Active; 'I' for Inactive)
ROOT
HETATM    1  C1  UNL     1     -40.075  15.187   9.429  1.00 20.00     0.017 C 
HETATM    2  C2  UNL     1     -40.710  14.509   8.668  1.00 20.00    -0.057 C 
HETATM    3  C3  UNL     1     -41.485  13.683   7.740  1.00 20.00     0.342 C 
HETATM    4  C4  UNL     1     -41.352  14.144   5.519  1.00 20.00     0.150 C 
HETATM    5  C5  UNL     1     -40.996  12.691   5.764  1.00 20.00     0.150 C 
HETATM    6  C6  UNL     1     -42.223  14.378   4.302  1.00 20.00     0.042 C 
HETATM    7  C7  UNL     1     -39.843  12.180   4.925  1.00 20.00     0.042 C 
HETATM    8  O8  UNL     1     -42.062  14.501   6.710  1.00 20.00    -0.343 OA
HETATM    9  O9  UNL     1     -40.640  12.684   7.150  1.00 20.00    -0.343 OA
ENDROOT
TORSDOF 0
ENDMDL
