MODEL 1
REMARK VINA RESULT:      -3.9      0.000      0.000
REMARK  1 active torsions:
REMARK  status: ('A' for Active; 'I' for Inactive)
REMARK    1  A    between atoms: C1_1  and  C8_8 
ROOT
HETATM    1  C2  UNL     1     -40.901   8.583   0.434  1.00 20.00     0.005 C 
HETATM    2  C3  UNL     1     -40.576   7.415   1.376  1.00 20.00     0.006 C 
HETATM    3  C4  UNL     1     -40.764   6.564  -0.817  1.00 20.00     0.010 C 
HETATM    4  C5  UNL     1     -42.956   7.420  -0.415  1.00 20.00     0.023 C 
HETATM    5  C6  UNL     1     -41.531   7.883  -0.784  1.00 20.00    -0.013 C 
HETATM    6  C7  UNL     1     -41.149   6.200   0.625  1.00 20.00     0.003 C 
HETATM    7  C8  UNL     1     -42.701   6.250   0.565  1.00 20.00     0.036 C 
HETATM    8  C9  UNL     1     -43.395   6.452   1.911  1.00 20.00     0.025 C 
ENDROOT
BRANCH   7   9
HETATM    9  C1  UNL     1     -43.202   4.943  -0.002  1.00 20.00     0.227 C 
HETATM   10  O10 UNL     1     -43.417   4.800  -1.202  1.00 20.00    -0.279 OA
HETATM   11 CL11 UNL     1     -43.417   3.736   1.230  1.00 20.00    -0.043 Cl
ENDBRANCH   7   9
TORSDOF 1
ENDMDL
MODEL 2
REMARK VINA RESULT:      -3.8     18.915     19.905
REMARK  1 active torsions:
REMARK  status: ('A' for Active; 'I' for Inactive)
REMARK    1  A    between atoms: C1_1  and  C8_8 
ROOT
HETATM    1  C2  UNL     1     -25.950  -0.975  11.758  1.00 20.00     0.005 C 
HETATM    2  C3  UNL     1     -25.851  -2.233  10.883  1.00 20.00     0.006 C 
HETATM    3  C4  UNL     1     -27.634  -0.912  10.079  1.00 20.00     0.010 C 
HETATM    4  C5  UNL     1     -28.356  -1.449  12.291  1.00 20.00     0.023 C 
HETATM    5  C6  UNL     1     -27.399  -0.506  11.532  1.00 20.00    -0.013 C 
HETATM    6  C7  UNL     1     -27.283  -2.385  10.339  1.00 20.00     0.003 C 
HETATM    7  C8  UNL     1     -28.282  -2.758  11.470  1.00 20.00     0.036 C 
HETATM    8  C9  UNL     1     -27.878  -3.961  12.321  1.00 20.00     0.025 C 
ENDROOT
BRANCH   7   9
HETATM    9  C1  UNL     1     -29.616  -3.087  10.843  1.00 20.00     0.227 C 
HETATM   10  O10 UNL     1     -30.638  -2.475  11.141  1.00 20.00    -0.279 OA
HETATM   11 CL11 UNL     1     -29.497  -4.389   9.698  1.00 20.00    -0.043 Cl
ENDBRANCH   7   9
TORSDOF 1
ENDMDL
MODEL 3
REMARK VINA RESULT:      -3.8      9.336     10.334
REMARK  1 active torsions:
REMARK  status: ('A' for Active; 'I' for Inactive)
REMARK    1  A    between atoms: C1_1  and  C8_8 
ROOT
HETATM    1  C2  UNL     1     -42.442  15.539   8.554  1.00 20.00     0.005 C 
HETATM    2  C3  UNL     1     -41.671  14.298   9.029  1.00 20.00     0.006 C 
HETATM    3  C4  UNL     1     -40.383  15.380   7.374  1.00 20.00     0.010 C 
HETATM    4  C5  UNL     1     -42.350  14.768   6.167  1.00 20.00     0.023 C 
HETATM    5  C6  UNL     1     -41.830  15.820   7.170  1.00 20.00    -0.013 C 
HETATM    6  C7  UNL     1     -40.781  13.965   7.818  1.00 20.00     0.003 C 
HETATM    7  C8  UNL     1     -41.627  13.475   6.610  1.00 20.00     0.036 C 
HETATM    8  C9  UNL     1     -42.599  12.337   6.918  1.00 20.00     0.025 C 
ENDROOT
BRANCH   7   9
HETATM    9  C1  UNL     1     -40.688  12.977   5.537  1.00 20.00     0.227 C 
HETATM   10  O10 UNL     1     -40.854  13.259   4.354  1.00 20.00    -0.279 OA
HETATM   11 CL11 UNL     1     -39.408  12.000   6.190  1.00 20.00    -0.043 Cl
ENDBRANCH   7   9
TORSDOF 1
ENDMDL
MODEL 4
REMARK VINA RESULT:      -3.8     12.302     13.650
REMARK  1 active torsions:
REMARK  status: ('A' for Active; 'I' for Inactive)
REMARK    1  A    between atoms: C1_1  and  C8_8 
ROOT
HETATM    1  C2  UNL     1     -36.130  16.319  -7.182  1.00 20.00     0.005 C 
HETATM    2  C3  UNL     1     -36.595  16.487  -5.728  1.00 20.00     0.006 C 
HETATM    3  C4  UNL     1     -34.442  17.433  -5.929  1.00 20.00     0.010 C 
HETATM    4  C5  UNL     1     -34.039  15.138  -6.452  1.00 20.00     0.023 C 
HETATM    5  C6  UNL     1     -34.599  16.436  -7.073  1.00 20.00    -0.013 C 
HETATM    6  C7  UNL     1     -35.267  16.581  -4.953  1.00 20.00     0.003 C 
HETATM    7  C8  UNL     1     -34.500  15.230  -4.978  1.00 20.00     0.036 C 
HETATM    8  C9  UNL     1     -35.315  14.013  -4.543  1.00 20.00     0.025 C 
ENDROOT
BRANCH   7   9
HETATM    9  C1  UNL     1     -33.319  15.331  -4.042  1.00 20.00     0.227 C 
HETATM   10  O10 UNL     1     -32.257  14.763  -4.278  1.00 20.00    -0.279 OA
HETATM   11 CL11 UNL     1     -33.668  16.318  -2.655  1.00 20.00    -0.043 Cl
ENDBRANCH   7   9
TORSDOF 1
ENDMDL
MODEL 5
REMARK VINA RESULT:      -3.6      0.997      2.118
REMARK  1 active torsions:
REMARK  status: ('A' for Active; 'I' for Inactive)
REMARK    1  A    between atoms: C1_1  and  C8_8 
ROOT
HETATM    1  C2  UNL     1     -40.895   8.220   0.934  1.00 20.00     0.005 C 
HETATM    2  C3  UNL     1     -41.022   8.066  -0.589  1.00 20.00     0.006 C 
HETATM    3  C4  UNL     1     -43.116   7.572   0.381  1.00 20.00     0.010 C 
HETATM    4  C5  UNL     1     -41.714   5.878   1.311  1.00 20.00     0.023 C 
HETATM    5  C6  UNL     1     -42.064   7.373   1.468  1.00 20.00    -0.013 C 
HETATM    6  C7  UNL     1     -42.188   7.071  -0.736  1.00 20.00     0.003 C 
HETATM    7  C8  UNL     1     -41.797   5.659  -0.218  1.00 20.00     0.036 C 
HETATM    8  C9  UNL     1     -40.503   5.091  -0.799  1.00 20.00     0.025 C 
ENDROOT
BRANCH   7   9
HETATM    9  C1  UNL     1     -42.904   4.694  -0.573  1.00 20.00     0.227 C 
HETATM   10  O10 UNL     1     -43.354   4.620  -1.713  1.00 20.00    -0.279 OA
HETATM   11 CL11 UNL     1     -43.417   3.756   0.796  1.00 20.00    -0.043 Cl
ENDBRANCH   7   9
TORSDOF 1
ENDMDL
MODEL 6
REMARK VINA RESULT:      -3.5     12.366     13.799
REMARK  1 active torsions:
REMARK  status: ('A' for Active; 'I' for Inactive)
REMARK    1  A    between atoms: C1_1  and  C8_8 
ROOT
HETATM    1  C2  UNL     1     -34.073  18.465  -5.292  1.00 20.00     0.005 C 
HETATM    2  C3  UNL     1     -34.686  18.301  -6.691  1.00 20.00     0.006 C 
HETATM    3  C4  UNL     1     -36.169  17.353  -5.118  1.00 20.00     0.010 C 
HETATM    4  C5  UNL     1     -34.220  15.997  -4.860  1.00 20.00     0.023 C 
HETATM    5  C6  UNL     1     -34.788  17.378  -4.469  1.00 20.00    -0.013 C 
HETATM    6  C7  UNL     1     -35.604  17.077  -6.520  1.00 20.00     0.003 C 
HETATM    7  C8  UNL     1     -34.782  15.779  -6.285  1.00 20.00     0.036 C 
HETATM    8  C9  UNL     1     -33.683  15.513  -7.313  1.00 20.00     0.025 C 
ENDROOT
BRANCH   7   9
HETATM    9  C1  UNL     1     -35.724  14.600  -6.327  1.00 20.00     0.227 C 
HETATM   10  O10 UNL     1     -36.292  14.263  -7.362  1.00 20.00    -0.279 OA
HETATM   11 CL11 UNL     1     -35.878  13.830  -4.776  1.00 20.00    -0.043 Cl
ENDBRANCH   7   9
TORSDOF 1
ENDMDL
MODEL 7
REMARK VINA RESULT:      -3.4     23.706     24.591
REMARK  1 active torsions:
REMARK  status: ('A' for Active; 'I' for Inactive)
REMARK    1  A    between atoms: C1_1  and  C8_8 
ROOT
HETATM    1  C2  UNL     1     -25.544  17.136  12.015  1.00 20.00     0.005 C 
HETATM    2  C3  UNL     1     -24.191  16.435  12.200  1.00 20.00     0.006 C 
HETATM    3  C4  UNL     1     -23.839  18.765  12.331  1.00 20.00     0.010 C 
HETATM    4  C5  UNL     1     -24.657  18.500  10.104  1.00 20.00     0.023 C 
HETATM    5  C6  UNL     1     -25.143  18.554  11.567  1.00 20.00    -0.013 C 
HETATM    6  C7  UNL     1     -23.185  17.506  11.742  1.00 20.00     0.003 C 
HETATM    7  C8  UNL     1     -23.296  17.772  10.214  1.00 20.00     0.036 C 
HETATM    8  C9  UNL     1     -23.225  16.527   9.332  1.00 20.00     0.025 C 
ENDROOT
BRANCH   7   9
HETATM    9  C1  UNL     1     -22.158  18.675   9.800  1.00 20.00     0.227 C 
HETATM   10  O10 UNL     1     -21.293  19.029  10.595  1.00 20.00    -0.279 OA
HETATM   11 CL11 UNL     1     -22.251  19.115   8.122  1.00 20.00    -0.043 Cl
ENDBRANCH   7   9
TORSDOF 1
ENDMDL
MODEL 8
REMARK VINA RESULT:      -3.4     12.785     13.700
REMARK  1 active torsions:
REMARK  status: ('A' for Active; 'I' for Inactive)
REMARK    1  A    between atoms: C1_1  and  C8_8 
ROOT
HETATM    1  C2  UNL     1     -36.405  17.682  -7.145  1.00 20.00     0.005 C 
HETATM    2  C3  UNL     1     -36.679  16.173  -7.202  1.00 20.00     0.006 C 
HETATM    3  C4  UNL     1     -36.704  16.843  -4.939  1.00 20.00     0.010 C 
HETATM    4  C5  UNL     1     -34.462  17.343  -5.593  1.00 20.00     0.023 C 
HETATM    5  C6  UNL     1     -35.901  17.890  -5.705  1.00 20.00    -0.013 C 
HETATM    6  C7  UNL     1     -36.207  15.686  -5.820  1.00 20.00     0.003 C 
HETATM    7  C8  UNL     1     -34.665  15.811  -5.673  1.00 20.00     0.036 C 
HETATM    8  C9  UNL     1     -33.852  15.171  -6.797  1.00 20.00     0.025 C 
ENDROOT
BRANCH   7   9
HETATM    9  C1  UNL     1     -34.249  15.137  -4.386  1.00 20.00     0.227 C 
HETATM   10  O10 UNL     1     -34.499  13.955  -4.167  1.00 20.00    -0.279 OA
HETATM   11 CL11 UNL     1     -33.412  16.224  -3.320  1.00 20.00    -0.043 Cl
ENDBRANCH   7   9
TORSDOF 1
ENDMDL
MODEL 9
REMARK VINA RESULT:      -3.4     12.695     13.909
REMARK  1 active torsions:
REMARK  status: ('A' for Active; 'I' for Inactive)
REMARK    1  A    between atoms: C1_1  and  C8_8 
ROOT
HETATM    1  C2  UNL     1     -35.702  15.138  -7.173  1.00 20.00     0.005 C 
HETATM    2  C3  UNL     1     -34.200  15.374  -6.961  1.00 20.00     0.006 C 
HETATM    3  C4  UNL     1     -35.134  14.668  -4.911  1.00 20.00     0.010 C 
HETATM    4  C5  UNL     1     -36.286  16.721  -5.314  1.00 20.00     0.023 C 
HETATM    5  C6  UNL     1     -36.275  15.240  -5.748  1.00 20.00    -0.013 C 
HETATM    6  C7  UNL     1     -34.111  15.678  -5.454  1.00 20.00     0.003 C 
HETATM    7  C8  UNL     1     -34.785  17.035  -5.108  1.00 20.00     0.036 C 
HETATM    8  C9  UNL     1     -34.315  18.224  -5.945  1.00 20.00     0.025 C 
ENDROOT
BRANCH   7   9
HETATM    9  C1  UNL     1     -34.488  17.364  -3.664  1.00 20.00     0.227 C 
HETATM   10  O10 UNL     1     -35.173  18.162  -3.031  1.00 20.00    -0.279 OA
HETATM   11 CL11 UNL     1     -33.109  16.493  -3.066  1.00 20.00    -0.043 Cl
ENDBRANCH   7   9
TORSDOF 1
ENDMDL
