MODEL 1
REMARK VINA RESULT:      -5.2      0.000      0.000
REMARK  1 active torsions:
REMARK  status: ('A' for Active; 'I' for Inactive)
REMARK    1  A    between atoms: C1_1  and  C5_5 
ROOT
HETATM    1  C2  UNL     1     -33.935   7.797   5.011  1.00 20.00     0.015 C 
HETATM    2  C3  UNL     1     -32.471   8.203   4.865  1.00 20.00     0.021 C 
HETATM    3  C4  UNL     1     -32.816   6.441   3.297  1.00 20.00     0.033 C 
HETATM    4  C5  UNL     1     -34.108   6.566   4.114  1.00 20.00     0.073 C 
HETATM    5  C6  UNL     1     -32.104   7.782   3.448  1.00 20.00     0.083 C 
HETATM    6 CL9  UNL     1     -32.718   8.961   2.254  1.00 20.00    -0.125 Cl
ENDROOT
BRANCH   4   7
HETATM    7  C1  UNL     1     -34.327   5.333   4.934  1.00 20.00     0.223 C 
HETATM    8  O7  UNL     1     -34.266   4.211   4.439  1.00 20.00    -0.279 OA
HETATM    9 CL8  UNL     1     -34.659   5.703   6.599  1.00 20.00    -0.043 Cl
ENDBRANCH   4   7
TORSDOF 1
ENDMDL
MODEL 2
REMARK VINA RESULT:      -4.0      2.090      2.490
REMARK  1 active torsions:
REMARK  status: ('A' for Active; 'I' for Inactive)
REMARK    1  A    between atoms: C1_1  and  C5_5 
ROOT
HETATM    1  C2  UNL     1     -34.666   6.027   5.796  1.00 20.00     0.015 C 
HETATM    2  C3  UNL     1     -33.592   6.770   6.585  1.00 20.00     0.021 C 
HETATM    3  C4  UNL     1     -33.082   7.142   4.287  1.00 20.00     0.033 C 
HETATM    4  C5  UNL     1     -34.244   6.142   4.327  1.00 20.00     0.073 C 
HETATM    5  C6  UNL     1     -33.111   7.858   5.634  1.00 20.00     0.083 C 
HETATM    6 CL9  UNL     1     -34.261   9.225   5.597  1.00 20.00    -0.125 Cl
ENDROOT
BRANCH   4   7
HETATM    7  C1  UNL     1     -33.806   4.814   3.790  1.00 20.00     0.223 C 
HETATM    8  O7  UNL     1     -34.096   3.763   4.354  1.00 20.00    -0.279 OA
HETATM    9 CL8  UNL     1     -32.879   4.973   2.329  1.00 20.00    -0.043 Cl
ENDBRANCH   4   7
TORSDOF 1
ENDMDL
MODEL 3
REMARK VINA RESULT:      -3.8      2.233      3.835
REMARK  1 active torsions:
REMARK  status: ('A' for Active; 'I' for Inactive)
REMARK    1  A    between atoms: C1_1  and  C5_5 
ROOT
HETATM    1  C2  UNL     1     -33.913   7.082   5.737  1.00 20.00     0.015 C 
HETATM    2  C3  UNL     1     -35.051   6.408   4.975  1.00 20.00     0.021 C 
HETATM    3  C4  UNL     1     -33.165   6.342   3.518  1.00 20.00     0.033 C 
HETATM    4  C5  UNL     1     -32.752   7.173   4.739  1.00 20.00     0.073 C 
HETATM    5  C6  UNL     1     -34.348   5.495   3.980  1.00 20.00     0.083 C 
HETATM    6 CL9  UNL     1     -33.780   4.000   4.779  1.00 20.00    -0.125 Cl
ENDROOT
BRANCH   4   7
HETATM    7  C1  UNL     1     -32.499   8.594   4.339  1.00 20.00     0.223 C 
HETATM    8  O7  UNL     1     -32.184   9.449   5.162  1.00 20.00    -0.279 OA
HETATM    9 CL8  UNL     1     -32.706   8.839   2.631  1.00 20.00    -0.043 Cl
ENDBRANCH   4   7
TORSDOF 1
ENDMDL
MODEL 4
REMARK VINA RESULT:      -3.7     12.013     13.212
REMARK  1 active torsions:
REMARK  status: ('A' for Active; 'I' for Inactive)
REMARK    1  A    between atoms: C1_1  and  C5_5 
ROOT
HETATM    1  C2  UNL     1     -34.028  14.387  -4.367  1.00 20.00     0.015 C 
HETATM    2  C3  UNL     1     -32.724  15.132  -4.100  1.00 20.00     0.021 C 
HETATM    3  C4  UNL     1     -34.283  16.788  -4.811  1.00 20.00     0.033 C 
HETATM    4  C5  UNL     1     -34.977  15.429  -4.969  1.00 20.00     0.073 C 
HETATM    5  C6  UNL     1     -33.161  16.560  -3.802  1.00 20.00     0.083 C 
HETATM    6 CL9  UNL     1     -33.775  16.703  -2.130  1.00 20.00    -0.125 Cl
ENDROOT
BRANCH   4   7
HETATM    7  C1  UNL     1     -35.238  15.145  -6.416  1.00 20.00     0.223 C 
HETATM    8  O7  UNL     1     -36.022  14.267  -6.769  1.00 20.00    -0.279 OA
HETATM    9 CL8  UNL     1     -34.321  16.183  -7.463  1.00 20.00    -0.043 Cl
ENDBRANCH   4   7
TORSDOF 1
ENDMDL
MODEL 5
REMARK VINA RESULT:      -3.6     12.174     13.158
REMARK  1 active torsions:
REMARK  status: ('A' for Active; 'I' for Inactive)
REMARK    1  A    between atoms: C1_1  and  C5_5 
ROOT
HETATM    1  C2  UNL     1     -33.158  15.741  -3.737  1.00 20.00     0.015 C 
HETATM    2  C3  UNL     1     -34.085  14.612  -4.178  1.00 20.00     0.021 C 
HETATM    3  C4  UNL     1     -35.101  16.625  -4.951  1.00 20.00     0.033 C 
HETATM    4  C5  UNL     1     -33.892  17.037  -4.101  1.00 20.00     0.073 C 
HETATM    5  C6  UNL     1     -34.831  15.184  -5.376  1.00 20.00     0.083 C 
HETATM    6 CL9  UNL     1     -33.811  15.139  -6.843  1.00 20.00    -0.125 Cl
ENDROOT
BRANCH   4   7
HETATM    7  C1  UNL     1     -34.345  17.760  -2.871  1.00 20.00     0.223 C 
HETATM    8  O7  UNL     1     -35.152  18.684  -2.926  1.00 20.00    -0.279 OA
HETATM    9 CL8  UNL     1     -33.602  17.132  -1.431  1.00 20.00    -0.043 Cl
ENDBRANCH   4   7
TORSDOF 1
ENDMDL
MODEL 6
REMARK VINA RESULT:      -3.6      9.567     10.075
REMARK  1 active torsions:
REMARK  status: ('A' for Active; 'I' for Inactive)
REMARK    1  A    between atoms: C1_1  and  C5_5 
ROOT
HETATM    1  C2  UNL     1     -43.400   6.855   0.302  1.00 20.00     0.015 C 
HETATM    2  C3  UNL     1     -42.391   7.078   1.424  1.00 20.00     0.021 C 
HETATM    3  C4  UNL     1     -41.178   6.032  -0.341  1.00 20.00     0.033 C 
HETATM    4  C5  UNL     1     -42.652   6.046  -0.764  1.00 20.00     0.073 C 
HETATM    5  C6  UNL     1     -41.044   7.126   0.715  1.00 20.00     0.083 C 
HETATM    6 CL9  UNL     1     -40.785   8.718  -0.055  1.00 20.00    -0.125 Cl
ENDROOT
BRANCH   4   7
HETATM    7  C1  UNL     1     -43.182   4.648  -0.846  1.00 20.00     0.223 C 
HETATM    8  O7  UNL     1     -43.408   4.107  -1.925  1.00 20.00    -0.279 OA
HETATM    9 CL8  UNL     1     -43.417   3.943   0.724  1.00 20.00    -0.043 Cl
ENDBRANCH   4   7
TORSDOF 1
ENDMDL
MODEL 7
REMARK VINA RESULT:      -3.6      2.118      3.919
REMARK  1 active torsions:
REMARK  status: ('A' for Active; 'I' for Inactive)
REMARK    1  A    between atoms: C1_1  and  C5_5 
ROOT
HETATM    1  C2  UNL     1     -32.986   7.612   5.786  1.00 20.00     0.015 C 
HETATM    2  C3  UNL     1     -34.470   7.368   6.050  1.00 20.00     0.021 C 
HETATM    3  C4  UNL     1     -34.014   6.372   3.933  1.00 20.00     0.033 C 
HETATM    4  C5  UNL     1     -32.737   7.106   4.361  1.00 20.00     0.073 C 
HETATM    5  C6  UNL     1     -34.802   6.136   5.218  1.00 20.00     0.083 C 
HETATM    6 CL9  UNL     1     -34.246   4.648   6.035  1.00 20.00    -0.125 Cl
ENDROOT
BRANCH   4   7
HETATM    7  C1  UNL     1     -32.455   8.245   3.430  1.00 20.00     0.223 C 
HETATM    8  O7  UNL     1     -32.425   9.407   3.824  1.00 20.00    -0.279 OA
HETATM    9 CL8  UNL     1     -32.190   7.707   1.799  1.00 20.00    -0.043 Cl
ENDBRANCH   4   7
TORSDOF 1
ENDMDL
MODEL 8
REMARK VINA RESULT:      -3.5     12.165     13.099
REMARK  1 active torsions:
REMARK  status: ('A' for Active; 'I' for Inactive)
REMARK    1  A    between atoms: C1_1  and  C5_5 
ROOT
HETATM    1  C2  UNL     1     -33.227  18.464  -3.715  1.00 20.00     0.015 C 
HETATM    2  C3  UNL     1     -33.854  19.084  -2.469  1.00 20.00     0.021 C 
HETATM    3  C4  UNL     1     -33.531  16.779  -1.955  1.00 20.00     0.033 C 
HETATM    4  C5  UNL     1     -33.164  16.959  -3.434  1.00 20.00     0.073 C 
HETATM    5  C6  UNL     1     -33.418  18.168  -1.333  1.00 20.00     0.083 C 
HETATM    6 CL9  UNL     1     -31.732  18.510  -0.852  1.00 20.00    -0.125 Cl
ENDROOT
BRANCH   4   7
HETATM    7  C1  UNL     1     -34.128  16.211  -4.302  1.00 20.00     0.223 C 
HETATM    8  O7  UNL     1     -34.902  16.794  -5.056  1.00 20.00    -0.279 OA
HETATM    9 CL8  UNL     1     -33.995  14.491  -4.098  1.00 20.00    -0.043 Cl
ENDBRANCH   4   7
TORSDOF 1
ENDMDL
MODEL 9
REMARK VINA RESULT:      -3.5      9.667     10.588
REMARK  1 active torsions:
REMARK  status: ('A' for Active; 'I' for Inactive)
REMARK    1  A    between atoms: C1_1  and  C5_5 
ROOT
HETATM    1  C2  UNL     1     -41.954  12.910   6.033  1.00 20.00     0.015 C 
HETATM    2  C3  UNL     1     -42.598  13.037   7.411  1.00 20.00     0.021 C 
HETATM    3  C4  UNL     1     -40.457  14.069   7.597  1.00 20.00     0.033 C 
HETATM    4  C5  UNL     1     -40.524  13.435   6.202  1.00 20.00     0.073 C 
HETATM    5  C6  UNL     1     -41.908  14.241   8.039  1.00 20.00     0.083 C 
HETATM    6 CL9  UNL     1     -42.585  15.767   7.402  1.00 20.00    -0.125 Cl
ENDROOT
BRANCH   4   7
HETATM    7  C1  UNL     1     -39.528  12.323   6.088  1.00 20.00     0.223 C 
HETATM    8  O7  UNL     1     -38.940  11.881   7.071  1.00 20.00    -0.279 OA
HETATM    9 CL8  UNL     1     -39.338  11.779   4.448  1.00 20.00    -0.043 Cl
ENDBRANCH   4   7
TORSDOF 1
ENDMDL
