MODEL 1
REMARK VINA RESULT:      -5.2      0.000      0.000
REMARK  0 active torsions:
REMARK  status: ('A' for Active; 'I' for Inactive)
ROOT
HETATM    1  C1  UNL     1     -32.868   4.790   1.930  1.00 20.00     0.015 C 
HETATM    2  C2  UNL     1     -33.297   5.285   2.936  1.00 20.00    -0.076 C 
HETATM    3  C3  UNL     1     -34.358   5.310   6.537  1.00 20.00     0.004 C 
HETATM    4  C4  UNL     1     -34.538   6.801   6.797  1.00 20.00     0.003 C 
HETATM    5  C5  UNL     1     -34.583   4.975   5.065  1.00 20.00     0.055 C 
HETATM    6  C6  UNL     1     -33.467   7.612   6.072  1.00 20.00     0.042 C 
HETATM    7  C7  UNL     1     -33.808   5.877   4.138  1.00 20.00     0.154 A 
HETATM    8  C8  UNL     1     -33.285   7.227   4.627  1.00 20.00     0.102 A 
HETATM    9  C9  UNL     1     -32.196   7.953   3.894  1.00 20.00     0.050 C 
HETATM   10  O10 UNL     1     -34.498   7.120   3.881  1.00 20.00    -0.350 OA
ENDROOT
TORSDOF 0
ENDMDL
MODEL 2
REMARK VINA RESULT:      -4.9      1.112      1.588
REMARK  0 active torsions:
REMARK  status: ('A' for Active; 'I' for Inactive)
ROOT
HETATM    1  C1  UNL     1     -31.919   7.604   1.930  1.00 20.00     0.015 C 
HETATM    2  C2  UNL     1     -32.614   7.269   2.850  1.00 20.00    -0.076 C 
HETATM    3  C3  UNL     1     -34.147   4.818   5.245  1.00 20.00     0.004 C 
HETATM    4  C4  UNL     1     -34.786   5.747   6.271  1.00 20.00     0.003 C 
HETATM    5  C5  UNL     1     -34.050   5.490   3.878  1.00 20.00     0.055 C 
HETATM    6  C6  UNL     1     -33.903   6.965   6.528  1.00 20.00     0.042 C 
HETATM    7  C7  UNL     1     -33.443   6.869   3.950  1.00 20.00     0.154 A 
HETATM    8  C8  UNL     1     -33.409   7.634   5.271  1.00 20.00     0.102 A 
HETATM    9  C9  UNL     1     -32.483   8.796   5.477  1.00 20.00     0.050 C 
HETATM   10  O10 UNL     1     -34.418   7.879   4.290  1.00 20.00    -0.350 OA
ENDROOT
TORSDOF 0
ENDMDL
MODEL 3
REMARK VINA RESULT:      -4.8      0.946      3.402
REMARK  0 active torsions:
REMARK  status: ('A' for Active; 'I' for Inactive)
ROOT
HETATM    1  C1  UNL     1     -34.783   5.179   6.707  1.00 20.00     0.015 C 
HETATM    2  C2  UNL     1     -34.346   5.975   5.921  1.00 20.00    -0.076 C 
HETATM    3  C3  UNL     1     -32.268   8.910   4.843  1.00 20.00     0.004 C 
HETATM    4  C4  UNL     1     -32.365   8.816   3.324  1.00 20.00     0.003 C 
HETATM    5  C5  UNL     1     -33.496   8.297   5.512  1.00 20.00     0.055 C 
HETATM    6  C6  UNL     1     -32.339   7.360   2.867  1.00 20.00     0.042 C 
HETATM    7  C7  UNL     1     -33.822   6.924   4.982  1.00 20.00     0.154 A 
HETATM    8  C8  UNL     1     -33.281   6.465   3.629  1.00 20.00     0.102 A 
HETATM    9  C9  UNL     1     -33.239   5.013   3.257  1.00 20.00     0.050 C 
HETATM   10  O10 UNL     1     -34.607   6.977   3.770  1.00 20.00    -0.350 OA
ENDROOT
TORSDOF 0
ENDMDL
MODEL 4
REMARK VINA RESULT:      -4.6      1.008      3.363
REMARK  0 active torsions:
REMARK  status: ('A' for Active; 'I' for Inactive)
ROOT
HETATM    1  C1  UNL     1     -32.040   9.405   5.008  1.00 20.00     0.015 C 
HETATM    2  C2  UNL     1     -32.577   8.391   4.655  1.00 20.00    -0.076 C 
HETATM    3  C3  UNL     1     -32.761   5.037   2.979  1.00 20.00     0.004 C 
HETATM    4  C4  UNL     1     -34.108   4.518   3.471  1.00 20.00     0.003 C 
HETATM    5  C5  UNL     1     -32.736   6.563   2.948  1.00 20.00     0.055 C 
HETATM    6  C6  UNL     1     -34.345   4.915   4.925  1.00 20.00     0.042 C 
HETATM    7  C7  UNL     1     -33.220   7.179   4.236  1.00 20.00     0.154 A 
HETATM    8  C8  UNL     1     -34.070   6.368   5.213  1.00 20.00     0.102 A 
HETATM    9  C9  UNL     1     -34.225   6.786   6.645  1.00 20.00     0.050 C 
HETATM   10  O10 UNL     1     -34.660   7.281   4.287  1.00 20.00    -0.350 OA
ENDROOT
TORSDOF 0
ENDMDL
MODEL 5
REMARK VINA RESULT:      -4.0     12.762     13.939
REMARK  0 active torsions:
REMARK  status: ('A' for Active; 'I' for Inactive)
ROOT
HETATM    1  C1  UNL     1     -33.392  17.685  -0.915  1.00 20.00     0.015 C 
HETATM    2  C2  UNL     1     -33.542  17.311  -2.046  1.00 20.00    -0.076 C 
HETATM    3  C3  UNL     1     -33.826  14.753  -4.779  1.00 20.00     0.004 C 
HETATM    4  C4  UNL     1     -34.323  15.599  -5.945  1.00 20.00     0.003 C 
HETATM    5  C5  UNL     1     -33.017  15.592  -3.793  1.00 20.00     0.055 C 
HETATM    6  C6  UNL     1     -35.316  16.655  -5.467  1.00 20.00     0.042 C 
HETATM    7  C7  UNL     1     -33.722  16.864  -3.397  1.00 20.00     0.154 A 
HETATM    8  C8  UNL     1     -34.848  17.429  -4.262  1.00 20.00     0.102 A 
HETATM    9  C9  UNL     1     -35.823  18.431  -3.717  1.00 20.00     0.050 C 
HETATM   10  O10 UNL     1     -33.513  17.926  -4.353  1.00 20.00    -0.350 OA
ENDROOT
TORSDOF 0
ENDMDL
MODEL 6
REMARK VINA RESULT:      -3.6     10.148     11.186
REMARK  0 active torsions:
REMARK  status: ('A' for Active; 'I' for Inactive)
ROOT
HETATM    1  C1  UNL     1     -39.581  11.765   5.029  1.00 20.00     0.015 C 
HETATM    2  C2  UNL     1     -40.171  12.610   5.645  1.00 20.00    -0.076 C 
HETATM    3  C3  UNL     1     -40.490  15.480   8.044  1.00 20.00     0.004 C 
HETATM    4  C4  UNL     1     -41.924  15.932   7.796  1.00 20.00     0.003 C 
HETATM    5  C5  UNL     1     -40.317  13.997   7.728  1.00 20.00     0.055 C 
HETATM    6  C6  UNL     1     -42.279  15.833   6.315  1.00 20.00     0.042 C 
HETATM    7  C7  UNL     1     -40.876  13.620   6.379  1.00 20.00     0.154 A 
HETATM    8  C8  UNL     1     -41.900  14.517   5.686  1.00 20.00     0.102 A 
HETATM    9  C9  UNL     1     -42.168  14.402   4.214  1.00 20.00     0.050 C 
HETATM   10  O10 UNL     1     -42.297  13.364   6.428  1.00 20.00    -0.350 OA
ENDROOT
TORSDOF 0
ENDMDL
MODEL 7
REMARK VINA RESULT:      -3.6     12.692     14.126
REMARK  0 active torsions:
REMARK  status: ('A' for Active; 'I' for Inactive)
ROOT
HETATM    1  C1  UNL     1     -37.542  17.912  -5.573  1.00 20.00     0.015 C 
HETATM    2  C2  UNL     1     -36.487  17.426  -5.273  1.00 20.00    -0.076 C 
HETATM    3  C3  UNL     1     -33.582  16.724  -3.000  1.00 20.00     0.004 C 
HETATM    4  C4  UNL     1     -32.858  15.617  -3.756  1.00 20.00     0.003 C 
HETATM    5  C5  UNL     1     -34.364  17.623  -3.954  1.00 20.00     0.055 C 
HETATM    6  C6  UNL     1     -33.854  14.667  -4.416  1.00 20.00     0.042 C 
HETATM    7  C7  UNL     1     -35.227  16.842  -4.913  1.00 20.00     0.154 A 
HETATM    8  C8  UNL     1     -34.945  15.366  -5.185  1.00 20.00     0.102 A 
HETATM    9  C9  UNL     1     -35.985  14.472  -5.793  1.00 20.00     0.050 C 
HETATM   10  O10 UNL     1     -34.488  16.390  -6.069  1.00 20.00    -0.350 OA
ENDROOT
TORSDOF 0
ENDMDL
MODEL 8
REMARK VINA RESULT:      -3.5     12.744     14.119
REMARK  0 active torsions:
REMARK  status: ('A' for Active; 'I' for Inactive)
ROOT
HETATM    1  C1  UNL     1     -35.763  15.513  -7.918  1.00 20.00     0.015 C 
HETATM    2  C2  UNL     1     -35.319  15.714  -6.821  1.00 20.00    -0.076 C 
HETATM    3  C3  UNL     1     -33.002  15.132  -3.925  1.00 20.00     0.004 C 
HETATM    4  C4  UNL     1     -33.293  16.344  -3.047  1.00 20.00     0.003 C 
HETATM    5  C5  UNL     1     -34.213  14.767  -4.781  1.00 20.00     0.055 C 
HETATM    6  C6  UNL     1     -33.523  17.589  -3.899  1.00 20.00     0.042 C 
HETATM    7  C7  UNL     1     -34.787  15.955  -5.511  1.00 20.00     0.154 A 
HETATM    8  C8  UNL     1     -34.481  17.377  -5.042  1.00 20.00     0.102 A 
HETATM    9  C9  UNL     1     -34.684  18.557  -5.946  1.00 20.00     0.050 C 
HETATM   10  O10 UNL     1     -35.697  16.717  -4.687  1.00 20.00    -0.350 OA
ENDROOT
TORSDOF 0
ENDMDL
MODEL 9
REMARK VINA RESULT:      -3.5     10.328     11.638
REMARK  0 active torsions:
REMARK  status: ('A' for Active; 'I' for Inactive)
ROOT
HETATM    1  C1  UNL     1     -39.647  11.953   5.760  1.00 20.00     0.015 C 
HETATM    2  C2  UNL     1     -40.287  12.764   6.372  1.00 20.00    -0.076 C 
HETATM    3  C3  UNL     1     -41.597  16.199   7.133  1.00 20.00     0.004 C 
HETATM    4  C4  UNL     1     -42.679  15.896   8.164  1.00 20.00     0.003 C 
HETATM    5  C5  UNL     1     -40.502  15.135   7.154  1.00 20.00     0.055 C 
HETATM    6  C6  UNL     1     -43.417  14.607   7.814  1.00 20.00     0.042 C 
HETATM    7  C7  UNL     1     -41.052  13.733   7.102  1.00 20.00     0.154 A 
HETATM    8  C8  UNL     1     -42.506  13.455   7.479  1.00 20.00     0.102 A 
HETATM    9  C9  UNL     1     -43.191  12.186   7.064  1.00 20.00     0.050 C 
HETATM   10  O10 UNL     1     -41.440  13.248   8.406  1.00 20.00    -0.350 OA
ENDROOT
TORSDOF 0
ENDMDL
