MODEL 1
REMARK VINA RESULT:      -5.2      0.000      0.000
REMARK  1 active torsions:
REMARK  status: ('A' for Active; 'I' for Inactive)
REMARK    1  A    between atoms: C1_1  and  C6_6 
ROOT
HETATM    1  C2  UNL     1     -34.474   4.586   5.031  1.00 20.00     0.005 A 
HETATM    2  C3  UNL     1     -34.149   4.964   6.481  1.00 20.00     0.005 A 
HETATM    3  C4  UNL     1     -34.188   6.946   3.915  1.00 20.00     0.018 C 
HETATM    4  C5  UNL     1     -33.724   7.537   6.187  1.00 20.00     0.018 C 
HETATM    5  C6  UNL     1     -33.050   7.401   4.825  1.00 20.00     0.073 C 
HETATM    6  C7  UNL     1     -35.023   6.004   4.779  1.00 20.00    -0.010 A 
HETATM    7  C8  UNL     1     -34.717   6.378   6.243  1.00 20.00    -0.010 A 
ENDROOT
BRANCH   5   8
HETATM    8  C1  UNL     1     -32.462   8.692   4.358  1.00 20.00     0.223 C 
HETATM    9  O9  UNL     1     -31.951   9.489   5.141  1.00 20.00    -0.279 OA
HETATM   10 CL10 UNL     1     -32.599   8.889   2.637  1.00 20.00    -0.043 Cl
ENDBRANCH   5   8
TORSDOF 1
ENDMDL
MODEL 2
REMARK VINA RESULT:      -5.2      2.823      4.151
REMARK  1 active torsions:
REMARK  status: ('A' for Active; 'I' for Inactive)
REMARK    1  A    between atoms: C1_1  and  C6_6 
ROOT
HETATM    1  C2  UNL     1     -32.541   8.288   1.934  1.00 20.00     0.005 A 
HETATM    2  C3  UNL     1     -32.758   9.300   3.065  1.00 20.00     0.005 A 
HETATM    3  C4  UNL     1     -32.861   6.067   3.301  1.00 20.00     0.018 C 
HETATM    4  C5  UNL     1     -33.156   7.653   5.069  1.00 20.00     0.018 C 
HETATM    5  C6  UNL     1     -33.924   6.627   4.242  1.00 20.00     0.073 C 
HETATM    6  C7  UNL     1     -31.986   7.267   2.948  1.00 20.00    -0.010 A 
HETATM    7  C8  UNL     1     -32.183   8.294   4.082  1.00 20.00    -0.010 A 
ENDROOT
BRANCH   5   8
HETATM    8  C1  UNL     1     -34.520   5.553   5.092  1.00 20.00     0.223 C 
HETATM    9  O9  UNL     1     -34.782   4.442   4.638  1.00 20.00    -0.279 OA
HETATM   10 CL10 UNL     1     -34.775   6.080   6.728  1.00 20.00    -0.043 Cl
ENDBRANCH   5   8
TORSDOF 1
ENDMDL
MODEL 3
REMARK VINA RESULT:      -4.8      1.206      1.206
REMARK  1 active torsions:
REMARK  status: ('A' for Active; 'I' for Inactive)
REMARK    1  A    between atoms: C1_1  and  C6_6 
ROOT
HETATM    1  C2  UNL     1     -34.432   4.506   5.129  1.00 20.00     0.005 A 
HETATM    2  C3  UNL     1     -34.059   5.046   6.515  1.00 20.00     0.005 A 
HETATM    3  C4  UNL     1     -34.243   6.735   3.753  1.00 20.00     0.018 C 
HETATM    4  C5  UNL     1     -33.704   7.578   5.926  1.00 20.00     0.018 C 
HETATM    5  C6  UNL     1     -33.081   7.307   4.561  1.00 20.00     0.073 C 
HETATM    6  C7  UNL     1     -35.022   5.878   4.747  1.00 20.00    -0.010 A 
HETATM    7  C8  UNL     1     -34.667   6.415   6.149  1.00 20.00    -0.010 A 
ENDROOT
BRANCH   5   8
HETATM    8  C1  UNL     1     -32.541   8.550   3.933  1.00 20.00     0.223 C 
HETATM    9  O9  UNL     1     -32.592   8.735   2.720  1.00 20.00    -0.279 OA
HETATM   10 CL10 UNL     1     -31.865   9.636   5.109  1.00 20.00    -0.043 Cl
ENDBRANCH   5   8
TORSDOF 1
ENDMDL
MODEL 4
REMARK VINA RESULT:      -4.7      2.568      3.988
REMARK  1 active torsions:
REMARK  status: ('A' for Active; 'I' for Inactive)
REMARK    1  A    between atoms: C1_1  and  C6_6 
ROOT
HETATM    1  C2  UNL     1     -32.660   8.638   2.259  1.00 20.00     0.005 A 
HETATM    2  C3  UNL     1     -32.750   9.553   3.486  1.00 20.00     0.005 A 
HETATM    3  C4  UNL     1     -32.964   6.317   3.452  1.00 20.00     0.018 C 
HETATM    4  C5  UNL     1     -33.060   7.749   5.367  1.00 20.00     0.018 C 
HETATM    5  C6  UNL     1     -33.929   6.826   4.519  1.00 20.00     0.073 C 
HETATM    6  C7  UNL     1     -32.071   7.513   3.134  1.00 20.00    -0.010 A 
HETATM    7  C8  UNL     1     -32.140   8.441   4.364  1.00 20.00    -0.010 A 
ENDROOT
BRANCH   5   8
HETATM    8  C1  UNL     1     -34.502   5.702   5.318  1.00 20.00     0.223 C 
HETATM    9  O9  UNL     1     -35.102   5.898   6.371  1.00 20.00    -0.279 OA
HETATM   10 CL10 UNL     1     -34.208   4.157   4.577  1.00 20.00    -0.043 Cl
ENDBRANCH   5   8
TORSDOF 1
ENDMDL
MODEL 5
REMARK VINA RESULT:      -4.3      2.196      2.580
REMARK  1 active torsions:
REMARK  status: ('A' for Active; 'I' for Inactive)
REMARK    1  A    between atoms: C1_1  and  C6_6 
ROOT
HETATM    1  C2  UNL     1     -34.496   5.501   6.679  1.00 20.00     0.005 A 
HETATM    2  C3  UNL     1     -33.779   6.849   6.820  1.00 20.00     0.005 A 
HETATM    3  C4  UNL     1     -34.486   5.299   4.060  1.00 20.00     0.018 C 
HETATM    4  C5  UNL     1     -33.407   7.424   4.286  1.00 20.00     0.018 C 
HETATM    5  C6  UNL     1     -33.135   5.983   3.866  1.00 20.00     0.073 C 
HETATM    6  C7  UNL     1     -35.068   5.941   5.317  1.00 20.00    -0.010 A 
HETATM    7  C8  UNL     1     -34.366   7.306   5.469  1.00 20.00    -0.010 A 
ENDROOT
BRANCH   5   8
HETATM    8  C1  UNL     1     -32.675   5.889   2.448  1.00 20.00     0.223 C 
HETATM    9  O9  UNL     1     -32.712   4.830   1.827  1.00 20.00    -0.279 OA
HETATM   10 CL10 UNL     1     -32.111   7.416   1.841  1.00 20.00    -0.043 Cl
ENDBRANCH   5   8
TORSDOF 1
ENDMDL
MODEL 6
REMARK VINA RESULT:      -4.1      0.769      1.697
REMARK  1 active torsions:
REMARK  status: ('A' for Active; 'I' for Inactive)
REMARK    1  A    between atoms: C1_1  and  C6_6 
ROOT
HETATM    1  C2  UNL     1     -35.210   5.663   6.258  1.00 20.00     0.005 A 
HETATM    2  C3  UNL     1     -35.317   5.179   4.807  1.00 20.00     0.005 A 
HETATM    3  C4  UNL     1     -33.152   7.277   6.005  1.00 20.00     0.018 C 
HETATM    4  C5  UNL     1     -33.298   6.483   3.752  1.00 20.00     0.018 C 
HETATM    5  C6  UNL     1     -33.502   7.739   4.593  1.00 20.00     0.073 C 
HETATM    6  C7  UNL     1     -33.689   5.850   6.089  1.00 20.00    -0.010 A 
HETATM    7  C8  UNL     1     -33.792   5.341   4.637  1.00 20.00    -0.010 A 
ENDROOT
BRANCH   5   8
HETATM    8  C1  UNL     1     -32.620   8.860   4.153  1.00 20.00     0.223 C 
HETATM    9  O9  UNL     1     -31.961   9.517   4.955  1.00 20.00    -0.279 OA
HETATM   10 CL10 UNL     1     -32.660   9.086   2.430  1.00 20.00    -0.043 Cl
ENDBRANCH   5   8
TORSDOF 1
ENDMDL
MODEL 7
REMARK VINA RESULT:      -4.0     12.552     13.557
REMARK  1 active torsions:
REMARK  status: ('A' for Active; 'I' for Inactive)
REMARK    1  A    between atoms: C1_1  and  C6_6 
ROOT
HETATM    1  C2  UNL     1     -34.264  18.046  -2.535  1.00 20.00     0.005 A 
HETATM    2  C3  UNL     1     -33.648  16.778  -1.932  1.00 20.00     0.005 A 
HETATM    3  C4  UNL     1     -34.411  17.281  -5.044  1.00 20.00     0.018 C 
HETATM    4  C5  UNL     1     -33.409  15.322  -4.103  1.00 20.00     0.018 C 
HETATM    5  C6  UNL     1     -34.708  15.816  -4.733  1.00 20.00     0.073 C 
HETATM    6  C7  UNL     1     -33.556  17.760  -3.874  1.00 20.00    -0.010 A 
HETATM    7  C8  UNL     1     -32.917  16.497  -3.261  1.00 20.00    -0.010 A 
ENDROOT
BRANCH   5   8
HETATM    8  C1  UNL     1     -35.057  15.056  -5.970  1.00 20.00     0.223 C 
HETATM    9  O9  UNL     1     -36.092  14.401  -6.054  1.00 20.00    -0.279 OA
HETATM   10 CL10 UNL     1     -33.847  15.227  -7.206  1.00 20.00    -0.043 Cl
ENDBRANCH   5   8
TORSDOF 1
ENDMDL
MODEL 8
REMARK VINA RESULT:      -3.8      9.768     10.406
REMARK  1 active torsions:
REMARK  status: ('A' for Active; 'I' for Inactive)
REMARK    1  A    between atoms: C1_1  and  C6_6 
ROOT
HETATM    1  C2  UNL     1     -42.393  15.795   6.299  1.00 20.00     0.005 A 
HETATM    2  C3  UNL     1     -43.388  14.694   5.915  1.00 20.00     0.005 A 
HETATM    3  C4  UNL     1     -40.365  14.286   7.015  1.00 20.00     0.018 C 
HETATM    4  C5  UNL     1     -41.940  12.573   6.456  1.00 20.00     0.018 C 
HETATM    5  C6  UNL     1     -40.627  13.191   5.985  1.00 20.00     0.073 C 
HETATM    6  C7  UNL     1     -41.745  14.855   7.335  1.00 20.00    -0.010 A 
HETATM    7  C8  UNL     1     -42.761  13.755   6.965  1.00 20.00    -0.010 A 
ENDROOT
BRANCH   5   8
HETATM    8  C1  UNL     1     -39.515  12.193   5.956  1.00 20.00     0.223 C 
HETATM    9  O9  UNL     1     -38.933  11.847   6.979  1.00 20.00    -0.279 OA
HETATM   10 CL10 UNL     1     -39.187  11.627   4.346  1.00 20.00    -0.043 Cl
ENDBRANCH   5   8
TORSDOF 1
ENDMDL
MODEL 9
REMARK VINA RESULT:      -3.8     12.049     13.354
REMARK  1 active torsions:
REMARK  status: ('A' for Active; 'I' for Inactive)
REMARK    1  A    between atoms: C1_1  and  C6_6 
ROOT
HETATM    1  C2  UNL     1     -32.441  18.401  -1.524  1.00 20.00     0.005 A 
HETATM    2  C3  UNL     1     -32.694  19.263  -2.767  1.00 20.00     0.005 A 
HETATM    3  C4  UNL     1     -33.665  16.206  -2.287  1.00 20.00     0.018 C 
HETATM    4  C5  UNL     1     -34.094  17.572  -4.205  1.00 20.00     0.018 C 
HETATM    5  C6  UNL     1     -33.305  16.343  -3.764  1.00 20.00     0.073 C 
HETATM    6  C7  UNL     1     -33.758  17.642  -1.776  1.00 20.00    -0.010 A 
HETATM    7  C8  UNL     1     -34.025  18.523  -3.013  1.00 20.00    -0.010 A 
ENDROOT
BRANCH   5   8
HETATM    8  C1  UNL     1     -33.688  15.123  -4.534  1.00 20.00     0.223 C 
HETATM    9  O9  UNL     1     -33.373  13.997  -4.158  1.00 20.00    -0.279 OA
HETATM   10 CL10 UNL     1     -34.596  15.511  -5.964  1.00 20.00    -0.043 Cl
ENDBRANCH   5   8
TORSDOF 1
ENDMDL
