MODEL 1
REMARK VINA RESULT:      -4.9      0.000      0.000
REMARK  0 active torsions:
REMARK  status: ('A' for Active; 'I' for Inactive)
ROOT
HETATM    1  C1  UNL     1     -33.707   7.656   6.300  1.00 20.00     0.110 A 
HETATM    2  C2  UNL     1     -34.095   6.466   5.711  1.00 20.00     0.007 A 
HETATM    3  C3  UNL     1     -33.643   6.384   4.373  1.00 20.00     0.002 A 
HETATM    4  C4  UNL     1     -32.986   7.531   4.175  1.00 20.00     0.048 A 
HETATM    5  C5  UNL     1     -34.810   5.275   6.003  1.00 20.00     0.124 A 
HETATM    6  C6  UNL     1     -32.228   8.575   3.563  1.00 20.00     0.048 A 
HETATM    7  C7  UNL     1     -32.315   9.259   4.741  1.00 20.00     0.099 A 
HETATM    8  C8  UNL     1     -34.083   5.111   3.811  1.00 20.00     0.190 A 
HETATM    9  N9  UNL     1     -34.841   4.469   4.975  1.00 20.00    -0.296 NA
HETATM   10  N10 UNL     1     -33.036   8.245   5.293  1.00 20.00    -0.331 N 
ENDROOT
TORSDOF 0
ENDMDL
MODEL 2
REMARK VINA RESULT:      -4.7      1.224      2.082
REMARK  0 active torsions:
REMARK  status: ('A' for Active; 'I' for Inactive)
ROOT
HETATM    1  C1  UNL     1     -33.294   5.729   3.162  1.00 20.00     0.110 A 
HETATM    2  C2  UNL     1     -33.866   5.705   4.422  1.00 20.00     0.007 A 
HETATM    3  C3  UNL     1     -33.658   6.927   5.104  1.00 20.00     0.002 A 
HETATM    4  C4  UNL     1     -32.961   7.673   4.242  1.00 20.00     0.048 A 
HETATM    5  C5  UNL     1     -34.607   4.848   5.277  1.00 20.00     0.124 A 
HETATM    6  C6  UNL     1     -32.244   8.759   3.655  1.00 20.00     0.048 A 
HETATM    7  C7  UNL     1     -32.074   7.982   2.546  1.00 20.00     0.099 A 
HETATM    8  C8  UNL     1     -34.284   6.836   6.419  1.00 20.00     0.190 A 
HETATM    9  N9  UNL     1     -34.875   5.425   6.419  1.00 20.00    -0.296 NA
HETATM   10  N10 UNL     1     -32.763   6.966   3.136  1.00 20.00    -0.331 N 
ENDROOT
TORSDOF 0
ENDMDL
MODEL 3
REMARK VINA RESULT:      -4.7      1.167      3.488
REMARK  0 active torsions:
REMARK  status: ('A' for Active; 'I' for Inactive)
ROOT
HETATM    1  C1  UNL     1     -33.872   7.480   6.349  1.00 20.00     0.110 A 
HETATM    2  C2  UNL     1     -33.188   7.959   5.246  1.00 20.00     0.007 A 
HETATM    3  C3  UNL     1     -33.215   7.029   4.181  1.00 20.00     0.002 A 
HETATM    4  C4  UNL     1     -33.918   5.999   4.659  1.00 20.00     0.048 A 
HETATM    5  C5  UNL     1     -32.452   9.095   4.816  1.00 20.00     0.124 A 
HETATM    6  C6  UNL     1     -34.584   4.740   4.765  1.00 20.00     0.048 A 
HETATM    7  C7  UNL     1     -34.929   5.087   6.039  1.00 20.00     0.099 A 
HETATM    8  C8  UNL     1     -32.479   7.593   3.053  1.00 20.00     0.190 A 
HETATM    9  N9  UNL     1     -32.024   8.952   3.589  1.00 20.00    -0.296 NA
HETATM   10  N10 UNL     1     -34.284   6.279   5.904  1.00 20.00    -0.331 N 
ENDROOT
TORSDOF 0
ENDMDL
MODEL 4
REMARK VINA RESULT:      -4.4      1.127      3.834
REMARK  0 active torsions:
REMARK  status: ('A' for Active; 'I' for Inactive)
ROOT
HETATM    1  C1  UNL     1     -33.672   5.574   3.629  1.00 20.00     0.110 A 
HETATM    2  C2  UNL     1     -33.048   6.807   3.561  1.00 20.00     0.007 A 
HETATM    3  C3  UNL     1     -33.218   7.535   4.762  1.00 20.00     0.002 A 
HETATM    4  C4  UNL     1     -33.945   6.727   5.539  1.00 20.00     0.048 A 
HETATM    5  C5  UNL     1     -32.278   7.603   2.673  1.00 20.00     0.124 A 
HETATM    6  C6  UNL     1     -34.678   6.205   6.648  1.00 20.00     0.048 A 
HETATM    7  C7  UNL     1     -34.900   5.080   5.907  1.00 20.00     0.099 A 
HETATM    8  C8  UNL     1     -32.538   8.819   4.626  1.00 20.00     0.190 A 
HETATM    9  N9  UNL     1     -31.958   8.750   3.212  1.00 20.00    -0.296 NA
HETATM   10  N10 UNL     1     -34.195   5.609   4.869  1.00 20.00    -0.331 N 
ENDROOT
TORSDOF 0
ENDMDL
MODEL 5
REMARK VINA RESULT:      -3.9     12.676     12.798
REMARK  0 active torsions:
REMARK  status: ('A' for Active; 'I' for Inactive)
ROOT
HETATM    1  C1  UNL     1     -31.807  19.263   3.490  1.00 20.00     0.110 A 
HETATM    2  C2  UNL     1     -31.949  19.012   2.137  1.00 20.00     0.007 A 
HETATM    3  C3  UNL     1     -30.697  18.774   1.524  1.00 20.00     0.002 A 
HETATM    4  C4  UNL     1     -29.814  18.886   2.521  1.00 20.00     0.048 A 
HETATM    5  C5  UNL     1     -32.951  18.911   1.136  1.00 20.00     0.124 A 
HETATM    6  C6  UNL     1     -28.590  18.913   3.257  1.00 20.00     0.048 A 
HETATM    7  C7  UNL     1     -29.325  19.200   4.371  1.00 20.00     0.099 A 
HETATM    8  C8  UNL     1     -30.916  18.517   0.105  1.00 20.00     0.190 A 
HETATM    9  N9  UNL     1     -32.436  18.635  -0.032  1.00 20.00    -0.296 NA
HETATM   10  N10 UNL     1     -30.473  19.166   3.639  1.00 20.00    -0.331 N 
ENDROOT
TORSDOF 0
ENDMDL
MODEL 6
REMARK VINA RESULT:      -3.9     12.467     13.243
REMARK  0 active torsions:
REMARK  status: ('A' for Active; 'I' for Inactive)
ROOT
HETATM    1  C1  UNL     1     -35.012  17.947  -4.030  1.00 20.00     0.110 A 
HETATM    2  C2  UNL     1     -34.498  16.781  -4.568  1.00 20.00     0.007 A 
HETATM    3  C3  UNL     1     -33.632  16.133  -3.656  1.00 20.00     0.002 A 
HETATM    4  C4  UNL     1     -33.638  16.921  -2.577  1.00 20.00     0.048 A 
HETATM    5  C5  UNL     1     -34.548  15.999  -5.752  1.00 20.00     0.124 A 
HETATM    6  C6  UNL     1     -33.367  17.450  -1.279  1.00 20.00     0.048 A 
HETATM    7  C7  UNL     1     -34.199  18.488  -1.583  1.00 20.00     0.099 A 
HETATM    8  C8  UNL     1     -33.127  14.915  -4.281  1.00 20.00     0.190 A 
HETATM    9  N9  UNL     1     -33.797  14.934  -5.657  1.00 20.00    -0.296 NA
HETATM   10  N10 UNL     1     -34.435  17.956  -2.814  1.00 20.00    -0.331 N 
ENDROOT
TORSDOF 0
ENDMDL
MODEL 7
REMARK VINA RESULT:      -3.7     12.406     13.630
REMARK  0 active torsions:
REMARK  status: ('A' for Active; 'I' for Inactive)
ROOT
HETATM    1  C1  UNL     1     -33.205  15.163  -4.080  1.00 20.00     0.110 A 
HETATM    2  C2  UNL     1     -33.578  16.269  -3.337  1.00 20.00     0.007 A 
HETATM    3  C3  UNL     1     -34.386  17.149  -4.094  1.00 20.00     0.002 A 
HETATM    4  C4  UNL     1     -34.489  16.558  -5.288  1.00 20.00     0.048 A 
HETATM    5  C5  UNL     1     -33.418  16.829  -2.042  1.00 20.00     0.124 A 
HETATM    6  C6  UNL     1     -34.845  16.286  -6.644  1.00 20.00     0.048 A 
HETATM    7  C7  UNL     1     -34.124  15.131  -6.549  1.00 20.00     0.099 A 
HETATM    8  C8  UNL     1     -34.744  18.288  -3.256  1.00 20.00     0.190 A 
HETATM    9  N9  UNL     1     -34.049  17.968  -1.930  1.00 20.00    -0.296 NA
HETATM   10  N10 UNL     1     -33.804  15.421  -5.258  1.00 20.00    -0.331 N 
ENDROOT
TORSDOF 0
ENDMDL
MODEL 8
REMARK VINA RESULT:      -3.7     12.419     13.452
REMARK  0 active torsions:
REMARK  status: ('A' for Active; 'I' for Inactive)
ROOT
HETATM    1  C1  UNL     1     -34.916  17.377  -4.673  1.00 20.00     0.110 A 
HETATM    2  C2  UNL     1     -34.533  17.813  -3.417  1.00 20.00     0.007 A 
HETATM    3  C3  UNL     1     -33.672  16.882  -2.790  1.00 20.00     0.002 A 
HETATM    4  C4  UNL     1     -33.548  15.895  -3.681  1.00 20.00     0.048 A 
HETATM    5  C5  UNL     1     -34.719  18.904  -2.527  1.00 20.00     0.124 A 
HETATM    6  C6  UNL     1     -33.156  14.676  -4.314  1.00 20.00     0.048 A 
HETATM    7  C7  UNL     1     -33.916  15.046  -5.385  1.00 20.00     0.099 A 
HETATM    8  C8  UNL     1     -33.307  17.400  -1.475  1.00 20.00     0.190 A 
HETATM    9  N9  UNL     1     -34.055  18.734  -1.414  1.00 20.00    -0.296 NA
HETATM   10  N10 UNL     1     -34.270  16.199  -4.753  1.00 20.00    -0.331 N 
ENDROOT
TORSDOF 0
ENDMDL
MODEL 9
REMARK VINA RESULT:      -3.6     12.845     13.867
REMARK  0 active torsions:
REMARK  status: ('A' for Active; 'I' for Inactive)
ROOT
HETATM    1  C1  UNL     1     -34.519  17.670  -5.751  1.00 20.00     0.110 A 
HETATM    2  C2  UNL     1     -35.061  16.432  -6.045  1.00 20.00     0.007 A 
HETATM    3  C3  UNL     1     -34.798  15.498  -5.016  1.00 20.00     0.002 A 
HETATM    4  C4  UNL     1     -34.098  16.190  -4.112  1.00 20.00     0.048 A 
HETATM    5  C5  UNL     1     -35.808  15.770  -7.055  1.00 20.00     0.124 A 
HETATM    6  C6  UNL     1     -33.362  16.539  -2.939  1.00 20.00     0.048 A 
HETATM    7  C7  UNL     1     -33.244  17.799  -3.449  1.00 20.00     0.099 A 
HETATM    8  C8  UNL     1     -35.395  14.219  -5.386  1.00 20.00     0.190 A 
HETATM    9  N9  UNL     1     -36.030  14.519  -6.746  1.00 20.00    -0.296 NA
HETATM   10  N10 UNL     1     -33.950  17.433  -4.554  1.00 20.00    -0.331 N 
ENDROOT
TORSDOF 0
ENDMDL
