MODEL 1
REMARK VINA RESULT:      -4.2      0.000      0.000
REMARK  1 active torsions:
REMARK  status: ('A' for Active; 'I' for Inactive)
REMARK    1  A    between atoms: C1_1  and  C7_7 
ROOT
HETATM    1  C2  UNL     1     -23.749  18.936   8.631  1.00 20.00     0.004 C 
HETATM    2  C3  UNL     1     -22.288  19.263   8.923  1.00 20.00     0.037 C 
HETATM    3  C4  UNL     1     -24.619  19.087   9.879  1.00 20.00     0.016 C 
HETATM    4  C5  UNL     1     -22.606  18.538  11.331  1.00 20.00     0.053 C 
HETATM    5  C6  UNL     1     -21.747  18.428  10.073  1.00 20.00     0.171 C 
HETATM    6  C7  UNL     1     -24.102  18.268  11.075  1.00 20.00     0.012 C 
HETATM    7  C8  UNL     1     -24.914  18.610  12.332  1.00 20.00     0.023 C 
HETATM    8  F10 UNL     1     -21.706  17.124   9.680  1.00 20.00    -0.249 F 
ENDROOT
BRANCH   6   9
HETATM    9  C1  UNL     1     -24.326  16.797  10.821  1.00 20.00     0.240 C 
HETATM   10  O9  UNL     1     -24.338  15.952  11.711  1.00 20.00    -0.306 OA
ENDBRANCH   6   9
TORSDOF 1
ENDMDL
MODEL 2
REMARK VINA RESULT:      -4.0     15.717     16.878
REMARK  1 active torsions:
REMARK  status: ('A' for Active; 'I' for Inactive)
REMARK    1  A    between atoms: C1_1  and  C7_7 
ROOT
HETATM    1  C2  UNL     1     -33.494   5.853   6.657  1.00 20.00     0.004 C 
HETATM    2  C3  UNL     1     -34.779   5.132   6.258  1.00 20.00     0.037 C 
HETATM    3  C4  UNL     1     -33.484   7.300   6.164  1.00 20.00     0.016 C 
HETATM    4  C5  UNL     1     -34.991   6.635   4.227  1.00 20.00     0.053 C 
HETATM    5  C6  UNL     1     -35.016   5.203   4.757  1.00 20.00     0.171 C 
HETATM    6  C7  UNL     1     -33.733   7.420   4.651  1.00 20.00     0.012 C 
HETATM    7  C8  UNL     1     -33.890   8.898   4.264  1.00 20.00     0.023 C 
HETATM    8  F10 UNL     1     -34.044   4.483   4.131  1.00 20.00    -0.249 F 
ENDROOT
BRANCH   6   9
HETATM    9  C1  UNL     1     -32.529   6.917   3.893  1.00 20.00     0.240 C 
HETATM   10  O9  UNL     1     -32.131   7.416   2.846  1.00 20.00    -0.306 OA
ENDBRANCH   6   9
TORSDOF 1
ENDMDL
MODEL 3
REMARK VINA RESULT:      -3.7     15.224     16.389
REMARK  1 active torsions:
REMARK  status: ('A' for Active; 'I' for Inactive)
REMARK    1  A    between atoms: C1_1  and  C7_7 
ROOT
HETATM    1  C2  UNL     1     -32.193   6.372   3.003  1.00 20.00     0.004 C 
HETATM    2  C3  UNL     1     -32.257   7.897   2.977  1.00 20.00     0.037 C 
HETATM    3  C4  UNL     1     -33.570   5.755   3.244  1.00 20.00     0.016 C 
HETATM    4  C5  UNL     1     -34.262   7.838   4.527  1.00 20.00     0.053 C 
HETATM    5  C6  UNL     1     -32.893   8.451   4.243  1.00 20.00     0.171 C 
HETATM    6  C7  UNL     1     -34.257   6.296   4.510  1.00 20.00     0.012 C 
HETATM    7  C8  UNL     1     -35.698   5.772   4.587  1.00 20.00     0.023 C 
HETATM    8  F10 UNL     1     -32.065   8.188   5.293  1.00 20.00    -0.249 F 
ENDROOT
BRANCH   6   9
HETATM    9  C1  UNL     1     -33.555   5.769   5.738  1.00 20.00     0.240 C 
HETATM   10  O9  UNL     1     -34.145   5.283   6.698  1.00 20.00    -0.306 OA
ENDBRANCH   6   9
TORSDOF 1
ENDMDL
MODEL 4
REMARK VINA RESULT:      -3.7      2.194      3.404
REMARK  1 active torsions:
REMARK  status: ('A' for Active; 'I' for Inactive)
REMARK    1  A    between atoms: C1_1  and  C7_7 
ROOT
HETATM    1  C2  UNL     1     -24.320  16.625  11.030  1.00 20.00     0.004 C 
HETATM    2  C3  UNL     1     -23.542  16.896  12.314  1.00 20.00     0.037 C 
HETATM    3  C4  UNL     1     -23.445  16.818   9.791  1.00 20.00     0.016 C 
HETATM    4  C5  UNL     1     -22.042  18.513  11.064  1.00 20.00     0.053 C 
HETATM    5  C6  UNL     1     -22.906  18.278  12.301  1.00 20.00     0.171 C 
HETATM    6  C7  UNL     1     -22.771  18.200   9.742  1.00 20.00     0.012 C 
HETATM    7  C8  UNL     1     -21.774  18.253   8.575  1.00 20.00     0.023 C 
HETATM    8  F10 UNL     1     -23.898  19.210  12.331  1.00 20.00    -0.249 F 
ENDROOT
BRANCH   6   9
HETATM    9  C1  UNL     1     -23.803  19.263   9.456  1.00 20.00     0.240 C 
HETATM   10  O9  UNL     1     -24.630  19.178   8.554  1.00 20.00    -0.306 OA
ENDBRANCH   6   9
TORSDOF 1
ENDMDL
MODEL 5
REMARK VINA RESULT:      -3.7     23.786     24.790
REMARK  1 active torsions:
REMARK  status: ('A' for Active; 'I' for Inactive)
REMARK    1  A    between atoms: C1_1  and  C7_7 
ROOT
HETATM    1  C2  UNL     1     -40.433   6.538   0.003  1.00 20.00     0.004 C 
HETATM    2  C3  UNL     1     -41.168   7.874  -0.029  1.00 20.00     0.037 C 
HETATM    3  C4  UNL     1     -41.206   5.452  -0.747  1.00 20.00     0.016 C 
HETATM    4  C5  UNL     1     -43.382   6.652  -0.208  1.00 20.00     0.053 C 
HETATM    5  C6  UNL     1     -42.587   7.744   0.504  1.00 20.00     0.171 C 
HETATM    6  C7  UNL     1     -42.653   5.294  -0.248  1.00 20.00     0.012 C 
HETATM    7  C8  UNL     1     -43.415   4.322  -1.160  1.00 20.00     0.023 C 
HETATM    8  F10 UNL     1     -42.525   7.450   1.833  1.00 20.00    -0.249 F 
ENDROOT
BRANCH   6   9
HETATM    9  C1  UNL     1     -42.655   4.665   1.124  1.00 20.00     0.240 C 
HETATM   10  O9  UNL     1     -43.417   3.762   1.453  1.00 20.00    -0.306 OA
ENDBRANCH   6   9
TORSDOF 1
ENDMDL
MODEL 6
REMARK VINA RESULT:      -3.7     15.539     16.731
REMARK  1 active torsions:
REMARK  status: ('A' for Active; 'I' for Inactive)
REMARK    1  A    between atoms: C1_1  and  C7_7 
ROOT
HETATM    1  C2  UNL     1     -33.310  16.497  -3.579  1.00 20.00     0.004 C 
HETATM    2  C3  UNL     1     -34.568  17.033  -4.256  1.00 20.00     0.037 C 
HETATM    3  C4  UNL     1     -33.384  16.640  -2.059  1.00 20.00     0.016 C 
HETATM    4  C5  UNL     1     -34.906  18.658  -2.339  1.00 20.00     0.053 C 
HETATM    5  C6  UNL     1     -34.847  18.474  -3.854  1.00 20.00     0.171 C 
HETATM    6  C7  UNL     1     -33.678  18.081  -1.606  1.00 20.00     0.012 C 
HETATM    7  C8  UNL     1     -33.917  18.114  -0.090  1.00 20.00     0.023 C 
HETATM    8  F10 UNL     1     -33.857  19.263  -4.357  1.00 20.00    -0.249 F 
ENDROOT
BRANCH   6   9
HETATM    9  C1  UNL     1     -32.471  18.952  -1.856  1.00 20.00     0.240 C 
HETATM   10  O9  UNL     1     -31.459  18.920  -1.164  1.00 20.00    -0.306 OA
ENDBRANCH   6   9
TORSDOF 1
ENDMDL
MODEL 7
REMARK VINA RESULT:      -3.6     18.107     19.299
REMARK  1 active torsions:
REMARK  status: ('A' for Active; 'I' for Inactive)
REMARK    1  A    between atoms: C1_1  and  C7_7 
ROOT
HETATM    1  C2  UNL     1     -33.790  17.378  -4.001  1.00 20.00     0.004 C 
HETATM    2  C3  UNL     1     -33.540  16.183  -3.086  1.00 20.00     0.037 C 
HETATM    3  C4  UNL     1     -35.083  17.213  -4.799  1.00 20.00     0.016 C 
HETATM    4  C5  UNL     1     -34.811  14.688  -4.690  1.00 20.00     0.053 C 
HETATM    5  C6  UNL     1     -33.542  14.874  -3.862  1.00 20.00     0.171 C 
HETATM    6  C7  UNL     1     -35.135  15.895  -5.592  1.00 20.00     0.012 C 
HETATM    7  C8  UNL     1     -36.526  15.717  -6.218  1.00 20.00     0.023 C 
HETATM    8  F10 UNL     1     -32.465  14.865  -4.696  1.00 20.00    -0.249 F 
ENDROOT
BRANCH   6   9
HETATM    9  C1  UNL     1     -34.163  15.954  -6.746  1.00 20.00     0.240 C 
HETATM   10  O9  UNL     1     -33.913  14.995  -7.469  1.00 20.00    -0.306 OA
ENDBRANCH   6   9
TORSDOF 1
ENDMDL
MODEL 8
REMARK VINA RESULT:      -3.5     19.219     20.360
REMARK  1 active torsions:
REMARK  status: ('A' for Active; 'I' for Inactive)
REMARK    1  A    between atoms: C1_1  and  C7_7 
ROOT
HETATM    1  C2  UNL     1     -35.999  17.153  -5.797  1.00 20.00     0.004 C 
HETATM    2  C3  UNL     1     -35.406  17.145  -7.203  1.00 20.00     0.037 C 
HETATM    3  C4  UNL     1     -35.052  16.509  -4.784  1.00 20.00     0.016 C 
HETATM    4  C5  UNL     1     -34.084  15.058  -6.633  1.00 20.00     0.053 C 
HETATM    5  C6  UNL     1     -35.013  15.740  -7.635  1.00 20.00     0.171 C 
HETATM    6  C7  UNL     1     -34.618  15.090  -5.187  1.00 20.00     0.012 C 
HETATM    7  C8  UNL     1     -33.535  14.582  -4.223  1.00 20.00     0.023 C 
HETATM    8  F10 UNL     1     -36.145  14.995  -7.766  1.00 20.00    -0.249 F 
ENDROOT
BRANCH   6   9
HETATM    9  C1  UNL     1     -35.781  14.138  -5.044  1.00 20.00     0.240 C 
HETATM   10  O9  UNL     1     -35.744  13.122  -4.358  1.00 20.00    -0.306 OA
ENDBRANCH   6   9
TORSDOF 1
ENDMDL
MODEL 9
REMARK VINA RESULT:      -3.5     15.322     16.527
REMARK  1 active torsions:
REMARK  status: ('A' for Active; 'I' for Inactive)
REMARK    1  A    between atoms: C1_1  and  C7_7 
ROOT
HETATM    1  C2  UNL     1     -33.555   8.357   5.900  1.00 20.00     0.004 C 
HETATM    2  C3  UNL     1     -32.332   8.555   5.009  1.00 20.00     0.037 C 
HETATM    3  C4  UNL     1     -33.914   6.878   6.042  1.00 20.00     0.016 C 
HETATM    4  C5  UNL     1     -32.903   6.429   3.752  1.00 20.00     0.053 C 
HETATM    5  C6  UNL     1     -32.521   7.904   3.647  1.00 20.00     0.171 C 
HETATM    6  C7  UNL     1     -34.103   6.174   4.686  1.00 20.00     0.012 C 
HETATM    7  C8  UNL     1     -34.281   4.665   4.903  1.00 20.00     0.023 C 
HETATM    8  F10 UNL     1     -33.507   8.570   2.983  1.00 20.00    -0.249 F 
ENDROOT
BRANCH   6   9
HETATM    9  C1  UNL     1     -35.377   6.654   4.034  1.00 20.00     0.240 C 
HETATM   10  O9  UNL     1     -36.424   6.015   4.044  1.00 20.00    -0.306 OA
ENDBRANCH   6   9
TORSDOF 1
ENDMDL
