MODEL 1
REMARK VINA RESULT:      -4.5      0.000      0.000
REMARK  1 active torsions:
REMARK  status: ('A' for Active; 'I' for Inactive)
REMARK    1  A    between atoms: C2_2  and  C4_4 
ROOT
HETATM    1  C1  UNL     1     -33.708   7.667   5.983  1.00 20.00     0.318 A 
HETATM    2  C2  UNL     1     -33.626   6.444   5.102  1.00 20.00     0.357 A 
HETATM    3  C3  UNL     1     -32.617   8.303   3.901  1.00 20.00     0.310 C 
HETATM    4  N5  UNL     1     -33.819   7.771   4.531  1.00 20.00     0.102 N 
ENDROOT
BRANCH   2   5
HETATM    5  C4  UNL     1     -34.752   5.472   5.062  1.00 20.00     0.419 C 
HETATM    6  F6  UNL     1     -35.822   5.975   4.397  1.00 20.00    -0.169 F 
HETATM    7  F7  UNL     1     -34.395   4.322   4.439  1.00 20.00    -0.169 F 
HETATM    8  F8  UNL     1     -35.171   5.143   6.308  1.00 20.00    -0.169 F 
ENDBRANCH   2   5
TORSDOF 1
ENDMDL
MODEL 2
REMARK VINA RESULT:      -4.5      0.009      1.336
REMARK  1 active torsions:
REMARK  status: ('A' for Active; 'I' for Inactive)
REMARK    1  A    between atoms: C2_2  and  C4_4 
ROOT
HETATM    1  C1  UNL     1     -33.703   7.673   5.974  1.00 20.00     0.318 A 
HETATM    2  C2  UNL     1     -33.625   6.447   5.096  1.00 20.00     0.357 A 
HETATM    3  C3  UNL     1     -32.617   8.302   3.888  1.00 20.00     0.310 C 
HETATM    4  N5  UNL     1     -33.818   7.773   4.523  1.00 20.00     0.102 N 
ENDROOT
BRANCH   2   5
HETATM    5  C4  UNL     1     -34.753   5.477   5.062  1.00 20.00     0.419 C 
HETATM    6  F6  UNL     1     -35.171   5.152   6.310  1.00 20.00    -0.169 F 
HETATM    7  F7  UNL     1     -35.822   5.979   4.397  1.00 20.00    -0.169 F 
HETATM    8  F8  UNL     1     -34.399   4.323   4.444  1.00 20.00    -0.169 F 
ENDBRANCH   2   5
TORSDOF 1
ENDMDL
MODEL 3
REMARK VINA RESULT:      -4.5      0.004      1.337
REMARK  1 active torsions:
REMARK  status: ('A' for Active; 'I' for Inactive)
REMARK    1  A    between atoms: C2_2  and  C4_4 
ROOT
HETATM    1  C1  UNL     1     -33.709   7.670   5.981  1.00 20.00     0.318 A 
HETATM    2  C2  UNL     1     -33.627   6.446   5.101  1.00 20.00     0.357 A 
HETATM    3  C3  UNL     1     -32.615   8.303   3.899  1.00 20.00     0.310 C 
HETATM    4  N5  UNL     1     -33.819   7.772   4.529  1.00 20.00     0.102 N 
ENDROOT
BRANCH   2   5
HETATM    5  C4  UNL     1     -34.754   5.475   5.061  1.00 20.00     0.419 C 
HETATM    6  F6  UNL     1     -34.399   4.323   4.440  1.00 20.00    -0.169 F 
HETATM    7  F7  UNL     1     -35.173   5.147   6.308  1.00 20.00    -0.169 F 
HETATM    8  F8  UNL     1     -35.823   5.978   4.396  1.00 20.00    -0.169 F 
ENDBRANCH   2   5
TORSDOF 1
ENDMDL
MODEL 4
REMARK VINA RESULT:      -4.3      1.178      1.314
REMARK  1 active torsions:
REMARK  status: ('A' for Active; 'I' for Inactive)
REMARK    1  A    between atoms: C2_2  and  C4_4 
ROOT
HETATM    1  C1  UNL     1     -33.457   8.405   5.234  1.00 20.00     0.318 A 
HETATM    2  C2  UNL     1     -33.310   6.922   5.473  1.00 20.00     0.357 A 
HETATM    3  C3  UNL     1     -32.236   7.451   3.356  1.00 20.00     0.310 C 
HETATM    4  N5  UNL     1     -33.474   7.454   4.126  1.00 20.00     0.102 N 
ENDROOT
BRANCH   2   5
HETATM    5  C4  UNL     1     -34.425   6.146   6.081  1.00 20.00     0.419 C 
HETATM    6  F6  UNL     1     -35.433   5.945   5.197  1.00 20.00    -0.169 F 
HETATM    7  F7  UNL     1     -34.011   4.927   6.504  1.00 20.00    -0.169 F 
HETATM    8  F8  UNL     1     -34.952   6.787   7.153  1.00 20.00    -0.169 F 
ENDBRANCH   2   5
TORSDOF 1
ENDMDL
MODEL 5
REMARK VINA RESULT:      -4.2      2.915      3.652
REMARK  1 active torsions:
REMARK  status: ('A' for Active; 'I' for Inactive)
REMARK    1  A    between atoms: C2_2  and  C4_4 
ROOT
HETATM    1  C1  UNL     1     -33.783   7.158   6.015  1.00 20.00     0.318 A 
HETATM    2  C2  UNL     1     -33.799   7.734   4.620  1.00 20.00     0.357 A 
HETATM    3  C3  UNL     1     -35.218   5.758   4.633  1.00 20.00     0.310 C 
HETATM    4  N5  UNL     1     -33.879   6.296   4.841  1.00 20.00     0.102 N 
ENDROOT
BRANCH   2   5
HETATM    5  C4  UNL     1     -32.557   8.303   4.029  1.00 20.00     0.419 C 
HETATM    6  F6  UNL     1     -31.861   9.030   4.937  1.00 20.00    -0.169 F 
HETATM    7  F7  UNL     1     -31.731   7.330   3.573  1.00 20.00    -0.169 F 
HETATM    8  F8  UNL     1     -32.832   9.122   2.984  1.00 20.00    -0.169 F 
ENDBRANCH   2   5
TORSDOF 1
ENDMDL
MODEL 6
REMARK VINA RESULT:      -4.2      2.917      3.659
REMARK  1 active torsions:
REMARK  status: ('A' for Active; 'I' for Inactive)
REMARK    1  A    between atoms: C2_2  and  C4_4 
ROOT
HETATM    1  C1  UNL     1     -33.775   7.160   6.013  1.00 20.00     0.318 A 
HETATM    2  C2  UNL     1     -33.796   7.739   4.619  1.00 20.00     0.357 A 
HETATM    3  C3  UNL     1     -35.218   5.766   4.633  1.00 20.00     0.310 C 
HETATM    4  N5  UNL     1     -33.877   6.300   4.837  1.00 20.00     0.102 N 
ENDROOT
BRANCH   2   5
HETATM    5  C4  UNL     1     -32.555   8.308   4.025  1.00 20.00     0.419 C 
HETATM    6  F6  UNL     1     -31.729   7.335   3.567  1.00 20.00    -0.169 F 
HETATM    7  F7  UNL     1     -32.834   9.125   2.980  1.00 20.00    -0.169 F 
HETATM    8  F8  UNL     1     -31.857   9.035   4.932  1.00 20.00    -0.169 F 
ENDBRANCH   2   5
TORSDOF 1
ENDMDL
MODEL 7
REMARK VINA RESULT:      -3.9      2.073      2.776
REMARK  1 active torsions:
REMARK  status: ('A' for Active; 'I' for Inactive)
REMARK    1  A    between atoms: C2_2  and  C4_4 
ROOT
HETATM    1  C1  UNL     1     -35.308   5.747   4.250  1.00 20.00     0.318 A 
HETATM    2  C2  UNL     1     -34.110   6.379   4.917  1.00 20.00     0.357 A 
HETATM    3  C3  UNL     1     -33.356   5.329   2.857  1.00 20.00     0.310 C 
HETATM    4  N5  UNL     1     -33.983   5.141   4.159  1.00 20.00     0.102 N 
ENDROOT
BRANCH   2   5
HETATM    5  C4  UNL     1     -33.966   6.335   6.398  1.00 20.00     0.419 C 
HETATM    6  F6  UNL     1     -32.853   6.990   6.811  1.00 20.00    -0.169 F 
HETATM    7  F7  UNL     1     -35.025   6.910   7.018  1.00 20.00    -0.169 F 
HETATM    8  F8  UNL     1     -33.875   5.061   6.852  1.00 20.00    -0.169 F 
ENDBRANCH   2   5
TORSDOF 1
ENDMDL
MODEL 8
REMARK VINA RESULT:      -3.7      2.543      3.112
REMARK  1 active torsions:
REMARK  status: ('A' for Active; 'I' for Inactive)
REMARK    1  A    between atoms: C2_2  and  C4_4 
ROOT
HETATM    1  C1  UNL     1     -34.969   5.839   4.650  1.00 20.00     0.318 A 
HETATM    2  C2  UNL     1     -33.946   6.918   4.389  1.00 20.00     0.357 A 
HETATM    3  C3  UNL     1     -33.445   5.039   2.928  1.00 20.00     0.310 C 
HETATM    4  N5  UNL     1     -33.591   5.507   4.301  1.00 20.00     0.102 N 
ENDROOT
BRANCH   2   5
HETATM    5  C4  UNL     1     -33.405   7.727   5.515  1.00 20.00     0.419 C 
HETATM    6  F6  UNL     1     -34.228   8.758   5.830  1.00 20.00    -0.169 F 
HETATM    7  F7  UNL     1     -33.249   6.980   6.636  1.00 20.00    -0.169 F 
HETATM    8  F8  UNL     1     -32.195   8.257   5.212  1.00 20.00    -0.169 F 
ENDBRANCH   2   5
TORSDOF 1
ENDMDL
MODEL 9
REMARK VINA RESULT:      -3.6      2.665      3.573
REMARK  1 active torsions:
REMARK  status: ('A' for Active; 'I' for Inactive)
REMARK    1  A    between atoms: C2_2  and  C4_4 
ROOT
HETATM    1  C1  UNL     1     -34.072   5.693   3.990  1.00 20.00     0.318 A 
HETATM    2  C2  UNL     1     -33.255   6.670   4.801  1.00 20.00     0.357 A 
HETATM    3  C3  UNL     1     -34.655   5.405   6.336  1.00 20.00     0.310 C 
HETATM    4  N5  UNL     1     -34.612   6.313   5.196  1.00 20.00     0.102 N 
ENDROOT
BRANCH   2   5
HETATM    5  C4  UNL     1     -32.994   8.041   4.282  1.00 20.00     0.419 C 
HETATM    6  F6  UNL     1     -34.137   8.761   4.175  1.00 20.00    -0.169 F 
HETATM    7  F7  UNL     1     -32.159   8.730   5.098  1.00 20.00    -0.169 F 
HETATM    8  F8  UNL     1     -32.422   8.008   3.054  1.00 20.00    -0.169 F 
ENDBRANCH   2   5
TORSDOF 1
ENDMDL
