MODEL 1
REMARK VINA RESULT:      -5.1      0.000      0.000
REMARK  1 active torsions:
REMARK  status: ('A' for Active; 'I' for Inactive)
REMARK    1  A    between atoms: C1_1  and  C8_8 
ROOT
HETATM    1  C2  UNL     1     -34.963   5.699   6.201  1.00 20.00     0.001 C 
HETATM    2  C3  UNL     1     -34.336   4.946   5.040  1.00 20.00     0.001 C 
HETATM    3  C4  UNL     1     -34.041   6.902   6.368  1.00 20.00     0.010 C 
HETATM    4  C5  UNL     1     -33.999   6.055   4.048  1.00 20.00     0.010 C 
HETATM    5  C6  UNL     1     -32.165   7.780   4.785  1.00 20.00     0.023 C 
HETATM    6  C7  UNL     1     -34.084   8.640   4.402  1.00 20.00     0.023 C 
HETATM    7  C8  UNL     1     -32.683   8.830   3.774  1.00 20.00     0.073 C 
HETATM    8  C9  UNL     1     -33.621   7.253   4.936  1.00 20.00    -0.039 C 
ENDROOT
BRANCH   7   9
HETATM    9  C1  UNL     1     -32.523   8.523   2.279  1.00 20.00     0.223 C 
HETATM   10  O10 UNL     1     -32.078   7.449   1.885  1.00 20.00    -0.279 OA
HETATM   11 CL11 UNL     1     -33.039   9.847   1.280  1.00 20.00    -0.043 Cl
ENDBRANCH   7   9
TORSDOF 1
ENDMDL
MODEL 2
REMARK VINA RESULT:      -4.4     11.451     12.354
REMARK  1 active torsions:
REMARK  status: ('A' for Active; 'I' for Inactive)
REMARK    1  A    between atoms: C1_1  and  C8_8 
ROOT
HETATM    1  C2  UNL     1     -31.704  18.560   1.617  1.00 20.00     0.001 C 
HETATM    2  C3  UNL     1     -30.843  19.065   0.472  1.00 20.00     0.001 C 
HETATM    3  C4  UNL     1     -33.122  18.734   1.083  1.00 20.00     0.010 C 
HETATM    4  C5  UNL     1     -31.499  18.444  -0.756  1.00 20.00     0.010 C 
HETATM    5  C6  UNL     1     -33.923  19.263  -1.341  1.00 20.00     0.023 C 
HETATM    6  C7  UNL     1     -33.773  17.171  -0.923  1.00 20.00     0.023 C 
HETATM    7  C8  UNL     1     -34.203  17.985  -2.166  1.00 20.00     0.073 C 
HETATM    8  C9  UNL     1     -32.999  18.422  -0.413  1.00 20.00    -0.039 C 
ENDROOT
BRANCH   7   9
HETATM    9  C1  UNL     1     -33.407  17.782  -3.463  1.00 20.00     0.223 C 
HETATM   10  O10 UNL     1     -33.068  18.729  -4.167  1.00 20.00    -0.279 OA
HETATM   11 CL11 UNL     1     -33.072  16.106  -3.769  1.00 20.00    -0.043 Cl
ENDBRANCH   7   9
TORSDOF 1
ENDMDL
MODEL 3
REMARK VINA RESULT:      -4.4     11.570     12.688
REMARK  1 active torsions:
REMARK  status: ('A' for Active; 'I' for Inactive)
REMARK    1  A    between atoms: C1_1  and  C8_8 
ROOT
HETATM    1  C2  UNL     1     -34.163  16.107  -4.971  1.00 20.00     0.001 C 
HETATM    2  C3  UNL     1     -33.804  15.328  -3.717  1.00 20.00     0.001 C 
HETATM    3  C4  UNL     1     -34.652  17.442  -4.418  1.00 20.00     0.010 C 
HETATM    4  C5  UNL     1     -33.062  16.357  -2.870  1.00 20.00     0.010 C 
HETATM    5  C6  UNL     1     -34.462  18.400  -2.001  1.00 20.00     0.023 C 
HETATM    6  C7  UNL     1     -32.821  18.927  -3.266  1.00 20.00     0.023 C 
HETATM    7  C8  UNL     1     -33.183  19.245  -1.796  1.00 20.00     0.073 C 
HETATM    8  C9  UNL     1     -33.761  17.689  -3.195  1.00 20.00    -0.039 C 
ENDROOT
BRANCH   7   9
HETATM    9  C1  UNL     1     -32.198  18.801  -0.706  1.00 20.00     0.223 C 
HETATM   10  O10 UNL     1     -30.984  18.833  -0.881  1.00 20.00    -0.279 OA
HETATM   11 CL11 UNL     1     -33.012  18.275   0.736  1.00 20.00    -0.043 Cl
ENDBRANCH   7   9
TORSDOF 1
ENDMDL
MODEL 4
REMARK VINA RESULT:      -4.2      9.524     10.769
REMARK  1 active torsions:
REMARK  status: ('A' for Active; 'I' for Inactive)
REMARK    1  A    between atoms: C1_1  and  C8_8 
ROOT
HETATM    1  C2  UNL     1     -42.321  16.339   7.991  1.00 20.00     0.001 C 
HETATM    2  C3  UNL     1     -40.850  16.490   7.639  1.00 20.00     0.001 C 
HETATM    3  C4  UNL     1     -42.823  15.347   6.948  1.00 20.00     0.010 C 
HETATM    4  C5  UNL     1     -40.408  15.055   7.374  1.00 20.00     0.010 C 
HETATM    5  C6  UNL     1     -41.466  13.860   5.291  1.00 20.00     0.023 C 
HETATM    6  C7  UNL     1     -41.878  12.908   7.160  1.00 20.00     0.023 C 
HETATM    7  C8  UNL     1     -41.143  12.464   5.873  1.00 20.00     0.073 C 
HETATM    8  C9  UNL     1     -41.643  14.389   6.743  1.00 20.00    -0.039 C 
ENDROOT
BRANCH   7   9
HETATM    9  C1  UNL     1     -39.666  12.063   5.995  1.00 20.00     0.223 C 
HETATM   10  O10 UNL     1     -39.120  11.940   7.087  1.00 20.00    -0.279 OA
HETATM   11 CL11 UNL     1     -38.924  11.822   4.443  1.00 20.00    -0.043 Cl
ENDBRANCH   7   9
TORSDOF 1
ENDMDL
MODEL 5
REMARK VINA RESULT:      -4.0     12.076     13.333
REMARK  1 active torsions:
REMARK  status: ('A' for Active; 'I' for Inactive)
REMARK    1  A    between atoms: C1_1  and  C8_8 
ROOT
HETATM    1  C2  UNL     1     -34.076  17.564  -2.289  1.00 20.00     0.001 C 
HETATM    2  C3  UNL     1     -33.094  16.581  -2.903  1.00 20.00     0.001 C 
HETATM    3  C4  UNL     1     -34.656  18.276  -3.506  1.00 20.00     0.010 C 
HETATM    4  C5  UNL     1     -33.870  16.007  -4.084  1.00 20.00     0.010 C 
HETATM    5  C6  UNL     1     -34.451  17.665  -6.032  1.00 20.00     0.023 C 
HETATM    6  C7  UNL     1     -36.154  16.797  -5.074  1.00 20.00     0.023 C 
HETATM    7  C8  UNL     1     -35.605  16.758  -6.520  1.00 20.00     0.073 C 
HETATM    8  C9  UNL     1     -34.729  17.183  -4.579  1.00 20.00    -0.039 C 
ENDROOT
BRANCH   7   9
HETATM    9  C1  UNL     1     -35.239  15.388  -7.108  1.00 20.00     0.223 C 
HETATM   10  O10 UNL     1     -36.000  14.428  -7.029  1.00 20.00    -0.279 OA
HETATM   11 CL11 UNL     1     -33.674  15.397  -7.863  1.00 20.00    -0.043 Cl
ENDBRANCH   7   9
TORSDOF 1
ENDMDL
MODEL 6
REMARK VINA RESULT:      -4.0     15.247     16.137
REMARK  1 active torsions:
REMARK  status: ('A' for Active; 'I' for Inactive)
REMARK    1  A    between atoms: C1_1  and  C8_8 
ROOT
HETATM    1  C2  UNL     1     -22.180  18.226   7.954  1.00 20.00     0.001 C 
HETATM    2  C3  UNL     1     -23.326  19.202   8.166  1.00 20.00     0.001 C 
HETATM    3  C4  UNL     1     -21.764  17.872   9.378  1.00 20.00     0.010 C 
HETATM    4  C5  UNL     1     -24.138  18.547   9.278  1.00 20.00     0.010 C 
HETATM    5  C6  UNL     1     -22.985  18.363  11.629  1.00 20.00     0.023 C 
HETATM    6  C7  UNL     1     -23.516  16.485  10.755  1.00 20.00     0.023 C 
HETATM    7  C8  UNL     1     -23.933  17.217  12.053  1.00 20.00     0.073 C 
HETATM    8  C9  UNL     1     -23.082  17.857  10.160  1.00 20.00    -0.039 C 
ENDROOT
BRANCH   7   9
HETATM    9  C1  UNL     1     -25.420  17.550  12.239  1.00 20.00     0.223 C 
HETATM   10  O10 UNL     1     -26.272  16.671  12.320  1.00 20.00    -0.279 OA
HETATM   11 CL11 UNL     1     -25.702  19.262  12.316  1.00 20.00    -0.043 Cl
ENDBRANCH   7   9
TORSDOF 1
ENDMDL
MODEL 7
REMARK VINA RESULT:      -3.9      9.745     10.847
REMARK  1 active torsions:
REMARK  status: ('A' for Active; 'I' for Inactive)
REMARK    1  A    between atoms: C1_1  and  C8_8 
ROOT
HETATM    1  C2  UNL     1     -39.734  12.540   4.543  1.00 20.00     0.001 C 
HETATM    2  C3  UNL     1     -39.456  11.664   5.754  1.00 20.00     0.001 C 
HETATM    3  C4  UNL     1     -41.069  13.190   4.889  1.00 20.00     0.010 C 
HETATM    4  C5  UNL     1     -39.820  12.568   6.927  1.00 20.00     0.010 C 
HETATM    5  C6  UNL     1     -42.346  13.240   7.161  1.00 20.00     0.023 C 
HETATM    6  C7  UNL     1     -41.015  14.890   6.888  1.00 20.00     0.023 C 
HETATM    7  C8  UNL     1     -41.984  14.474   8.020  1.00 20.00     0.073 C 
HETATM    8  C9  UNL     1     -40.997  13.410   6.404  1.00 20.00    -0.039 C 
ENDROOT
BRANCH   7   9
HETATM    9  C1  UNL     1     -41.390  14.227   9.414  1.00 20.00     0.223 C 
HETATM   10  O10 UNL     1     -41.872  13.401  10.183  1.00 20.00    -0.279 OA
HETATM   11 CL11 UNL     1     -40.010  15.234   9.725  1.00 20.00    -0.043 Cl
ENDBRANCH   7   9
TORSDOF 1
ENDMDL
MODEL 8
REMARK VINA RESULT:      -3.9     12.042     13.324
REMARK  1 active torsions:
REMARK  status: ('A' for Active; 'I' for Inactive)
REMARK    1  A    between atoms: C1_1  and  C8_8 
ROOT
HETATM    1  C2  UNL     1     -32.916  15.888  -3.418  1.00 20.00     0.001 C 
HETATM    2  C3  UNL     1     -34.046  16.890  -3.250  1.00 20.00     0.001 C 
HETATM    3  C4  UNL     1     -33.583  14.742  -4.170  1.00 20.00     0.010 C 
HETATM    4  C5  UNL     1     -34.716  16.890  -4.620  1.00 20.00     0.010 C 
HETATM    5  C6  UNL     1     -35.907  14.668  -5.350  1.00 20.00     0.023 C 
HETATM    6  C7  UNL     1     -34.310  15.279  -6.634  1.00 20.00     0.023 C 
HETATM    7  C8  UNL     1     -35.828  15.065  -6.843  1.00 20.00     0.073 C 
HETATM    8  C9  UNL     1     -34.576  15.438  -5.109  1.00 20.00    -0.039 C 
ENDROOT
BRANCH   7   9
HETATM    9  C1  UNL     1     -36.661  16.267  -7.309  1.00 20.00     0.223 C 
HETATM   10  O10 UNL     1     -37.887  16.269  -7.237  1.00 20.00    -0.279 OA
HETATM   11 CL11 UNL     1     -35.668  17.555  -7.918  1.00 20.00    -0.043 Cl
ENDBRANCH   7   9
TORSDOF 1
ENDMDL
MODEL 9
REMARK VINA RESULT:      -3.8     11.925     12.722
REMARK  1 active torsions:
REMARK  status: ('A' for Active; 'I' for Inactive)
REMARK    1  A    between atoms: C1_1  and  C8_8 
ROOT
HETATM    1  C2  UNL     1     -32.510  18.886   0.463  1.00 20.00     0.001 C 
HETATM    2  C3  UNL     1     -33.914  18.307   0.484  1.00 20.00     0.001 C 
HETATM    3  C4  UNL     1     -31.890  18.241  -0.771  1.00 20.00     0.010 C 
HETATM    4  C5  UNL     1     -34.347  18.394  -0.976  1.00 20.00     0.010 C 
HETATM    5  C6  UNL     1     -33.039  16.894  -2.686  1.00 20.00     0.023 C 
HETATM    6  C7  UNL     1     -32.908  18.993  -3.071  1.00 20.00     0.023 C 
HETATM    7  C8  UNL     1     -33.468  17.792  -3.870  1.00 20.00     0.073 C 
HETATM    8  C9  UNL     1     -33.051  18.151  -1.769  1.00 20.00    -0.039 C 
ENDROOT
BRANCH   7   9
HETATM    9  C1  UNL     1     -34.956  17.816  -4.247  1.00 20.00     0.223 C 
HETATM   10  O10 UNL     1     -35.671  18.779  -3.988  1.00 20.00    -0.279 OA
HETATM   11 CL11 UNL     1     -35.451  16.358  -5.052  1.00 20.00    -0.043 Cl
ENDBRANCH   7   9
TORSDOF 1
ENDMDL
