MODEL 1
REMARK VINA RESULT:      -3.6      0.000      0.000
REMARK  1 active torsions:
REMARK  status: ('A' for Active; 'I' for Inactive)
REMARK    1  A    between atoms: C3_3  and  C8_8 
ROOT
HETATM    1  C1  UNL     1     -43.417  15.948   6.996  1.00 20.00    -0.025 C 
HETATM    2  C2  UNL     1     -42.249  16.319   6.452  1.00 20.00    -0.024 C 
HETATM    3  C4  UNL     1     -41.756  14.946   8.231  1.00 20.00     0.018 C 
HETATM    4  C5  UNL     1     -43.176  14.654   7.741  1.00 20.00     0.013 C 
HETATM    5  C6  UNL     1     -41.229  15.266   6.823  1.00 20.00     0.024 C 
HETATM    6  C7  UNL     1     -42.942  13.533   6.684  1.00 20.00     0.005 C 
HETATM    7  C8  UNL     1     -41.543  13.934   6.069  1.00 20.00     0.027 C 
HETATM    8  C10 UNL     1     -43.015  12.144   7.313  1.00 20.00     0.012 C 
HETATM    9  C11 UNL     1     -41.609  14.092   4.545  1.00 20.00     0.024 C 
ENDROOT
BRANCH   7  10
HETATM   10  C3  UNL     1     -40.450  12.930   6.348  1.00 20.00     0.132 C 
HETATM   11  C9  UNL     1     -40.051  12.030   5.210  1.00 20.00     0.091 C 
HETATM   12  O12 UNL     1     -39.911  12.853   7.451  1.00 20.00    -0.298 OA
ENDBRANCH   7  10
TORSDOF 1
ENDMDL
MODEL 2
REMARK VINA RESULT:      -3.6     12.959     14.160
REMARK  1 active torsions:
REMARK  status: ('A' for Active; 'I' for Inactive)
REMARK    1  A    between atoms: C3_3  and  C8_8 
ROOT
HETATM    1  C1  UNL     1     -36.656  17.016  -7.060  1.00 20.00    -0.025 C 
HETATM    2  C2  UNL     1     -35.432  17.563  -7.034  1.00 20.00    -0.024 C 
HETATM    3  C4  UNL     1     -36.022  17.133  -4.852  1.00 20.00     0.018 C 
HETATM    4  C5  UNL     1     -36.820  16.219  -5.784  1.00 20.00     0.013 C 
HETATM    5  C6  UNL     1     -34.772  17.121  -5.747  1.00 20.00     0.024 C 
HETATM    6  C7  UNL     1     -35.903  14.963  -5.888  1.00 20.00     0.005 C 
HETATM    7  C8  UNL     1     -34.456  15.593  -5.811  1.00 20.00     0.027 C 
HETATM    8  C10 UNL     1     -36.236  13.935  -4.810  1.00 20.00     0.012 C 
HETATM    9  C11 UNL     1     -33.590  15.194  -7.012  1.00 20.00     0.024 C 
ENDROOT
BRANCH   7  10
HETATM   10  C3  UNL     1     -33.686  15.188  -4.576  1.00 20.00     0.132 C 
HETATM   11  C9  UNL     1     -33.392  16.273  -3.575  1.00 20.00     0.091 C 
HETATM   12  O12 UNL     1     -33.320  14.028  -4.395  1.00 20.00    -0.298 OA
ENDBRANCH   7  10
TORSDOF 1
ENDMDL
MODEL 3
REMARK VINA RESULT:      -3.5     11.837     13.017
REMARK  1 active torsions:
REMARK  status: ('A' for Active; 'I' for Inactive)
REMARK    1  A    between atoms: C3_3  and  C8_8 
ROOT
HETATM    1  C1  UNL     1     -32.674  19.205  -0.300  1.00 20.00    -0.025 C 
HETATM    2  C2  UNL     1     -31.824  18.515  -1.074  1.00 20.00    -0.024 C 
HETATM    3  C4  UNL     1     -33.725  17.237  -0.859  1.00 20.00     0.018 C 
HETATM    4  C5  UNL     1     -34.068  18.707  -0.609  1.00 20.00     0.013 C 
HETATM    5  C6  UNL     1     -32.651  17.564  -1.909  1.00 20.00     0.024 C 
HETATM    6  C7  UNL     1     -34.449  19.210  -2.034  1.00 20.00     0.005 C 
HETATM    7  C8  UNL     1     -33.484  18.367  -2.959  1.00 20.00     0.027 C 
HETATM    8  C10 UNL     1     -35.941  19.045  -2.308  1.00 20.00     0.012 C 
HETATM    9  C11 UNL     1     -32.630  19.261  -3.866  1.00 20.00     0.024 C 
ENDROOT
BRANCH   7  10
HETATM   10  C3  UNL     1     -34.209  17.403  -3.868  1.00 20.00     0.132 C 
HETATM   11  C9  UNL     1     -33.761  15.967  -3.827  1.00 20.00     0.091 C 
HETATM   12  O12 UNL     1     -35.123  17.773  -4.603  1.00 20.00    -0.298 OA
ENDBRANCH   7  10
TORSDOF 1
ENDMDL
MODEL 4
REMARK VINA RESULT:      -3.3      1.315      2.881
REMARK  1 active torsions:
REMARK  status: ('A' for Active; 'I' for Inactive)
REMARK    1  A    between atoms: C3_3  and  C8_8 
ROOT
HETATM    1  C1  UNL     1     -42.525  15.152   4.634  1.00 20.00    -0.025 C 
HETATM    2  C2  UNL     1     -43.045  15.877   5.634  1.00 20.00    -0.024 C 
HETATM    3  C4  UNL     1     -43.192  13.669   6.261  1.00 20.00     0.018 C 
HETATM    4  C5  UNL     1     -42.081  13.831   5.222  1.00 20.00     0.013 C 
HETATM    5  C6  UNL     1     -42.937  15.047   6.893  1.00 20.00     0.024 C 
HETATM    6  C7  UNL     1     -40.828  14.102   6.109  1.00 20.00     0.005 C 
HETATM    7  C8  UNL     1     -41.439  14.918   7.316  1.00 20.00     0.027 C 
HETATM    8  C10 UNL     1     -40.112  12.806   6.480  1.00 20.00     0.012 C 
HETATM    9  C11 UNL     1     -40.738  16.267   7.512  1.00 20.00     0.024 C 
ENDROOT
BRANCH   7  10
HETATM   10  C3  UNL     1     -41.352  14.195   8.639  1.00 20.00     0.132 C 
HETATM   11  C9  UNL     1     -40.243  14.611   9.567  1.00 20.00     0.091 C 
HETATM   12  O12 UNL     1     -42.150  13.310   8.944  1.00 20.00    -0.298 OA
ENDBRANCH   7  10
TORSDOF 1
ENDMDL
MODEL 5
REMARK VINA RESULT:      -3.3     12.374     13.695
REMARK  1 active torsions:
REMARK  status: ('A' for Active; 'I' for Inactive)
REMARK    1  A    between atoms: C3_3  and  C8_8 
ROOT
HETATM    1  C1  UNL     1     -32.378  18.491  -1.717  1.00 20.00    -0.025 C 
HETATM    2  C2  UNL     1     -33.123  17.420  -1.407  1.00 20.00    -0.024 C 
HETATM    3  C4  UNL     1     -34.546  18.994  -2.295  1.00 20.00     0.018 C 
HETATM    4  C5  UNL     1     -33.122  19.262  -2.784  1.00 20.00     0.013 C 
HETATM    5  C6  UNL     1     -34.359  17.468  -2.277  1.00 20.00     0.024 C 
HETATM    6  C7  UNL     1     -33.057  18.433  -4.103  1.00 20.00     0.005 C 
HETATM    7  C8  UNL     1     -33.971  17.190  -3.765  1.00 20.00     0.027 C 
HETATM    8  C10 UNL     1     -33.487  19.263  -5.309  1.00 20.00     0.012 C 
HETATM    9  C11 UNL     1     -33.234  15.861  -3.969  1.00 20.00     0.024 C 
ENDROOT
BRANCH   7  10
HETATM   10  C3  UNL     1     -35.225  17.117  -4.604  1.00 20.00     0.132 C 
HETATM   11  C9  UNL     1     -35.175  16.230  -5.819  1.00 20.00     0.091 C 
HETATM   12  O12 UNL     1     -36.238  17.749  -4.308  1.00 20.00    -0.298 OA
ENDBRANCH   7  10
TORSDOF 1
ENDMDL
MODEL 6
REMARK VINA RESULT:      -3.3      1.352      2.027
REMARK  1 active torsions:
REMARK  status: ('A' for Active; 'I' for Inactive)
REMARK    1  A    between atoms: C3_3  and  C8_8 
ROOT
HETATM    1  C1  UNL     1     -41.976  16.177   9.895  1.00 20.00    -0.025 C 
HETATM    2  C2  UNL     1     -40.980  16.587   9.097  1.00 20.00    -0.024 C 
HETATM    3  C4  UNL     1     -40.551  14.391   9.630  1.00 20.00     0.018 C 
HETATM    4  C5  UNL     1     -42.047  14.670   9.786  1.00 20.00     0.013 C 
HETATM    5  C6  UNL     1     -40.394  15.356   8.443  1.00 20.00     0.024 C 
HETATM    6  C7  UNL     1     -42.603  14.321   8.372  1.00 20.00     0.005 C 
HETATM    7  C8  UNL     1     -41.416  14.758   7.425  1.00 20.00     0.027 C 
HETATM    8  C10 UNL     1     -43.020  12.856   8.278  1.00 20.00     0.012 C 
HETATM    9  C11 UNL     1     -41.872  15.757   6.354  1.00 20.00     0.024 C 
ENDROOT
BRANCH   7  10
HETATM   10  C3  UNL     1     -40.775  13.605   6.689  1.00 20.00     0.132 C 
HETATM   11  C9  UNL     1     -41.178  13.412   5.252  1.00 20.00     0.091 C 
HETATM   12  O12 UNL     1     -39.962  12.863   7.237  1.00 20.00    -0.298 OA
ENDBRANCH   7  10
TORSDOF 1
ENDMDL
MODEL 7
REMARK VINA RESULT:      -3.2      1.591      3.565
REMARK  1 active torsions:
REMARK  status: ('A' for Active; 'I' for Inactive)
REMARK    1  A    between atoms: C3_3  and  C8_8 
ROOT
HETATM    1  C1  UNL     1     -41.608  14.045   5.047  1.00 20.00    -0.025 C 
HETATM    2  C2  UNL     1     -42.922  13.916   5.280  1.00 20.00    -0.024 C 
HETATM    3  C4  UNL     1     -41.847  12.423   6.660  1.00 20.00     0.018 C 
HETATM    4  C5  UNL     1     -40.883  13.548   6.278  1.00 20.00     0.013 C 
HETATM    5  C6  UNL     1     -43.076  13.346   6.671  1.00 20.00     0.024 C 
HETATM    6  C7  UNL     1     -41.112  14.588   7.417  1.00 20.00     0.005 C 
HETATM    7  C8  UNL     1     -42.650  14.411   7.731  1.00 20.00     0.027 C 
HETATM    8  C10 UNL     1     -40.165  14.353   8.591  1.00 20.00     0.012 C 
HETATM    9  C11 UNL     1     -43.417  15.734   7.615  1.00 20.00     0.024 C 
ENDROOT
BRANCH   7  10
HETATM   10  C3  UNL     1     -42.926  13.877   9.117  1.00 20.00     0.132 C 
HETATM   11  C9  UNL     1     -43.296  14.886  10.170  1.00 20.00     0.091 C 
HETATM   12  O12 UNL     1     -42.853  12.676   9.373  1.00 20.00    -0.298 OA
ENDBRANCH   7  10
TORSDOF 1
ENDMDL
MODEL 8
REMARK VINA RESULT:      -3.2     13.537     14.578
REMARK  1 active torsions:
REMARK  status: ('A' for Active; 'I' for Inactive)
REMARK    1  A    between atoms: C3_3  and  C8_8 
ROOT
HETATM    1  C1  UNL     1     -36.041  18.759  -6.807  1.00 20.00    -0.025 C 
HETATM    2  C2  UNL     1     -36.443  18.504  -5.554  1.00 20.00    -0.024 C 
HETATM    3  C4  UNL     1     -36.885  16.619  -6.796  1.00 20.00     0.018 C 
HETATM    4  C5  UNL     1     -35.776  17.427  -7.473  1.00 20.00     0.013 C 
HETATM    5  C6  UNL     1     -36.434  17.003  -5.377  1.00 20.00     0.024 C 
HETATM    6  C7  UNL     1     -34.486  16.826  -6.837  1.00 20.00     0.005 C 
HETATM    7  C8  UNL     1     -34.962  16.478  -5.372  1.00 20.00     0.027 C 
HETATM    8  C10 UNL     1     -33.951  15.653  -7.655  1.00 20.00     0.012 C 
HETATM    9  C11 UNL     1     -34.078  17.140  -4.307  1.00 20.00     0.024 C 
ENDROOT
BRANCH   7  10
HETATM   10  C3  UNL     1     -34.959  14.998  -5.070  1.00 20.00     0.132 C 
HETATM   11  C9  UNL     1     -33.778  14.467  -4.303  1.00 20.00     0.091 C 
HETATM   12  O12 UNL     1     -35.876  14.264  -5.432  1.00 20.00    -0.298 OA
ENDBRANCH   7  10
TORSDOF 1
ENDMDL
MODEL 9
REMARK VINA RESULT:      -3.1      1.440      2.793
REMARK  1 active torsions:
REMARK  status: ('A' for Active; 'I' for Inactive)
REMARK    1  A    between atoms: C3_3  and  C8_8 
ROOT
HETATM    1  C1  UNL     1     -41.414  14.255   9.120  1.00 20.00    -0.025 C 
HETATM    2  C2  UNL     1     -42.492  14.876   8.620  1.00 20.00    -0.024 C 
HETATM    3  C4  UNL     1     -40.693  15.515   7.337  1.00 20.00     0.018 C 
HETATM    4  C5  UNL     1     -40.386  14.178   8.014  1.00 20.00     0.013 C 
HETATM    5  C6  UNL     1     -42.189  15.202   7.175  1.00 20.00     0.024 C 
HETATM    6  C7  UNL     1     -40.894  13.144   6.963  1.00 20.00     0.005 C 
HETATM    7  C8  UNL     1     -42.138  13.887   6.333  1.00 20.00     0.027 C 
HETATM    8  C10 UNL     1     -39.791  12.752   5.983  1.00 20.00     0.012 C 
HETATM    9  C11 UNL     1     -43.417  13.047   6.428  1.00 20.00     0.024 C 
ENDROOT
BRANCH   7  10
HETATM   10  C3  UNL     1     -41.959  14.232   4.874  1.00 20.00     0.132 C 
HETATM   11  C9  UNL     1     -42.740  15.410   4.356  1.00 20.00     0.091 C 
HETATM   12  O12 UNL     1     -41.211  13.584   4.144  1.00 20.00    -0.298 OA
ENDBRANCH   7  10
TORSDOF 1
ENDMDL
