MODEL 1
REMARK VINA RESULT:      -3.3      0.000      0.000
REMARK  1 active torsions:
REMARK  status: ('A' for Active; 'I' for Inactive)
REMARK    1  A    between atoms: C3_3  and  C9_9 
ROOT
HETATM    1  C1  UNL     1     -37.112  17.491  -6.225  1.00 20.00    -0.030 C 
HETATM    2  C2  UNL     1     -36.383  17.575  -7.348  1.00 20.00    -0.026 C 
HETATM    3  C4  UNL     1     -36.494  17.489  -4.854  1.00 20.00     0.031 C 
HETATM    4  C5  UNL     1     -34.215  16.323  -7.494  1.00 20.00     0.022 C 
HETATM    5  C6  UNL     1     -34.417  18.324  -5.999  1.00 20.00     0.013 C 
HETATM    6  C7  UNL     1     -34.345  16.053  -4.932  1.00 20.00     0.018 C 
HETATM    7  C8  UNL     1     -34.881  17.699  -7.321  1.00 20.00     0.009 C 
HETATM    8  C9  UNL     1     -34.420  15.376  -6.305  1.00 20.00     0.073 C 
HETATM    9  C10 UNL     1     -34.949  17.471  -4.845  1.00 20.00    -0.010 C 
ENDROOT
BRANCH   8  10
HETATM   10  C3  UNL     1     -35.690  14.583  -6.449  1.00 20.00     0.223 C 
HETATM   11  O11 UNL     1     -36.208  14.388  -7.544  1.00 20.00    -0.279 OA
HETATM   12 CL12 UNL     1     -36.282  14.013  -4.918  1.00 20.00    -0.043 Cl
ENDBRANCH   8  10
TORSDOF 1
ENDMDL
MODEL 2
REMARK VINA RESULT:      -3.2     13.709     15.006
REMARK  1 active torsions:
REMARK  status: ('A' for Active; 'I' for Inactive)
REMARK    1  A    between atoms: C3_3  and  C9_9 
ROOT
HETATM    1  C1  UNL     1     -42.996  12.670   8.088  1.00 20.00    -0.030 C 
HETATM    2  C2  UNL     1     -43.266  12.686   6.774  1.00 20.00    -0.026 C 
HETATM    3  C4  UNL     1     -42.582  13.901   8.846  1.00 20.00     0.031 C 
HETATM    4  C5  UNL     1     -41.837  14.073   5.249  1.00 20.00     0.022 C 
HETATM    5  C6  UNL     1     -43.417  15.179   6.849  1.00 20.00     0.013 C 
HETATM    6  C7  UNL     1     -40.962  15.264   7.363  1.00 20.00     0.018 C 
HETATM    7  C8  UNL     1     -43.198  13.951   5.957  1.00 20.00     0.009 C 
HETATM    8  C9  UNL     1     -40.658  14.313   6.201  1.00 20.00     0.073 C 
HETATM    9  C10 UNL     1     -42.377  15.158   7.971  1.00 20.00    -0.010 C 
ENDROOT
BRANCH   8  10
HETATM   10  C3  UNL     1     -40.084  13.015   6.700  1.00 20.00     0.223 C 
HETATM   11  O11 UNL     1     -39.655  12.898   7.844  1.00 20.00    -0.279 OA
HETATM   12 CL12 UNL     1     -40.117  11.775   5.484  1.00 20.00    -0.043 Cl
ENDBRANCH   8  10
TORSDOF 1
ENDMDL
MODEL 3
REMARK VINA RESULT:      -3.2     14.244     15.578
REMARK  1 active torsions:
REMARK  status: ('A' for Active; 'I' for Inactive)
REMARK    1  A    between atoms: C3_3  and  C9_9 
ROOT
HETATM    1  C1  UNL     1     -40.159  14.594   7.580  1.00 20.00    -0.030 C 
HETATM    2  C2  UNL     1     -41.026  15.493   7.091  1.00 20.00    -0.026 C 
HETATM    3  C4  UNL     1     -40.160  13.151   7.155  1.00 20.00     0.031 C 
HETATM    4  C5  UNL     1     -43.410  14.813   6.713  1.00 20.00     0.022 C 
HETATM    5  C6  UNL     1     -41.594  13.917   5.238  1.00 20.00     0.013 C 
HETATM    6  C7  UNL     1     -42.614  12.370   6.931  1.00 20.00     0.018 C 
HETATM    7  C8  UNL     1     -42.057  15.131   6.053  1.00 20.00     0.009 C 
HETATM    8  C9  UNL     1     -43.412  13.525   7.545  1.00 20.00     0.073 C 
HETATM    9  C10 UNL     1     -41.312  12.762   6.201  1.00 20.00    -0.010 C 
ENDROOT
BRANCH   8  10
HETATM   10  C3  UNL     1     -42.981  13.787   8.962  1.00 20.00     0.223 C 
HETATM   11  O11 UNL     1     -42.397  12.936   9.627  1.00 20.00    -0.279 OA
HETATM   12 CL12 UNL     1     -43.408  15.386   9.491  1.00 20.00    -0.043 Cl
ENDBRANCH   8  10
TORSDOF 1
ENDMDL
MODEL 4
REMARK VINA RESULT:      -3.2     14.087     15.367
REMARK  1 active torsions:
REMARK  status: ('A' for Active; 'I' for Inactive)
REMARK    1  A    between atoms: C3_3  and  C9_9 
ROOT
HETATM    1  C1  UNL     1     -43.417  13.382   7.292  1.00 20.00    -0.030 C 
HETATM    2  C2  UNL     1     -42.404  12.518   7.136  1.00 20.00    -0.026 C 
HETATM    3  C4  UNL     1     -43.417  14.753   6.673  1.00 20.00     0.031 C 
HETATM    4  C5  UNL     1     -40.048  13.374   7.186  1.00 20.00     0.022 C 
HETATM    5  C6  UNL     1     -41.538  13.895   5.240  1.00 20.00     0.013 C 
HETATM    6  C7  UNL     1     -41.035  15.736   6.871  1.00 20.00     0.018 C 
HETATM    7  C8  UNL     1     -41.192  12.845   6.303  1.00 20.00     0.009 C 
HETATM    8  C9  UNL     1     -40.320  14.751   7.803  1.00 20.00     0.073 C 
HETATM    9  C10 UNL     1     -42.108  15.129   5.943  1.00 20.00    -0.010 C 
ENDROOT
BRANCH   8  10
HETATM   10  C3  UNL     1     -41.042  14.629   9.117  1.00 20.00     0.223 C 
HETATM   11  O11 UNL     1     -40.927  13.635   9.827  1.00 20.00    -0.279 OA
HETATM   12 CL12 UNL     1     -42.009  16.031   9.464  1.00 20.00    -0.043 Cl
ENDBRANCH   8  10
TORSDOF 1
ENDMDL
MODEL 5
REMARK VINA RESULT:      -3.1     14.654     16.022
REMARK  1 active torsions:
REMARK  status: ('A' for Active; 'I' for Inactive)
REMARK    1  A    between atoms: C3_3  and  C9_9 
ROOT
HETATM    1  C1  UNL     1     -41.425  14.074  10.234  1.00 20.00    -0.030 C 
HETATM    2  C2  UNL     1     -42.659  14.305   9.762  1.00 20.00    -0.026 C 
HETATM    3  C4  UNL     1     -40.257  14.972   9.929  1.00 20.00     0.031 C 
HETATM    4  C5  UNL     1     -42.932  15.133   7.410  1.00 20.00     0.022 C 
HETATM    5  C6  UNL     1     -41.982  16.637   9.175  1.00 20.00     0.013 C 
HETATM    6  C7  UNL     1     -40.416  15.699   7.453  1.00 20.00     0.018 C 
HETATM    7  C8  UNL     1     -42.978  15.502   8.904  1.00 20.00     0.009 C 
HETATM    8  C9  UNL     1     -41.527  14.806   6.891  1.00 20.00     0.073 C 
HETATM    9  C10 UNL     1     -40.566  16.112   8.933  1.00 20.00    -0.010 C 
ENDROOT
BRANCH   8  10
HETATM   10  C3  UNL     1     -41.198  13.350   7.079  1.00 20.00     0.223 C 
HETATM   11  O11 UNL     1     -40.051  12.971   7.301  1.00 20.00    -0.279 OA
HETATM   12 CL12 UNL     1     -42.605  12.339   6.948  1.00 20.00    -0.043 Cl
ENDBRANCH   8  10
TORSDOF 1
ENDMDL
MODEL 6
REMARK VINA RESULT:      -3.1     14.365     15.539
REMARK  1 active torsions:
REMARK  status: ('A' for Active; 'I' for Inactive)
REMARK    1  A    between atoms: C3_3  and  C9_9 
ROOT
HETATM    1  C1  UNL     1     -40.375  15.403   7.968  1.00 20.00    -0.030 C 
HETATM    2  C2  UNL     1     -40.793  14.525   8.891  1.00 20.00    -0.026 C 
HETATM    3  C4  UNL     1     -41.320  16.280   7.193  1.00 20.00     0.031 C 
HETATM    4  C5  UNL     1     -42.879  13.200   8.461  1.00 20.00     0.022 C 
HETATM    5  C6  UNL     1     -43.021  15.656   8.936  1.00 20.00     0.013 C 
HETATM    6  C7  UNL     1     -43.407  14.883   6.580  1.00 20.00     0.018 C 
HETATM    7  C8  UNL     1     -42.250  14.367   9.244  1.00 20.00     0.009 C 
HETATM    8  C9  UNL     1     -43.001  13.454   6.954  1.00 20.00     0.073 C 
HETATM    9  C10 UNL     1     -42.817  16.005   7.460  1.00 20.00    -0.010 C 
ENDROOT
BRANCH   8  10
HETATM   10  C3  UNL     1     -41.752  13.038   6.225  1.00 20.00     0.223 C 
HETATM   11  O11 UNL     1     -41.001  12.178   6.673  1.00 20.00    -0.279 OA
HETATM   12 CL12 UNL     1     -41.545  13.907   4.735  1.00 20.00    -0.043 Cl
ENDBRANCH   8  10
TORSDOF 1
ENDMDL
MODEL 7
REMARK VINA RESULT:      -3.1      1.304      2.704
REMARK  1 active torsions:
REMARK  status: ('A' for Active; 'I' for Inactive)
REMARK    1  A    between atoms: C3_3  and  C9_9 
ROOT
HETATM    1  C1  UNL     1     -34.449  18.103  -5.884  1.00 20.00    -0.030 C 
HETATM    2  C2  UNL     1     -35.358  17.718  -4.976  1.00 20.00    -0.026 C 
HETATM    3  C4  UNL     1     -34.711  18.062  -7.364  1.00 20.00     0.031 C 
HETATM    4  C5  UNL     1     -36.768  15.697  -5.441  1.00 20.00     0.022 C 
HETATM    5  C6  UNL     1     -37.131  17.813  -6.733  1.00 20.00     0.013 C 
HETATM    6  C7  UNL     1     -36.012  15.893  -7.899  1.00 20.00     0.018 C 
HETATM    7  C8  UNL     1     -36.729  17.234  -5.371  1.00 20.00     0.009 C 
HETATM    8  C9  UNL     1     -35.941  15.103  -6.588  1.00 20.00     0.073 C 
HETATM    9  C10 UNL     1     -36.064  17.429  -7.760  1.00 20.00    -0.010 C 
ENDROOT
BRANCH   8  10
HETATM   10  C3  UNL     1     -34.514  14.873  -6.172  1.00 20.00     0.223 C 
HETATM   11  O11 UNL     1     -33.588  14.956  -6.973  1.00 20.00    -0.279 OA
HETATM   12 CL12 UNL     1     -34.378  14.493  -4.482  1.00 20.00    -0.043 Cl
ENDBRANCH   8  10
TORSDOF 1
ENDMDL
MODEL 8
REMARK VINA RESULT:      -3.0      1.243      1.972
REMARK  1 active torsions:
REMARK  status: ('A' for Active; 'I' for Inactive)
REMARK    1  A    between atoms: C3_3  and  C9_9 
ROOT
HETATM    1  C1  UNL     1     -35.999  17.777  -4.563  1.00 20.00    -0.030 C 
HETATM    2  C2  UNL     1     -37.038  17.662  -5.404  1.00 20.00    -0.026 C 
HETATM    3  C4  UNL     1     -34.570  17.779  -5.032  1.00 20.00     0.031 C 
HETATM    4  C5  UNL     1     -36.872  16.076  -7.339  1.00 20.00     0.022 C 
HETATM    5  C6  UNL     1     -35.525  18.188  -7.321  1.00 20.00     0.013 C 
HETATM    6  C7  UNL     1     -34.330  16.019  -6.911  1.00 20.00     0.018 C 
HETATM    7  C8  UNL     1     -36.852  17.549  -6.895  1.00 20.00     0.009 C 
HETATM    8  C9  UNL     1     -35.662  15.264  -6.863  1.00 20.00     0.073 C 
HETATM    9  C10 UNL     1     -34.390  17.517  -6.544  1.00 20.00    -0.010 C 
ENDROOT
BRANCH   8  10
HETATM   10  C3  UNL     1     -35.900  14.673  -5.500  1.00 20.00     0.223 C 
HETATM   11  O11 UNL     1     -37.030  14.414  -5.098  1.00 20.00    -0.279 OA
HETATM   12 CL12 UNL     1     -34.418  14.423  -4.627  1.00 20.00    -0.043 Cl
ENDBRANCH   8  10
TORSDOF 1
ENDMDL
MODEL 9
REMARK VINA RESULT:      -3.0     14.585     15.910
REMARK  1 active torsions:
REMARK  status: ('A' for Active; 'I' for Inactive)
REMARK    1  A    between atoms: C3_3  and  C9_9 
ROOT
HETATM    1  C1  UNL     1     -40.192  13.631   7.453  1.00 20.00    -0.030 C 
HETATM    2  C2  UNL     1     -40.297  14.572   8.403  1.00 20.00    -0.026 C 
HETATM    3  C4  UNL     1     -41.005  13.659   6.188  1.00 20.00     0.031 C 
HETATM    4  C5  UNL     1     -42.564  15.480   8.977  1.00 20.00     0.022 C 
HETATM    5  C6  UNL     1     -41.494  16.051   6.784  1.00 20.00     0.013 C 
HETATM    6  C7  UNL     1     -43.403  14.421   6.780  1.00 20.00     0.018 C 
HETATM    7  C8  UNL     1     -41.227  15.751   8.264  1.00 20.00     0.009 C 
HETATM    8  C9  UNL     1     -43.417  14.394   8.312  1.00 20.00     0.073 C 
HETATM    9  C10 UNL     1     -42.056  14.790   6.124  1.00 20.00    -0.010 C 
ENDROOT
BRANCH   8  10
HETATM   10  C3  UNL     1     -43.066  13.026   8.831  1.00 20.00     0.223 C 
HETATM   11  O11 UNL     1     -42.590  12.864   9.951  1.00 20.00    -0.279 OA
HETATM   12 CL12 UNL     1     -43.417  11.777   7.675  1.00 20.00    -0.043 Cl
ENDBRANCH   8  10
TORSDOF 1
ENDMDL
