MODEL 1
REMARK VINA RESULT:      -4.3      0.000      0.000
REMARK  1 active torsions:
REMARK  status: ('A' for Active; 'I' for Inactive)
REMARK    1  A    between atoms: C1_1  and  C4_4 
ROOT
HETATM    1  C2  UNL     1     -34.460   5.031   6.079  1.00 20.00     0.014 A 
HETATM    2  C3  UNL     1     -34.500   6.481   6.458  1.00 20.00     0.014 A 
HETATM    3  C4  UNL     1     -34.690   6.076   5.022  1.00 20.00     0.066 A 
ENDROOT
BRANCH   3   4
HETATM    4  C1  UNL     1     -33.631   6.361   4.048  1.00 20.00     0.193 C 
HETATM    5  O5  UNL     1     -33.337   5.577   3.158  1.00 20.00    -0.286 OA
HETATM    6  I6  UNL     1     -32.571   8.142   4.148  1.00 20.00    -0.001 I 
ENDBRANCH   3   4
TORSDOF 1
ENDMDL
MODEL 2
REMARK VINA RESULT:      -4.0      2.759      3.453
REMARK  1 active torsions:
REMARK  status: ('A' for Active; 'I' for Inactive)
REMARK    1  A    between atoms: C1_1  and  C4_4 
ROOT
HETATM    1  C2  UNL     1     -32.198   8.663   4.807  1.00 20.00     0.014 A 
HETATM    2  C3  UNL     1     -32.495   7.765   3.643  1.00 20.00     0.014 A 
HETATM    3  C4  UNL     1     -33.584   8.103   4.625  1.00 20.00     0.066 A 
ENDROOT
BRANCH   3   4
HETATM    4  C1  UNL     1     -34.069   7.069   5.545  1.00 20.00     0.193 C 
HETATM    5  O5  UNL     1     -34.238   7.285   6.736  1.00 20.00    -0.286 OA
HETATM    6  I6  UNL     1     -34.493   5.163   4.846  1.00 20.00    -0.001 I 
ENDBRANCH   3   4
TORSDOF 1
ENDMDL
MODEL 3
REMARK VINA RESULT:      -3.9      1.787      1.941
REMARK  1 active torsions:
REMARK  status: ('A' for Active; 'I' for Inactive)
REMARK    1  A    between atoms: C1_1  and  C4_4 
ROOT
HETATM    1  C2  UNL     1     -34.342   4.931   4.391  1.00 20.00     0.014 A 
HETATM    2  C3  UNL     1     -34.953   5.047   5.755  1.00 20.00     0.014 A 
HETATM    3  C4  UNL     1     -34.660   6.289   4.957  1.00 20.00     0.066 A 
ENDROOT
BRANCH   3   4
HETATM    4  C1  UNL     1     -33.564   7.170   5.375  1.00 20.00     0.193 C 
HETATM    5  O5  UNL     1     -33.243   7.299   6.547  1.00 20.00    -0.286 OA
HETATM    6  I6  UNL     1     -32.497   8.253   3.963  1.00 20.00    -0.001 I 
ENDBRANCH   3   4
TORSDOF 1
ENDMDL
MODEL 4
REMARK VINA RESULT:      -3.8      2.280      3.050
REMARK  1 active torsions:
REMARK  status: ('A' for Active; 'I' for Inactive)
REMARK    1  A    between atoms: C1_1  and  C4_4 
ROOT
HETATM    1  C2  UNL     1     -32.280   8.574   4.884  1.00 20.00     0.014 A 
HETATM    2  C3  UNL     1     -32.614   8.586   3.422  1.00 20.00     0.014 A 
HETATM    3  C4  UNL     1     -33.580   7.984   4.407  1.00 20.00     0.066 A 
ENDROOT
BRANCH   3   4
HETATM    4  C1  UNL     1     -33.764   6.529   4.437  1.00 20.00     0.193 C 
HETATM    5  O5  UNL     1     -33.461   5.816   3.492  1.00 20.00    -0.286 OA
HETATM    6  I6  UNL     1     -34.563   5.611   6.117  1.00 20.00    -0.001 I 
ENDBRANCH   3   4
TORSDOF 1
ENDMDL
MODEL 5
REMARK VINA RESULT:      -3.7      1.863      2.099
REMARK  1 active torsions:
REMARK  status: ('A' for Active; 'I' for Inactive)
REMARK    1  A    between atoms: C1_1  and  C4_4 
ROOT
HETATM    1  C2  UNL     1     -33.768   7.096   6.381  1.00 20.00     0.014 A 
HETATM    2  C3  UNL     1     -33.566   7.859   5.107  1.00 20.00     0.014 A 
HETATM    3  C4  UNL     1     -34.569   6.739   5.158  1.00 20.00     0.066 A 
ENDROOT
BRANCH   3   4
HETATM    4  C1  UNL     1     -34.284   5.486   4.451  1.00 20.00     0.193 C 
HETATM    5  O5  UNL     1     -34.770   4.419   4.796  1.00 20.00    -0.286 OA
HETATM    6  I6  UNL     1     -33.020   5.478   2.806  1.00 20.00    -0.001 I 
ENDBRANCH   3   4
TORSDOF 1
ENDMDL
MODEL 6
REMARK VINA RESULT:      -3.5      2.886      3.527
REMARK  1 active torsions:
REMARK  status: ('A' for Active; 'I' for Inactive)
REMARK    1  A    between atoms: C1_1  and  C4_4 
ROOT
HETATM    1  C2  UNL     1     -32.873   8.656   3.586  1.00 20.00     0.014 A 
HETATM    2  C3  UNL     1     -32.221   9.102   4.861  1.00 20.00     0.014 A 
HETATM    3  C4  UNL     1     -32.624   7.663   4.689  1.00 20.00     0.066 A 
ENDROOT
BRANCH   3   4
HETATM    4  C1  UNL     1     -33.760   7.138   5.455  1.00 20.00     0.193 C 
HETATM    5  O5  UNL     1     -34.158   7.674   6.478  1.00 20.00    -0.286 OA
HETATM    6  I6  UNL     1     -34.751   5.431   4.817  1.00 20.00    -0.001 I 
ENDBRANCH   3   4
TORSDOF 1
ENDMDL
MODEL 7
REMARK VINA RESULT:      -3.4      1.685      1.685
REMARK  1 active torsions:
REMARK  status: ('A' for Active; 'I' for Inactive)
REMARK    1  A    between atoms: C1_1  and  C4_4 
ROOT
HETATM    1  C2  UNL     1     -34.426   5.409   6.197  1.00 20.00     0.014 A 
HETATM    2  C3  UNL     1     -34.342   6.838   6.644  1.00 20.00     0.014 A 
HETATM    3  C4  UNL     1     -34.517   6.519   5.184  1.00 20.00     0.066 A 
ENDROOT
BRANCH   3   4
HETATM    4  C1  UNL     1     -33.400   6.743   4.260  1.00 20.00     0.193 C 
HETATM    5  O5  UNL     1     -32.653   7.704   4.364  1.00 20.00    -0.286 OA
HETATM    6  I6  UNL     1     -33.042   5.411   2.710  1.00 20.00    -0.001 I 
ENDBRANCH   3   4
TORSDOF 1
ENDMDL
MODEL 8
REMARK VINA RESULT:      -3.3      1.927      3.018
REMARK  1 active torsions:
REMARK  status: ('A' for Active; 'I' for Inactive)
REMARK    1  A    between atoms: C1_1  and  C4_4 
ROOT
HETATM    1  C2  UNL     1     -32.502   6.494   2.993  1.00 20.00     0.014 A 
HETATM    2  C3  UNL     1     -32.860   5.121   2.511  1.00 20.00     0.014 A 
HETATM    3  C4  UNL     1     -33.879   5.945   3.251  1.00 20.00     0.066 A 
ENDROOT
BRANCH   3   4
HETATM    4  C1  UNL     1     -34.259   5.564   4.615  1.00 20.00     0.193 C 
HETATM    5  O5  UNL     1     -34.707   4.459   4.881  1.00 20.00    -0.286 OA
HETATM    6  I6  UNL     1     -34.047   6.916   6.175  1.00 20.00    -0.001 I 
ENDBRANCH   3   4
TORSDOF 1
ENDMDL
MODEL 9
REMARK VINA RESULT:      -3.1      9.376      9.763
REMARK  1 active torsions:
REMARK  status: ('A' for Active; 'I' for Inactive)
REMARK    1  A    between atoms: C1_1  and  C4_4 
ROOT
HETATM    1  C2  UNL     1     -41.273   8.150  -0.409  1.00 20.00     0.014 A 
HETATM    2  C3  UNL     1     -40.847   7.557   0.901  1.00 20.00     0.014 A 
HETATM    3  C4  UNL     1     -41.107   6.660  -0.279  1.00 20.00     0.066 A 
ENDROOT
BRANCH   3   4
HETATM    4  C1  UNL     1     -42.295   5.800  -0.281  1.00 20.00     0.193 C 
HETATM    5  O5  UNL     1     -42.781   5.364  -1.314  1.00 20.00    -0.286 OA
HETATM    6  I6  UNL     1     -43.213   5.282   1.506  1.00 20.00    -0.001 I 
ENDBRANCH   3   4
TORSDOF 1
ENDMDL
