MODEL 1
REMARK VINA RESULT:      -4.0      0.000      0.000
REMARK  2 active torsions:
REMARK  status: ('A' for Active; 'I' for Inactive)
REMARK    1  A    between atoms: C3_3  and  C5_5 
REMARK    2  A    between atoms: C3_3  and  O11_11 
ROOT
HETATM    1  C1  UNL     1     -40.386  14.283   9.401  1.00 20.00     0.012 C 
HETATM    2  C2  UNL     1     -40.612  14.387   8.227  1.00 20.00    -0.111 C 
HETATM    3  C4  UNL     1     -40.883  14.510   6.822  1.00 20.00     0.087 A 
HETATM    4  C5  UNL     1     -40.400  13.455   5.852  1.00 20.00     0.111 A 
HETATM    5  C6  UNL     1     -41.885  13.593   6.143  1.00 20.00    -0.019 A 
HETATM    6  C7  UNL     1     -42.746  14.196   5.061  1.00 20.00     0.017 C 
HETATM    7  C8  UNL     1     -42.595  12.523   6.939  1.00 20.00     0.017 C 
ENDROOT
BRANCH   4   8
HETATM    8  C3  UNL     1     -39.643  12.282   6.310  1.00 20.00     0.264 C 
HETATM    9  O10 UNL     1     -39.055  12.221   7.381  1.00 20.00    -0.265 OA
BRANCH   8  10
HETATM   10  O11 UNL     1     -39.705  11.302   5.363  1.00 20.00    -0.326 OA
HETATM   11  C9  UNL     1     -39.107  11.625   4.104  1.00 20.00     0.213 C 
ENDBRANCH   8  10
ENDBRANCH   4   8
TORSDOF 2
ENDMDL
MODEL 2
REMARK VINA RESULT:      -3.4      2.121      3.497
REMARK  2 active torsions:
REMARK  status: ('A' for Active; 'I' for Inactive)
REMARK    1  A    between atoms: C3_3  and  C5_5 
REMARK    2  A    between atoms: C3_3  and  O11_11 
ROOT
HETATM    1  C1  UNL     1     -40.650  16.007   7.482  1.00 20.00     0.012 C 
HETATM    2  C2  UNL     1     -40.405  14.888   7.125  1.00 20.00    -0.111 C 
HETATM    3  C4  UNL     1     -40.112  13.549   6.697  1.00 20.00     0.087 A 
HETATM    4  C5  UNL     1     -41.198  12.497   6.668  1.00 20.00     0.111 A 
HETATM    5  C6  UNL     1     -40.627  13.031   5.366  1.00 20.00    -0.019 A 
HETATM    6  C7  UNL     1     -39.717  12.115   4.585  1.00 20.00     0.017 C 
HETATM    7  C8  UNL     1     -41.475  13.917   4.483  1.00 20.00     0.017 C 
ENDROOT
BRANCH   4   8
HETATM    8  C3  UNL     1     -42.576  12.807   7.076  1.00 20.00     0.264 C 
HETATM    9  O10 UNL     1     -43.416  13.299   6.336  1.00 20.00    -0.265 OA
BRANCH   8  10
HETATM   10  O11 UNL     1     -42.752  12.462   8.384  1.00 20.00    -0.326 OA
HETATM   11  C9  UNL     1     -43.167  13.524   9.249  1.00 20.00     0.213 C 
ENDBRANCH   8  10
ENDBRANCH   4   8
TORSDOF 2
ENDMDL
MODEL 3
REMARK VINA RESULT:      -3.4      1.519      1.703
REMARK  2 active torsions:
REMARK  status: ('A' for Active; 'I' for Inactive)
REMARK    1  A    between atoms: C3_3  and  C5_5 
REMARK    2  A    between atoms: C3_3  and  O11_11 
ROOT
HETATM    1  C1  UNL     1     -40.177  14.870   9.486  1.00 20.00     0.012 C 
HETATM    2  C2  UNL     1     -40.483  15.024   8.336  1.00 20.00    -0.111 C 
HETATM    3  C4  UNL     1     -40.851  15.208   6.960  1.00 20.00     0.087 A 
HETATM    4  C5  UNL     1     -41.226  14.022   6.100  1.00 20.00     0.111 A 
HETATM    5  C6  UNL     1     -42.291  15.024   6.512  1.00 20.00    -0.019 A 
HETATM    6  C7  UNL     1     -42.804  15.960   5.446  1.00 20.00     0.017 C 
HETATM    7  C8  UNL     1     -43.352  14.623   7.510  1.00 20.00     0.017 C 
ENDROOT
BRANCH   4   8
HETATM    8  C3  UNL     1     -41.223  12.654   6.638  1.00 20.00     0.264 C 
HETATM    9  O10 UNL     1     -42.234  12.018   6.900  1.00 20.00    -0.265 OA
BRANCH   8  10
HETATM   10  O11 UNL     1     -39.936  12.228   6.792  1.00 20.00    -0.326 OA
HETATM   11  C9  UNL     1     -39.161  12.167   5.590  1.00 20.00     0.213 C 
ENDBRANCH   8  10
ENDBRANCH   4   8
TORSDOF 2
ENDMDL
MODEL 4
REMARK VINA RESULT:      -3.4     11.165     12.829
REMARK  2 active torsions:
REMARK  status: ('A' for Active; 'I' for Inactive)
REMARK    1  A    between atoms: C3_3  and  C5_5 
REMARK    2  A    between atoms: C3_3  and  O11_11 
ROOT
HETATM    1  C1  UNL     1     -33.759  15.232  -3.743  1.00 20.00     0.012 C 
HETATM    2  C2  UNL     1     -33.309  16.298  -3.425  1.00 20.00    -0.111 C 
HETATM    3  C4  UNL     1     -32.770  17.573  -3.043  1.00 20.00     0.087 A 
HETATM    4  C5  UNL     1     -33.675  18.776  -2.895  1.00 20.00     0.111 A 
HETATM    5  C6  UNL     1     -33.042  18.148  -1.665  1.00 20.00    -0.019 A 
HETATM    6  C7  UNL     1     -31.920  18.909  -1.002  1.00 20.00     0.017 C 
HETATM    7  C8  UNL     1     -33.905  17.390  -0.682  1.00 20.00     0.017 C 
ENDROOT
BRANCH   4   8
HETATM    8  C3  UNL     1     -35.122  18.680  -3.137  1.00 20.00     0.264 C 
HETATM    9  O10 UNL     1     -35.974  18.860  -2.278  1.00 20.00    -0.265 OA
BRANCH   8  10
HETATM   10  O11 UNL     1     -35.345  18.366  -4.445  1.00 20.00    -0.326 OA
HETATM   11  C9  UNL     1     -36.597  17.729  -4.719  1.00 20.00     0.213 C 
ENDBRANCH   8  10
ENDBRANCH   4   8
TORSDOF 2
ENDMDL
MODEL 5
REMARK VINA RESULT:      -3.4      1.303      3.011
REMARK  2 active torsions:
REMARK  status: ('A' for Active; 'I' for Inactive)
REMARK    1  A    between atoms: C3_3  and  C5_5 
REMARK    2  A    between atoms: C3_3  and  O11_11 
ROOT
HETATM    1  C1  UNL     1     -42.751  15.262   4.172  1.00 20.00     0.012 C 
HETATM    2  C2  UNL     1     -42.791  14.578   5.158  1.00 20.00    -0.111 C 
HETATM    3  C4  UNL     1     -42.839  13.761   6.337  1.00 20.00     0.087 A 
HETATM    4  C5  UNL     1     -41.754  12.744   6.611  1.00 20.00     0.111 A 
HETATM    5  C6  UNL     1     -41.860  13.988   7.476  1.00 20.00    -0.019 A 
HETATM    6  C7  UNL     1     -42.385  13.808   8.880  1.00 20.00     0.017 C 
HETATM    7  C8  UNL     1     -40.808  15.067   7.371  1.00 20.00     0.017 C 
ENDROOT
BRANCH   4   8
HETATM    8  C3  UNL     1     -40.628  12.557   5.685  1.00 20.00     0.264 C 
HETATM    9  O10 UNL     1     -40.654  12.866   4.502  1.00 20.00    -0.265 OA
BRANCH   8  10
HETATM   10  O11 UNL     1     -39.578  11.997   6.352  1.00 20.00    -0.326 OA
HETATM   11  C9  UNL     1     -38.320  12.048   5.671  1.00 20.00     0.213 C 
ENDBRANCH   8  10
ENDBRANCH   4   8
TORSDOF 2
ENDMDL
MODEL 6
REMARK VINA RESULT:      -3.2     12.538     14.219
REMARK  2 active torsions:
REMARK  status: ('A' for Active; 'I' for Inactive)
REMARK    1  A    between atoms: C3_3  and  C5_5 
REMARK    2  A    between atoms: C3_3  and  O11_11 
ROOT
HETATM    1  C1  UNL     1     -33.588  14.384  -4.164  1.00 20.00     0.012 C 
HETATM    2  C2  UNL     1     -33.821  14.828  -5.255  1.00 20.00    -0.111 C 
HETATM    3  C4  UNL     1     -34.100  15.360  -6.559  1.00 20.00     0.087 A 
HETATM    4  C5  UNL     1     -35.525  15.608  -6.999  1.00 20.00     0.111 A 
HETATM    5  C6  UNL     1     -34.602  16.783  -6.724  1.00 20.00    -0.019 A 
HETATM    6  C7  UNL     1     -34.098  17.557  -7.918  1.00 20.00     0.017 C 
HETATM    7  C8  UNL     1     -34.836  17.652  -5.510  1.00 20.00     0.017 C 
ENDROOT
BRANCH   4   8
HETATM    8  C3  UNL     1     -36.662  15.313  -6.115  1.00 20.00     0.264 C 
HETATM    9  O10 UNL     1     -36.672  14.411  -5.289  1.00 20.00    -0.265 OA
BRANCH   8  10
HETATM   10  O11 UNL     1     -37.674  16.192  -6.366  1.00 20.00    -0.326 OA
HETATM   11  C9  UNL     1     -38.409  16.628  -5.217  1.00 20.00     0.213 C 
ENDBRANCH   8  10
ENDBRANCH   4   8
TORSDOF 2
ENDMDL
MODEL 7
REMARK VINA RESULT:      -3.1      2.180      3.871
REMARK  2 active torsions:
REMARK  status: ('A' for Active; 'I' for Inactive)
REMARK    1  A    between atoms: C3_3  and  C5_5 
REMARK    2  A    between atoms: C3_3  and  O11_11 
ROOT
HETATM    1  C1  UNL     1     -43.112  16.097   6.283  1.00 20.00     0.012 C 
HETATM    2  C2  UNL     1     -42.167  15.357   6.264  1.00 20.00    -0.111 C 
HETATM    3  C4  UNL     1     -41.037  14.472   6.242  1.00 20.00     0.087 A 
HETATM    4  C5  UNL     1     -40.443  13.952   7.531  1.00 20.00     0.111 A 
HETATM    5  C6  UNL     1     -41.194  13.007   6.609  1.00 20.00    -0.019 A 
HETATM    6  C7  UNL     1     -40.374  12.009   5.828  1.00 20.00     0.017 C 
HETATM    7  C8  UNL     1     -42.543  12.468   7.025  1.00 20.00     0.017 C 
ENDROOT
BRANCH   4   8
HETATM    8  C3  UNL     1     -40.995  14.335   8.838  1.00 20.00     0.264 C 
HETATM    9  O10 UNL     1     -41.583  13.566   9.586  1.00 20.00    -0.265 OA
BRANCH   8  10
HETATM   10  O11 UNL     1     -40.747  15.656   9.068  1.00 20.00    -0.326 OA
HETATM   11  C9  UNL     1     -41.700  16.325   9.900  1.00 20.00     0.213 C 
ENDBRANCH   8  10
ENDBRANCH   4   8
TORSDOF 2
ENDMDL
MODEL 8
REMARK VINA RESULT:      -3.1     12.206     13.380
REMARK  2 active torsions:
REMARK  status: ('A' for Active; 'I' for Inactive)
REMARK    1  A    between atoms: C3_3  and  C5_5 
REMARK    2  A    between atoms: C3_3  and  O11_11 
ROOT
HETATM    1  C1  UNL     1     -36.391  18.360  -3.908  1.00 20.00     0.012 C 
HETATM    2  C2  UNL     1     -35.905  17.791  -4.846  1.00 20.00    -0.111 C 
HETATM    3  C4  UNL     1     -35.324  17.110  -5.969  1.00 20.00     0.087 A 
HETATM    4  C5  UNL     1     -34.300  16.017  -5.759  1.00 20.00     0.111 A 
HETATM    5  C6  UNL     1     -35.686  15.667  -6.272  1.00 20.00    -0.019 A 
HETATM    6  C7  UNL     1     -35.805  15.277  -7.725  1.00 20.00     0.017 C 
HETATM    7  C8  UNL     1     -36.650  14.922  -5.378  1.00 20.00     0.017 C 
ENDROOT
BRANCH   4   8
HETATM    8  C3  UNL     1     -33.867  15.622  -4.411  1.00 20.00     0.264 C 
HETATM    9  O10 UNL     1     -34.011  14.500  -3.946  1.00 20.00    -0.265 OA
BRANCH   8  10
HETATM   10  O11 UNL     1     -33.294  16.690  -3.785  1.00 20.00    -0.326 OA
HETATM   11  C9  UNL     1     -33.367  16.677  -2.356  1.00 20.00     0.213 C 
ENDBRANCH   8  10
ENDBRANCH   4   8
TORSDOF 2
ENDMDL
MODEL 9
REMARK VINA RESULT:      -3.1      2.447      3.617
REMARK  2 active torsions:
REMARK  status: ('A' for Active; 'I' for Inactive)
REMARK    1  A    between atoms: C3_3  and  C5_5 
REMARK    2  A    between atoms: C3_3  and  O11_11 
ROOT
HETATM    1  C1  UNL     1     -40.725  16.328   7.479  1.00 20.00     0.012 C 
HETATM    2  C2  UNL     1     -41.589  15.513   7.302  1.00 20.00    -0.111 C 
HETATM    3  C4  UNL     1     -42.621  14.538   7.091  1.00 20.00     0.087 A 
HETATM    4  C5  UNL     1     -43.002  14.113   5.691  1.00 20.00     0.111 A 
HETATM    5  C6  UNL     1     -42.278  13.140   6.606  1.00 20.00    -0.019 A 
HETATM    6  C7  UNL     1     -43.086  11.998   7.173  1.00 20.00     0.017 C 
HETATM    7  C8  UNL     1     -40.843  12.766   6.319  1.00 20.00     0.017 C 
ENDROOT
BRANCH   4   8
HETATM    8  C3  UNL     1     -42.336  14.682   4.510  1.00 20.00     0.264 C 
HETATM    9  O10 UNL     1     -41.662  14.032   3.723  1.00 20.00    -0.265 OA
BRANCH   8  10
HETATM   10  O11 UNL     1     -42.591  16.020   4.444  1.00 20.00    -0.326 OA
HETATM   11  C9  UNL     1     -42.627  16.574   3.124  1.00 20.00     0.213 C 
ENDBRANCH   8  10
ENDBRANCH   4   8
TORSDOF 2
ENDMDL
