MODEL 1
REMARK VINA RESULT:      -4.0      0.000      0.000
REMARK  1 active torsions:
REMARK  status: ('A' for Active; 'I' for Inactive)
REMARK    1  A    between atoms: C1_1  and  C2_2 
ROOT
HETATM    1  C2  UNL     1     -32.967   6.645   4.335  1.00 20.00     0.100 A 
HETATM    2  C3  UNL     1     -33.819   7.854   4.620  1.00 20.00     0.104 A 
HETATM    3  C4  UNL     1     -34.324   6.481   5.002  1.00 20.00    -0.017 A 
HETATM    4  C5  UNL     1     -34.332   6.043   6.446  1.00 20.00     0.017 C 
HETATM    5  C6  UNL     1     -35.488   5.940   4.208  1.00 20.00     0.017 C 
HETATM    6 CL9  UNL     1     -33.292   9.012   5.814  1.00 20.00    -0.123 Cl
ENDROOT
BRANCH   1   7
HETATM    7  C1  UNL     1     -32.758   6.226   2.943  1.00 20.00     0.225 C 
HETATM    8  O7  UNL     1     -32.881   5.055   2.596  1.00 20.00    -0.279 OA
HETATM    9 CL8  UNL     1     -32.332   7.561   1.915  1.00 20.00    -0.043 Cl
ENDBRANCH   1   7
TORSDOF 1
ENDMDL
MODEL 2
REMARK VINA RESULT:      -4.0      1.949      3.222
REMARK  1 active torsions:
REMARK  status: ('A' for Active; 'I' for Inactive)
REMARK    1  A    between atoms: C1_1  and  C2_2 
ROOT
HETATM    1  C2  UNL     1     -33.981   7.634   4.472  1.00 20.00     0.100 A 
HETATM    2  C3  UNL     1     -32.544   7.849   4.867  1.00 20.00     0.104 A 
HETATM    3  C4  UNL     1     -32.877   7.505   3.433  1.00 20.00    -0.017 A 
HETATM    4  C5  UNL     1     -32.816   8.561   2.358  1.00 20.00     0.017 C 
HETATM    5  C6  UNL     1     -32.461   6.137   2.949  1.00 20.00     0.017 C 
HETATM    6 CL9  UNL     1     -32.013   9.443   5.337  1.00 20.00    -0.123 Cl
ENDROOT
BRANCH   1   7
HETATM    7  C1  UNL     1     -34.691   6.447   4.966  1.00 20.00     0.225 C 
HETATM    8  O7  UNL     1     -35.579   5.907   4.312  1.00 20.00    -0.279 OA
HETATM    9 CL8  UNL     1     -34.122   5.948   6.530  1.00 20.00    -0.043 Cl
ENDBRANCH   1   7
TORSDOF 1
ENDMDL
MODEL 3
REMARK VINA RESULT:      -3.9     15.901     16.699
REMARK  1 active torsions:
REMARK  status: ('A' for Active; 'I' for Inactive)
REMARK    1  A    between atoms: C1_1  and  C2_2 
ROOT
HETATM    1  C2  UNL     1     -23.478  18.791  10.996  1.00 20.00     0.100 A 
HETATM    2  C3  UNL     1     -24.286  18.217   9.862  1.00 20.00     0.104 A 
HETATM    3  C4  UNL     1     -24.600  17.804  11.282  1.00 20.00    -0.017 A 
HETATM    4  C5  UNL     1     -25.825  18.338  11.982  1.00 20.00     0.017 C 
HETATM    5  C6  UNL     1     -24.267  16.382  11.664  1.00 20.00     0.017 C 
HETATM    6 CL9  UNL     1     -25.342  19.263   8.947  1.00 20.00    -0.123 Cl
ENDROOT
BRANCH   1   7
HETATM    7  C1  UNL     1     -22.072  18.394  11.147  1.00 20.00     0.225 C 
HETATM    8  O7  UNL     1     -21.478  18.514  12.215  1.00 20.00    -0.279 OA
HETATM    9 CL8  UNL     1     -21.407  17.766   9.670  1.00 20.00    -0.043 Cl
ENDBRANCH   1   7
TORSDOF 1
ENDMDL
MODEL 4
REMARK VINA RESULT:      -3.7     10.058     11.037
REMARK  1 active torsions:
REMARK  status: ('A' for Active; 'I' for Inactive)
REMARK    1  A    between atoms: C1_1  and  C2_2 
ROOT
HETATM    1  C2  UNL     1     -40.428  14.024   6.649  1.00 20.00     0.100 A 
HETATM    2  C3  UNL     1     -40.708  12.588   6.291  1.00 20.00     0.104 A 
HETATM    3  C4  UNL     1     -41.735  13.649   5.968  1.00 20.00    -0.017 A 
HETATM    4  C5  UNL     1     -41.930  14.117   4.547  1.00 20.00     0.017 C 
HETATM    5  C6  UNL     1     -43.015  13.621   6.767  1.00 20.00     0.017 C 
HETATM    6 CL9  UNL     1     -39.756  11.812   5.052  1.00 20.00    -0.123 Cl
ENDROOT
BRANCH   1   7
HETATM    7  C1  UNL     1     -40.404  14.420   8.063  1.00 20.00     0.225 C 
HETATM    8  O7  UNL     1     -40.258  13.596   8.962  1.00 20.00    -0.279 OA
HETATM    9 CL8  UNL     1     -40.604  16.134   8.267  1.00 20.00    -0.043 Cl
ENDBRANCH   1   7
TORSDOF 1
ENDMDL
MODEL 5
REMARK VINA RESULT:      -3.7     12.141     13.050
REMARK  1 active torsions:
REMARK  status: ('A' for Active; 'I' for Inactive)
REMARK    1  A    between atoms: C1_1  and  C2_2 
ROOT
HETATM    1  C2  UNL     1     -34.195  15.945  -5.064  1.00 20.00     0.100 A 
HETATM    2  C3  UNL     1     -34.249  15.136  -6.333  1.00 20.00     0.104 A 
HETATM    3  C4  UNL     1     -35.419  15.099  -5.377  1.00 20.00    -0.017 A 
HETATM    4  C5  UNL     1     -36.697  15.832  -5.703  1.00 20.00     0.017 C 
HETATM    5  C6  UNL     1     -35.647  13.807  -4.632  1.00 20.00     0.017 C 
HETATM    6 CL9  UNL     1     -34.334  15.957  -7.871  1.00 20.00    -0.123 Cl
ENDROOT
BRANCH   1   7
HETATM    7  C1  UNL     1     -33.261  15.552  -4.001  1.00 20.00     0.225 C 
HETATM    8  O7  UNL     1     -32.359  14.743  -4.202  1.00 20.00    -0.279 OA
HETATM    9 CL8  UNL     1     -33.602  16.355  -2.499  1.00 20.00    -0.043 Cl
ENDBRANCH   1   7
TORSDOF 1
ENDMDL
MODEL 6
REMARK VINA RESULT:      -3.7      1.776      3.212
REMARK  1 active torsions:
REMARK  status: ('A' for Active; 'I' for Inactive)
REMARK    1  A    between atoms: C1_1  and  C2_2 
ROOT
HETATM    1  C2  UNL     1     -33.708   7.284   4.158  1.00 20.00     0.100 A 
HETATM    2  C3  UNL     1     -33.129   5.899   4.035  1.00 20.00     0.104 A 
HETATM    3  C4  UNL     1     -34.360   6.117   4.885  1.00 20.00    -0.017 A 
HETATM    4  C5  UNL     1     -35.716   5.672   4.396  1.00 20.00     0.017 C 
HETATM    5  C6  UNL     1     -34.187   5.975   6.378  1.00 20.00     0.017 C 
HETATM    6 CL9  UNL     1     -33.199   5.074   2.499  1.00 20.00    -0.123 Cl
ENDROOT
BRANCH   1   7
HETATM    7  C1  UNL     1     -32.964   8.310   4.899  1.00 20.00     0.225 C 
HETATM    8  O7  UNL     1     -31.763   8.494   4.717  1.00 20.00    -0.279 OA
HETATM    9 CL8  UNL     1     -33.977   9.177   6.013  1.00 20.00    -0.043 Cl
ENDBRANCH   1   7
TORSDOF 1
ENDMDL
MODEL 7
REMARK VINA RESULT:      -3.5     12.811     13.531
REMARK  1 active torsions:
REMARK  status: ('A' for Active; 'I' for Inactive)
REMARK    1  A    between atoms: C1_1  and  C2_2 
ROOT
HETATM    1  C2  UNL     1     -34.297  16.373  -5.905  1.00 20.00     0.100 A 
HETATM    2  C3  UNL     1     -35.469  16.521  -4.969  1.00 20.00     0.104 A 
HETATM    3  C4  UNL     1     -34.212  15.834  -4.485  1.00 20.00    -0.017 A 
HETATM    4  C5  UNL     1     -33.273  16.537  -3.537  1.00 20.00     0.017 C 
HETATM    5  C6  UNL     1     -34.303  14.347  -4.242  1.00 20.00     0.017 C 
HETATM    6 CL9  UNL     1     -35.927  18.111  -4.416  1.00 20.00    -0.123 Cl
ENDROOT
BRANCH   1   7
HETATM    7  C1  UNL     1     -34.405  15.460  -7.050  1.00 20.00     0.225 C 
HETATM    8  O7  UNL     1     -33.411  15.024  -7.624  1.00 20.00    -0.279 OA
HETATM    9 CL8  UNL     1     -36.059  15.107  -7.453  1.00 20.00    -0.043 Cl
ENDBRANCH   1   7
TORSDOF 1
ENDMDL
MODEL 8
REMARK VINA RESULT:      -3.5      9.906     10.546
REMARK  1 active torsions:
REMARK  status: ('A' for Active; 'I' for Inactive)
REMARK    1  A    between atoms: C1_1  and  C2_2 
ROOT
HETATM    1  C2  UNL     1     -40.822  13.746   6.283  1.00 20.00     0.100 A 
HETATM    2  C3  UNL     1     -41.953  13.853   5.294  1.00 20.00     0.104 A 
HETATM    3  C4  UNL     1     -42.257  13.526   6.738  1.00 20.00    -0.017 A 
HETATM    4  C5  UNL     1     -42.858  14.569   7.648  1.00 20.00     0.017 C 
HETATM    5  C6  UNL     1     -42.744  12.128   7.030  1.00 20.00     0.017 C 
HETATM    6 CL9  UNL     1     -42.336  15.405   4.594  1.00 20.00    -0.123 Cl
ENDROOT
BRANCH   1   7
HETATM    7  C1  UNL     1     -39.885  12.620   6.183  1.00 20.00     0.225 C 
HETATM    8  O7  UNL     1     -39.284  12.191   7.164  1.00 20.00    -0.279 OA
HETATM    9 CL8  UNL     1     -39.757  12.018   4.558  1.00 20.00    -0.043 Cl
ENDBRANCH   1   7
TORSDOF 1
ENDMDL
MODEL 9
REMARK VINA RESULT:      -3.2      8.744      9.389
REMARK  1 active torsions:
REMARK  status: ('A' for Active; 'I' for Inactive)
REMARK    1  A    between atoms: C1_1  and  C2_2 
ROOT
HETATM    1  C2  UNL     1     -40.044  12.349   6.500  1.00 20.00     0.100 A 
HETATM    2  C3  UNL     1     -40.180  13.779   6.953  1.00 20.00     0.104 A 
HETATM    3  C4  UNL     1     -41.264  13.163   6.099  1.00 20.00    -0.017 A 
HETATM    4  C5  UNL     1     -42.587  12.767   6.708  1.00 20.00     0.017 C 
HETATM    5  C6  UNL     1     -41.389  13.677   4.685  1.00 20.00     0.017 C 
HETATM    6 CL9  UNL     1     -40.419  14.123   8.647  1.00 20.00    -0.123 Cl
ENDROOT
BRANCH   1   7
HETATM    7  C1  UNL     1     -39.012  12.004   5.514  1.00 20.00     0.225 C 
HETATM    8  O7  UNL     1     -37.890  12.501   5.552  1.00 20.00    -0.279 OA
HETATM    9 CL8  UNL     1     -39.583  10.851   4.346  1.00 20.00    -0.043 Cl
ENDBRANCH   1   7
TORSDOF 1
ENDMDL
