MODEL 1
REMARK VINA RESULT:      -4.2      0.000      0.000
REMARK  2 active torsions:
REMARK  status: ('A' for Active; 'I' for Inactive)
REMARK    1  A    between atoms: C2_2  and  C8_8 
REMARK    2  A    between atoms: C8_8  and  N9_9 
ROOT
HETATM    1  C1  UNL     1     -32.669   9.054   1.903  1.00 20.00    -0.109 C 
HETATM    2  C2  UNL     1     -32.626   8.746   3.062  1.00 20.00    -0.077 C 
HETATM    3  C7  UNL     1     -32.723   9.429   0.490  1.00 20.00     0.112 C 
ENDROOT
BRANCH   2   4
HETATM    4  C8  UNL     1     -32.569   8.364   4.477  1.00 20.00     0.365 C 
BRANCH   4   5
HETATM    5  N9  UNL     1     -33.607   7.385   4.796  1.00 20.00     0.103 N 
HETATM    6  C3  UNL     1     -33.592   7.054   6.227  1.00 20.00     0.299 C 
HETATM    7  C5  UNL     1     -34.674   6.024   6.532  1.00 20.00     0.198 C 
HETATM    8  O10 UNL     1     -34.477   4.847   5.746  1.00 20.00    -0.388 OA
HETATM    9  C6  UNL     1     -34.524   5.155   4.353  1.00 20.00     0.198 C 
HETATM   10  C4  UNL     1     -33.437   6.165   3.995  1.00 20.00     0.299 C 
ENDBRANCH   4   5
ENDBRANCH   2   4
TORSDOF 2
ENDMDL
MODEL 2
REMARK VINA RESULT:      -4.1     11.856     12.610
REMARK  2 active torsions:
REMARK  status: ('A' for Active; 'I' for Inactive)
REMARK    1  A    between atoms: C2_2  and  C8_8 
REMARK    2  A    between atoms: C8_8  and  N9_9 
ROOT
HETATM    1  C1  UNL     1     -33.468  16.988  -1.872  1.00 20.00    -0.109 C 
HETATM    2  C2  UNL     1     -33.282  16.332  -2.860  1.00 20.00    -0.077 C 
HETATM    3  C7  UNL     1     -33.697  17.786  -0.668  1.00 20.00     0.112 C 
ENDROOT
BRANCH   2   4
HETATM    4  C8  UNL     1     -33.055  15.537  -4.071  1.00 20.00     0.365 C 
BRANCH   4   5
HETATM    5  N9  UNL     1     -34.260  15.486  -4.896  1.00 20.00     0.103 N 
HETATM    6  C3  UNL     1     -35.094  14.332  -4.534  1.00 20.00     0.299 C 
HETATM    7  C5  UNL     1     -36.338  14.294  -5.415  1.00 20.00     0.198 C 
HETATM    8  O10 UNL     1     -35.970  14.231  -6.794  1.00 20.00    -0.388 OA
HETATM    9  C6  UNL     1     -35.187  15.367  -7.162  1.00 20.00     0.198 C 
HETATM   10  C4  UNL     1     -33.914  15.430  -6.323  1.00 20.00     0.299 C 
ENDBRANCH   4   5
ENDBRANCH   2   4
TORSDOF 2
ENDMDL
MODEL 3
REMARK VINA RESULT:      -3.8     12.163     13.158
REMARK  2 active torsions:
REMARK  status: ('A' for Active; 'I' for Inactive)
REMARK    1  A    between atoms: C2_2  and  C8_8 
REMARK    2  A    between atoms: C8_8  and  N9_9 
ROOT
HETATM    1  C1  UNL     1     -33.536  17.227  -1.490  1.00 20.00    -0.109 C 
HETATM    2  C2  UNL     1     -33.374  16.618  -2.512  1.00 20.00    -0.077 C 
HETATM    3  C7  UNL     1     -33.735  17.968  -0.245  1.00 20.00     0.112 C 
ENDROOT
BRANCH   2   4
HETATM    4  C8  UNL     1     -33.177  15.881  -3.764  1.00 20.00     0.365 C 
BRANCH   4   5
HETATM    5  N9  UNL     1     -34.414  15.830  -4.540  1.00 20.00     0.103 N 
HETATM    6  C3  UNL     1     -34.255  14.972  -5.722  1.00 20.00     0.299 C 
HETATM    7  C5  UNL     1     -35.555  14.945  -6.521  1.00 20.00     0.198 C 
HETATM    8  O10 UNL     1     -35.927  16.267  -6.911  1.00 20.00    -0.388 OA
HETATM    9  C6  UNL     1     -36.116  17.099  -5.766  1.00 20.00     0.198 C 
HETATM   10  C4  UNL     1     -34.829  17.179  -4.949  1.00 20.00     0.299 C 
ENDBRANCH   4   5
ENDBRANCH   2   4
TORSDOF 2
ENDMDL
MODEL 4
REMARK VINA RESULT:      -3.6     12.291     13.485
REMARK  2 active torsions:
REMARK  status: ('A' for Active; 'I' for Inactive)
REMARK    1  A    between atoms: C2_2  and  C8_8 
REMARK    2  A    between atoms: C8_8  and  N9_9 
ROOT
HETATM    1  C1  UNL     1     -33.270  16.966  -2.068  1.00 20.00    -0.109 C 
HETATM    2  C2  UNL     1     -33.471  16.199  -2.970  1.00 20.00    -0.077 C 
HETATM    3  C7  UNL     1     -33.024  17.899  -0.970  1.00 20.00     0.112 C 
ENDROOT
BRANCH   2   4
HETATM    4  C8  UNL     1     -33.724  15.260  -4.068  1.00 20.00     0.365 C 
BRANCH   4   5
HETATM    5  N9  UNL     1     -34.135  15.971  -5.277  1.00 20.00     0.103 N 
HETATM    6  C3  UNL     1     -35.516  16.457  -5.154  1.00 20.00     0.299 C 
HETATM    7  C5  UNL     1     -35.925  17.184  -6.431  1.00 20.00     0.198 C 
HETATM    8  O10 UNL     1     -35.801  16.316  -7.559  1.00 20.00    -0.388 OA
HETATM    9  C6  UNL     1     -34.454  15.865  -7.705  1.00 20.00     0.198 C 
HETATM   10  C4  UNL     1     -34.009  15.106  -6.458  1.00 20.00     0.299 C 
ENDBRANCH   4   5
ENDBRANCH   2   4
TORSDOF 2
ENDMDL
MODEL 5
REMARK VINA RESULT:      -3.6     11.870     12.794
REMARK  2 active torsions:
REMARK  status: ('A' for Active; 'I' for Inactive)
REMARK    1  A    between atoms: C2_2  and  C8_8 
REMARK    2  A    between atoms: C8_8  and  N9_9 
ROOT
HETATM    1  C1  UNL     1     -32.215  18.303  -1.050  1.00 20.00    -0.109 C 
HETATM    2  C2  UNL     1     -33.134  18.152  -1.808  1.00 20.00    -0.077 C 
HETATM    3  C7  UNL     1     -31.096  18.486  -0.127  1.00 20.00     0.112 C 
ENDROOT
BRANCH   2   4
HETATM    4  C8  UNL     1     -34.255  17.975  -2.736  1.00 20.00     0.365 C 
BRANCH   4   5
HETATM    5  N9  UNL     1     -33.883  17.096  -3.842  1.00 20.00     0.103 N 
HETATM    6  C3  UNL     1     -34.949  17.046  -4.852  1.00 20.00     0.299 C 
HETATM    7  C5  UNL     1     -34.543  16.114  -5.989  1.00 20.00     0.198 C 
HETATM    8  O10 UNL     1     -34.270  14.806  -5.487  1.00 20.00    -0.388 OA
HETATM    9  C6  UNL     1     -33.212  14.840  -4.529  1.00 20.00     0.198 C 
HETATM   10  C4  UNL     1     -33.587  15.742  -3.355  1.00 20.00     0.299 C 
ENDBRANCH   4   5
ENDBRANCH   2   4
TORSDOF 2
ENDMDL
MODEL 6
REMARK VINA RESULT:      -3.6     10.500     11.017
REMARK  2 active torsions:
REMARK  status: ('A' for Active; 'I' for Inactive)
REMARK    1  A    between atoms: C2_2  and  C8_8 
REMARK    2  A    between atoms: C8_8  and  N9_9 
ROOT
HETATM    1  C1  UNL     1     -39.983  12.073   5.234  1.00 20.00    -0.109 C 
HETATM    2  C2  UNL     1     -40.876  12.366   5.982  1.00 20.00    -0.077 C 
HETATM    3  C7  UNL     1     -38.895  11.718   4.324  1.00 20.00     0.112 C 
ENDROOT
BRANCH   2   4
HETATM    4  C8  UNL     1     -41.971  12.718   6.891  1.00 20.00     0.365 C 
BRANCH   4   5
HETATM    5  N9  UNL     1     -41.797  14.070   7.418  1.00 20.00     0.103 N 
HETATM    6  C3  UNL     1     -41.873  15.065   6.340  1.00 20.00     0.299 C 
HETATM    7  C5  UNL     1     -41.677  16.466   6.913  1.00 20.00     0.198 C 
HETATM    8  O10 UNL     1     -40.422  16.556   7.588  1.00 20.00    -0.388 OA
HETATM    9  C6  UNL     1     -40.353  15.615   8.659  1.00 20.00     0.198 C 
HETATM   10  C4  UNL     1     -40.517  14.193   8.128  1.00 20.00     0.299 C 
ENDBRANCH   4   5
ENDBRANCH   2   4
TORSDOF 2
ENDMDL
MODEL 7
REMARK VINA RESULT:      -3.5     14.839     15.831
REMARK  2 active torsions:
REMARK  status: ('A' for Active; 'I' for Inactive)
REMARK    1  A    between atoms: C2_2  and  C8_8 
REMARK    2  A    between atoms: C8_8  and  N9_9 
ROOT
HETATM    1  C1  UNL     1     -25.985  19.260   7.313  1.00 20.00    -0.109 C 
HETATM    2  C2  UNL     1     -24.907  19.257   7.840  1.00 20.00    -0.077 C 
HETATM    3  C7  UNL     1     -27.299  19.263   6.670  1.00 20.00     0.112 C 
ENDROOT
BRANCH   2   4
HETATM    4  C8  UNL     1     -23.586  19.256   8.478  1.00 20.00     0.365 C 
BRANCH   4   5
HETATM    5  N9  UNL     1     -23.703  19.034   9.918  1.00 20.00     0.103 N 
HETATM    6  C3  UNL     1     -22.395  18.712  10.505  1.00 20.00     0.299 C 
HETATM    7  C5  UNL     1     -22.544  18.475  12.004  1.00 20.00     0.198 C 
HETATM    8  O10 UNL     1     -23.475  17.419  12.251  1.00 20.00    -0.388 OA
HETATM    9  C6  UNL     1     -24.758  17.739  11.712  1.00 20.00     0.198 C 
HETATM   10  C4  UNL     1     -24.662  17.959  10.205  1.00 20.00     0.299 C 
ENDBRANCH   4   5
ENDBRANCH   2   4
TORSDOF 2
ENDMDL
MODEL 8
REMARK VINA RESULT:      -3.4     10.545     10.985
REMARK  2 active torsions:
REMARK  status: ('A' for Active; 'I' for Inactive)
REMARK    1  A    between atoms: C2_2  and  C8_8 
REMARK    2  A    between atoms: C8_8  and  N9_9 
ROOT
HETATM    1  C1  UNL     1     -39.822  12.162   4.968  1.00 20.00    -0.109 C 
HETATM    2  C2  UNL     1     -40.544  12.641   5.800  1.00 20.00    -0.077 C 
HETATM    3  C7  UNL     1     -38.943  11.579   3.955  1.00 20.00     0.112 C 
ENDROOT
BRANCH   2   4
HETATM    4  C8  UNL     1     -41.423  13.232   6.814  1.00 20.00     0.365 C 
BRANCH   4   5
HETATM    5  N9  UNL     1     -40.785  14.382   7.451  1.00 20.00     0.103 N 
HETATM    6  C3  UNL     1     -40.831  14.261   8.915  1.00 20.00     0.299 C 
HETATM    7  C5  UNL     1     -40.171  15.478   9.556  1.00 20.00     0.198 C 
HETATM    8  O10 UNL     1     -40.821  16.677   9.134  1.00 20.00    -0.388 OA
HETATM    9  C6  UNL     1     -40.750  16.819   7.715  1.00 20.00     0.198 C 
HETATM   10  C4  UNL     1     -41.426  15.634   7.028  1.00 20.00     0.299 C 
ENDBRANCH   4   5
ENDBRANCH   2   4
TORSDOF 2
ENDMDL
MODEL 9
REMARK VINA RESULT:      -3.4     11.881     12.776
REMARK  2 active torsions:
REMARK  status: ('A' for Active; 'I' for Inactive)
REMARK    1  A    between atoms: C2_2  and  C8_8 
REMARK    2  A    between atoms: C8_8  and  N9_9 
ROOT
HETATM    1  C1  UNL     1     -32.083  18.490   1.044  1.00 20.00    -0.109 C 
HETATM    2  C2  UNL     1     -33.044  18.607   0.334  1.00 20.00    -0.077 C 
HETATM    3  C7  UNL     1     -30.912  18.347   1.908  1.00 20.00     0.112 C 
ENDROOT
BRANCH   2   4
HETATM    4  C8  UNL     1     -34.222  18.745  -0.529  1.00 20.00     0.365 C 
BRANCH   4   5
HETATM    5  N9  UNL     1     -33.923  18.310  -1.892  1.00 20.00     0.103 N 
HETATM    6  C3  UNL     1     -35.072  18.542  -2.779  1.00 20.00     0.299 C 
HETATM    7  C5  UNL     1     -34.741  18.070  -4.191  1.00 20.00     0.198 C 
HETATM    8  O10 UNL     1     -34.388  16.686  -4.183  1.00 20.00    -0.388 OA
HETATM    9  C6  UNL     1     -33.251  16.457  -3.350  1.00 20.00     0.198 C 
HETATM   10  C4  UNL     1     -33.547  16.890  -1.916  1.00 20.00     0.299 C 
ENDBRANCH   4   5
ENDBRANCH   2   4
TORSDOF 2
ENDMDL
