MODEL 1
REMARK VINA RESULT:      -4.3      0.000      0.000
REMARK  3 active torsions:
REMARK  status: ('A' for Active; 'I' for Inactive)
REMARK    1  A    between atoms: C3_3  and  C7_7 
REMARK    2  A    between atoms: C5_5  and  C8_8 
REMARK    3  A    between atoms: C6_6  and  C9_9 
ROOT
HETATM    1  C7  UNL     1     -22.646  19.108   9.208  1.00 20.00     0.097 A 
HETATM    2  C8  UNL     1     -23.323  18.193  10.211  1.00 20.00     0.013 A 
HETATM    3  C9  UNL     1     -21.850  18.025   9.911  1.00 20.00     0.013 A 
ENDROOT
BRANCH   1   4
HETATM    4  C3  UNL     1     -22.958  18.885   7.807  1.00 20.00     0.177 C 
HETATM    5  O10 UNL     1     -24.106  19.263   7.443  1.00 20.00    -0.648 OA
HETATM    6  O11 UNL     1     -22.034  18.342   7.139  1.00 20.00    -0.648 OA
ENDBRANCH   1   4
BRANCH   2   7
HETATM    7  C5  UNL     1     -23.356  18.416  11.731  1.00 20.00     0.014 C 
HETATM    8  C1  UNL     1     -24.782  18.763  12.139  1.00 20.00    -0.025 C 
HETATM    9  C2  UNL     1     -25.520  17.650  11.967  1.00 20.00    -0.025 C 
HETATM   10  C6  UNL     1     -24.579  16.572  11.446  1.00 20.00     0.014 C 
HETATM   11  C4  UNL     1     -23.357  16.979  12.291  1.00 20.00     0.017 C 
ENDBRANCH   2   7
TORSDOF 3
ENDMDL
MODEL 2
REMARK VINA RESULT:      -4.1     14.949     16.168
REMARK  3 active torsions:
REMARK  status: ('A' for Active; 'I' for Inactive)
REMARK    1  A    between atoms: C3_3  and  C7_7 
REMARK    2  A    between atoms: C5_5  and  C8_8 
REMARK    3  A    between atoms: C6_6  and  C9_9 
ROOT
HETATM    1  C7  UNL     1     -33.517   8.155   4.618  1.00 20.00     0.097 A 
HETATM    2  C8  UNL     1     -33.697   7.041   5.631  1.00 20.00     0.013 A 
HETATM    3  C9  UNL     1     -34.037   8.465   6.008  1.00 20.00     0.013 A 
ENDROOT
BRANCH   1   4
HETATM    4  C3  UNL     1     -32.153   8.559   4.324  1.00 20.00     0.177 C 
HETATM    5  O10 UNL     1     -31.560   7.863   3.456  1.00 20.00    -0.648 OA
HETATM    6  O11 UNL     1     -31.744   9.557   4.981  1.00 20.00    -0.648 OA
ENDBRANCH   1   4
BRANCH   2   7
HETATM    7  C5  UNL     1     -35.006   6.278   5.887  1.00 20.00     0.014 C 
HETATM    8  C1  UNL     1     -35.423   5.585   4.597  1.00 20.00    -0.025 C 
HETATM    9  C2  UNL     1     -34.527   4.606   4.371  1.00 20.00    -0.025 C 
HETATM   10  C6  UNL     1     -33.520   4.656   5.512  1.00 20.00     0.014 C 
HETATM   11  C4  UNL     1     -34.529   5.010   6.623  1.00 20.00     0.017 C 
ENDBRANCH   2   7
TORSDOF 3
ENDMDL
MODEL 3
REMARK VINA RESULT:      -3.9     16.908     17.960
REMARK  3 active torsions:
REMARK  status: ('A' for Active; 'I' for Inactive)
REMARK    1  A    between atoms: C3_3  and  C7_7 
REMARK    2  A    between atoms: C5_5  and  C8_8 
REMARK    3  A    between atoms: C6_6  and  C9_9 
ROOT
HETATM    1  C7  UNL     1     -40.293  12.251   5.981  1.00 20.00     0.097 A 
HETATM    2  C8  UNL     1     -40.481  13.605   6.637  1.00 20.00     0.013 A 
HETATM    3  C9  UNL     1     -41.307  13.232   5.426  1.00 20.00     0.013 A 
ENDROOT
BRANCH   1   4
HETATM    4  C3  UNL     1     -39.077  12.061   5.209  1.00 20.00     0.177 C 
HETATM    5  O10 UNL     1     -38.012  12.017   5.884  1.00 20.00    -0.648 OA
HETATM    6  O11 UNL     1     -39.252  11.966   3.962  1.00 20.00    -0.648 OA
ENDBRANCH   1   4
BRANCH   2   7
HETATM    7  C5  UNL     1     -41.536  13.934   7.705  1.00 20.00     0.014 C 
HETATM    8  C1  UNL     1     -40.823  14.201   9.023  1.00 20.00    -0.025 C 
HETATM    9  C2  UNL     1     -40.151  15.358   8.878  1.00 20.00    -0.025 C 
HETATM   10  C6  UNL     1     -40.421  15.852   7.463  1.00 20.00     0.014 C 
HETATM   11  C4  UNL     1     -41.894  15.402   7.397  1.00 20.00     0.017 C 
ENDBRANCH   2   7
TORSDOF 3
ENDMDL
MODEL 4
REMARK VINA RESULT:      -3.8     17.604     19.083
REMARK  3 active torsions:
REMARK  status: ('A' for Active; 'I' for Inactive)
REMARK    1  A    between atoms: C3_3  and  C7_7 
REMARK    2  A    between atoms: C5_5  and  C8_8 
REMARK    3  A    between atoms: C6_6  and  C9_9 
ROOT
HETATM    1  C7  UNL     1     -40.488  12.058   5.772  1.00 20.00     0.097 A 
HETATM    2  C8  UNL     1     -41.392  13.041   6.493  1.00 20.00     0.013 A 
HETATM    3  C9  UNL     1     -41.021  13.278   5.046  1.00 20.00     0.013 A 
ENDROOT
BRANCH   1   4
HETATM    4  C3  UNL     1     -39.082  12.076   6.136  1.00 20.00     0.177 C 
HETATM    5  O10 UNL     1     -38.842  11.957   7.369  1.00 20.00    -0.648 OA
HETATM    6  O11 UNL     1     -38.287  12.208   5.164  1.00 20.00    -0.648 OA
ENDBRANCH   1   4
BRANCH   2   7
HETATM    7  C5  UNL     1     -42.928  13.012   6.471  1.00 20.00     0.014 C 
HETATM    8  C1  UNL     1     -43.415  12.208   7.669  1.00 20.00    -0.025 C 
HETATM    9  C2  UNL     1     -43.130  12.931   8.768  1.00 20.00    -0.025 C 
HETATM   10  C6  UNL     1     -42.454  14.211   8.292  1.00 20.00     0.014 C 
HETATM   11  C4  UNL     1     -43.308  14.401   7.023  1.00 20.00     0.017 C 
ENDBRANCH   2   7
TORSDOF 3
ENDMDL
MODEL 5
REMARK VINA RESULT:      -3.8     15.923     17.430
REMARK  3 active torsions:
REMARK  status: ('A' for Active; 'I' for Inactive)
REMARK    1  A    between atoms: C3_3  and  C7_7 
REMARK    2  A    between atoms: C5_5  and  C8_8 
REMARK    3  A    between atoms: C6_6  and  C9_9 
ROOT
HETATM    1  C7  UNL     1     -34.045  15.699  -4.714  1.00 20.00     0.097 A 
HETATM    2  C8  UNL     1     -33.864  16.471  -3.421  1.00 20.00     0.013 A 
HETATM    3  C9  UNL     1     -32.765  15.557  -3.913  1.00 20.00     0.013 A 
ENDROOT
BRANCH   1   4
HETATM    4  C3  UNL     1     -34.965  14.576  -4.682  1.00 20.00     0.177 C 
HETATM    5  O10 UNL     1     -36.029  14.731  -5.342  1.00 20.00    -0.648 OA
HETATM    6  O11 UNL     1     -34.574  13.592  -3.994  1.00 20.00    -0.648 OA
ENDBRANCH   1   4
BRANCH   2   7
HETATM    7  C5  UNL     1     -33.167  17.835  -3.293  1.00 20.00     0.014 C 
HETATM    8  C1  UNL     1     -34.214  18.883  -2.941  1.00 20.00    -0.025 C 
HETATM    9  C2  UNL     1     -34.626  18.620  -1.687  1.00 20.00    -0.025 C 
HETATM   10  C6  UNL     1     -33.850  17.398  -1.213  1.00 20.00     0.014 C 
HETATM   11  C4  UNL     1     -32.516  17.760  -1.897  1.00 20.00     0.017 C 
ENDBRANCH   2   7
TORSDOF 3
ENDMDL
MODEL 6
REMARK VINA RESULT:      -3.5     16.893     18.624
REMARK  3 active torsions:
REMARK  status: ('A' for Active; 'I' for Inactive)
REMARK    1  A    between atoms: C3_3  and  C7_7 
REMARK    2  A    between atoms: C5_5  and  C8_8 
REMARK    3  A    between atoms: C6_6  and  C9_9 
ROOT
HETATM    1  C7  UNL     1     -33.727  15.871  -3.048  1.00 20.00     0.097 A 
HETATM    2  C8  UNL     1     -34.058  15.981  -4.524  1.00 20.00     0.013 A 
HETATM    3  C9  UNL     1     -32.730  15.404  -4.090  1.00 20.00     0.013 A 
ENDROOT
BRANCH   1   4
HETATM    4  C3  UNL     1     -33.416  17.109  -2.353  1.00 20.00     0.177 C 
HETATM    5  O10 UNL     1     -32.835  17.986  -3.049  1.00 20.00    -0.648 OA
HETATM    6  O11 UNL     1     -33.772  17.139  -1.142  1.00 20.00    -0.648 OA
ENDBRANCH   1   4
BRANCH   2   7
HETATM    7  C5  UNL     1     -34.674  14.864  -5.380  1.00 20.00     0.014 C 
HETATM    8  C1  UNL     1     -36.156  15.157  -5.566  1.00 20.00    -0.025 C 
HETATM    9  C2  UNL     1     -36.244  16.243  -6.356  1.00 20.00    -0.025 C 
HETATM   10  C6  UNL     1     -34.819  16.665  -6.689  1.00 20.00     0.014 C 
HETATM   11  C4  UNL     1     -34.237  15.242  -6.809  1.00 20.00     0.017 C 
ENDBRANCH   2   7
TORSDOF 3
ENDMDL
MODEL 7
REMARK VINA RESULT:      -3.5     19.619     21.037
REMARK  3 active torsions:
REMARK  status: ('A' for Active; 'I' for Inactive)
REMARK    1  A    between atoms: C3_3  and  C7_7 
REMARK    2  A    between atoms: C5_5  and  C8_8 
REMARK    3  A    between atoms: C6_6  and  C9_9 
ROOT
HETATM    1  C7  UNL     1     -27.406  -2.214  10.172  1.00 20.00     0.097 A 
HETATM    2  C8  UNL     1     -26.100  -2.602  10.839  1.00 20.00     0.013 A 
HETATM    3  C9  UNL     1     -27.398  -3.222  11.305  1.00 20.00     0.013 A 
ENDROOT
BRANCH   1   4
HETATM    4  C3  UNL     1     -27.928  -0.893  10.476  1.00 20.00     0.177 C 
HETATM    5  O10 UNL     1     -27.497   0.039   9.743  1.00 20.00    -0.648 OA
HETATM    6  O11 UNL     1     -28.746  -0.856  11.438  1.00 20.00    -0.648 OA
ENDBRANCH   1   4
BRANCH   2   7
HETATM    7  C5  UNL     1     -25.238  -3.815  10.459  1.00 20.00     0.014 C 
HETATM    8  C1  UNL     1     -24.099  -3.340   9.567  1.00 20.00    -0.025 C 
HETATM    9  C2  UNL     1     -23.280  -2.601  10.339  1.00 20.00    -0.025 C 
HETATM   10  C6  UNL     1     -23.881  -2.589  11.738  1.00 20.00     0.014 C 
HETATM   11  C4  UNL     1     -24.387  -4.045  11.725  1.00 20.00     0.017 C 
ENDBRANCH   2   7
TORSDOF 3
ENDMDL
MODEL 8
REMARK VINA RESULT:      -3.5     15.468     16.494
REMARK  3 active torsions:
REMARK  status: ('A' for Active; 'I' for Inactive)
REMARK    1  A    between atoms: C3_3  and  C7_7 
REMARK    2  A    between atoms: C5_5  and  C8_8 
REMARK    3  A    between atoms: C6_6  and  C9_9 
ROOT
HETATM    1  C7  UNL     1     -32.144   7.136   3.112  1.00 20.00     0.097 A 
HETATM    2  C8  UNL     1     -33.340   6.527   3.818  1.00 20.00     0.013 A 
HETATM    3  C9  UNL     1     -32.750   5.840   2.608  1.00 20.00     0.013 A 
ENDROOT
BRANCH   1   4
HETATM    4  C3  UNL     1     -32.390   8.325   2.316  1.00 20.00     0.177 C 
HETATM    5  O10 UNL     1     -32.211   8.191   1.075  1.00 20.00    -0.648 OA
HETATM    6  O11 UNL     1     -32.753   9.338   2.977  1.00 20.00    -0.648 OA
ENDBRANCH   1   4
BRANCH   2   7
HETATM    7  C5  UNL     1     -33.271   5.451   4.913  1.00 20.00     0.014 C 
HETATM    8  C1  UNL     1     -33.682   6.080   6.237  1.00 20.00    -0.025 C 
HETATM    9  C2  UNL     1     -34.998   6.353   6.148  1.00 20.00    -0.025 C 
HETATM   10  C6  UNL     1     -35.450   5.905   4.765  1.00 20.00     0.014 C 
HETATM   11  C4  UNL     1     -34.566   4.645   4.689  1.00 20.00     0.017 C 
ENDBRANCH   2   7
TORSDOF 3
ENDMDL
MODEL 9
REMARK VINA RESULT:      -3.4     17.162     18.722
REMARK  3 active torsions:
REMARK  status: ('A' for Active; 'I' for Inactive)
REMARK    1  A    between atoms: C3_3  and  C7_7 
REMARK    2  A    between atoms: C5_5  and  C8_8 
REMARK    3  A    between atoms: C6_6  and  C9_9 
ROOT
HETATM    1  C7  UNL     1     -35.860  16.585  -5.558  1.00 20.00     0.097 A 
HETATM    2  C8  UNL     1     -34.754  17.036  -4.623  1.00 20.00     0.013 A 
HETATM    3  C9  UNL     1     -34.629  17.275  -6.111  1.00 20.00     0.013 A 
ENDROOT
BRANCH   1   4
HETATM    4  C3  UNL     1     -35.972  15.156  -5.796  1.00 20.00     0.177 C 
HETATM    5  O10 UNL     1     -36.922  14.582  -5.197  1.00 20.00    -0.648 OA
HETATM    6  O11 UNL     1     -35.098  14.681  -6.575  1.00 20.00    -0.648 OA
ENDBRANCH   1   4
BRANCH   2   7
HETATM    7  C5  UNL     1     -34.623  18.443  -4.020  1.00 20.00     0.014 C 
HETATM    8  C1  UNL     1     -35.044  18.386  -2.558  1.00 20.00    -0.025 C 
HETATM    9  C2  UNL     1     -34.103  17.675  -1.908  1.00 20.00    -0.025 C 
HETATM   10  C6  UNL     1     -33.064  17.265  -2.943  1.00 20.00     0.014 C 
HETATM   11  C4  UNL     1     -33.108  18.570  -3.764  1.00 20.00     0.017 C 
ENDBRANCH   2   7
TORSDOF 3
ENDMDL
