MODEL 1
REMARK VINA RESULT:      -3.4      0.000      0.000
REMARK  2 active torsions:
REMARK  status: ('A' for Active; 'I' for Inactive)
REMARK    1  A    between atoms: C4_4  and  C10_10 
REMARK    2  A    between atoms: C5_5  and  C10_10 
ROOT
HETATM    1  C1  UNL     1     -41.838  16.215   9.323  1.00 20.00    -0.026 C 
HETATM    2  C2  UNL     1     -42.595  16.129   8.219  1.00 20.00    -0.024 C 
HETATM    3  C6  UNL     1     -40.418  16.397   7.511  1.00 20.00     0.018 C 
HETATM    4  C7  UNL     1     -40.417  14.301   8.647  1.00 20.00     0.030 C 
HETATM    5  C8  UNL     1     -40.434  15.824   8.930  1.00 20.00     0.010 C 
HETATM    6  C9  UNL     1     -41.698  15.656   7.094  1.00 20.00     0.028 C 
HETATM    7  C10 UNL     1     -41.291  14.178   7.355  1.00 20.00     0.044 C 
ENDROOT
BRANCH   7   8
HETATM    8  C4  UNL     1     -40.542  13.568   6.210  1.00 20.00    -0.019 C 
HETATM    9  C3  UNL     1     -39.785  12.470   6.310  1.00 20.00     0.008 C 
ENDBRANCH   7   8
BRANCH   7  10
HETATM   10  C5  UNL     1     -42.476  13.274   7.551  1.00 20.00     0.136 C 
HETATM   11  C11 UNL     1     -43.417  13.129   6.386  1.00 20.00     0.092 C 
HETATM   12  O12 UNL     1     -42.666  12.681   8.612  1.00 20.00    -0.297 OA
ENDBRANCH   7  10
TORSDOF 2
ENDMDL
MODEL 2
REMARK VINA RESULT:      -3.4     20.884     22.623
REMARK  2 active torsions:
REMARK  status: ('A' for Active; 'I' for Inactive)
REMARK    1  A    between atoms: C4_4  and  C10_10 
REMARK    2  A    between atoms: C5_5  and  C10_10 
ROOT
HETATM    1  C1  UNL     1     -26.709  -0.117  11.472  1.00 20.00    -0.026 C 
HETATM    2  C2  UNL     1     -26.278  -1.051  12.332  1.00 20.00    -0.024 C 
HETATM    3  C6  UNL     1     -28.556  -1.333  12.136  1.00 20.00     0.018 C 
HETATM    4  C7  UNL     1     -27.712  -1.799   9.955  1.00 20.00     0.030 C 
HETATM    5  C8  UNL     1     -28.015  -0.610  10.900  1.00 20.00     0.010 C 
HETATM    6  C9  UNL     1     -27.287  -2.180  12.314  1.00 20.00     0.028 C 
HETATM    7  C10 UNL     1     -27.212  -2.907  10.941  1.00 20.00     0.044 C 
ENDROOT
BRANCH   7   8
HETATM    8  C4  UNL     1     -28.054  -4.145  10.889  1.00 20.00    -0.019 C 
HETATM    9  C3  UNL     1     -29.112  -4.298  10.086  1.00 20.00     0.008 C 
ENDBRANCH   7   8
BRANCH   7  10
HETATM   10  C5  UNL     1     -25.826  -3.383  10.609  1.00 20.00     0.136 C 
HETATM   11  C11 UNL     1     -25.284  -4.519  11.433  1.00 20.00     0.092 C 
HETATM   12  O12 UNL     1     -25.166  -2.868   9.706  1.00 20.00    -0.297 OA
ENDBRANCH   7  10
TORSDOF 2
ENDMDL
MODEL 3
REMARK VINA RESULT:      -3.3      1.324      2.652
REMARK  2 active torsions:
REMARK  status: ('A' for Active; 'I' for Inactive)
REMARK    1  A    between atoms: C4_4  and  C10_10 
REMARK    2  A    between atoms: C5_5  and  C10_10 
ROOT
HETATM    1  C1  UNL     1     -40.583  16.199   7.724  1.00 20.00    -0.026 C 
HETATM    2  C2  UNL     1     -40.387  15.074   8.427  1.00 20.00    -0.024 C 
HETATM    3  C6  UNL     1     -42.666  15.408   8.330  1.00 20.00     0.018 C 
HETATM    4  C7  UNL     1     -42.021  15.058   6.061  1.00 20.00     0.030 C 
HETATM    5  C8  UNL     1     -41.984  16.139   7.170  1.00 20.00     0.010 C 
HETATM    6  C9  UNL     1     -41.654  14.250   8.320  1.00 20.00     0.028 C 
HETATM    7  C10 UNL     1     -41.802  13.731   6.861  1.00 20.00     0.044 C 
ENDROOT
BRANCH   7   8
HETATM    8  C4  UNL     1     -42.936  12.767   6.696  1.00 20.00    -0.019 C 
HETATM    9  C3  UNL     1     -43.332  11.908   7.643  1.00 20.00     0.008 C 
ENDBRANCH   7   8
BRANCH   7  10
HETATM   10  C5  UNL     1     -40.593  12.973   6.388  1.00 20.00     0.136 C 
HETATM   11  C11 UNL     1     -40.420  12.835   4.900  1.00 20.00     0.092 C 
HETATM   12  O12 UNL     1     -39.785  12.490   7.180  1.00 20.00    -0.297 OA
ENDBRANCH   7  10
TORSDOF 2
ENDMDL
MODEL 4
REMARK VINA RESULT:      -3.3      1.513      2.069
REMARK  2 active torsions:
REMARK  status: ('A' for Active; 'I' for Inactive)
REMARK    1  A    between atoms: C4_4  and  C10_10 
REMARK    2  A    between atoms: C5_5  and  C10_10 
ROOT
HETATM    1  C1  UNL     1     -40.433  14.610   9.358  1.00 20.00    -0.026 C 
HETATM    2  C2  UNL     1     -41.693  14.157   9.422  1.00 20.00    -0.024 C 
HETATM    3  C6  UNL     1     -41.773  16.184   8.329  1.00 20.00     0.018 C 
HETATM    4  C7  UNL     1     -40.489  14.784   6.888  1.00 20.00     0.030 C 
HETATM    5  C8  UNL     1     -40.369  15.585   8.208  1.00 20.00     0.010 C 
HETATM    6  C9  UNL     1     -42.466  14.813   8.296  1.00 20.00     0.028 C 
HETATM    7  C10 UNL     1     -41.959  14.250   6.937  1.00 20.00     0.044 C 
ENDROOT
BRANCH   7   8
HETATM    8  C4  UNL     1     -42.779  14.713   5.772  1.00 20.00    -0.019 C 
HETATM    9  C3  UNL     1     -42.394  14.605   4.496  1.00 20.00     0.008 C 
ENDBRANCH   7   8
BRANCH   7  10
HETATM   10  C5  UNL     1     -42.024  12.750   6.868  1.00 20.00     0.136 C 
HETATM   11  C11 UNL     1     -43.360  12.116   7.146  1.00 20.00     0.092 C 
HETATM   12  O12 UNL     1     -41.033  12.074   6.597  1.00 20.00    -0.297 OA
ENDBRANCH   7  10
TORSDOF 2
ENDMDL
MODEL 5
REMARK VINA RESULT:      -3.2      9.721     11.593
REMARK  2 active torsions:
REMARK  status: ('A' for Active; 'I' for Inactive)
REMARK    1  A    between atoms: C4_4  and  C10_10 
REMARK    2  A    between atoms: C5_5  and  C10_10 
ROOT
HETATM    1  C1  UNL     1     -40.991   7.806   1.085  1.00 20.00    -0.026 C 
HETATM    2  C2  UNL     1     -42.225   7.443   1.462  1.00 20.00    -0.024 C 
HETATM    3  C6  UNL     1     -42.296   7.767  -0.819  1.00 20.00     0.018 C 
HETATM    4  C7  UNL     1     -40.797   5.936  -0.527  1.00 20.00     0.030 C 
HETATM    5  C8  UNL     1     -40.858   7.476  -0.381  1.00 20.00     0.010 C 
HETATM    6  C9  UNL     1     -42.909   6.847   0.248  1.00 20.00     0.028 C 
HETATM    7  C10 UNL     1     -42.235   5.489  -0.099  1.00 20.00     0.044 C 
ENDROOT
BRANCH   7   8
HETATM    8  C4  UNL     1     -42.951   4.742  -1.182  1.00 20.00    -0.019 C 
HETATM    9  C3  UNL     1     -42.357   4.261  -2.279  1.00 20.00     0.008 C 
ENDBRANCH   7   8
BRANCH   7  10
HETATM   10  C5  UNL     1     -42.213   4.536   1.063  1.00 20.00     0.136 C 
HETATM   11  C11 UNL     1     -43.417   3.649   1.234  1.00 20.00     0.092 C 
HETATM   12  O12 UNL     1     -41.257   4.482   1.835  1.00 20.00    -0.297 OA
ENDBRANCH   7  10
TORSDOF 2
ENDMDL
MODEL 6
REMARK VINA RESULT:      -3.2      1.381      3.392
REMARK  2 active torsions:
REMARK  status: ('A' for Active; 'I' for Inactive)
REMARK    1  A    between atoms: C4_4  and  C10_10 
REMARK    2  A    between atoms: C5_5  and  C10_10 
ROOT
HETATM    1  C1  UNL     1     -43.410  12.928   6.546  1.00 20.00    -0.026 C 
HETATM    2  C2  UNL     1     -42.211  12.486   6.950  1.00 20.00    -0.024 C 
HETATM    3  C6  UNL     1     -41.818  14.161   5.417  1.00 20.00     0.018 C 
HETATM    4  C7  UNL     1     -42.919  15.259   7.224  1.00 20.00     0.030 C 
HETATM    5  C8  UNL     1     -43.214  14.329   6.022  1.00 20.00     0.010 C 
HETATM    6  C9  UNL     1     -41.217  13.605   6.717  1.00 20.00     0.028 C 
HETATM    7  C10 UNL     1     -41.516  14.765   7.710  1.00 20.00     0.044 C 
ENDROOT
BRANCH   7   8
HETATM    8  C4  UNL     1     -40.481  15.847   7.672  1.00 20.00    -0.019 C 
HETATM    9  C3  UNL     1     -40.764  17.152   7.605  1.00 20.00     0.008 C 
ENDBRANCH   7   8
BRANCH   7  10
HETATM   10  C5  UNL     1     -41.534  14.314   9.143  1.00 20.00     0.136 C 
HETATM   11  C11 UNL     1     -42.813  14.533   9.906  1.00 20.00     0.092 C 
HETATM   12  O12 UNL     1     -40.552  13.791   9.667  1.00 20.00    -0.297 OA
ENDBRANCH   7  10
TORSDOF 2
ENDMDL
MODEL 7
REMARK VINA RESULT:      -3.2     13.977     15.139
REMARK  2 active torsions:
REMARK  status: ('A' for Active; 'I' for Inactive)
REMARK    1  A    between atoms: C4_4  and  C10_10 
REMARK    2  A    between atoms: C5_5  and  C10_10 
ROOT
HETATM    1  C1  UNL     1     -37.911  17.342  -6.547  1.00 20.00    -0.026 C 
HETATM    2  C2  UNL     1     -36.742  17.733  -7.075  1.00 20.00    -0.024 C 
HETATM    3  C6  UNL     1     -36.490  17.795  -4.785  1.00 20.00     0.018 C 
HETATM    4  C7  UNL     1     -36.861  15.492  -5.278  1.00 20.00     0.030 C 
HETATM    5  C8  UNL     1     -37.623  16.835  -5.156  1.00 20.00     0.010 C 
HETATM    6  C9  UNL     1     -35.669  17.463  -6.041  1.00 20.00     0.028 C 
HETATM    7  C10 UNL     1     -35.486  15.926  -5.887  1.00 20.00     0.044 C 
ENDROOT
BRANCH   7   8
HETATM    8  C4  UNL     1     -34.328  15.561  -5.010  1.00 20.00    -0.019 C 
HETATM    9  C3  UNL     1     -34.248  14.424  -4.309  1.00 20.00     0.008 C 
ENDBRANCH   7   8
BRANCH   7  10
HETATM   10  C5  UNL     1     -35.199  15.240  -7.193  1.00 20.00     0.136 C 
HETATM   11  C11 UNL     1     -33.907  15.600  -7.876  1.00 20.00     0.092 C 
HETATM   12  O12 UNL     1     -35.980  14.424  -7.679  1.00 20.00    -0.297 OA
ENDBRANCH   7  10
TORSDOF 2
ENDMDL
MODEL 8
REMARK VINA RESULT:      -3.2     14.202     15.182
REMARK  2 active torsions:
REMARK  status: ('A' for Active; 'I' for Inactive)
REMARK    1  A    between atoms: C4_4  and  C10_10 
REMARK    2  A    between atoms: C5_5  and  C10_10 
ROOT
HETATM    1  C1  UNL     1     -36.084  18.523  -6.109  1.00 20.00    -0.026 C 
HETATM    2  C2  UNL     1     -34.790  18.265  -6.345  1.00 20.00    -0.024 C 
HETATM    3  C6  UNL     1     -35.178  17.744  -4.133  1.00 20.00     0.018 C 
HETATM    4  C7  UNL     1     -36.536  16.208  -5.350  1.00 20.00     0.030 C 
HETATM    5  C8  UNL     1     -36.492  17.694  -4.916  1.00 20.00     0.010 C 
HETATM    6  C9  UNL     1     -34.341  17.243  -5.320  1.00 20.00     0.028 C 
HETATM    7  C10 UNL     1     -35.030  15.882  -5.624  1.00 20.00     0.044 C 
ENDROOT
BRANCH   7   8
HETATM    8  C4  UNL     1     -34.518  14.765  -4.768  1.00 20.00    -0.019 C 
HETATM    9  C3  UNL     1     -33.323  14.768  -4.168  1.00 20.00     0.008 C 
ENDBRANCH   7   8
BRANCH   7  10
HETATM   10  C5  UNL     1     -34.795  15.412  -7.032  1.00 20.00     0.136 C 
HETATM   11  C11 UNL     1     -36.006  15.295  -7.918  1.00 20.00     0.092 C 
HETATM   12  O12 UNL     1     -33.668  15.138  -7.441  1.00 20.00    -0.297 OA
ENDBRANCH   7  10
TORSDOF 2
ENDMDL
MODEL 9
REMARK VINA RESULT:      -3.1      1.601      3.573
REMARK  2 active torsions:
REMARK  status: ('A' for Active; 'I' for Inactive)
REMARK    1  A    between atoms: C4_4  and  C10_10 
REMARK    2  A    between atoms: C5_5  and  C10_10 
ROOT
HETATM    1  C1  UNL     1     -41.692  13.892   5.084  1.00 20.00    -0.026 C 
HETATM    2  C2  UNL     1     -42.844  14.322   5.619  1.00 20.00    -0.024 C 
HETATM    3  C6  UNL     1     -42.237  12.428   6.784  1.00 20.00     0.018 C 
HETATM    4  C7  UNL     1     -40.501  13.993   7.254  1.00 20.00     0.030 C 
HETATM    5  C8  UNL     1     -41.002  13.052   6.130  1.00 20.00     0.010 C 
HETATM    6  C9  UNL     1     -42.909  13.787   7.035  1.00 20.00     0.028 C 
HETATM    7  C10 UNL     1     -41.832  14.503   7.899  1.00 20.00     0.044 C 
ENDROOT
BRANCH   7   8
HETATM    8  C4  UNL     1     -41.932  14.164   9.355  1.00 20.00    -0.019 C 
HETATM    9  C3  UNL     1     -40.908  14.236  10.213  1.00 20.00     0.008 C 
ENDBRANCH   7   8
BRANCH   7  10
HETATM   10  C5  UNL     1     -41.951  16.001   7.855  1.00 20.00     0.136 C 
HETATM   11  C11 UNL     1     -40.729  16.764   7.420  1.00 20.00     0.092 C 
HETATM   12  O12 UNL     1     -42.996  16.574   8.157  1.00 20.00    -0.297 OA
ENDBRANCH   7  10
TORSDOF 2
ENDMDL
