MODEL 1
REMARK VINA RESULT:      -3.7      0.000      0.000
REMARK  1 active torsions:
REMARK  status: ('A' for Active; 'I' for Inactive)
REMARK    1  A    between atoms: C3_3  and  C8_8 
ROOT
HETATM    1  C1  UNL     1     -41.254  13.222   5.983  1.00 20.00    -0.079 C 
HETATM    2  C2  UNL     1     -40.034  12.936   5.521  1.00 20.00    -0.028 C 
HETATM    3  C4  UNL     1     -42.174  12.271   6.707  1.00 20.00     0.039 C 
HETATM    4  C5  UNL     1     -43.417  13.994   5.625  1.00 20.00     0.014 C 
HETATM    5  C6  UNL     1     -43.057  14.274   7.968  1.00 20.00     0.019 C 
HETATM    6  C7  UNL     1     -41.998  14.532   5.820  1.00 20.00     0.027 C 
HETATM    7  C8  UNL     1     -42.130  15.224   7.189  1.00 20.00     0.081 C 
HETATM    8  C9  UNL     1     -43.396  13.185   6.924  1.00 20.00    -0.009 C 
HETATM    9  C10 UNL     1     -39.379  11.602   5.658  1.00 20.00     0.036 C 
ENDROOT
BRANCH   7  10
HETATM   10  C3  UNL     1     -40.819  15.464   7.873  1.00 20.00     0.223 C 
HETATM   11  O11 UNL     1     -40.037  16.327   7.486  1.00 20.00    -0.279 OA
HETATM   12 CL12 UNL     1     -40.582  14.396   9.223  1.00 20.00    -0.043 Cl
ENDBRANCH   7  10
TORSDOF 1
ENDMDL
MODEL 2
REMARK VINA RESULT:      -3.6      2.256      3.593
REMARK  1 active torsions:
REMARK  status: ('A' for Active; 'I' for Inactive)
REMARK    1  A    between atoms: C3_3  and  C8_8 
ROOT
HETATM    1  C1  UNL     1     -41.222  14.093   7.586  1.00 20.00    -0.079 C 
HETATM    2  C2  UNL     1     -40.613  14.234   8.766  1.00 20.00    -0.028 C 
HETATM    3  C4  UNL     1     -41.504  15.195   6.596  1.00 20.00     0.039 C 
HETATM    4  C5  UNL     1     -43.050  13.399   6.329  1.00 20.00     0.014 C 
HETATM    5  C6  UNL     1     -41.240  13.465   4.775  1.00 20.00     0.019 C 
HETATM    6  C7  UNL     1     -41.816  12.818   7.022  1.00 20.00     0.027 C 
HETATM    7  C8  UNL     1     -40.987  12.354   5.810  1.00 20.00     0.081 C 
HETATM    8  C9  UNL     1     -42.238  14.397   5.500  1.00 20.00    -0.009 C 
HETATM    9  C10 UNL     1     -40.105  15.534   9.295  1.00 20.00     0.036 C 
ENDROOT
BRANCH   7  10
HETATM   10  C3  UNL     1     -39.534  12.150   6.115  1.00 20.00     0.223 C 
HETATM   11  O11 UNL     1     -39.117  12.104   7.268  1.00 20.00    -0.279 OA
HETATM   12 CL12 UNL     1     -38.579  11.995   4.672  1.00 20.00    -0.043 Cl
ENDBRANCH   7  10
TORSDOF 1
ENDMDL
MODEL 3
REMARK VINA RESULT:      -3.6     13.185     14.517
REMARK  1 active torsions:
REMARK  status: ('A' for Active; 'I' for Inactive)
REMARK    1  A    between atoms: C3_3  and  C8_8 
ROOT
HETATM    1  C1  UNL     1     -34.429  16.536  -5.276  1.00 20.00    -0.079 C 
HETATM    2  C2  UNL     1     -34.225  16.954  -4.024  1.00 20.00    -0.028 C 
HETATM    3  C4  UNL     1     -33.865  15.284  -5.897  1.00 20.00     0.039 C 
HETATM    4  C5  UNL     1     -34.347  16.916  -7.568  1.00 20.00     0.014 C 
HETATM    5  C6  UNL     1     -35.961  15.177  -7.301  1.00 20.00     0.019 C 
HETATM    6  C7  UNL     1     -35.212  17.260  -6.353  1.00 20.00     0.027 C 
HETATM    7  C8  UNL     1     -36.498  16.476  -6.673  1.00 20.00     0.081 C 
HETATM    8  C9  UNL     1     -34.432  15.406  -7.325  1.00 20.00    -0.009 C 
HETATM    9  C10 UNL     1     -33.389  16.225  -3.025  1.00 20.00     0.036 C 
ENDROOT
BRANCH   7  10
HETATM   10  C3  UNL     1     -37.372  16.238  -5.480  1.00 20.00     0.223 C 
HETATM   11  O11 UNL     1     -37.721  15.108  -5.151  1.00 20.00    -0.279 OA
HETATM   12 CL12 UNL     1     -37.796  17.718  -4.676  1.00 20.00    -0.043 Cl
ENDBRANCH   7  10
TORSDOF 1
ENDMDL
MODEL 4
REMARK VINA RESULT:      -3.6     10.296     11.302
REMARK  1 active torsions:
REMARK  status: ('A' for Active; 'I' for Inactive)
REMARK    1  A    between atoms: C3_3  and  C8_8 
ROOT
HETATM    1  C1  UNL     1     -33.784   5.521   3.712  1.00 20.00    -0.079 C 
HETATM    2  C2  UNL     1     -33.182   5.285   2.543  1.00 20.00    -0.028 C 
HETATM    3  C4  UNL     1     -33.672   4.674   4.954  1.00 20.00     0.039 C 
HETATM    4  C5  UNL     1     -35.717   5.901   4.946  1.00 20.00     0.014 C 
HETATM    5  C6  UNL     1     -33.958   6.800   6.286  1.00 20.00     0.019 C 
HETATM    6  C7  UNL     1     -34.753   6.645   4.018  1.00 20.00     0.027 C 
HETATM    7  C8  UNL     1     -34.101   7.635   5.001  1.00 20.00     0.081 C 
HETATM    8  C9  UNL     1     -34.608   5.451   5.901  1.00 20.00    -0.009 C 
HETATM    9  C10 UNL     1     -32.284   4.120   2.284  1.00 20.00     0.036 C 
ENDROOT
BRANCH   7  10
HETATM   10  C3  UNL     1     -32.802   8.201   4.516  1.00 20.00     0.223 C 
HETATM   11  O11 UNL     1     -31.819   8.276   5.247  1.00 20.00    -0.279 OA
HETATM   12 CL12 UNL     1     -32.888   8.706   2.856  1.00 20.00    -0.043 Cl
ENDBRANCH   7  10
TORSDOF 1
ENDMDL
MODEL 5
REMARK VINA RESULT:      -3.5     13.107     14.519
REMARK  1 active torsions:
REMARK  status: ('A' for Active; 'I' for Inactive)
REMARK    1  A    between atoms: C3_3  and  C8_8 
ROOT
HETATM    1  C1  UNL     1     -36.034  17.076  -5.586  1.00 20.00    -0.079 C 
HETATM    2  C2  UNL     1     -36.759  17.528  -4.560  1.00 20.00    -0.028 C 
HETATM    3  C4  UNL     1     -34.685  17.594  -6.016  1.00 20.00     0.039 C 
HETATM    4  C5  UNL     1     -35.829  16.583  -7.849  1.00 20.00     0.014 C 
HETATM    5  C6  UNL     1     -34.162  15.246  -6.785  1.00 20.00     0.019 C 
HETATM    6  C7  UNL     1     -36.439  15.999  -6.572  1.00 20.00     0.027 C 
HETATM    7  C8  UNL     1     -35.558  14.753  -6.366  1.00 20.00     0.081 C 
HETATM    8  C9  UNL     1     -34.427  16.699  -7.244  1.00 20.00    -0.009 C 
HETATM    9  C10 UNL     1     -36.332  18.640  -3.659  1.00 20.00     0.036 C 
ENDROOT
BRANCH   7  10
HETATM   10  C3  UNL     1     -35.598  14.209  -4.971  1.00 20.00     0.223 C 
HETATM   11  O11 UNL     1     -36.601  13.664  -4.521  1.00 20.00    -0.279 OA
HETATM   12 CL12 UNL     1     -34.097  14.450  -4.132  1.00 20.00    -0.043 Cl
ENDBRANCH   7  10
TORSDOF 1
ENDMDL
MODEL 6
REMARK VINA RESULT:      -3.5     14.026     14.907
REMARK  1 active torsions:
REMARK  status: ('A' for Active; 'I' for Inactive)
REMARK    1  A    between atoms: C3_3  and  C8_8 
ROOT
HETATM    1  C1  UNL     1     -34.970  16.052  -4.876  1.00 20.00    -0.079 C 
HETATM    2  C2  UNL     1     -33.876  15.729  -4.182  1.00 20.00    -0.028 C 
HETATM    3  C4  UNL     1     -35.739  17.345  -4.769  1.00 20.00     0.039 C 
HETATM    4  C5  UNL     1     -37.145  15.583  -5.549  1.00 20.00     0.014 C 
HETATM    5  C6  UNL     1     -36.306  17.073  -7.215  1.00 20.00     0.019 C 
HETATM    6  C7  UNL     1     -35.706  15.171  -5.865  1.00 20.00     0.027 C 
HETATM    7  C8  UNL     1     -35.541  15.740  -7.287  1.00 20.00     0.081 C 
HETATM    8  C9  UNL     1     -36.874  17.073  -5.777  1.00 20.00    -0.009 C 
HETATM    9  C10 UNL     1     -33.232  16.620  -3.172  1.00 20.00     0.036 C 
ENDROOT
BRANCH   7  10
HETATM   10  C3  UNL     1     -34.113  15.900  -7.711  1.00 20.00     0.223 C 
HETATM   11  O11 UNL     1     -33.378  14.932  -7.879  1.00 20.00    -0.279 OA
HETATM   12 CL12 UNL     1     -33.676  17.568  -7.918  1.00 20.00    -0.043 Cl
ENDBRANCH   7  10
TORSDOF 1
ENDMDL
MODEL 7
REMARK VINA RESULT:      -3.5     13.077     13.966
REMARK  1 active torsions:
REMARK  status: ('A' for Active; 'I' for Inactive)
REMARK    1  A    between atoms: C3_3  and  C8_8 
ROOT
HETATM    1  C1  UNL     1     -34.109  16.408  -4.450  1.00 20.00    -0.079 C 
HETATM    2  C2  UNL     1     -33.568  17.288  -3.604  1.00 20.00    -0.028 C 
HETATM    3  C4  UNL     1     -34.429  14.966  -4.146  1.00 20.00     0.039 C 
HETATM    4  C5  UNL     1     -34.079  15.283  -6.484  1.00 20.00     0.014 C 
HETATM    5  C6  UNL     1     -36.354  15.175  -5.768  1.00 20.00     0.019 C 
HETATM    6  C7  UNL     1     -34.455  16.650  -5.905  1.00 20.00     0.027 C 
HETATM    7  C8  UNL     1     -35.984  16.635  -6.082  1.00 20.00     0.081 C 
HETATM    8  C9  UNL     1     -34.980  14.514  -5.513  1.00 20.00    -0.009 C 
HETATM    9  C10 UNL     1     -33.190  16.970  -2.194  1.00 20.00     0.036 C 
ENDROOT
BRANCH   7  10
HETATM   10  C3  UNL     1     -36.701  17.626  -5.217  1.00 20.00     0.223 C 
HETATM   11  O11 UNL     1     -37.607  17.286  -4.463  1.00 20.00    -0.279 OA
HETATM   12 CL12 UNL     1     -36.093  19.240  -5.429  1.00 20.00    -0.043 Cl
ENDBRANCH   7  10
TORSDOF 1
ENDMDL
MODEL 8
REMARK VINA RESULT:      -3.5     20.506     22.254
REMARK  1 active torsions:
REMARK  status: ('A' for Active; 'I' for Inactive)
REMARK    1  A    between atoms: C3_3  and  C8_8 
ROOT
HETATM    1  C1  UNL     1     -26.358  -3.182  10.662  1.00 20.00    -0.079 C 
HETATM    2  C2  UNL     1     -25.216  -2.947  10.011  1.00 20.00    -0.028 C 
HETATM    3  C4  UNL     1     -26.486  -3.750  12.052  1.00 20.00     0.039 C 
HETATM    4  C5  UNL     1     -28.447  -4.197  10.770  1.00 20.00     0.014 C 
HETATM    5  C6  UNL     1     -28.585  -2.367  12.296  1.00 20.00     0.019 C 
HETATM    6  C7  UNL     1     -27.761  -2.992  10.121  1.00 20.00     0.027 C 
HETATM    7  C8  UNL     1     -28.446  -1.828  10.861  1.00 20.00     0.081 C 
HETATM    8  C9  UNL     1     -28.021  -3.802  12.187  1.00 20.00    -0.009 C 
HETATM    9  C10 UNL     1     -23.860  -3.215  10.576  1.00 20.00     0.036 C 
ENDROOT
BRANCH   7  10
HETATM   10  C3  UNL     1     -27.691  -0.536  10.785  1.00 20.00     0.223 C 
HETATM   11  O11 UNL     1     -27.562   0.074   9.728  1.00 20.00    -0.279 OA
HETATM   12 CL12 UNL     1     -27.059  -0.056  12.330  1.00 20.00    -0.043 Cl
ENDBRANCH   7  10
TORSDOF 1
ENDMDL
MODEL 9
REMARK VINA RESULT:      -3.4      1.573      1.713
REMARK  1 active torsions:
REMARK  status: ('A' for Active; 'I' for Inactive)
REMARK    1  A    between atoms: C3_3  and  C8_8 
ROOT
HETATM    1  C1  UNL     1     -41.058  13.764   6.471  1.00 20.00    -0.079 C 
HETATM    2  C2  UNL     1     -39.904  13.094   6.414  1.00 20.00    -0.028 C 
HETATM    3  C4  UNL     1     -42.404  13.250   6.027  1.00 20.00     0.039 C 
HETATM    4  C5  UNL     1     -42.335  15.632   5.939  1.00 20.00     0.014 C 
HETATM    5  C6  UNL     1     -43.417  14.684   7.843  1.00 20.00     0.019 C 
HETATM    6  C7  UNL     1     -41.250  15.196   6.927  1.00 20.00     0.027 C 
HETATM    7  C8  UNL     1     -42.032  15.216   8.253  1.00 20.00     0.081 C 
HETATM    8  C9  UNL     1     -43.279  14.487   6.316  1.00 20.00    -0.009 C 
HETATM    9  C10 UNL     1     -39.769  11.701   5.894  1.00 20.00     0.036 C 
ENDROOT
BRANCH   7  10
HETATM   10  C3  UNL     1     -41.391  14.415   9.344  1.00 20.00     0.223 C 
HETATM   11  O11 UNL     1     -41.898  13.382   9.770  1.00 20.00    -0.279 OA
HETATM   12 CL12 UNL     1     -39.902  15.127   9.888  1.00 20.00    -0.043 Cl
ENDBRANCH   7  10
TORSDOF 1
ENDMDL
