MODEL 1
REMARK VINA RESULT:      -5.5      0.000      0.000
REMARK  2 active torsions:
REMARK  status: ('A' for Active; 'I' for Inactive)
REMARK    1  A    between atoms: C5_5  and  C7_7 
REMARK    2  A    between atoms: C7_7  and  O8_8 
ROOT
HETATM    1  C1  UNL     1     -33.395   5.637   3.158  1.00 20.00     0.013 C 
HETATM    2  C2  UNL     1     -33.523   7.739   4.562  1.00 20.00     0.013 C 
HETATM    3  C3  UNL     1     -33.907   4.816   4.339  1.00 20.00     0.079 C 
HETATM    4  C4  UNL     1     -34.035   6.918   5.743  1.00 20.00     0.079 C 
HETATM    5  C5  UNL     1     -32.647   6.895   3.624  1.00 20.00     0.009 C 
HETATM    6  C6  UNL     1     -34.750   5.661   5.279  1.00 20.00     0.243 C 
HETATM    7  F9  UNL     1     -35.905   6.009   4.654  1.00 20.00    -0.206 F 
HETATM    8  F10 UNL     1     -35.106   4.919   6.357  1.00 20.00    -0.206 F 
ENDROOT
BRANCH   5   9
HETATM    9  C7  UNL     1     -32.188   7.724   2.426  1.00 20.00     0.168 C 
BRANCH   9  10
HETATM   10  O8  UNL     1     -32.644   9.053   2.597  1.00 20.00    -0.400 OA
HETATM   11  H22 UNL     1     -31.897   9.640   2.387  1.00 20.00     0.209 HD
ENDBRANCH   9  10
ENDBRANCH   5   9
TORSDOF 2
ENDMDL
MODEL 2
REMARK VINA RESULT:      -5.3      1.079      2.066
REMARK  2 active torsions:
REMARK  status: ('A' for Active; 'I' for Inactive)
REMARK    1  A    between atoms: C5_5  and  C7_7 
REMARK    2  A    between atoms: C7_7  and  O8_8 
ROOT
HETATM    1  C1  UNL     1     -33.123   7.589   5.540  1.00 20.00     0.013 C 
HETATM    2  C2  UNL     1     -33.646   5.738   3.894  1.00 20.00     0.013 C 
HETATM    3  C3  UNL     1     -34.253   7.104   6.445  1.00 20.00     0.079 C 
HETATM    4  C4  UNL     1     -34.776   5.253   4.799  1.00 20.00     0.079 C 
HETATM    5  C5  UNL     1     -33.388   7.242   4.067  1.00 20.00     0.009 C 
HETATM    6  C6  UNL     1     -34.523   5.621   6.252  1.00 20.00     0.243 C 
HETATM    7  F9  UNL     1     -33.463   4.909   6.715  1.00 20.00    -0.206 F 
HETATM    8  F10 UNL     1     -35.591   5.255   7.003  1.00 20.00    -0.206 F 
ENDROOT
BRANCH   5   9
HETATM    9  C7  UNL     1     -32.222   7.693   3.189  1.00 20.00     0.168 C 
BRANCH   9  10
HETATM   10  O8  UNL     1     -32.578   8.911   2.563  1.00 20.00    -0.400 OA
HETATM   11  H22 UNL     1     -31.845   9.153   1.971  1.00 20.00     0.209 HD
ENDBRANCH   9  10
ENDBRANCH   5   9
TORSDOF 2
ENDMDL
MODEL 3
REMARK VINA RESULT:      -5.2      3.091      3.942
REMARK  2 active torsions:
REMARK  status: ('A' for Active; 'I' for Inactive)
REMARK    1  A    between atoms: C5_5  and  C7_7 
REMARK    2  A    between atoms: C7_7  and  O8_8 
ROOT
HETATM    1  C1  UNL     1     -32.895   6.026   3.257  1.00 20.00     0.013 C 
HETATM    2  C2  UNL     1     -33.940   7.038   5.328  1.00 20.00     0.013 C 
HETATM    3  C3  UNL     1     -32.586   7.425   2.729  1.00 20.00     0.079 C 
HETATM    4  C4  UNL     1     -33.631   8.437   4.800  1.00 20.00     0.079 C 
HETATM    5  C5  UNL     1     -34.119   6.028   4.185  1.00 20.00     0.009 C 
HETATM    6  C6  UNL     1     -32.436   8.427   3.862  1.00 20.00     0.243 C 
HETATM    7  F9  UNL     1     -31.314   8.137   4.570  1.00 20.00    -0.206 F 
HETATM    8  F10 UNL     1     -32.256   9.668   3.347  1.00 20.00    -0.206 F 
ENDROOT
BRANCH   5   9
HETATM    9  C7  UNL     1     -34.378   4.628   4.738  1.00 20.00     0.168 C 
BRANCH   9  10
HETATM   10  O8  UNL     1     -35.205   4.743   5.881  1.00 20.00    -0.400 OA
HETATM   11  H22 UNL     1     -35.012   5.605   6.287  1.00 20.00     0.209 HD
ENDBRANCH   9  10
ENDBRANCH   5   9
TORSDOF 2
ENDMDL
MODEL 4
REMARK VINA RESULT:      -4.7      2.144      2.768
REMARK  2 active torsions:
REMARK  status: ('A' for Active; 'I' for Inactive)
REMARK    1  A    between atoms: C5_5  and  C7_7 
REMARK    2  A    between atoms: C7_7  and  O8_8 
ROOT
HETATM    1  C1  UNL     1     -32.841   7.420   4.210  1.00 20.00     0.013 C 
HETATM    2  C2  UNL     1     -34.076   5.224   4.458  1.00 20.00     0.013 C 
HETATM    3  C3  UNL     1     -33.597   7.981   5.413  1.00 20.00     0.079 C 
HETATM    4  C4  UNL     1     -34.831   5.785   5.661  1.00 20.00     0.079 C 
HETATM    5  C5  UNL     1     -33.654   6.336   3.487  1.00 20.00     0.009 C 
HETATM    6  C6  UNL     1     -34.036   6.875   6.359  1.00 20.00     0.243 C 
HETATM    7  F9  UNL     1     -32.940   6.325   6.943  1.00 20.00    -0.206 F 
HETATM    8  F10 UNL     1     -34.780   7.406   7.360  1.00 20.00    -0.206 F 
ENDROOT
BRANCH   5   9
HETATM    9  C7  UNL     1     -32.858   5.758   2.318  1.00 20.00     0.168 C 
BRANCH   9  10
HETATM   10  O8  UNL     1     -32.695   4.368   2.530  1.00 20.00    -0.400 OA
HETATM   11  H22 UNL     1     -33.373   4.096   3.173  1.00 20.00     0.209 HD
ENDBRANCH   9  10
ENDBRANCH   5   9
TORSDOF 2
ENDMDL
MODEL 5
REMARK VINA RESULT:      -4.5      2.885      3.937
REMARK  2 active torsions:
REMARK  status: ('A' for Active; 'I' for Inactive)
REMARK    1  A    between atoms: C5_5  and  C7_7 
REMARK    2  A    between atoms: C7_7  and  O8_8 
ROOT
HETATM    1  C1  UNL     1     -34.106   6.890   5.252  1.00 20.00     0.013 C 
HETATM    2  C2  UNL     1     -32.903   6.281   3.110  1.00 20.00     0.013 C 
HETATM    3  C3  UNL     1     -33.258   8.154   5.369  1.00 20.00     0.079 C 
HETATM    4  C4  UNL     1     -32.055   7.545   3.227  1.00 20.00     0.079 C 
HETATM    5  C5  UNL     1     -33.368   5.782   4.486  1.00 20.00     0.009 C 
HETATM    6  C6  UNL     1     -32.777   8.630   4.008  1.00 20.00     0.243 C 
HETATM    7  F9  UNL     1     -33.841   9.068   3.286  1.00 20.00    -0.206 F 
HETATM    8  F10 UNL     1     -31.955   9.696   4.167  1.00 20.00    -0.206 F 
ENDROOT
BRANCH   5   9
HETATM    9  C7  UNL     1     -34.255   4.546   4.340  1.00 20.00     0.168 C 
BRANCH   9  10
HETATM   10  O8  UNL     1     -35.418   4.734   5.124  1.00 20.00    -0.400 OA
HETATM   11  H22 UNL     1     -35.347   4.135   5.888  1.00 20.00     0.209 HD
ENDBRANCH   9  10
ENDBRANCH   5   9
TORSDOF 2
ENDMDL
MODEL 6
REMARK VINA RESULT:      -4.3     16.350     17.200
REMARK  2 active torsions:
REMARK  status: ('A' for Active; 'I' for Inactive)
REMARK    1  A    between atoms: C5_5  and  C7_7 
REMARK    2  A    between atoms: C7_7  and  O8_8 
ROOT
HETATM    1  C1  UNL     1     -24.941  18.705  10.190  1.00 20.00     0.013 C 
HETATM    2  C2  UNL     1     -23.698  17.984  12.273  1.00 20.00     0.013 C 
HETATM    3  C3  UNL     1     -23.626  19.156   9.560  1.00 20.00     0.079 C 
HETATM    4  C4  UNL     1     -22.382  18.435  11.643  1.00 20.00     0.079 C 
HETATM    5  C5  UNL     1     -24.890  18.780  11.724  1.00 20.00     0.009 C 
HETATM    6  C6  UNL     1     -22.445  18.385  10.126  1.00 20.00     0.243 C 
HETATM    7  F9  UNL     1     -22.523  17.089   9.724  1.00 20.00    -0.206 F 
HETATM    8  F10 UNL     1     -21.293  18.879   9.609  1.00 20.00    -0.206 F 
ENDROOT
BRANCH   5   9
HETATM    9  C7  UNL     1     -26.199  18.279  12.331  1.00 20.00     0.168 C 
BRANCH   9  10
HETATM   10  O8  UNL     1     -26.326  16.898  12.047  1.00 20.00    -0.400 OA
HETATM   11  H22 UNL     1     -26.980  16.538  12.669  1.00 20.00     0.209 HD
ENDBRANCH   9  10
ENDBRANCH   5   9
TORSDOF 2
ENDMDL
MODEL 7
REMARK VINA RESULT:      -4.1     12.093     13.227
REMARK  2 active torsions:
REMARK  status: ('A' for Active; 'I' for Inactive)
REMARK    1  A    between atoms: C5_5  and  C7_7 
REMARK    2  A    between atoms: C7_7  and  O8_8 
ROOT
HETATM    1  C1  UNL     1     -34.095  14.863  -3.844  1.00 20.00     0.013 C 
HETATM    2  C2  UNL     1     -35.512  16.511  -5.142  1.00 20.00     0.013 C 
HETATM    3  C3  UNL     1     -33.035  15.942  -3.633  1.00 20.00     0.079 C 
HETATM    4  C4  UNL     1     -34.452  17.589  -4.931  1.00 20.00     0.079 C 
HETATM    5  C5  UNL     1     -34.898  15.104  -5.131  1.00 20.00     0.009 C 
HETATM    6  C6  UNL     1     -33.642  17.334  -3.671  1.00 20.00     0.243 C 
HETATM    7  F9  UNL     1     -34.440  17.504  -2.584  1.00 20.00    -0.206 F 
HETATM    8  F10 UNL     1     -32.656  18.260  -3.572  1.00 20.00    -0.206 F 
ENDROOT
BRANCH   5   9
HETATM    9  C7  UNL     1     -35.983  14.040  -5.295  1.00 20.00     0.168 C 
BRANCH   9  10
HETATM   10  O8  UNL     1     -35.678  12.953  -4.443  1.00 20.00    -0.400 OA
HETATM   11  H22 UNL     1     -36.520  12.524  -4.214  1.00 20.00     0.209 HD
ENDBRANCH   9  10
ENDBRANCH   5   9
TORSDOF 2
ENDMDL
MODEL 8
REMARK VINA RESULT:      -4.1      9.114      9.969
REMARK  2 active torsions:
REMARK  status: ('A' for Active; 'I' for Inactive)
REMARK    1  A    between atoms: C5_5  and  C7_7 
REMARK    2  A    between atoms: C7_7  and  O8_8 
ROOT
HETATM    1  C1  UNL     1     -43.002   6.584   1.456  1.00 20.00     0.013 C 
HETATM    2  C2  UNL     1     -41.736   5.325  -0.338  1.00 20.00     0.013 C 
HETATM    3  C3  UNL     1     -41.990   7.725   1.369  1.00 20.00     0.079 C 
HETATM    4  C4  UNL     1     -40.724   6.466  -0.424  1.00 20.00     0.079 C 
HETATM    5  C5  UNL     1     -42.375   5.240   1.055  1.00 20.00     0.009 C 
HETATM    6  C6  UNL     1     -41.340   7.789  -0.002  1.00 20.00     0.243 C 
HETATM    7  F9  UNL     1     -42.269   8.163  -0.921  1.00 20.00    -0.206 F 
HETATM    8  F10 UNL     1     -40.386   8.753  -0.006  1.00 20.00    -0.206 F 
ENDROOT
BRANCH   5   9
HETATM    9  C7  UNL     1     -43.417   4.124   1.103  1.00 20.00     0.168 C 
BRANCH   9  10
HETATM   10  O8  UNL     1     -43.417   3.457  -0.145  1.00 20.00    -0.400 OA
HETATM   11  H22 UNL     1     -42.566   3.651  -0.572  1.00 20.00     0.209 HD
ENDBRANCH   9  10
ENDBRANCH   5   9
TORSDOF 2
ENDMDL
MODEL 9
REMARK VINA RESULT:      -4.0     12.692     13.560
REMARK  2 active torsions:
REMARK  status: ('A' for Active; 'I' for Inactive)
REMARK    1  A    between atoms: C5_5  and  C7_7 
REMARK    2  A    between atoms: C7_7  and  O8_8 
ROOT
HETATM    1  C1  UNL     1     -34.447  17.413  -4.939  1.00 20.00     0.013 C 
HETATM    2  C2  UNL     1     -33.202  15.998  -3.250  1.00 20.00     0.013 C 
HETATM    3  C3  UNL     1     -34.766  18.434  -3.849  1.00 20.00     0.079 C 
HETATM    4  C4  UNL     1     -33.521  17.019  -2.160  1.00 20.00     0.079 C 
HETATM    5  C5  UNL     1     -34.265  16.003  -4.358  1.00 20.00     0.009 C 
HETATM    6  C6  UNL     1     -33.726  18.407  -2.741  1.00 20.00     0.243 C 
HETATM    7  F9  UNL     1     -32.544  18.869  -3.225  1.00 20.00    -0.206 F 
HETATM    8  F10 UNL     1     -34.096  19.260  -1.754  1.00 20.00    -0.206 F 
ENDROOT
BRANCH   5   9
HETATM    9  C7  UNL     1     -33.900  15.010  -5.460  1.00 20.00     0.168 C 
BRANCH   9  10
HETATM   10  O8  UNL     1     -33.284  13.884  -4.863  1.00 20.00    -0.400 OA
HETATM   11  H22 UNL     1     -32.660  14.219  -4.197  1.00 20.00     0.209 HD
ENDBRANCH   9  10
ENDBRANCH   5   9
TORSDOF 2
ENDMDL
