MODEL 1
REMARK VINA RESULT:      -5.2      0.000      0.000
REMARK  1 active torsions:
REMARK  status: ('A' for Active; 'I' for Inactive)
REMARK    1  A    between atoms: C3_3  and  C7_7 
ROOT
HETATM    1  C1  UNL     1     -34.372   5.743   6.626  1.00 20.00    -0.030 C 
HETATM    2  C2  UNL     1     -33.898   6.984   6.442  1.00 20.00    -0.025 C 
HETATM    3  C4  UNL     1     -34.909   4.936   5.477  1.00 20.00     0.027 C 
HETATM    4  C5  UNL     1     -34.267   5.299   4.131  1.00 20.00     0.010 C 
HETATM    5  C6  UNL     1     -33.909   7.667   5.143  1.00 20.00     0.025 A 
HETATM    6  C7  UNL     1     -32.793   7.450   4.157  1.00 20.00     0.085 A 
HETATM    7  C8  UNL     1     -34.135   6.785   3.934  1.00 20.00     0.007 A 
ENDROOT
BRANCH   6   8
HETATM    8  C3  UNL     1     -32.394   8.552   3.274  1.00 20.00     0.224 C 
HETATM    9  O9  UNL     1     -32.316   9.708   3.680  1.00 20.00    -0.279 OA
HETATM   10 CL10 UNL     1     -32.065   8.008   1.657  1.00 20.00    -0.043 Cl
ENDBRANCH   6   8
TORSDOF 1
ENDMDL
MODEL 2
REMARK VINA RESULT:      -5.0      0.550      1.691
REMARK  1 active torsions:
REMARK  status: ('A' for Active; 'I' for Inactive)
REMARK    1  A    between atoms: C3_3  and  C7_7 
ROOT
HETATM    1  C1  UNL     1     -35.021   5.020   5.217  1.00 20.00    -0.030 C 
HETATM    2  C2  UNL     1     -34.368   5.398   4.108  1.00 20.00    -0.025 C 
HETATM    3  C4  UNL     1     -34.691   5.614   6.557  1.00 20.00     0.027 C 
HETATM    4  C5  UNL     1     -34.142   7.045   6.465  1.00 20.00     0.010 C 
HETATM    5  C6  UNL     1     -33.265   6.366   4.114  1.00 20.00     0.025 A 
HETATM    6  C7  UNL     1     -33.545   7.843   4.056  1.00 20.00     0.085 A 
HETATM    7  C8  UNL     1     -33.128   7.207   5.364  1.00 20.00     0.007 A 
ENDROOT
BRANCH   6   8
HETATM    8  C3  UNL     1     -32.597   8.725   3.364  1.00 20.00     0.224 C 
HETATM    9  O9  UNL     1     -32.233   9.790   3.852  1.00 20.00    -0.279 OA
HETATM   10 CL10 UNL     1     -32.095   8.073   1.834  1.00 20.00    -0.043 Cl
ENDBRANCH   6   8
TORSDOF 1
ENDMDL
MODEL 3
REMARK VINA RESULT:      -4.4     11.943     12.480
REMARK  1 active torsions:
REMARK  status: ('A' for Active; 'I' for Inactive)
REMARK    1  A    between atoms: C3_3  and  C7_7 
ROOT
HETATM    1  C1  UNL     1     -33.698  17.869  -0.655  1.00 20.00    -0.030 C 
HETATM    2  C2  UNL     1     -33.771  18.161   0.652  1.00 20.00    -0.025 C 
HETATM    3  C4  UNL     1     -32.520  18.298  -1.484  1.00 20.00     0.027 C 
HETATM    4  C5  UNL     1     -31.223  18.423  -0.673  1.00 20.00     0.010 C 
HETATM    5  C6  UNL     1     -32.756  18.950   1.359  1.00 20.00     0.025 A 
HETATM    6  C7  UNL     1     -31.524  18.287   1.914  1.00 20.00     0.085 A 
HETATM    7  C8  UNL     1     -31.431  19.113   0.649  1.00 20.00     0.007 A 
ENDROOT
BRANCH   6   8
HETATM    8  C3  UNL     1     -30.923  18.810   3.146  1.00 20.00     0.224 C 
HETATM    9  O9  UNL     1     -31.610  19.261   4.058  1.00 20.00    -0.279 OA
HETATM   10 CL10 UNL     1     -29.189  18.705   3.125  1.00 20.00    -0.043 Cl
ENDBRANCH   6   8
TORSDOF 1
ENDMDL
MODEL 4
REMARK VINA RESULT:      -4.3      1.389      2.144
REMARK  1 active torsions:
REMARK  status: ('A' for Active; 'I' for Inactive)
REMARK    1  A    between atoms: C3_3  and  C7_7 
ROOT
HETATM    1  C1  UNL     1     -34.797   5.741   5.625  1.00 20.00    -0.030 C 
HETATM    2  C2  UNL     1     -34.347   5.656   4.364  1.00 20.00    -0.025 C 
HETATM    3  C4  UNL     1     -34.211   6.727   6.596  1.00 20.00     0.027 C 
HETATM    4  C5  UNL     1     -33.647   7.983   5.917  1.00 20.00     0.010 C 
HETATM    5  C6  UNL     1     -33.235   6.462   3.850  1.00 20.00     0.025 A 
HETATM    6  C7  UNL     1     -33.478   7.849   3.319  1.00 20.00     0.085 A 
HETATM    7  C8  UNL     1     -32.847   7.664   4.683  1.00 20.00     0.007 A 
ENDROOT
BRANCH   6   8
HETATM    8  C3  UNL     1     -32.648   8.349   2.217  1.00 20.00     0.224 C 
HETATM    9  O9  UNL     1     -31.850   7.625   1.630  1.00 20.00    -0.279 OA
HETATM   10 CL10 UNL     1     -32.944  10.029   1.886  1.00 20.00    -0.043 Cl
ENDBRANCH   6   8
TORSDOF 1
ENDMDL
MODEL 5
REMARK VINA RESULT:      -4.2     12.011     12.534
REMARK  1 active torsions:
REMARK  status: ('A' for Active; 'I' for Inactive)
REMARK    1  A    between atoms: C3_3  and  C7_7 
ROOT
HETATM    1  C1  UNL     1     -31.556  18.665   0.880  1.00 20.00    -0.030 C 
HETATM    2  C2  UNL     1     -31.245  18.523  -0.417  1.00 20.00    -0.025 C 
HETATM    3  C4  UNL     1     -32.984  18.787   1.330  1.00 20.00     0.027 C 
HETATM    4  C5  UNL     1     -33.975  18.077   0.397  1.00 20.00     0.010 C 
HETATM    5  C6  UNL     1     -32.245  18.528  -1.490  1.00 20.00     0.025 A 
HETATM    6  C7  UNL     1     -32.967  17.262  -1.866  1.00 20.00     0.085 A 
HETATM    7  C8  UNL     1     -33.681  18.326  -1.058  1.00 20.00     0.007 A 
ENDROOT
BRANCH   6   8
HETATM    8  C3  UNL     1     -33.363  17.051  -3.263  1.00 20.00     0.224 C 
HETATM    9  O9  UNL     1     -33.433  17.981  -4.061  1.00 20.00    -0.279 OA
HETATM   10 CL10 UNL     1     -33.699  15.381  -3.603  1.00 20.00    -0.043 Cl
ENDBRANCH   6   8
TORSDOF 1
ENDMDL
MODEL 6
REMARK VINA RESULT:      -4.2     12.017     13.106
REMARK  1 active torsions:
REMARK  status: ('A' for Active; 'I' for Inactive)
REMARK    1  A    between atoms: C3_3  and  C7_7 
ROOT
HETATM    1  C1  UNL     1     -33.836  16.526  -3.983  1.00 20.00    -0.030 C 
HETATM    2  C2  UNL     1     -33.530  16.306  -2.695  1.00 20.00    -0.025 C 
HETATM    3  C4  UNL     1     -33.991  17.921  -4.519  1.00 20.00     0.027 C 
HETATM    4  C5  UNL     1     -33.147  18.957  -3.764  1.00 20.00     0.010 C 
HETATM    5  C6  UNL     1     -33.376  17.381  -1.709  1.00 20.00     0.025 A 
HETATM    6  C7  UNL     1     -32.060  18.095  -1.557  1.00 20.00     0.085 A 
HETATM    7  C8  UNL     1     -33.208  18.776  -2.271  1.00 20.00     0.007 A 
ENDROOT
BRANCH   6   8
HETATM    8  C3  UNL     1     -31.661  18.584  -0.232  1.00 20.00     0.224 C 
HETATM    9  O9  UNL     1     -30.542  19.044  -0.025  1.00 20.00    -0.279 OA
HETATM   10 CL10 UNL     1     -32.936  18.424   0.936  1.00 20.00    -0.043 Cl
ENDBRANCH   6   8
TORSDOF 1
ENDMDL
MODEL 7
REMARK VINA RESULT:      -4.2      1.907      2.192
REMARK  1 active torsions:
REMARK  status: ('A' for Active; 'I' for Inactive)
REMARK    1  A    between atoms: C3_3  and  C7_7 
ROOT
HETATM    1  C1  UNL     1     -34.159   7.213   6.754  1.00 20.00    -0.030 C 
HETATM    2  C2  UNL     1     -33.628   7.726   5.634  1.00 20.00    -0.025 C 
HETATM    3  C4  UNL     1     -34.988   5.960   6.719  1.00 20.00     0.027 C 
HETATM    4  C5  UNL     1     -34.610   5.016   5.571  1.00 20.00     0.010 C 
HETATM    5  C6  UNL     1     -33.848   7.153   4.302  1.00 20.00     0.025 A 
HETATM    6  C7  UNL     1     -32.983   6.028   3.802  1.00 20.00     0.085 A 
HETATM    7  C8  UNL     1     -34.394   5.742   4.270  1.00 20.00     0.007 A 
ENDROOT
BRANCH   6   8
HETATM    8  C3  UNL     1     -32.682   5.939   2.369  1.00 20.00     0.224 C 
HETATM    9  O9  UNL     1     -32.779   4.882   1.753  1.00 20.00    -0.279 OA
HETATM   10 CL10 UNL     1     -32.192   7.470   1.707  1.00 20.00    -0.043 Cl
ENDBRANCH   6   8
TORSDOF 1
ENDMDL
MODEL 8
REMARK VINA RESULT:      -4.1     15.168     15.708
REMARK  1 active torsions:
REMARK  status: ('A' for Active; 'I' for Inactive)
REMARK    1  A    between atoms: C3_3  and  C7_7 
ROOT
HETATM    1  C1  UNL     1     -25.532  16.924  12.332  1.00 20.00    -0.030 C 
HETATM    2  C2  UNL     1     -24.419  16.395  11.803  1.00 20.00    -0.025 C 
HETATM    3  C4  UNL     1     -25.839  18.389  12.195  1.00 20.00     0.027 C 
HETATM    4  C5  UNL     1     -25.244  19.015  10.927  1.00 20.00     0.010 C 
HETATM    5  C6  UNL     1     -23.402  17.190  11.106  1.00 20.00     0.025 A 
HETATM    6  C7  UNL     1     -23.551  17.505   9.642  1.00 20.00     0.085 A 
HETATM    7  C8  UNL     1     -23.826  18.577  10.675  1.00 20.00     0.007 A 
ENDROOT
BRANCH   6   8
HETATM    8  C3  UNL     1     -22.349  17.618   8.808  1.00 20.00     0.224 C 
HETATM    9  O9  UNL     1     -21.348  16.940   9.023  1.00 20.00    -0.279 OA
HETATM   10 CL10 UNL     1     -22.540  18.791   7.540  1.00 20.00    -0.043 Cl
ENDBRANCH   6   8
TORSDOF 1
ENDMDL
MODEL 9
REMARK VINA RESULT:      -4.0      2.594      3.989
REMARK  1 active torsions:
REMARK  status: ('A' for Active; 'I' for Inactive)
REMARK    1  A    between atoms: C3_3  and  C7_7 
ROOT
HETATM    1  C1  UNL     1     -32.505   9.007   2.312  1.00 20.00    -0.030 C 
HETATM    2  C2  UNL     1     -32.866   9.161   3.595  1.00 20.00    -0.025 C 
HETATM    3  C4  UNL     1     -32.081   7.668   1.778  1.00 20.00     0.027 C 
HETATM    4  C5  UNL     1     -32.727   6.489   2.519  1.00 20.00     0.010 C 
HETATM    5  C6  UNL     1     -32.831   8.072   4.578  1.00 20.00     0.025 A 
HETATM    6  C7  UNL     1     -33.992   7.124   4.708  1.00 20.00     0.085 A 
HETATM    7  C8  UNL     1     -32.725   6.673   4.013  1.00 20.00     0.007 A 
ENDROOT
BRANCH   6   8
HETATM    8  C3  UNL     1     -34.313   6.563   6.026  1.00 20.00     0.224 C 
HETATM    9  O9  UNL     1     -34.380   7.268   7.028  1.00 20.00    -0.279 OA
HETATM   10 CL10 UNL     1     -34.570   4.846   5.961  1.00 20.00    -0.043 Cl
ENDBRANCH   6   8
TORSDOF 1
ENDMDL
