MODEL 1
REMARK VINA RESULT:      -5.4      0.000      0.000
REMARK  2 active torsions:
REMARK  status: ('A' for Active; 'I' for Inactive)
REMARK    1  A    between atoms: C2_2  and  C8_8 
REMARK    2  A    between atoms: C3_3  and  C7_7 
ROOT
HETATM    1  C1  UNL     1     -33.026   7.402   4.019  1.00 20.00    -0.062 A 
HETATM    2  C2  UNL     1     -33.673   6.258   4.067  1.00 20.00    -0.076 C 
HETATM    3  C4  UNL     1     -32.881   8.684   4.582  1.00 20.00     0.055 A 
HETATM    4  C7  UNL     1     -32.014   8.153   3.380  1.00 20.00     0.120 A 
HETATM    5  C9  UNL     1     -33.382   5.113   3.120  1.00 20.00     0.044 C 
ENDROOT
BRANCH   2   6
HETATM    6  C8  UNL     1     -34.770   5.980   5.073  1.00 20.00     0.014 A 
HETATM    7  C5  UNL     1     -34.519   4.908   6.058  1.00 20.00     0.010 A 
HETATM    8  C6  UNL     1     -34.501   6.347   6.477  1.00 20.00     0.010 A 
ENDBRANCH   2   6
BRANCH   4   9
HETATM    9  C3  UNL     1     -32.351   8.632   2.058  1.00 20.00     0.181 C 
HETATM   10  O10 UNL     1     -32.905   9.766   2.021  1.00 20.00    -0.647 OA
HETATM   11  O11 UNL     1     -32.045   7.849   1.117  1.00 20.00    -0.647 OA
ENDBRANCH   4   9
TORSDOF 2
ENDMDL
MODEL 2
REMARK VINA RESULT:      -4.5     11.668     12.696
REMARK  2 active torsions:
REMARK  status: ('A' for Active; 'I' for Inactive)
REMARK    1  A    between atoms: C2_2  and  C8_8 
REMARK    2  A    between atoms: C3_3  and  C7_7 
ROOT
HETATM    1  C1  UNL     1     -34.055  15.835  -4.238  1.00 20.00    -0.062 A 
HETATM    2  C2  UNL     1     -33.994  16.901  -3.469  1.00 20.00    -0.076 C 
HETATM    3  C4  UNL     1     -33.568  14.535  -4.469  1.00 20.00     0.055 A 
HETATM    4  C7  UNL     1     -34.656  15.234  -5.367  1.00 20.00     0.120 A 
HETATM    5  C9  UNL     1     -34.831  18.138  -3.718  1.00 20.00     0.044 C 
ENDROOT
BRANCH   2   6
HETATM    6  C8  UNL     1     -33.081  16.991  -2.265  1.00 20.00     0.014 A 
HETATM    7  C5  UNL     1     -32.695  18.344  -1.818  1.00 20.00     0.010 A 
HETATM    8  C6  UNL     1     -33.665  17.526  -1.020  1.00 20.00     0.010 A 
ENDBRANCH   2   6
BRANCH   4   9
HETATM    9  C3  UNL     1     -34.222  15.760  -6.642  1.00 20.00     0.181 C 
HETATM   10  O10 UNL     1     -34.483  16.980  -6.839  1.00 20.00    -0.647 OA
HETATM   11  O11 UNL     1     -33.638  14.926  -7.388  1.00 20.00    -0.647 OA
ENDBRANCH   4   9
TORSDOF 2
ENDMDL
MODEL 3
REMARK VINA RESULT:      -4.5      2.865      4.443
REMARK  2 active torsions:
REMARK  status: ('A' for Active; 'I' for Inactive)
REMARK    1  A    between atoms: C2_2  and  C8_8 
REMARK    2  A    between atoms: C3_3  and  C7_7 
ROOT
HETATM    1  C1  UNL     1     -33.825   6.652   4.107  1.00 20.00    -0.062 A 
HETATM    2  C2  UNL     1     -32.966   6.516   3.121  1.00 20.00    -0.076 C 
HETATM    3  C4  UNL     1     -34.299   7.491   5.134  1.00 20.00     0.055 A 
HETATM    4  C7  UNL     1     -34.887   6.062   4.831  1.00 20.00     0.120 A 
HETATM    5  C9  UNL     1     -32.898   5.272   2.261  1.00 20.00     0.044 C 
ENDROOT
BRANCH   2   6
HETATM    6  C8  UNL     1     -31.964   7.590   2.754  1.00 20.00     0.014 A 
HETATM    7  C5  UNL     1     -32.048   8.145   1.388  1.00 20.00     0.010 A 
HETATM    8  C6  UNL     1     -32.486   8.958   2.569  1.00 20.00     0.010 A 
ENDBRANCH   2   6
BRANCH   4   9
HETATM    9  C3  UNL     1     -34.500   4.986   5.715  1.00 20.00     0.181 C 
HETATM   10  O10 UNL     1     -34.669   5.212   6.945  1.00 20.00    -0.647 OA
HETATM   11  O11 UNL     1     -34.043   3.962   5.134  1.00 20.00    -0.647 OA
ENDBRANCH   4   9
TORSDOF 2
ENDMDL
MODEL 4
REMARK VINA RESULT:      -4.3     11.554     12.853
REMARK  2 active torsions:
REMARK  status: ('A' for Active; 'I' for Inactive)
REMARK    1  A    between atoms: C2_2  and  C8_8 
REMARK    2  A    between atoms: C3_3  and  C7_7 
ROOT
HETATM    1  C1  UNL     1     -34.702  16.619  -5.127  1.00 20.00    -0.062 A 
HETATM    2  C2  UNL     1     -33.964  16.566  -4.040  1.00 20.00    -0.076 C 
HETATM    3  C4  UNL     1     -35.720  17.308  -5.813  1.00 20.00     0.055 A 
HETATM    4  C7  UNL     1     -34.992  16.032  -6.379  1.00 20.00     0.120 A 
HETATM    5  C9  UNL     1     -32.916  15.497  -3.813  1.00 20.00     0.044 C 
ENDROOT
BRANCH   2   6
HETATM    6  C8  UNL     1     -34.093  17.569  -2.913  1.00 20.00     0.014 A 
HETATM    7  C5  UNL     1     -33.582  17.158  -1.589  1.00 20.00     0.010 A 
HETATM    8  C6  UNL     1     -32.844  18.174  -2.408  1.00 20.00     0.010 A 
ENDBRANCH   2   6
BRANCH   4   9
HETATM    9  C3  UNL     1     -35.709  14.778  -6.315  1.00 20.00     0.181 C 
HETATM   10  O10 UNL     1     -35.827  14.284  -5.159  1.00 20.00    -0.647 OA
HETATM   11  O11 UNL     1     -36.123  14.347  -7.427  1.00 20.00    -0.647 OA
ENDBRANCH   4   9
TORSDOF 2
ENDMDL
MODEL 5
REMARK VINA RESULT:      -4.1     10.245     11.243
REMARK  2 active torsions:
REMARK  status: ('A' for Active; 'I' for Inactive)
REMARK    1  A    between atoms: C2_2  and  C8_8 
REMARK    2  A    between atoms: C3_3  and  C7_7 
ROOT
HETATM    1  C1  UNL     1     -40.729  14.036   7.094  1.00 20.00    -0.062 A 
HETATM    2  C2  UNL     1     -40.755  13.337   5.981  1.00 20.00    -0.076 C 
HETATM    3  C4  UNL     1     -40.239  14.113   8.411  1.00 20.00     0.055 A 
HETATM    4  C7  UNL     1     -41.164  15.206   7.757  1.00 20.00     0.120 A 
HETATM    5  C9  UNL     1     -41.524  13.779   4.754  1.00 20.00     0.044 C 
ENDROOT
BRANCH   2   6
HETATM    6  C8  UNL     1     -40.018  12.024   5.821  1.00 20.00     0.014 A 
HETATM    7  C5  UNL     1     -39.418  11.749   4.499  1.00 20.00     0.010 A 
HETATM    8  C6  UNL     1     -38.550  12.093   5.672  1.00 20.00     0.010 A 
ENDBRANCH   2   6
BRANCH   4   9
HETATM    9  C3  UNL     1     -42.557  15.209   8.140  1.00 20.00     0.181 C 
HETATM   10  O10 UNL     1     -43.226  14.213   7.747  1.00 20.00    -0.647 OA
HETATM   11  O11 UNL     1     -42.918  16.211   8.819  1.00 20.00    -0.647 OA
ENDBRANCH   4   9
TORSDOF 2
ENDMDL
MODEL 6
REMARK VINA RESULT:      -4.0     11.645     12.702
REMARK  2 active torsions:
REMARK  status: ('A' for Active; 'I' for Inactive)
REMARK    1  A    between atoms: C2_2  and  C8_8 
REMARK    2  A    between atoms: C3_3  and  C7_7 
ROOT
HETATM    1  C1  UNL     1     -33.561  18.309  -0.512  1.00 20.00    -0.062 A 
HETATM    2  C2  UNL     1     -33.909  17.870  -1.701  1.00 20.00    -0.076 C 
HETATM    3  C4  UNL     1     -33.801  19.263   0.495  1.00 20.00     0.055 A 
HETATM    4  C7  UNL     1     -32.709  18.133   0.602  1.00 20.00     0.120 A 
HETATM    5  C9  UNL     1     -33.240  16.684  -2.364  1.00 20.00     0.044 C 
ENDROOT
BRANCH   2   6
HETATM    6  C8  UNL     1     -35.011  18.509  -2.520  1.00 20.00     0.014 A 
HETATM    7  C5  UNL     1     -34.609  19.191  -3.767  1.00 20.00     0.010 A 
HETATM    8  C6  UNL     1     -35.334  17.880  -3.815  1.00 20.00     0.010 A 
ENDBRANCH   2   6
BRANCH   4   9
HETATM    9  C3  UNL     1     -31.333  18.521   0.386  1.00 20.00     0.181 C 
HETATM   10  O10 UNL     1     -31.048  18.859  -0.796  1.00 20.00    -0.647 OA
HETATM   11  O11 UNL     1     -30.600  18.468   1.414  1.00 20.00    -0.647 OA
ENDBRANCH   4   9
TORSDOF 2
ENDMDL
MODEL 7
REMARK VINA RESULT:      -4.0     11.471     13.013
REMARK  2 active torsions:
REMARK  status: ('A' for Active; 'I' for Inactive)
REMARK    1  A    between atoms: C2_2  and  C8_8 
REMARK    2  A    between atoms: C3_3  and  C7_7 
ROOT
HETATM    1  C1  UNL     1     -34.700  16.747  -5.193  1.00 20.00    -0.062 A 
HETATM    2  C2  UNL     1     -33.904  16.366  -4.218  1.00 20.00    -0.076 C 
HETATM    3  C4  UNL     1     -35.364  17.829  -5.801  1.00 20.00     0.055 A 
HETATM    4  C7  UNL     1     -35.446  16.346  -6.325  1.00 20.00     0.120 A 
HETATM    5  C9  UNL     1     -33.476  14.926  -4.026  1.00 20.00     0.044 C 
ENDROOT
BRANCH   2   6
HETATM    6  C8  UNL     1     -33.342  17.331  -3.195  1.00 20.00     0.014 A 
HETATM    7  C5  UNL     1     -34.315  18.054  -2.352  1.00 20.00     0.010 A 
HETATM    8  C6  UNL     1     -33.476  16.954  -1.774  1.00 20.00     0.010 A 
ENDBRANCH   2   6
BRANCH   4   9
HETATM    9  C3  UNL     1     -36.652  15.607  -6.031  1.00 20.00     0.181 C 
HETATM   10  O10 UNL     1     -37.729  16.186  -6.343  1.00 20.00    -0.647 OA
HETATM   11  O11 UNL     1     -36.465  14.476  -5.501  1.00 20.00    -0.647 OA
ENDBRANCH   4   9
TORSDOF 2
ENDMDL
MODEL 8
REMARK VINA RESULT:      -3.9     10.431     11.522
REMARK  2 active torsions:
REMARK  status: ('A' for Active; 'I' for Inactive)
REMARK    1  A    between atoms: C2_2  and  C8_8 
REMARK    2  A    between atoms: C3_3  and  C7_7 
ROOT
HETATM    1  C1  UNL     1     -41.019  14.258   7.934  1.00 20.00    -0.062 A 
HETATM    2  C2  UNL     1     -41.050  13.373   6.962  1.00 20.00    -0.076 C 
HETATM    3  C4  UNL     1     -40.259  15.248   8.585  1.00 20.00     0.055 A 
HETATM    4  C7  UNL     1     -41.723  14.851   9.007  1.00 20.00     0.120 A 
HETATM    5  C9  UNL     1     -42.253  12.492   6.697  1.00 20.00     0.044 C 
ENDROOT
BRANCH   2   6
HETATM    6  C8  UNL     1     -39.888  13.152   6.017  1.00 20.00     0.014 A 
HETATM    7  C5  UNL     1     -39.038  11.970   6.267  1.00 20.00     0.010 A 
HETATM    8  C6  UNL     1     -39.980  11.999   5.101  1.00 20.00     0.010 A 
ENDBRANCH   2   6
BRANCH   4   9
HETATM    9  C3  UNL     1     -41.870  14.015  10.177  1.00 20.00     0.181 C 
HETATM   10  O10 UNL     1     -41.321  14.453  11.225  1.00 20.00    -0.647 OA
HETATM   11  O11 UNL     1     -42.532  12.956   9.991  1.00 20.00    -0.647 OA
ENDBRANCH   4   9
TORSDOF 2
ENDMDL
MODEL 9
REMARK VINA RESULT:      -3.9      9.170     10.118
REMARK  2 active torsions:
REMARK  status: ('A' for Active; 'I' for Inactive)
REMARK    1  A    between atoms: C2_2  and  C8_8 
REMARK    2  A    between atoms: C3_3  and  C7_7 
ROOT
HETATM    1  C1  UNL     1     -40.064  12.991   6.575  1.00 20.00    -0.062 A 
HETATM    2  C2  UNL     1     -40.733  14.070   6.918  1.00 20.00    -0.076 C 
HETATM    3  C4  UNL     1     -38.940  12.185   6.835  1.00 20.00     0.055 A 
HETATM    4  C7  UNL     1     -39.999  11.873   5.713  1.00 20.00     0.120 A 
HETATM    5  C9  UNL     1     -42.007  14.498   6.221  1.00 20.00     0.044 C 
ENDROOT
BRANCH   2   6
HETATM    6  C8  UNL     1     -40.292  14.985   8.041  1.00 20.00     0.014 A 
HETATM    7  C5  UNL     1     -41.350  15.526   8.918  1.00 20.00     0.010 A 
HETATM    8  C6  UNL     1     -40.416  14.465   9.417  1.00 20.00     0.010 A 
ENDBRANCH   2   6
BRANCH   4   9
HETATM    9  C3  UNL     1     -39.626  12.173   4.349  1.00 20.00     0.181 C 
HETATM   10  O10 UNL     1     -38.609  11.561   3.921  1.00 20.00    -0.647 OA
HETATM   11  O11 UNL     1     -40.372  13.011   3.769  1.00 20.00    -0.647 OA
ENDBRANCH   4   9
TORSDOF 2
ENDMDL
