MODEL 1
REMARK VINA RESULT:      -4.3      0.000      0.000
REMARK  2 active torsions:
REMARK  status: ('A' for Active; 'I' for Inactive)
REMARK    1  A    between atoms: C3_3  and  C6_6 
REMARK    2  A    between atoms: C7_7  and  O11_11 
ROOT
HETATM    1  C1  UNL     1     -32.744   8.344   3.947  1.00 20.00    -0.023 C 
HETATM    2  C2  UNL     1     -32.621   7.462   2.942  1.00 20.00    -0.085 C 
HETATM    3  C4  UNL     1     -33.355   8.013   5.276  1.00 20.00     0.042 C 
HETATM    4  C5  UNL     1     -33.117   6.044   3.063  1.00 20.00     0.071 C 
HETATM    5  C6  UNL     1     -33.564   6.508   5.501  1.00 20.00     0.084 C 
HETATM    6  C7  UNL     1     -34.096   5.798   4.235  1.00 20.00     0.068 C 
HETATM    7  C8  UNL     1     -31.971   7.829   1.641  1.00 20.00     0.043 C 
HETATM    8  C9  UNL     1     -35.519   6.231   3.849  1.00 20.00     0.047 C 
ENDROOT
BRANCH   6   9
HETATM    9  O11 UNL     1     -34.105   4.382   4.452  1.00 20.00    -0.389 OA
HETATM   10  H25 UNL     1     -34.080   3.981   3.574  1.00 20.00     0.210 HD
ENDBRANCH   6   9
BRANCH   5  11
HETATM   11  C3  UNL     1     -34.452   6.304   6.700  1.00 20.00     0.238 C 
HETATM   12  O10 UNL     1     -34.953   5.223   6.995  1.00 20.00    -0.306 OA
ENDBRANCH   5  11
TORSDOF 2
ENDMDL
MODEL 2
REMARK VINA RESULT:      -4.0     12.614     14.169
REMARK  2 active torsions:
REMARK  status: ('A' for Active; 'I' for Inactive)
REMARK    1  A    between atoms: C3_3  and  C6_6 
REMARK    2  A    between atoms: C7_7  and  O11_11 
ROOT
HETATM    1  C1  UNL     1     -33.753  15.286  -3.792  1.00 20.00    -0.023 C 
HETATM    2  C2  UNL     1     -33.662  16.590  -3.483  1.00 20.00    -0.085 C 
HETATM    3  C4  UNL     1     -34.285  14.774  -5.097  1.00 20.00     0.042 C 
HETATM    4  C5  UNL     1     -34.117  17.666  -4.435  1.00 20.00     0.071 C 
HETATM    5  C6  UNL     1     -34.446  15.864  -6.167  1.00 20.00     0.084 C 
HETATM    6  C7  UNL     1     -35.027  17.172  -5.584  1.00 20.00     0.068 C 
HETATM    7  C8  UNL     1     -33.091  17.058  -2.178  1.00 20.00     0.043 C 
HETATM    8  C9  UNL     1     -36.478  17.029  -5.100  1.00 20.00     0.047 C 
ENDROOT
BRANCH   6   9
HETATM    9  O11 UNL     1     -34.991  18.196  -6.586  1.00 20.00    -0.389 OA
HETATM   10  H25 UNL     1     -35.257  19.010  -6.139  1.00 20.00     0.210 HD
ENDBRANCH   6   9
BRANCH   5  11
HETATM   11  C3  UNL     1     -35.265  15.321  -7.309  1.00 20.00     0.238 C 
HETATM   12  O10 UNL     1     -35.963  14.315  -7.222  1.00 20.00    -0.306 OA
ENDBRANCH   5  11
TORSDOF 2
ENDMDL
MODEL 3
REMARK VINA RESULT:      -4.0     11.783     13.269
REMARK  2 active torsions:
REMARK  status: ('A' for Active; 'I' for Inactive)
REMARK    1  A    between atoms: C3_3  and  C6_6 
REMARK    2  A    between atoms: C7_7  and  O11_11 
ROOT
HETATM    1  C1  UNL     1     -33.816  17.823  -4.152  1.00 20.00    -0.023 C 
HETATM    2  C2  UNL     1     -33.553  17.079  -3.065  1.00 20.00    -0.085 C 
HETATM    3  C4  UNL     1     -34.464  17.285  -5.392  1.00 20.00     0.042 C 
HETATM    4  C5  UNL     1     -33.875  15.608  -3.012  1.00 20.00     0.071 C 
HETATM    5  C6  UNL     1     -35.069  15.885  -5.215  1.00 20.00     0.084 C 
HETATM    6  C7  UNL     1     -34.154  14.955  -4.386  1.00 20.00     0.068 C 
HETATM    7  C8  UNL     1     -32.933  17.667  -1.833  1.00 20.00     0.043 C 
HETATM    8  C9  UNL     1     -32.837  14.610  -5.097  1.00 20.00     0.047 C 
ENDROOT
BRANCH   6   9
HETATM    9  O11 UNL     1     -34.844  13.730  -4.110  1.00 20.00    -0.389 OA
HETATM   10  H25 UNL     1     -34.872  13.249  -4.946  1.00 20.00     0.210 HD
ENDBRANCH   6   9
BRANCH   5  11
HETATM   11  C3  UNL     1     -35.408  15.315  -6.567  1.00 20.00     0.238 C 
HETATM   12  O10 UNL     1     -36.002  14.253  -6.724  1.00 20.00    -0.306 OA
ENDBRANCH   5  11
TORSDOF 2
ENDMDL
MODEL 4
REMARK VINA RESULT:      -3.9     12.618     14.407
REMARK  2 active torsions:
REMARK  status: ('A' for Active; 'I' for Inactive)
REMARK    1  A    between atoms: C3_3  and  C6_6 
REMARK    2  A    between atoms: C7_7  and  O11_11 
ROOT
HETATM    1  C1  UNL     1     -34.667  17.557  -4.557  1.00 20.00    -0.023 C 
HETATM    2  C2  UNL     1     -34.168  16.375  -4.162  1.00 20.00    -0.085 C 
HETATM    3  C4  UNL     1     -35.634  17.717  -5.691  1.00 20.00     0.042 C 
HETATM    4  C5  UNL     1     -34.532  15.087  -4.856  1.00 20.00     0.071 C 
HETATM    5  C6  UNL     1     -36.236  16.391  -6.180  1.00 20.00     0.084 C 
HETATM    6  C7  UNL     1     -35.182  15.262  -6.248  1.00 20.00     0.068 C 
HETATM    7  C8  UNL     1     -33.228  16.259  -2.999  1.00 20.00     0.043 C 
HETATM    8  C9  UNL     1     -34.107  15.501  -7.320  1.00 20.00     0.047 C 
ENDROOT
BRANCH   6   9
HETATM    9  O11 UNL     1     -35.833  14.020  -6.541  1.00 20.00    -0.389 OA
HETATM   10  H25 UNL     1     -36.696  14.255  -6.906  1.00 20.00     0.210 HD
ENDBRANCH   6   9
BRANCH   5  11
HETATM   11  C3  UNL     1     -36.934  16.617  -7.495  1.00 20.00     0.238 C 
HETATM   12  O10 UNL     1     -37.830  15.894  -7.918  1.00 20.00    -0.306 OA
ENDBRANCH   5  11
TORSDOF 2
ENDMDL
MODEL 5
REMARK VINA RESULT:      -3.7     12.363     13.503
REMARK  2 active torsions:
REMARK  status: ('A' for Active; 'I' for Inactive)
REMARK    1  A    between atoms: C3_3  and  C6_6 
REMARK    2  A    between atoms: C7_7  and  O11_11 
ROOT
HETATM    1  C1  UNL     1     -33.802  14.991  -5.338  1.00 20.00    -0.023 C 
HETATM    2  C2  UNL     1     -34.934  15.543  -5.805  1.00 20.00    -0.085 C 
HETATM    3  C4  UNL     1     -33.130  15.419  -4.067  1.00 20.00     0.042 C 
HETATM    4  C5  UNL     1     -35.623  16.674  -5.086  1.00 20.00     0.071 C 
HETATM    5  C6  UNL     1     -33.994  16.338  -3.191  1.00 20.00     0.084 C 
HETATM    6  C7  UNL     1     -34.755  17.393  -4.026  1.00 20.00     0.068 C 
HETATM    7  C8  UNL     1     -35.591  15.060  -7.064  1.00 20.00     0.043 C 
HETATM    8  C9  UNL     1     -33.829  18.421  -4.694  1.00 20.00     0.047 C 
ENDROOT
BRANCH   6   9
HETATM    9  O11 UNL     1     -35.668  18.101  -3.180  1.00 20.00    -0.389 OA
HETATM   10  H25 UNL     1     -35.120  18.608  -2.567  1.00 20.00     0.210 HD
ENDBRANCH   6   9
BRANCH   5  11
HETATM   11  C3  UNL     1     -33.133  16.953  -2.119  1.00 20.00     0.238 C 
HETATM   12  O10 UNL     1     -33.583  17.427  -1.080  1.00 20.00    -0.306 OA
ENDBRANCH   5  11
TORSDOF 2
ENDMDL
MODEL 6
REMARK VINA RESULT:      -3.7     11.750     13.379
REMARK  2 active torsions:
REMARK  status: ('A' for Active; 'I' for Inactive)
REMARK    1  A    between atoms: C3_3  and  C6_6 
REMARK    2  A    between atoms: C7_7  and  O11_11 
ROOT
HETATM    1  C1  UNL     1     -35.701  16.909  -5.653  1.00 20.00    -0.023 C 
HETATM    2  C2  UNL     1     -35.186  16.029  -6.527  1.00 20.00    -0.085 C 
HETATM    3  C4  UNL     1     -35.101  17.199  -4.310  1.00 20.00     0.042 C 
HETATM    4  C5  UNL     1     -33.948  15.228  -6.211  1.00 20.00     0.071 C 
HETATM    5  C6  UNL     1     -33.688  16.625  -4.128  1.00 20.00     0.084 C 
HETATM    6  C7  UNL     1     -33.558  15.200  -4.715  1.00 20.00     0.068 C 
HETATM    7  C8  UNL     1     -35.800  15.796  -7.875  1.00 20.00     0.043 C 
HETATM    8  C9  UNL     1     -34.392  14.155  -3.959  1.00 20.00     0.047 C 
ENDROOT
BRANCH   6   9
HETATM    9  O11 UNL     1     -32.186  14.791  -4.671  1.00 20.00    -0.389 OA
HETATM   10  H25 UNL     1     -31.786  15.287  -3.945  1.00 20.00     0.210 HD
ENDBRANCH   6   9
BRANCH   5  11
HETATM   11  C3  UNL     1     -33.308  16.692  -2.673  1.00 20.00     0.238 C 
HETATM   12  O10 UNL     1     -33.959  17.304  -1.832  1.00 20.00    -0.306 OA
ENDBRANCH   5  11
TORSDOF 2
ENDMDL
MODEL 7
REMARK VINA RESULT:      -3.7      2.316      4.275
REMARK  2 active torsions:
REMARK  status: ('A' for Active; 'I' for Inactive)
REMARK    1  A    between atoms: C3_3  and  C6_6 
REMARK    2  A    between atoms: C7_7  and  O11_11 
ROOT
HETATM    1  C1  UNL     1     -34.014   5.394   4.036  1.00 20.00    -0.023 C 
HETATM    2  C2  UNL     1     -34.042   5.797   5.317  1.00 20.00    -0.085 C 
HETATM    3  C4  UNL     1     -33.250   6.102   2.958  1.00 20.00     0.042 C 
HETATM    4  C5  UNL     1     -33.312   7.031   5.779  1.00 20.00     0.071 C 
HETATM    5  C6  UNL     1     -32.268   7.157   3.488  1.00 20.00     0.084 C 
HETATM    6  C7  UNL     1     -32.871   7.986   4.645  1.00 20.00     0.068 C 
HETATM    7  C8  UNL     1     -34.793   5.037   6.371  1.00 20.00     0.043 C 
HETATM    8  C9  UNL     1     -34.041   8.879   4.205  1.00 20.00     0.047 C 
ENDROOT
BRANCH   6   9
HETATM    9  O11 UNL     1     -31.856   8.827   5.207  1.00 20.00    -0.389 OA
HETATM   10  H25 UNL     1     -31.181   8.918   4.522  1.00 20.00     0.210 HD
ENDBRANCH   6   9
BRANCH   5  11
HETATM   11  C3  UNL     1     -31.794   8.013   2.343  1.00 20.00     0.238 C 
HETATM   12  O10 UNL     1     -32.168   7.861   1.184  1.00 20.00    -0.306 OA
ENDBRANCH   5  11
TORSDOF 2
ENDMDL
MODEL 8
REMARK VINA RESULT:      -3.6     12.441     13.987
REMARK  2 active torsions:
REMARK  status: ('A' for Active; 'I' for Inactive)
REMARK    1  A    between atoms: C3_3  and  C6_6 
REMARK    2  A    between atoms: C7_7  and  O11_11 
ROOT
HETATM    1  C1  UNL     1     -33.110  17.079  -1.717  1.00 20.00    -0.023 C 
HETATM    2  C2  UNL     1     -32.764  18.343  -2.014  1.00 20.00    -0.085 C 
HETATM    3  C4  UNL     1     -33.677  16.115  -2.715  1.00 20.00     0.042 C 
HETATM    4  C5  UNL     1     -32.943  18.911  -3.398  1.00 20.00     0.071 C 
HETATM    5  C6  UNL     1     -33.561  16.592  -4.170  1.00 20.00     0.084 C 
HETATM    6  C7  UNL     1     -33.884  18.097  -4.317  1.00 20.00     0.068 C 
HETATM    7  C8  UNL     1     -32.168  19.263  -0.991  1.00 20.00     0.043 C 
HETATM    8  C9  UNL     1     -35.353  18.434  -4.021  1.00 20.00     0.047 C 
ENDROOT
BRANCH   6   9
HETATM    9  O11 UNL     1     -33.591  18.517  -5.655  1.00 20.00    -0.389 OA
HETATM   10  H25 UNL     1     -33.974  17.844  -6.232  1.00 20.00     0.210 HD
ENDBRANCH   6   9
BRANCH   5  11
HETATM   11  C3  UNL     1     -34.422  15.723  -5.048  1.00 20.00     0.238 C 
HETATM   12  O10 UNL     1     -33.984  15.065  -5.986  1.00 20.00    -0.306 OA
ENDBRANCH   5  11
TORSDOF 2
ENDMDL
MODEL 9
REMARK VINA RESULT:      -3.6      1.610      2.204
REMARK  2 active torsions:
REMARK  status: ('A' for Active; 'I' for Inactive)
REMARK    1  A    between atoms: C3_3  and  C6_6 
REMARK    2  A    between atoms: C7_7  and  O11_11 
ROOT
HETATM    1  C1  UNL     1     -32.619   6.445   2.865  1.00 20.00    -0.023 C 
HETATM    2  C2  UNL     1     -33.056   5.175   2.851  1.00 20.00    -0.085 C 
HETATM    3  C4  UNL     1     -32.894   7.408   3.980  1.00 20.00     0.042 C 
HETATM    4  C5  UNL     1     -33.896   4.611   3.968  1.00 20.00     0.071 C 
HETATM    5  C6  UNL     1     -33.469   6.746   5.240  1.00 20.00     0.084 C 
HETATM    6  C7  UNL     1     -34.527   5.670   4.903  1.00 20.00     0.068 C 
HETATM    7  C8  UNL     1     -32.727   4.235   1.729  1.00 20.00     0.043 C 
HETATM    8  C9  UNL     1     -35.803   6.251   4.277  1.00 20.00     0.047 C 
ENDROOT
BRANCH   6   9
HETATM    9  O11 UNL     1     -34.895   4.973   6.099  1.00 20.00    -0.389 OA
HETATM   10  H25 UNL     1     -34.325   5.325   6.795  1.00 20.00     0.210 HD
ENDBRANCH   6   9
BRANCH   5  11
HETATM   11  C3  UNL     1     -33.996   7.811   6.165  1.00 20.00     0.238 C 
HETATM   12  O10 UNL     1     -33.969   9.009   5.901  1.00 20.00    -0.306 OA
ENDBRANCH   5  11
TORSDOF 2
ENDMDL
