MODEL 1
REMARK VINA RESULT:      -3.8      0.000      0.000
REMARK  2 active torsions:
REMARK  status: ('A' for Active; 'I' for Inactive)
REMARK    1  A    between atoms: C3_3  and  C5_5 
REMARK    2  A    between atoms: C3_3  and  O8_8 
ROOT
HETATM    1  C1  UNL     1     -33.657   7.550   5.214  1.00 20.00    -0.005 C 
HETATM    2  C2  UNL     1     -33.767   6.963   6.407  1.00 20.00     0.042 C 
HETATM    3  C4  UNL     1     -35.000   5.589   4.611  1.00 20.00     0.097 C 
HETATM    4  C5  UNL     1     -34.190   6.764   4.056  1.00 20.00     0.118 C 
HETATM    5  S9  UNL     1     -34.509   5.403   6.363  1.00 20.00    -0.141 SA
ENDROOT
BRANCH   4   6
HETATM    6  C3  UNL     1     -33.010   6.297   3.260  1.00 20.00     0.267 C 
HETATM    7  O7  UNL     1     -32.887   5.163   2.819  1.00 20.00    -0.265 OA
BRANCH   6   8
HETATM    8  O8  UNL     1     -32.123   7.322   3.116  1.00 20.00    -0.326 OA
HETATM    9  C6  UNL     1     -32.146   7.980   1.845  1.00 20.00     0.213 C 
ENDBRANCH   6   8
ENDBRANCH   4   6
TORSDOF 2
ENDMDL
MODEL 2
REMARK VINA RESULT:      -3.8      1.186      1.853
REMARK  2 active torsions:
REMARK  status: ('A' for Active; 'I' for Inactive)
REMARK    1  A    between atoms: C3_3  and  C5_5 
REMARK    2  A    between atoms: C3_3  and  O8_8 
ROOT
HETATM    1  C1  UNL     1     -34.030   6.955   6.360  1.00 20.00    -0.005 C 
HETATM    2  C2  UNL     1     -34.169   5.635   6.503  1.00 20.00     0.042 C 
HETATM    3  C4  UNL     1     -34.795   6.354   4.110  1.00 20.00     0.097 C 
HETATM    4  C5  UNL     1     -34.204   7.476   4.967  1.00 20.00     0.118 C 
HETATM    5  S9  UNL     1     -34.524   4.798   5.033  1.00 20.00    -0.141 SA
ENDROOT
BRANCH   4   6
HETATM    6  C3  UNL     1     -32.850   7.891   4.479  1.00 20.00     0.267 C 
HETATM    7  O7  UNL     1     -32.188   8.791   4.977  1.00 20.00    -0.265 OA
BRANCH   6   8
HETATM    8  O8  UNL     1     -32.492   7.115   3.417  1.00 20.00    -0.326 OA
HETATM    9  C6  UNL     1     -32.142   7.828   2.226  1.00 20.00     0.213 C 
ENDBRANCH   6   8
ENDBRANCH   4   6
TORSDOF 2
ENDMDL
MODEL 3
REMARK VINA RESULT:      -3.4     12.632     13.310
REMARK  2 active torsions:
REMARK  status: ('A' for Active; 'I' for Inactive)
REMARK    1  A    between atoms: C3_3  and  C5_5 
REMARK    2  A    between atoms: C3_3  and  O8_8 
ROOT
HETATM    1  C1  UNL     1     -33.313  16.674  -2.339  1.00 20.00    -0.005 C 
HETATM    2  C2  UNL     1     -33.747  16.915  -3.579  1.00 20.00     0.042 C 
HETATM    3  C4  UNL     1     -34.803  18.575  -1.916  1.00 20.00     0.097 C 
HETATM    4  C5  UNL     1     -33.724  17.676  -1.306  1.00 20.00     0.118 C 
HETATM    5  S9  UNL     1     -34.702  18.347  -3.728  1.00 20.00    -0.141 SA
ENDROOT
BRANCH   4   6
HETATM    6  C3  UNL     1     -32.500  18.454  -0.934  1.00 20.00     0.267 C 
HETATM    7  O7  UNL     1     -31.831  19.100  -1.729  1.00 20.00    -0.265 OA
BRANCH   6   8
HETATM    8  O8  UNL     1     -32.265  18.323   0.403  1.00 20.00    -0.326 OA
HETATM    9  C6  UNL     1     -30.938  18.651   0.829  1.00 20.00     0.213 C 
ENDBRANCH   6   8
ENDBRANCH   4   6
TORSDOF 2
ENDMDL
MODEL 4
REMARK VINA RESULT:      -3.3     12.109     13.102
REMARK  2 active torsions:
REMARK  status: ('A' for Active; 'I' for Inactive)
REMARK    1  A    between atoms: C3_3  and  C5_5 
REMARK    2  A    between atoms: C3_3  and  O8_8 
ROOT
HETATM    1  C1  UNL     1     -33.810  14.691  -4.219  1.00 20.00    -0.005 C 
HETATM    2  C2  UNL     1     -33.508  15.799  -3.539  1.00 20.00     0.042 C 
HETATM    3  C4  UNL     1     -34.544  16.397  -5.819  1.00 20.00     0.097 C 
HETATM    4  C5  UNL     1     -34.571  14.902  -5.490  1.00 20.00     0.118 C 
HETATM    5  S9  UNL     1     -34.065  17.258  -4.278  1.00 20.00    -0.141 SA
ENDROOT
BRANCH   4   6
HETATM    6  C3  UNL     1     -35.967  14.412  -5.255  1.00 20.00     0.267 C 
HETATM    7  O7  UNL     1     -36.247  13.450  -4.552  1.00 20.00    -0.265 OA
BRANCH   6   8
HETATM    8  O8  UNL     1     -36.847  15.199  -5.937  1.00 20.00    -0.326 OA
HETATM    9  C6  UNL     1     -37.867  15.813  -5.142  1.00 20.00     0.213 C 
ENDBRANCH   6   8
ENDBRANCH   4   6
TORSDOF 2
ENDMDL
MODEL 5
REMARK VINA RESULT:      -3.2     12.211     12.919
REMARK  2 active torsions:
REMARK  status: ('A' for Active; 'I' for Inactive)
REMARK    1  A    between atoms: C3_3  and  C5_5 
REMARK    2  A    between atoms: C3_3  and  O8_8 
ROOT
HETATM    1  C1  UNL     1     -33.258  16.548  -2.475  1.00 20.00    -0.005 C 
HETATM    2  C2  UNL     1     -33.969  17.503  -1.871  1.00 20.00     0.042 C 
HETATM    3  C4  UNL     1     -34.049  17.802  -4.428  1.00 20.00     0.097 C 
HETATM    4  C5  UNL     1     -33.361  16.513  -3.968  1.00 20.00     0.118 C 
HETATM    5  S9  UNL     1     -34.867  18.508  -2.953  1.00 20.00    -0.141 SA
ENDROOT
BRANCH   4   6
HETATM    6  C3  UNL     1     -34.164  15.300  -4.326  1.00 20.00     0.267 C 
HETATM    7  O7  UNL     1     -33.887  14.164  -3.966  1.00 20.00    -0.265 OA
BRANCH   6   8
HETATM    8  O8  UNL     1     -35.225  15.668  -5.100  1.00 20.00    -0.326 OA
HETATM    9  C6  UNL     1     -35.830  14.612  -5.855  1.00 20.00     0.213 C 
ENDBRANCH   6   8
ENDBRANCH   4   6
TORSDOF 2
ENDMDL
MODEL 6
REMARK VINA RESULT:      -3.1      9.472      9.914
REMARK  2 active torsions:
REMARK  status: ('A' for Active; 'I' for Inactive)
REMARK    1  A    between atoms: C3_3  and  C5_5 
REMARK    2  A    between atoms: C3_3  and  O8_8 
ROOT
HETATM    1  C1  UNL     1     -40.450  14.394   7.000  1.00 20.00    -0.005 C 
HETATM    2  C2  UNL     1     -41.190  14.535   8.102  1.00 20.00     0.042 C 
HETATM    3  C4  UNL     1     -42.268  12.825   6.506  1.00 20.00     0.097 C 
HETATM    4  C5  UNL     1     -40.883  13.306   6.067  1.00 20.00     0.118 C 
HETATM    5  S9  UNL     1     -42.504  13.419   8.220  1.00 20.00    -0.141 SA
ENDROOT
BRANCH   4   6
HETATM    6  C3  UNL     1     -39.862  12.214   6.162  1.00 20.00     0.267 C 
HETATM    7  O7  UNL     1     -39.104  12.064   7.110  1.00 20.00    -0.265 OA
BRANCH   6   8
HETATM    8  O8  UNL     1     -39.921  11.437   5.043  1.00 20.00    -0.326 OA
HETATM    9  C6  UNL     1     -38.914  11.700   4.059  1.00 20.00     0.213 C 
ENDBRANCH   6   8
ENDBRANCH   4   6
TORSDOF 2
ENDMDL
MODEL 7
REMARK VINA RESULT:      -3.1     10.030     10.524
REMARK  2 active torsions:
REMARK  status: ('A' for Active; 'I' for Inactive)
REMARK    1  A    between atoms: C3_3  and  C5_5 
REMARK    2  A    between atoms: C3_3  and  O8_8 
ROOT
HETATM    1  C1  UNL     1     -42.078  13.973   5.332  1.00 20.00    -0.005 C 
HETATM    2  C2  UNL     1     -42.133  15.242   5.744  1.00 20.00     0.042 C 
HETATM    3  C4  UNL     1     -41.767  13.659   7.743  1.00 20.00     0.097 C 
HETATM    4  C5  UNL     1     -41.703  12.970   6.378  1.00 20.00     0.118 C 
HETATM    5  S9  UNL     1     -41.756  15.459   7.416  1.00 20.00    -0.141 SA
ENDROOT
BRANCH   4   6
HETATM    6  C3  UNL     1     -40.317  12.499   6.060  1.00 20.00     0.267 C 
HETATM    7  O7  UNL     1     -39.487  12.191   6.904  1.00 20.00    -0.265 OA
BRANCH   6   8
HETATM    8  O8  UNL     1     -40.144  12.473   4.708  1.00 20.00    -0.326 OA
HETATM    9  C6  UNL     1     -39.044  11.682   4.244  1.00 20.00     0.213 C 
ENDBRANCH   6   8
ENDBRANCH   4   6
TORSDOF 2
ENDMDL
MODEL 8
REMARK VINA RESULT:      -3.1     12.480     13.457
REMARK  2 active torsions:
REMARK  status: ('A' for Active; 'I' for Inactive)
REMARK    1  A    between atoms: C3_3  and  C5_5 
REMARK    2  A    between atoms: C3_3  and  O8_8 
ROOT
HETATM    1  C1  UNL     1     -35.727  14.833  -5.638  1.00 20.00    -0.005 C 
HETATM    2  C2  UNL     1     -35.664  14.895  -6.970  1.00 20.00     0.042 C 
HETATM    3  C4  UNL     1     -34.622  17.004  -5.921  1.00 20.00     0.097 C 
HETATM    4  C5  UNL     1     -35.006  15.923  -4.907  1.00 20.00     0.118 C 
HETATM    5  S9  UNL     1     -34.754  16.234  -7.574  1.00 20.00    -0.141 SA
ENDROOT
BRANCH   4   6
HETATM    6  C3  UNL     1     -33.797  15.304  -4.274  1.00 20.00     0.267 C 
HETATM    7  O7  UNL     1     -33.553  14.105  -4.291  1.00 20.00    -0.265 OA
BRANCH   6   8
HETATM    8  O8  UNL     1     -33.038  16.276  -3.694  1.00 20.00    -0.326 OA
HETATM    9  C6  UNL     1     -33.424  16.646  -2.366  1.00 20.00     0.213 C 
ENDBRANCH   6   8
ENDBRANCH   4   6
TORSDOF 2
ENDMDL
MODEL 9
REMARK VINA RESULT:      -3.0     12.220     13.323
REMARK  2 active torsions:
REMARK  status: ('A' for Active; 'I' for Inactive)
REMARK    1  A    between atoms: C3_3  and  C5_5 
REMARK    2  A    between atoms: C3_3  and  O8_8 
ROOT
HETATM    1  C1  UNL     1     -34.445  16.650  -6.122  1.00 20.00    -0.005 C 
HETATM    2  C2  UNL     1     -35.645  17.235  -6.135  1.00 20.00     0.042 C 
HETATM    3  C4  UNL     1     -35.892  14.673  -6.039  1.00 20.00     0.097 C 
HETATM    4  C5  UNL     1     -34.450  15.170  -5.901  1.00 20.00     0.118 C 
HETATM    5  S9  UNL     1     -36.965  16.147  -5.890  1.00 20.00    -0.141 SA
ENDROOT
BRANCH   4   6
HETATM    6  C3  UNL     1     -33.911  14.929  -4.524  1.00 20.00     0.267 C 
HETATM    7  O7  UNL     1     -34.094  13.900  -3.887  1.00 20.00    -0.265 OA
BRANCH   6   8
HETATM    8  O8  UNL     1     -33.202  16.019  -4.115  1.00 20.00    -0.326 OA
HETATM    9  C6  UNL     1     -33.376  16.385  -2.742  1.00 20.00     0.213 C 
ENDBRANCH   6   8
ENDBRANCH   4   6
TORSDOF 2
ENDMDL
