MODEL 1
REMARK VINA RESULT:      -4.2      0.000      0.000
REMARK  1 active torsions:
REMARK  status: ('A' for Active; 'I' for Inactive)
REMARK    1  A    between atoms: C9_9  and  O10_10 
ROOT
HETATM    1  C1  UNL     1     -21.294  19.212   8.744  1.00 20.00     0.012 C 
HETATM    2  C2  UNL     1     -21.737  18.561   9.652  1.00 20.00    -0.112 C 
HETATM    3  C3  UNL     1     -24.940  18.972  11.305  1.00 20.00     0.007 C 
HETATM    4  C4  UNL     1     -24.687  18.176  10.017  1.00 20.00     0.009 C 
HETATM    5  C5  UNL     1     -22.572  18.604  12.023  1.00 20.00     0.024 C 
HETATM    6  C6  UNL     1     -22.278  17.768  10.759  1.00 20.00     0.071 C 
HETATM    7  C7  UNL     1     -24.043  18.257  12.332  1.00 20.00     0.016 C 
HETATM    8  C8  UNL     1     -23.650  17.119  10.459  1.00 20.00     0.030 C 
HETATM    9  C9  UNL     1     -24.116  16.793  11.885  1.00 20.00     0.127 C 
ENDROOT
BRANCH   9  10
HETATM   10  O10 UNL     1     -25.422  16.262  11.950  1.00 20.00    -0.395 OA
HETATM   11  H22 UNL     1     -25.858  16.658  12.724  1.00 20.00     0.210 HD
ENDBRANCH   9  10
TORSDOF 1
ENDMDL
MODEL 2
REMARK VINA RESULT:      -4.0     18.175     19.520
REMARK  1 active torsions:
REMARK  status: ('A' for Active; 'I' for Inactive)
REMARK    1  A    between atoms: C9_9  and  O10_10 
ROOT
HETATM    1  C1  UNL     1     -33.544  17.036  -1.936  1.00 20.00     0.012 C 
HETATM    2  C2  UNL     1     -33.491  16.351  -2.921  1.00 20.00    -0.112 C 
HETATM    3  C3  UNL     1     -36.183  15.601  -5.234  1.00 20.00     0.007 C 
HETATM    4  C4  UNL     1     -35.281  16.842  -5.275  1.00 20.00     0.009 C 
HETATM    5  C5  UNL     1     -34.385  14.304  -4.077  1.00 20.00     0.024 C 
HETATM    6  C6  UNL     1     -33.428  15.515  -4.123  1.00 20.00     0.071 C 
HETATM    7  C7  UNL     1     -35.181  14.442  -5.390  1.00 20.00     0.016 C 
HETATM    8  C8  UNL     1     -33.865  16.238  -5.419  1.00 20.00     0.030 C 
HETATM    9  C9  UNL     1     -34.126  15.031  -6.331  1.00 20.00     0.127 C 
ENDROOT
BRANCH   9  10
HETATM   10  O10 UNL     1     -34.647  15.376  -7.597  1.00 20.00    -0.395 OA
HETATM   11  H22 UNL     1     -34.475  16.324  -7.732  1.00 20.00     0.210 HD
ENDBRANCH   9  10
TORSDOF 1
ENDMDL
MODEL 3
REMARK VINA RESULT:      -4.0     15.309     16.708
REMARK  1 active torsions:
REMARK  status: ('A' for Active; 'I' for Inactive)
REMARK    1  A    between atoms: C9_9  and  O10_10 
ROOT
HETATM    1  C1  UNL     1     -31.026  18.517   0.051  1.00 20.00     0.012 C 
HETATM    2  C2  UNL     1     -31.924  18.805  -0.693  1.00 20.00    -0.112 C 
HETATM    3  C3  UNL     1     -33.181  16.868  -3.491  1.00 20.00     0.007 C 
HETATM    4  C4  UNL     1     -33.598  16.705  -2.023  1.00 20.00     0.009 C 
HETATM    5  C5  UNL     1     -32.581  19.261  -3.077  1.00 20.00     0.024 C 
HETATM    6  C6  UNL     1     -33.020  19.156  -1.600  1.00 20.00     0.071 C 
HETATM    7  C7  UNL     1     -33.571  18.325  -3.799  1.00 20.00     0.016 C 
HETATM    8  C8  UNL     1     -34.151  18.102  -1.661  1.00 20.00     0.030 C 
HETATM    9  C9  UNL     1     -34.843  18.519  -2.967  1.00 20.00     0.127 C 
ENDROOT
BRANCH   9  10
HETATM   10  O10 UNL     1     -35.892  17.657  -3.355  1.00 20.00    -0.395 OA
HETATM   11  H22 UNL     1     -36.088  17.080  -2.597  1.00 20.00     0.210 HD
ENDBRANCH   9  10
TORSDOF 1
ENDMDL
MODEL 4
REMARK VINA RESULT:      -3.9     23.344     24.737
REMARK  1 active torsions:
REMARK  status: ('A' for Active; 'I' for Inactive)
REMARK    1  A    between atoms: C9_9  and  O10_10 
ROOT
HETATM    1  C1  UNL     1     -43.417   3.408   1.419  1.00 20.00     0.012 C 
HETATM    2  C2  UNL     1     -43.417   4.560   1.082  1.00 20.00    -0.112 C 
HETATM    3  C3  UNL     1     -40.553   6.764   0.760  1.00 20.00     0.007 C 
HETATM    4  C4  UNL     1     -41.063   5.788  -0.309  1.00 20.00     0.009 C 
HETATM    5  C5  UNL     1     -42.848   6.918   1.744  1.00 20.00     0.024 C 
HETATM    6  C6  UNL     1     -43.415   5.966   0.669  1.00 20.00     0.071 C 
HETATM    7  C7  UNL     1     -41.759   7.696   0.978  1.00 20.00     0.016 C 
HETATM    8  C8  UNL     1     -42.514   6.265  -0.552  1.00 20.00     0.030 C 
HETATM    9  C9  UNL     1     -42.374   7.788  -0.423  1.00 20.00     0.127 C 
ENDROOT
BRANCH   9  10
HETATM   10  O10 UNL     1     -41.500   8.362  -1.371  1.00 20.00    -0.395 OA
HETATM   11  H22 UNL     1     -40.751   7.750  -1.483  1.00 20.00     0.210 HD
ENDBRANCH   9  10
TORSDOF 1
ENDMDL
MODEL 5
REMARK VINA RESULT:      -3.6     19.061     20.134
REMARK  1 active torsions:
REMARK  status: ('A' for Active; 'I' for Inactive)
REMARK    1  A    between atoms: C9_9  and  O10_10 
ROOT
HETATM    1  C1  UNL     1     -24.366  -3.249   9.687  1.00 20.00     0.012 C 
HETATM    2  C2  UNL     1     -25.107  -2.873  10.553  1.00 20.00    -0.112 C 
HETATM    3  C3  UNL     1     -27.772  -0.427  10.270  1.00 20.00     0.007 C 
HETATM    4  C4  UNL     1     -27.884  -1.922   9.943  1.00 20.00     0.009 C 
HETATM    5  C5  UNL     1     -25.916  -0.896  11.881  1.00 20.00     0.024 C 
HETATM    6  C6  UNL     1     -26.013  -2.413  11.610  1.00 20.00     0.071 C 
HETATM    7  C7  UNL     1     -27.381  -0.429  11.760  1.00 20.00     0.016 C 
HETATM    8  C8  UNL     1     -27.513  -2.600  11.282  1.00 20.00     0.030 C 
HETATM    9  C9  UNL     1     -28.138  -1.643  12.307  1.00 20.00     0.127 C 
ENDROOT
BRANCH   9  10
HETATM   10  O10 UNL     1     -29.539  -1.518  12.188  1.00 20.00    -0.395 OA
HETATM   11  H22 UNL     1     -29.921  -2.406  12.305  1.00 20.00     0.210 HD
ENDBRANCH   9  10
TORSDOF 1
ENDMDL
MODEL 6
REMARK VINA RESULT:      -3.5     19.388     20.831
REMARK  1 active torsions:
REMARK  status: ('A' for Active; 'I' for Inactive)
REMARK    1  A    between atoms: C9_9  and  O10_10 
ROOT
HETATM    1  C1  UNL     1     -38.781  16.059  -4.791  1.00 20.00     0.012 C 
HETATM    2  C2  UNL     1     -37.703  16.245  -5.287  1.00 20.00    -0.112 C 
HETATM    3  C3  UNL     1     -34.544  14.744  -4.323  1.00 20.00     0.007 C 
HETATM    4  C4  UNL     1     -35.582  14.128  -5.272  1.00 20.00     0.009 C 
HETATM    5  C5  UNL     1     -35.350  17.041  -4.900  1.00 20.00     0.024 C 
HETATM    6  C6  UNL     1     -36.387  16.470  -5.890  1.00 20.00     0.071 C 
HETATM    7  C7  UNL     1     -34.169  16.058  -5.032  1.00 20.00     0.016 C 
HETATM    8  C8  UNL     1     -35.695  15.182  -6.396  1.00 20.00     0.030 C 
HETATM    9  C9  UNL     1     -34.247  15.678  -6.514  1.00 20.00     0.127 C 
ENDROOT
BRANCH   9  10
HETATM   10  O10 UNL     1     -33.327  14.669  -6.874  1.00 20.00    -0.395 OA
HETATM   11  H22 UNL     1     -33.577  14.353  -7.760  1.00 20.00     0.210 HD
ENDBRANCH   9  10
TORSDOF 1
ENDMDL
MODEL 7
REMARK VINA RESULT:      -3.5     23.585     24.932
REMARK  1 active torsions:
REMARK  status: ('A' for Active; 'I' for Inactive)
REMARK    1  A    between atoms: C9_9  and  O10_10 
ROOT
HETATM    1  C1  UNL     1     -43.417   3.538  -1.723  1.00 20.00     0.012 C 
HETATM    2  C2  UNL     1     -42.948   4.595  -1.400  1.00 20.00    -0.112 C 
HETATM    3  C3  UNL     1     -42.936   6.085   1.907  1.00 20.00     0.007 C 
HETATM    4  C4  UNL     1     -41.914   5.073   1.372  1.00 20.00     0.009 C 
HETATM    5  C5  UNL     1     -43.417   6.863  -0.421  1.00 20.00     0.024 C 
HETATM    6  C6  UNL     1     -42.375   5.884  -1.004  1.00 20.00     0.071 C 
HETATM    7  C7  UNL     1     -42.793   7.266   0.930  1.00 20.00     0.016 C 
HETATM    8  C8  UNL     1     -41.330   5.789   0.133  1.00 20.00     0.030 C 
HETATM    9  C9  UNL     1     -41.297   7.252   0.598  1.00 20.00     0.127 C 
ENDROOT
BRANCH   9  10
HETATM   10  O10 UNL     1     -40.479   7.472   1.727  1.00 20.00    -0.395 OA
HETATM   11  H22 UNL     1     -39.556   7.477   1.419  1.00 20.00     0.210 HD
ENDBRANCH   9  10
TORSDOF 1
ENDMDL
MODEL 8
REMARK VINA RESULT:      -3.4     18.005     19.168
REMARK  1 active torsions:
REMARK  status: ('A' for Active; 'I' for Inactive)
REMARK    1  A    between atoms: C9_9  and  O10_10 
ROOT
HETATM    1  C1  UNL     1     -39.321  11.798   5.591  1.00 20.00     0.012 C 
HETATM    2  C2  UNL     1     -40.346  12.408   5.732  1.00 20.00    -0.112 C 
HETATM    3  C3  UNL     1     -41.510  14.104   8.720  1.00 20.00     0.007 C 
HETATM    4  C4  UNL     1     -40.562  14.689   7.664  1.00 20.00     0.009 C 
HETATM    5  C5  UNL     1     -42.505  12.574   7.010  1.00 20.00     0.024 C 
HETATM    6  C6  UNL     1     -41.595  13.154   5.905  1.00 20.00     0.071 C 
HETATM    7  C7  UNL     1     -42.781  13.796   7.908  1.00 20.00     0.016 C 
HETATM    8  C8  UNL     1     -41.399  14.617   6.367  1.00 20.00     0.030 C 
HETATM    9  C9  UNL     1     -42.811  14.933   6.881  1.00 20.00     0.127 C 
ENDROOT
BRANCH   9  10
HETATM   10  O10 UNL     1     -42.928  16.209   7.474  1.00 20.00    -0.395 OA
HETATM   11  H22 UNL     1     -43.095  16.847   6.759  1.00 20.00     0.210 HD
ENDBRANCH   9  10
TORSDOF 1
ENDMDL
MODEL 9
REMARK VINA RESULT:      -3.4     17.810     18.860
REMARK  1 active torsions:
REMARK  status: ('A' for Active; 'I' for Inactive)
REMARK    1  A    between atoms: C9_9  and  O10_10 
ROOT
HETATM    1  C1  UNL     1     -39.065  11.763   4.060  1.00 20.00     0.012 C 
HETATM    2  C2  UNL     1     -39.668  11.940   5.083  1.00 20.00    -0.112 C 
HETATM    3  C3  UNL     1     -41.289  14.991   6.191  1.00 20.00     0.007 C 
HETATM    4  C4  UNL     1     -41.902  13.929   5.267  1.00 20.00     0.009 C 
HETATM    5  C5  UNL     1     -39.795  13.266   7.216  1.00 20.00     0.024 C 
HETATM    6  C6  UNL     1     -40.405  12.157   6.331  1.00 20.00     0.071 C 
HETATM    7  C7  UNL     1     -40.996  14.197   7.478  1.00 20.00     0.016 C 
HETATM    8  C8  UNL     1     -41.858  12.648   6.130  1.00 20.00     0.030 C 
HETATM    9  C9  UNL     1     -42.157  13.199   7.532  1.00 20.00     0.127 C 
ENDROOT
BRANCH   9  10
HETATM   10  O10 UNL     1     -43.417  13.824   7.641  1.00 20.00    -0.395 OA
HETATM   11  H22 UNL     1     -43.919  13.347   8.324  1.00 20.00     0.210 HD
ENDBRANCH   9  10
TORSDOF 1
ENDMDL
