MODEL 1
REMARK VINA RESULT:      -4.3      0.000      0.000
REMARK  2 active torsions:
REMARK  status: ('A' for Active; 'I' for Inactive)
REMARK    1  A    between atoms: C2_2  and  C7_7 
REMARK    2  A    between atoms: C3_3  and  C6_6 
ROOT
HETATM    1  C4  UNL     1     -33.494   7.063   6.343  1.00 20.00     0.014 C 
HETATM    2  C5  UNL     1     -34.671   6.080   6.201  1.00 20.00     0.015 C 
HETATM    3  C6  UNL     1     -33.867   7.633   4.951  1.00 20.00     0.067 C 
HETATM    4  C7  UNL     1     -34.579   6.264   4.655  1.00 20.00    -0.011 C 
HETATM    5  C10 UNL     1     -35.930   6.394   3.961  1.00 20.00     0.021 C 
ENDROOT
BRANCH   4   6
HETATM    6  C2  UNL     1     -33.726   5.243   3.981  1.00 20.00    -0.084 C 
HETATM    7  C1  UNL     1     -33.185   5.455   2.772  1.00 20.00     0.015 C 
HETATM    8  C8  UNL     1     -33.506   3.964   4.734  1.00 20.00     0.043 C 
ENDBRANCH   4   6
BRANCH   3   9
HETATM    9  C3  UNL     1     -32.731   8.099   4.035  1.00 20.00     0.128 C 
HETATM   10  C9  UNL     1     -33.125   8.904   2.826  1.00 20.00     0.091 C 
HETATM   11  O11 UNL     1     -31.555   7.831   4.277  1.00 20.00    -0.298 OA
ENDBRANCH   3   9
TORSDOF 2
ENDMDL
MODEL 2
REMARK VINA RESULT:      -3.9      9.969     11.107
REMARK  2 active torsions:
REMARK  status: ('A' for Active; 'I' for Inactive)
REMARK    1  A    between atoms: C2_2  and  C7_7 
REMARK    2  A    between atoms: C3_3  and  C6_6 
ROOT
HETATM    1  C4  UNL     1     -40.455  15.267   7.488  1.00 20.00     0.014 C 
HETATM    2  C5  UNL     1     -41.930  15.697   7.385  1.00 20.00     0.015 C 
HETATM    3  C6  UNL     1     -40.722  14.247   6.353  1.00 20.00     0.067 C 
HETATM    4  C7  UNL     1     -42.242  14.306   6.750  1.00 20.00    -0.011 C 
HETATM    5  C10 UNL     1     -43.201  14.362   5.566  1.00 20.00     0.021 C 
ENDROOT
BRANCH   4   6
HETATM    6  C2  UNL     1     -42.674  13.280   7.743  1.00 20.00    -0.084 C 
HETATM    7  C1  UNL     1     -42.596  13.494   9.065  1.00 20.00     0.015 C 
HETATM    8  C8  UNL     1     -43.203  11.994   7.178  1.00 20.00     0.043 C 
ENDBRANCH   4   6
BRANCH   3   9
HETATM    9  C3  UNL     1     -39.988  12.904   6.404  1.00 20.00     0.128 C 
HETATM   10  C9  UNL     1     -40.014  12.071   5.150  1.00 20.00     0.091 C 
HETATM   11  O11 UNL     1     -39.403  12.525   7.418  1.00 20.00    -0.298 OA
ENDBRANCH   3   9
TORSDOF 2
ENDMDL
MODEL 3
REMARK VINA RESULT:      -3.6      9.385     10.616
REMARK  2 active torsions:
REMARK  status: ('A' for Active; 'I' for Inactive)
REMARK    1  A    between atoms: C2_2  and  C7_7 
REMARK    2  A    between atoms: C3_3  and  C6_6 
ROOT
HETATM    1  C4  UNL     1     -41.546  13.739   4.939  1.00 20.00     0.014 C 
HETATM    2  C5  UNL     1     -42.612  14.272   5.916  1.00 20.00     0.015 C 
HETATM    3  C6  UNL     1     -41.179  12.670   5.998  1.00 20.00     0.067 C 
HETATM    4  C7  UNL     1     -41.800  13.625   7.080  1.00 20.00    -0.011 C 
HETATM    5  C10 UNL     1     -42.659  12.922   8.124  1.00 20.00     0.021 C 
ENDROOT
BRANCH   4   6
HETATM    6  C2  UNL     1     -40.831  14.560   7.724  1.00 20.00    -0.084 C 
HETATM    7  C1  UNL     1     -40.328  15.620   7.073  1.00 20.00     0.015 C 
HETATM    8  C8  UNL     1     -40.452  14.248   9.142  1.00 20.00     0.043 C 
ENDBRANCH   4   6
BRANCH   3   9
HETATM    9  C3  UNL     1     -39.711  12.252   6.121  1.00 20.00     0.128 C 
HETATM   10  C9  UNL     1     -38.952  12.060   4.836  1.00 20.00     0.091 C 
HETATM   11  O11 UNL     1     -39.178  12.083   7.217  1.00 20.00    -0.298 OA
ENDBRANCH   3   9
TORSDOF 2
ENDMDL
MODEL 4
REMARK VINA RESULT:      -3.6      9.982     11.159
REMARK  2 active torsions:
REMARK  status: ('A' for Active; 'I' for Inactive)
REMARK    1  A    between atoms: C2_2  and  C7_7 
REMARK    2  A    between atoms: C3_3  and  C6_6 
ROOT
HETATM    1  C4  UNL     1     -39.615  13.047   6.311  1.00 20.00     0.014 C 
HETATM    2  C5  UNL     1     -40.696  12.133   5.705  1.00 20.00     0.015 C 
HETATM    3  C6  UNL     1     -40.615  13.400   7.440  1.00 20.00     0.067 C 
HETATM    4  C7  UNL     1     -41.769  12.978   6.459  1.00 20.00    -0.011 C 
HETATM    5  C10 UNL     1     -42.874  12.150   7.105  1.00 20.00     0.021 C 
ENDROOT
BRANCH   4   6
HETATM    6  C2  UNL     1     -42.337  14.088   5.642  1.00 20.00    -0.084 C 
HETATM    7  C1  UNL     1     -41.908  14.345   4.396  1.00 20.00     0.015 C 
HETATM    8  C8  UNL     1     -43.417  14.902   6.291  1.00 20.00     0.043 C 
ENDBRANCH   4   6
BRANCH   3   9
HETATM    9  C3  UNL     1     -40.595  14.824   8.003  1.00 20.00     0.128 C 
HETATM   10  C9  UNL     1     -41.264  15.035   9.334  1.00 20.00     0.091 C 
HETATM   11  O11 UNL     1     -40.057  15.750   7.397  1.00 20.00    -0.298 OA
ENDBRANCH   3   9
TORSDOF 2
ENDMDL
MODEL 5
REMARK VINA RESULT:      -3.6     12.374     13.759
REMARK  2 active torsions:
REMARK  status: ('A' for Active; 'I' for Inactive)
REMARK    1  A    between atoms: C2_2  and  C7_7 
REMARK    2  A    between atoms: C3_3  and  C6_6 
ROOT
HETATM    1  C4  UNL     1     -33.264  15.931  -4.155  1.00 20.00     0.014 C 
HETATM    2  C5  UNL     1     -33.577  14.466  -4.510  1.00 20.00     0.015 C 
HETATM    3  C6  UNL     1     -34.776  16.238  -4.294  1.00 20.00     0.067 C 
HETATM    4  C7  UNL     1     -34.883  14.962  -5.205  1.00 20.00    -0.011 C 
HETATM    5  C10 UNL     1     -36.104  14.093  -4.932  1.00 20.00     0.021 C 
ENDROOT
BRANCH   4   6
HETATM    6  C2  UNL     1     -34.721  15.217  -6.666  1.00 20.00    -0.084 C 
HETATM    7  C1  UNL     1     -33.513  15.296  -7.244  1.00 20.00     0.015 C 
HETATM    8  C8  UNL     1     -35.988  15.380  -7.454  1.00 20.00     0.043 C 
ENDBRANCH   4   6
BRANCH   3   9
HETATM    9  C3  UNL     1     -35.186  17.600  -4.861  1.00 20.00     0.128 C 
HETATM   10  C9  UNL     1     -36.639  17.973  -4.739  1.00 20.00     0.091 C 
HETATM   11  O11 UNL     1     -34.369  18.352  -5.389  1.00 20.00    -0.298 OA
ENDBRANCH   3   9
TORSDOF 2
ENDMDL
MODEL 6
REMARK VINA RESULT:      -3.6     12.488     14.427
REMARK  2 active torsions:
REMARK  status: ('A' for Active; 'I' for Inactive)
REMARK    1  A    between atoms: C2_2  and  C7_7 
REMARK    2  A    between atoms: C3_3  and  C6_6 
ROOT
HETATM    1  C4  UNL     1     -35.627  14.952  -7.136  1.00 20.00     0.014 C 
HETATM    2  C5  UNL     1     -34.269  15.670  -7.245  1.00 20.00     0.015 C 
HETATM    3  C6  UNL     1     -36.207  16.245  -6.510  1.00 20.00     0.067 C 
HETATM    4  C7  UNL     1     -34.737  16.628  -6.105  1.00 20.00    -0.011 C 
HETATM    5  C10 UNL     1     -34.381  18.092  -6.336  1.00 20.00     0.021 C 
ENDROOT
BRANCH   4   6
HETATM    6  C2  UNL     1     -34.323  16.183  -4.743  1.00 20.00    -0.084 C 
HETATM    7  C1  UNL     1     -34.024  14.902  -4.475  1.00 20.00     0.015 C 
HETATM    8  C8  UNL     1     -34.258  17.249  -3.689  1.00 20.00     0.043 C 
ENDBRANCH   4   6
BRANCH   3   9
HETATM    9  C3  UNL     1     -37.270  16.103  -5.417  1.00 20.00     0.128 C 
HETATM   10  C9  UNL     1     -37.841  17.379  -4.860  1.00 20.00     0.091 C 
HETATM   11  O11 UNL     1     -37.642  15.001  -5.017  1.00 20.00    -0.298 OA
ENDBRANCH   3   9
TORSDOF 2
ENDMDL
MODEL 7
REMARK VINA RESULT:      -3.5     12.611     14.375
REMARK  2 active torsions:
REMARK  status: ('A' for Active; 'I' for Inactive)
REMARK    1  A    between atoms: C2_2  and  C7_7 
REMARK    2  A    between atoms: C3_3  and  C6_6 
ROOT
HETATM    1  C4  UNL     1     -35.245  18.553  -6.014  1.00 20.00     0.014 C 
HETATM    2  C5  UNL     1     -35.449  17.622  -7.223  1.00 20.00     0.015 C 
HETATM    3  C6  UNL     1     -34.308  17.479  -5.406  1.00 20.00     0.067 C 
HETATM    4  C7  UNL     1     -35.041  16.424  -6.311  1.00 20.00    -0.011 C 
HETATM    5  C10 UNL     1     -34.115  15.416  -6.982  1.00 20.00     0.021 C 
ENDROOT
BRANCH   4   6
HETATM    6  C2  UNL     1     -36.201  15.741  -5.668  1.00 20.00    -0.084 C 
HETATM    7  C1  UNL     1     -37.378  16.359  -5.488  1.00 20.00     0.015 C 
HETATM    8  C8  UNL     1     -35.977  14.323  -5.233  1.00 20.00     0.043 C 
ENDBRANCH   4   6
BRANCH   3   9
HETATM    9  C3  UNL     1     -34.313  17.294  -3.886  1.00 20.00     0.128 C 
HETATM   10  C9  UNL     1     -33.358  16.275  -3.326  1.00 20.00     0.091 C 
HETATM   11  O11 UNL     1     -35.059  17.948  -3.159  1.00 20.00    -0.298 OA
ENDBRANCH   3   9
TORSDOF 2
ENDMDL
MODEL 8
REMARK VINA RESULT:      -3.5     12.108     13.650
REMARK  2 active torsions:
REMARK  status: ('A' for Active; 'I' for Inactive)
REMARK    1  A    between atoms: C2_2  and  C7_7 
REMARK    2  A    between atoms: C3_3  and  C6_6 
ROOT
HETATM    1  C4  UNL     1     -35.105  14.033  -4.860  1.00 20.00     0.014 C 
HETATM    2  C5  UNL     1     -36.229  14.704  -5.671  1.00 20.00     0.015 C 
HETATM    3  C6  UNL     1     -34.847  15.399  -4.177  1.00 20.00     0.067 C 
HETATM    4  C7  UNL     1     -35.526  16.075  -5.423  1.00 20.00    -0.011 C 
HETATM    5  C10 UNL     1     -36.481  17.213  -5.081  1.00 20.00     0.021 C 
ENDROOT
BRANCH   4   6
HETATM    6  C2  UNL     1     -34.588  16.470  -6.514  1.00 20.00    -0.084 C 
HETATM    7  C1  UNL     1     -34.049  15.568  -7.348  1.00 20.00     0.015 C 
HETATM    8  C8  UNL     1     -34.282  17.935  -6.624  1.00 20.00     0.043 C 
ENDBRANCH   4   6
BRANCH   3   9
HETATM    9  C3  UNL     1     -33.404  15.766  -3.821  1.00 20.00     0.128 C 
HETATM   10  C9  UNL     1     -33.208  16.997  -2.977  1.00 20.00     0.091 C 
HETATM   11  O11 UNL     1     -32.452  15.088  -4.203  1.00 20.00    -0.298 OA
ENDBRANCH   3   9
TORSDOF 2
ENDMDL
MODEL 9
REMARK VINA RESULT:      -3.5     10.305     11.546
REMARK  2 active torsions:
REMARK  status: ('A' for Active; 'I' for Inactive)
REMARK    1  A    between atoms: C2_2  and  C7_7 
REMARK    2  A    between atoms: C3_3  and  C6_6 
ROOT
HETATM    1  C4  UNL     1     -43.265  12.885   6.694  1.00 20.00     0.014 C 
HETATM    2  C5  UNL     1     -43.416  13.659   8.017  1.00 20.00     0.015 C 
HETATM    3  C6  UNL     1     -41.740  12.826   6.958  1.00 20.00     0.067 C 
HETATM    4  C7  UNL     1     -41.920  14.082   7.886  1.00 20.00    -0.011 C 
HETATM    5  C10 UNL     1     -41.136  14.018   9.192  1.00 20.00     0.021 C 
ENDROOT
BRANCH   4   6
HETATM    6  C2  UNL     1     -41.728  15.398   7.209  1.00 20.00    -0.084 C 
HETATM    7  C1  UNL     1     -42.673  15.937   6.424  1.00 20.00     0.015 C 
HETATM    8  C8  UNL     1     -40.417  16.085   7.457  1.00 20.00     0.043 C 
ENDBRANCH   4   6
BRANCH   3   9
HETATM    9  C3  UNL     1     -40.797  12.914   5.754  1.00 20.00     0.128 C 
HETATM   10  C9  UNL     1     -39.394  12.408   5.957  1.00 20.00     0.091 C 
HETATM   11  O11 UNL     1     -41.168  13.373   4.675  1.00 20.00    -0.298 OA
ENDBRANCH   3   9
TORSDOF 2
ENDMDL
