MODEL 1
REMARK VINA RESULT:      -4.0      0.000      0.000
REMARK  1 active torsions:
REMARK  status: ('A' for Active; 'I' for Inactive)
REMARK    1  A    between atoms: C2_2  and  C4_4 
ROOT
HETATM    1  C1  UNL     1     -40.593  15.503   7.814  1.00 20.00     0.065 C 
HETATM    2  C3  UNL     1     -40.718  14.104   7.518  1.00 20.00     0.113 A 
HETATM    3  C4  UNL     1     -40.300  13.615   6.150  1.00 20.00     0.082 A 
HETATM    4  C5  UNL     1     -41.768  13.609   6.538  1.00 20.00    -0.019 A 
HETATM    5  C7  UNL     1     -42.448  12.303   6.869  1.00 20.00     0.017 C 
HETATM    6  C8  UNL     1     -42.671  14.588   5.828  1.00 20.00     0.017 C 
HETATM    7  N9  UNL     1     -40.493  16.633   8.055  1.00 20.00    -0.197 NA
ENDROOT
BRANCH   3   8
HETATM    8  C2  UNL     1     -39.545  12.360   6.036  1.00 20.00     0.129 C 
HETATM    9  C6  UNL     1     -39.450  11.748   4.665  1.00 20.00     0.091 C 
HETATM   10  O10 UNL     1     -39.016  11.834   7.015  1.00 20.00    -0.298 OA
ENDBRANCH   3   8
TORSDOF 1
ENDMDL
MODEL 2
REMARK VINA RESULT:      -3.9     10.586     11.360
REMARK  1 active torsions:
REMARK  status: ('A' for Active; 'I' for Inactive)
REMARK    1  A    between atoms: C2_2  and  C4_4 
ROOT
HETATM    1  C1  UNL     1     -34.975  18.785   1.349  1.00 20.00     0.065 C 
HETATM    2  C3  UNL     1     -33.884  18.192   0.629  1.00 20.00     0.113 A 
HETATM    3  C4  UNL     1     -32.796  19.094   0.093  1.00 20.00     0.082 A 
HETATM    4  C5  UNL     1     -33.740  18.396  -0.869  1.00 20.00    -0.019 A 
HETATM    5  C7  UNL     1     -33.250  17.218  -1.676  1.00 20.00     0.017 C 
HETATM    6  C8  UNL     1     -34.723  19.263  -1.619  1.00 20.00     0.017 C 
HETATM    7  N9  UNL     1     -35.857  19.263   1.931  1.00 20.00    -0.197 NA
ENDROOT
BRANCH   3   8
HETATM    8  C2  UNL     1     -31.393  18.674   0.210  1.00 20.00     0.129 C 
HETATM    9  C6  UNL     1     -30.936  18.210   1.566  1.00 20.00     0.091 C 
HETATM   10  O10 UNL     1     -30.628  18.699  -0.754  1.00 20.00    -0.298 OA
ENDBRANCH   3   8
TORSDOF 1
ENDMDL
MODEL 3
REMARK VINA RESULT:      -3.7     11.631     12.895
REMARK  1 active torsions:
REMARK  status: ('A' for Active; 'I' for Inactive)
REMARK    1  A    between atoms: C2_2  and  C4_4 
ROOT
HETATM    1  C1  UNL     1     -33.470  15.288  -3.834  1.00 20.00     0.065 C 
HETATM    2  C3  UNL     1     -33.046  16.560  -3.321  1.00 20.00     0.113 A 
HETATM    3  C4  UNL     1     -33.818  17.171  -2.174  1.00 20.00     0.082 A 
HETATM    4  C5  UNL     1     -33.882  17.807  -3.551  1.00 20.00    -0.019 A 
HETATM    5  C7  UNL     1     -33.134  19.091  -3.818  1.00 20.00     0.017 C 
HETATM    6  C8  UNL     1     -35.196  17.720  -4.289  1.00 20.00     0.017 C 
HETATM    7  N9  UNL     1     -33.811  14.260  -4.248  1.00 20.00    -0.197 NA
ENDROOT
BRANCH   3   8
HETATM    8  C2  UNL     1     -33.083  17.818  -1.079  1.00 20.00     0.129 C 
HETATM    9  C6  UNL     1     -33.895  18.285   0.099  1.00 20.00     0.091 C 
HETATM   10  O10 UNL     1     -31.862  17.970  -1.121  1.00 20.00    -0.298 OA
ENDBRANCH   3   8
TORSDOF 1
ENDMDL
MODEL 4
REMARK VINA RESULT:      -3.7      9.480     10.875
REMARK  1 active torsions:
REMARK  status: ('A' for Active; 'I' for Inactive)
REMARK    1  A    between atoms: C2_2  and  C4_4 
ROOT
HETATM    1  C1  UNL     1     -43.308   4.621  -1.378  1.00 20.00     0.065 C 
HETATM    2  C3  UNL     1     -43.295   5.822  -0.592  1.00 20.00     0.113 A 
HETATM    3  C4  UNL     1     -41.970   6.502  -0.332  1.00 20.00     0.082 A 
HETATM    4  C5  UNL     1     -42.708   5.827   0.809  1.00 20.00    -0.019 A 
HETATM    5  C7  UNL     1     -43.416   6.668   1.843  1.00 20.00     0.017 C 
HETATM    6  C8  UNL     1     -42.091   4.574   1.382  1.00 20.00     0.017 C 
HETATM    7  N9  UNL     1     -43.320   3.651  -2.013  1.00 20.00    -0.197 NA
ENDROOT
BRANCH   3   8
HETATM    8  C2  UNL     1     -41.886   7.966  -0.414  1.00 20.00     0.129 C 
HETATM    9  C6  UNL     1     -40.632   8.604   0.119  1.00 20.00     0.091 C 
HETATM   10  O10 UNL     1     -42.797   8.639  -0.896  1.00 20.00    -0.298 OA
ENDBRANCH   3   8
TORSDOF 1
ENDMDL
MODEL 5
REMARK VINA RESULT:      -3.6     12.780     13.940
REMARK  1 active torsions:
REMARK  status: ('A' for Active; 'I' for Inactive)
REMARK    1  A    between atoms: C2_2  and  C4_4 
ROOT
HETATM    1  C1  UNL     1     -35.410  15.129  -6.883  1.00 20.00     0.065 C 
HETATM    2  C3  UNL     1     -34.518  15.920  -6.084  1.00 20.00     0.113 A 
HETATM    3  C4  UNL     1     -34.635  15.843  -4.578  1.00 20.00     0.082 A 
HETATM    4  C5  UNL     1     -35.032  17.117  -5.302  1.00 20.00    -0.019 A 
HETATM    5  C7  UNL     1     -34.131  18.326  -5.235  1.00 20.00     0.017 C 
HETATM    6  C8  UNL     1     -36.500  17.468  -5.321  1.00 20.00     0.017 C 
HETATM    7  N9  UNL     1     -36.130  14.489  -7.529  1.00 20.00    -0.197 NA
ENDROOT
BRANCH   3   8
HETATM    8  C2  UNL     1     -33.412  15.787  -3.766  1.00 20.00     0.129 C 
HETATM    9  C6  UNL     1     -33.428  16.543  -2.466  1.00 20.00     0.091 C 
HETATM   10  O10 UNL     1     -32.422  15.152  -4.131  1.00 20.00    -0.298 OA
ENDBRANCH   3   8
TORSDOF 1
ENDMDL
MODEL 6
REMARK VINA RESULT:      -3.5      1.928      2.531
REMARK  1 active torsions:
REMARK  status: ('A' for Active; 'I' for Inactive)
REMARK    1  A    between atoms: C2_2  and  C4_4 
ROOT
HETATM    1  C1  UNL     1     -42.483  14.305   4.659  1.00 20.00     0.065 C 
HETATM    2  C3  UNL     1     -41.327  14.036   5.466  1.00 20.00     0.113 A 
HETATM    3  C4  UNL     1     -41.082  12.618   5.930  1.00 20.00     0.082 A 
HETATM    4  C5  UNL     1     -41.471  13.685   6.937  1.00 20.00    -0.019 A 
HETATM    5  C7  UNL     1     -40.429  14.241   7.877  1.00 20.00     0.017 C 
HETATM    6  C8  UNL     1     -42.839  13.573   7.564  1.00 20.00     0.017 C 
HETATM    7  N9  UNL     1     -43.417  14.523   4.007  1.00 20.00    -0.197 NA
ENDROOT
BRANCH   3   8
HETATM    8  C2  UNL     1     -39.716  12.077   5.894  1.00 20.00     0.129 C 
HETATM    9  C6  UNL     1     -39.105  11.871   4.534  1.00 20.00     0.091 C 
HETATM   10  O10 UNL     1     -39.101  11.806   6.925  1.00 20.00    -0.298 OA
ENDBRANCH   3   8
TORSDOF 1
ENDMDL
MODEL 7
REMARK VINA RESULT:      -3.4     12.839     14.120
REMARK  1 active torsions:
REMARK  status: ('A' for Active; 'I' for Inactive)
REMARK    1  A    between atoms: C2_2  and  C4_4 
ROOT
HETATM    1  C1  UNL     1     -37.494  15.977  -5.417  1.00 20.00     0.065 C 
HETATM    2  C3  UNL     1     -36.069  16.039  -5.579  1.00 20.00     0.113 A 
HETATM    3  C4  UNL     1     -35.419  15.143  -6.609  1.00 20.00     0.082 A 
HETATM    4  C5  UNL     1     -35.186  14.887  -5.131  1.00 20.00    -0.019 A 
HETATM    5  C7  UNL     1     -33.858  15.246  -4.510  1.00 20.00     0.017 C 
HETATM    6  C8  UNL     1     -35.799  13.639  -4.544  1.00 20.00     0.017 C 
HETATM    7  N9  UNL     1     -38.645  15.928  -5.286  1.00 20.00    -0.197 NA
ENDROOT
BRANCH   3   8
HETATM    8  C2  UNL     1     -34.349  15.685  -7.458  1.00 20.00     0.129 C 
HETATM    9  C6  UNL     1     -34.389  17.163  -7.736  1.00 20.00     0.091 C 
HETATM   10  O10 UNL     1     -33.463  14.965  -7.918  1.00 20.00    -0.298 OA
ENDBRANCH   3   8
TORSDOF 1
ENDMDL
MODEL 8
REMARK VINA RESULT:      -3.4     12.210     12.966
REMARK  1 active torsions:
REMARK  status: ('A' for Active; 'I' for Inactive)
REMARK    1  A    between atoms: C2_2  and  C4_4 
ROOT
HETATM    1  C1  UNL     1     -32.936  17.515  -1.781  1.00 20.00     0.065 C 
HETATM    2  C3  UNL     1     -33.847  16.936  -2.727  1.00 20.00     0.113 A 
HETATM    3  C4  UNL     1     -33.292  16.389  -4.023  1.00 20.00     0.082 A 
HETATM    4  C5  UNL     1     -34.154  17.638  -4.039  1.00 20.00    -0.019 A 
HETATM    5  C7  UNL     1     -35.575  17.560  -4.539  1.00 20.00     0.017 C 
HETATM    6  C8  UNL     1     -33.472  18.940  -4.386  1.00 20.00     0.017 C 
HETATM    7  N9  UNL     1     -32.202  17.983  -1.015  1.00 20.00    -0.197 NA
ENDROOT
BRANCH   3   8
HETATM    8  C2  UNL     1     -33.804  15.113  -4.540  1.00 20.00     0.129 C 
HETATM    9  C6  UNL     1     -33.925  14.988  -6.035  1.00 20.00     0.091 C 
HETATM   10  O10 UNL     1     -34.118  14.190  -3.789  1.00 20.00    -0.298 OA
ENDBRANCH   3   8
TORSDOF 1
ENDMDL
MODEL 9
REMARK VINA RESULT:      -3.3      2.485      3.714
REMARK  1 active torsions:
REMARK  status: ('A' for Active; 'I' for Inactive)
REMARK    1  A    between atoms: C2_2  and  C4_4 
ROOT
HETATM    1  C1  UNL     1     -40.147  12.545   5.409  1.00 20.00     0.065 C 
HETATM    2  C3  UNL     1     -40.735  13.695   6.036  1.00 20.00     0.113 A 
HETATM    3  C4  UNL     1     -40.701  13.793   7.544  1.00 20.00     0.082 A 
HETATM    4  C5  UNL     1     -42.023  13.573   6.831  1.00 20.00    -0.019 A 
HETATM    5  C7  UNL     1     -43.009  14.710   6.714  1.00 20.00     0.017 C 
HETATM    6  C8  UNL     1     -42.685  12.228   7.010  1.00 20.00     0.017 C 
HETATM    7  N9  UNL     1     -39.673  11.617   4.902  1.00 20.00    -0.197 NA
ENDROOT
BRANCH   3   8
HETATM    8  C2  UNL     1     -40.390  15.085   8.172  1.00 20.00     0.129 C 
HETATM    9  C6  UNL     1     -40.347  15.113   9.676  1.00 20.00     0.091 C 
HETATM   10  O10 UNL     1     -40.174  16.094   7.501  1.00 20.00    -0.298 OA
ENDBRANCH   3   8
TORSDOF 1
ENDMDL
