MODEL 1
REMARK VINA RESULT:      -4.1      0.000      0.000
REMARK  0 active torsions:
REMARK  status: ('A' for Active; 'I' for Inactive)
ROOT
HETATM    1  C1  UNL     1     -32.964   5.896   2.726  1.00 20.00     0.029 C 
HETATM    2  C2  UNL     1     -33.455   5.100   3.934  1.00 20.00     0.046 C 
HETATM    3  C3  UNL     1     -32.336   7.210   3.169  1.00 20.00     0.167 C 
HETATM    4  C4  UNL     1     -33.619   7.293   5.166  1.00 20.00     0.209 C 
HETATM    5  C5  UNL     1     -34.310   5.960   4.871  1.00 20.00     0.134 C 
HETATM    6  O6  UNL     1     -33.251   7.968   3.960  1.00 20.00    -0.388 OA
HETATM    7 CL7  UNL     1     -35.913   6.279   4.118  1.00 20.00    -0.099 Cl
HETATM    8 CL8  UNL     1     -34.596   5.078   6.404  1.00 20.00    -0.099 Cl
ENDROOT
TORSDOF 0
ENDMDL
MODEL 2
REMARK VINA RESULT:      -3.6      1.505      1.937
REMARK  0 active torsions:
REMARK  status: ('A' for Active; 'I' for Inactive)
ROOT
HETATM    1  C1  UNL     1     -33.227   8.039   4.081  1.00 20.00     0.029 C 
HETATM    2  C2  UNL     1     -33.231   6.538   3.795  1.00 20.00     0.046 C 
HETATM    3  C3  UNL     1     -33.112   8.298   5.577  1.00 20.00     0.167 C 
HETATM    4  C4  UNL     1     -34.091   6.209   6.141  1.00 20.00     0.209 C 
HETATM    5  C5  UNL     1     -34.241   5.794   4.676  1.00 20.00     0.134 C 
HETATM    6  O6  UNL     1     -34.154   7.631   6.289  1.00 20.00    -0.388 OA
HETATM    7 CL7  UNL     1     -35.916   6.155   4.126  1.00 20.00    -0.099 Cl
HETATM    8 CL8  UNL     1     -33.986   4.027   4.522  1.00 20.00    -0.099 Cl
ENDROOT
TORSDOF 0
ENDMDL
MODEL 3
REMARK VINA RESULT:      -3.5      2.284      3.170
REMARK  0 active torsions:
REMARK  status: ('A' for Active; 'I' for Inactive)
ROOT
HETATM    1  C1  UNL     1     -34.683   5.881   6.286  1.00 20.00     0.029 C 
HETATM    2  C2  UNL     1     -33.606   6.965   6.235  1.00 20.00     0.046 C 
HETATM    3  C3  UNL     1     -34.430   4.825   5.219  1.00 20.00     0.167 C 
HETATM    4  C4  UNL     1     -33.256   6.341   3.818  1.00 20.00     0.209 C 
HETATM    5  C5  UNL     1     -33.402   7.496   4.812  1.00 20.00     0.134 C 
HETATM    6  O6  UNL     1     -34.346   5.420   3.925  1.00 20.00    -0.388 OA
HETATM    7 CL7  UNL     1     -34.803   8.516   4.332  1.00 20.00    -0.099 Cl
HETATM    8 CL8  UNL     1     -31.935   8.524   4.759  1.00 20.00    -0.099 Cl
ENDROOT
TORSDOF 0
ENDMDL
MODEL 4
REMARK VINA RESULT:      -3.5     16.178     16.764
REMARK  0 active torsions:
REMARK  status: ('A' for Active; 'I' for Inactive)
ROOT
HETATM    1  C1  UNL     1     -24.537  16.235  11.948  1.00 20.00     0.029 C 
HETATM    2  C2  UNL     1     -23.967  16.661  10.595  1.00 20.00     0.046 C 
HETATM    3  C3  UNL     1     -25.720  17.114  12.331  1.00 20.00     0.167 C 
HETATM    4  C4  UNL     1     -24.941  18.944  11.034  1.00 20.00     0.209 C 
HETATM    5  C5  UNL     1     -23.718  18.171  10.534  1.00 20.00     0.134 C 
HETATM    6  O6  UNL     1     -25.350  18.492  12.328  1.00 20.00    -0.388 OA
HETATM    7 CL7  UNL     1     -22.294  18.599  11.548  1.00 20.00    -0.099 Cl
HETATM    8 CL8  UNL     1     -23.350  18.653   8.848  1.00 20.00    -0.099 Cl
ENDROOT
TORSDOF 0
ENDMDL
MODEL 5
REMARK VINA RESULT:      -3.3     12.748     13.548
REMARK  0 active torsions:
REMARK  status: ('A' for Active; 'I' for Inactive)
ROOT
HETATM    1  C1  UNL     1     -32.649  18.348   0.729  1.00 20.00     0.029 C 
HETATM    2  C2  UNL     1     -33.996  18.489   0.023  1.00 20.00     0.046 C 
HETATM    3  C3  UNL     1     -31.612  19.263   0.091  1.00 20.00     0.167 C 
HETATM    4  C4  UNL     1     -32.720  19.261  -2.009  1.00 20.00     0.209 C 
HETATM    5  C5  UNL     1     -33.855  18.371  -1.499  1.00 20.00     0.134 C 
HETATM    6  O6  UNL     1     -31.500  19.004  -1.308  1.00 20.00    -0.388 OA
HETATM    7 CL7  UNL     1     -33.516  16.663  -1.951  1.00 20.00    -0.099 Cl
HETATM    8 CL8  UNL     1     -35.394  18.846  -2.285  1.00 20.00    -0.099 Cl
ENDROOT
TORSDOF 0
ENDMDL
MODEL 6
REMARK VINA RESULT:      -3.3     16.516     16.977
REMARK  0 active torsions:
REMARK  status: ('A' for Active; 'I' for Inactive)
ROOT
HETATM    1  C1  UNL     1     -22.064  17.868   8.391  1.00 20.00     0.029 C 
HETATM    2  C2  UNL     1     -21.855  18.060   9.893  1.00 20.00     0.046 C 
HETATM    3  C3  UNL     1     -23.046  18.899   7.852  1.00 20.00     0.167 C 
HETATM    4  C4  UNL     1     -24.124  19.156   9.952  1.00 20.00     0.209 C 
HETATM    5  C5  UNL     1     -23.186  18.163  10.644  1.00 20.00     0.134 C 
HETATM    6  O6  UNL     1     -24.281  18.846   8.565  1.00 20.00    -0.388 OA
HETATM    7 CL7  UNL     1     -23.979  16.549  10.709  1.00 20.00    -0.099 Cl
HETATM    8 CL8  UNL     1     -22.887  18.691  12.329  1.00 20.00    -0.099 Cl
ENDROOT
TORSDOF 0
ENDMDL
MODEL 7
REMARK VINA RESULT:      -3.2      9.145      9.602
REMARK  0 active torsions:
REMARK  status: ('A' for Active; 'I' for Inactive)
ROOT
HETATM    1  C1  UNL     1     -40.751   7.036  -0.408  1.00 20.00     0.029 C 
HETATM    2  C2  UNL     1     -41.298   6.156   0.715  1.00 20.00     0.046 C 
HETATM    3  C3  UNL     1     -41.453   8.388  -0.418  1.00 20.00     0.167 C 
HETATM    4  C4  UNL     1     -43.416   7.517   0.595  1.00 20.00     0.209 C 
HETATM    5  C5  UNL     1     -42.829   6.108   0.705  1.00 20.00     0.134 C 
HETATM    6  O6  UNL     1     -42.867   8.225  -0.520  1.00 20.00    -0.388 OA
HETATM    7 CL7  UNL     1     -43.402   5.119  -0.685  1.00 20.00    -0.099 Cl
HETATM    8 CL8  UNL     1     -43.417   5.327   2.207  1.00 20.00    -0.099 Cl
ENDROOT
TORSDOF 0
ENDMDL
MODEL 8
REMARK VINA RESULT:      -3.2     12.460     13.346
REMARK  0 active torsions:
REMARK  status: ('A' for Active; 'I' for Inactive)
ROOT
HETATM    1  C1  UNL     1     -32.961  15.903  -3.610  1.00 20.00     0.029 C 
HETATM    2  C2  UNL     1     -34.000  14.847  -3.982  1.00 20.00     0.046 C 
HETATM    3  C3  UNL     1     -33.602  17.282  -3.535  1.00 20.00     0.167 C 
HETATM    4  C4  UNL     1     -35.328  16.699  -5.058  1.00 20.00     0.209 C 
HETATM    5  C5  UNL     1     -34.820  15.264  -5.208  1.00 20.00     0.134 C 
HETATM    6  O6  UNL     1     -34.260  17.603  -4.760  1.00 20.00    -0.388 OA
HETATM    7 CL7  UNL     1     -33.807  15.147  -6.690  1.00 20.00    -0.099 Cl
HETATM    8 CL8  UNL     1     -36.210  14.151  -5.410  1.00 20.00    -0.099 Cl
ENDROOT
TORSDOF 0
ENDMDL
MODEL 9
REMARK VINA RESULT:      -3.1     16.734     17.504
REMARK  0 active torsions:
REMARK  status: ('A' for Active; 'I' for Inactive)
ROOT
HETATM    1  C1  UNL     1     -25.071  18.762  10.612  1.00 20.00     0.029 C 
HETATM    2  C2  UNL     1     -23.943  19.238   9.697  1.00 20.00     0.046 C 
HETATM    3  C3  UNL     1     -24.602  18.715  12.060  1.00 20.00     0.167 C 
HETATM    4  C4  UNL     1     -22.330  18.405  11.445  1.00 20.00     0.209 C 
HETATM    5  C5  UNL     1     -22.643  18.466   9.949  1.00 20.00     0.134 C 
HETATM    6  O6  UNL     1     -23.440  17.898  12.191  1.00 20.00    -0.388 OA
HETATM    7 CL7  UNL     1     -22.792  16.791   9.307  1.00 20.00    -0.099 Cl
HETATM    8 CL8  UNL     1     -21.293  19.263   9.082  1.00 20.00    -0.099 Cl
ENDROOT
TORSDOF 0
ENDMDL
