MODEL 1
REMARK VINA RESULT:      -3.8      0.000      0.000
REMARK  1 active torsions:
REMARK  status: ('A' for Active; 'I' for Inactive)
REMARK    1  A    between atoms: C2_2  and  C6_6 
ROOT
HETATM    1  C1  UNL     1     -34.166  15.188  -6.595  1.00 20.00     0.074 C 
HETATM    2  C3  UNL     1     -34.082  14.712  -4.160  1.00 20.00     0.031 C 
HETATM    3  C4  UNL     1     -33.167  15.834  -3.682  1.00 20.00     0.025 C 
HETATM    4  C5  UNL     1     -34.902  15.256  -5.327  1.00 20.00     0.154 C 
HETATM    5  C6  UNL     1     -34.044  17.065  -3.515  1.00 20.00     0.117 C 
HETATM    6  N8  UNL     1     -33.585  15.133  -7.599  1.00 20.00    -0.196 NA
HETATM    7  S10 UNL     1     -35.254  16.983  -4.865  1.00 20.00    -0.137 SA
ENDROOT
BRANCH   5   8
HETATM    8  C2  UNL     1     -33.275  18.335  -3.645  1.00 20.00     0.136 C 
HETATM    9  C7  UNL     1     -32.619  18.861  -2.397  1.00 20.00     0.092 C 
HETATM   10  O9  UNL     1     -33.177  18.923  -4.722  1.00 20.00    -0.297 OA
ENDBRANCH   5   8
TORSDOF 1
ENDMDL
MODEL 2
REMARK VINA RESULT:      -3.7     14.260     14.883
REMARK  1 active torsions:
REMARK  status: ('A' for Active; 'I' for Inactive)
REMARK    1  A    between atoms: C2_2  and  C6_6 
ROOT
HETATM    1  C1  UNL     1     -42.436  13.587   9.261  1.00 20.00     0.074 C 
HETATM    2  C3  UNL     1     -41.769  15.143   7.446  1.00 20.00     0.031 C 
HETATM    3  C4  UNL     1     -40.442  14.527   7.018  1.00 20.00     0.025 C 
HETATM    4  C5  UNL     1     -42.685  14.001   7.875  1.00 20.00     0.154 C 
HETATM    5  C6  UNL     1     -40.779  13.395   6.061  1.00 20.00     0.117 C 
HETATM    6  N8  UNL     1     -42.241  13.260  10.358  1.00 20.00    -0.196 NA
HETATM    7  S10 UNL     1     -42.303  12.653   6.710  1.00 20.00    -0.137 SA
ENDROOT
BRANCH   5   8
HETATM    8  C2  UNL     1     -39.721  12.347   6.023  1.00 20.00     0.136 C 
HETATM    9  C7  UNL     1     -39.389  11.767   4.675  1.00 20.00     0.092 C 
HETATM   10  O9  UNL     1     -39.144  11.975   7.045  1.00 20.00    -0.297 OA
ENDBRANCH   5   8
TORSDOF 1
ENDMDL
MODEL 3
REMARK VINA RESULT:      -3.7      3.067      4.288
REMARK  1 active torsions:
REMARK  status: ('A' for Active; 'I' for Inactive)
REMARK    1  A    between atoms: C2_2  and  C6_6 
ROOT
HETATM    1  C1  UNL     1     -33.495  16.816  -2.519  1.00 20.00     0.074 C 
HETATM    2  C3  UNL     1     -32.914  15.042  -4.156  1.00 20.00     0.031 C 
HETATM    3  C4  UNL     1     -34.268  14.364  -4.332  1.00 20.00     0.025 C 
HETATM    4  C5  UNL     1     -33.174  16.528  -3.922  1.00 20.00     0.154 C 
HETATM    5  C6  UNL     1     -35.038  15.192  -5.349  1.00 20.00     0.117 C 
HETATM    6  N8  UNL     1     -33.746  17.045  -1.409  1.00 20.00    -0.196 NA
HETATM    7  S10 UNL     1     -34.584  16.916  -5.010  1.00 20.00    -0.137 SA
ENDROOT
BRANCH   5   8
HETATM    8  C2  UNL     1     -36.513  15.052  -5.197  1.00 20.00     0.136 C 
HETATM    9  C7  UNL     1     -37.350  16.242  -5.584  1.00 20.00     0.092 C 
HETATM   10  O9  UNL     1     -37.024  14.014  -4.778  1.00 20.00    -0.297 OA
ENDBRANCH   5   8
TORSDOF 1
ENDMDL
MODEL 4
REMARK VINA RESULT:      -3.6      2.203      2.497
REMARK  1 active torsions:
REMARK  status: ('A' for Active; 'I' for Inactive)
REMARK    1  A    between atoms: C2_2  and  C6_6 
ROOT
HETATM    1  C1  UNL     1     -35.289  14.079  -4.852  1.00 20.00     0.074 C 
HETATM    2  C3  UNL     1     -34.758  16.197  -6.032  1.00 20.00     0.031 C 
HETATM    3  C4  UNL     1     -35.152  17.219  -4.971  1.00 20.00     0.025 C 
HETATM    4  C5  UNL     1     -34.215  14.970  -5.304  1.00 20.00     0.154 C 
HETATM    5  C6  UNL     1     -33.971  17.334  -4.020  1.00 20.00     0.117 C 
HETATM    6  N8  UNL     1     -36.139  13.372  -4.496  1.00 20.00    -0.196 NA
HETATM    7  S10 UNL     1     -33.293  15.655  -3.889  1.00 20.00    -0.137 SA
ENDROOT
BRANCH   5   8
HETATM    8  C2  UNL     1     -34.376  17.788  -2.661  1.00 20.00     0.136 C 
HETATM    9  C7  UNL     1     -33.563  17.273  -1.504  1.00 20.00     0.092 C 
HETATM   10  O9  UNL     1     -35.328  18.549  -2.492  1.00 20.00    -0.297 OA
ENDBRANCH   5   8
TORSDOF 1
ENDMDL
MODEL 5
REMARK VINA RESULT:      -3.6     13.064     13.876
REMARK  1 active torsions:
REMARK  status: ('A' for Active; 'I' for Inactive)
REMARK    1  A    between atoms: C2_2  and  C6_6 
ROOT
HETATM    1  C1  UNL     1     -34.313   4.529   4.654  1.00 20.00     0.074 C 
HETATM    2  C3  UNL     1     -34.644   6.132   6.520  1.00 20.00     0.031 C 
HETATM    3  C4  UNL     1     -33.397   6.998   6.375  1.00 20.00     0.025 C 
HETATM    4  C5  UNL     1     -35.065   5.700   5.118  1.00 20.00     0.154 C 
HETATM    5  C6  UNL     1     -33.708   8.028   5.300  1.00 20.00     0.117 C 
HETATM    6  N8  UNL     1     -33.719   3.602   4.286  1.00 20.00    -0.196 NA
HETATM    7  S10 UNL     1     -34.723   7.155   4.075  1.00 20.00    -0.137 SA
ENDROOT
BRANCH   5   8
HETATM    8  C2  UNL     1     -32.481   8.534   4.624  1.00 20.00     0.136 C 
HETATM    9  C7  UNL     1     -32.027   7.789   3.398  1.00 20.00     0.092 C 
HETATM   10  O9  UNL     1     -31.870   9.515   5.046  1.00 20.00    -0.297 OA
ENDBRANCH   5   8
TORSDOF 1
ENDMDL
MODEL 6
REMARK VINA RESULT:      -3.6      2.988      4.320
REMARK  1 active torsions:
REMARK  status: ('A' for Active; 'I' for Inactive)
REMARK    1  A    between atoms: C2_2  and  C6_6 
ROOT
HETATM    1  C1  UNL     1     -35.477  18.655  -3.006  1.00 20.00     0.074 C 
HETATM    2  C3  UNL     1     -33.193  17.687  -2.911  1.00 20.00     0.031 C 
HETATM    3  C4  UNL     1     -33.513  16.198  -2.977  1.00 20.00     0.025 C 
HETATM    4  C5  UNL     1     -34.236  18.416  -3.754  1.00 20.00     0.154 C 
HETATM    5  C6  UNL     1     -33.705  15.861  -4.447  1.00 20.00     0.117 C 
HETATM    6  N8  UNL     1     -36.458  18.847  -2.416  1.00 20.00    -0.196 NA
HETATM    7  S10 UNL     1     -34.528  17.307  -5.170  1.00 20.00    -0.137 SA
ENDROOT
BRANCH   5   8
HETATM    8  C2  UNL     1     -34.577  14.670  -4.649  1.00 20.00     0.136 C 
HETATM    9  C7  UNL     1     -35.586  14.750  -5.763  1.00 20.00     0.092 C 
HETATM   10  O9  UNL     1     -34.475  13.668  -3.942  1.00 20.00    -0.297 OA
ENDBRANCH   5   8
TORSDOF 1
ENDMDL
MODEL 7
REMARK VINA RESULT:      -3.5      2.943      4.278
REMARK  1 active torsions:
REMARK  status: ('A' for Active; 'I' for Inactive)
REMARK    1  A    between atoms: C2_2  and  C6_6 
ROOT
HETATM    1  C1  UNL     1     -35.122  18.211  -3.377  1.00 20.00     0.074 C 
HETATM    2  C3  UNL     1     -33.228  16.622  -3.600  1.00 20.00     0.031 C 
HETATM    3  C4  UNL     1     -33.977  15.327  -3.893  1.00 20.00     0.025 C 
HETATM    4  C5  UNL     1     -34.020  17.762  -4.236  1.00 20.00     0.154 C 
HETATM    5  C6  UNL     1     -34.282  15.331  -5.383  1.00 20.00     0.117 C 
HETATM    6  N8  UNL     1     -35.992  18.569  -2.697  1.00 20.00    -0.196 NA
HETATM    7  S10 UNL     1     -34.650  17.060  -5.795  1.00 20.00    -0.137 SA
ENDROOT
BRANCH   5   8
HETATM    8  C2  UNL     1     -35.472  14.500  -5.722  1.00 20.00     0.136 C 
HETATM    9  C7  UNL     1     -36.096  13.719  -4.597  1.00 20.00     0.092 C 
HETATM   10  O9  UNL     1     -35.924  14.457  -6.866  1.00 20.00    -0.297 OA
ENDBRANCH   5   8
TORSDOF 1
ENDMDL
MODEL 8
REMARK VINA RESULT:      -3.4     13.301     13.946
REMARK  1 active torsions:
REMARK  status: ('A' for Active; 'I' for Inactive)
REMARK    1  A    between atoms: C2_2  and  C6_6 
ROOT
HETATM    1  C1  UNL     1     -41.557  16.174   7.024  1.00 20.00     0.074 C 
HETATM    2  C3  UNL     1     -42.675  14.673   5.392  1.00 20.00     0.031 C 
HETATM    3  C4  UNL     1     -41.494  13.828   4.929  1.00 20.00     0.025 C 
HETATM    4  C5  UNL     1     -42.443  15.014   6.862  1.00 20.00     0.154 C 
HETATM    5  C6  UNL     1     -41.312  12.731   5.967  1.00 20.00     0.117 C 
HETATM    6  N8  UNL     1     -40.858  17.091   7.153  1.00 20.00    -0.196 NA
HETATM    7  S10 UNL     1     -41.689  13.510   7.562  1.00 20.00    -0.137 SA
ENDROOT
BRANCH   5   8
HETATM    8  C2  UNL     1     -39.916  12.214   6.011  1.00 20.00     0.136 C 
HETATM    9  C7  UNL     1     -39.297  11.820   4.696  1.00 20.00     0.092 C 
HETATM   10  O9  UNL     1     -39.297  12.117   7.069  1.00 20.00    -0.297 OA
ENDBRANCH   5   8
TORSDOF 1
ENDMDL
MODEL 9
REMARK VINA RESULT:      -3.3      3.106      3.731
REMARK  1 active torsions:
REMARK  status: ('A' for Active; 'I' for Inactive)
REMARK    1  A    between atoms: C2_2  and  C6_6 
ROOT
HETATM    1  C1  UNL     1     -37.761  16.653  -5.409  1.00 20.00     0.074 C 
HETATM    2  C3  UNL     1     -35.688  17.433  -6.531  1.00 20.00     0.031 C 
HETATM    3  C4  UNL     1     -34.657  17.168  -5.440  1.00 20.00     0.025 C 
HETATM    4  C5  UNL     1     -36.752  16.343  -6.429  1.00 20.00     0.154 C 
HETATM    5  C6  UNL     1     -34.283  15.698  -5.546  1.00 20.00     0.117 C 
HETATM    6  N8  UNL     1     -38.560  16.898  -4.603  1.00 20.00    -0.196 NA
HETATM    7  S10 UNL     1     -35.818  14.840  -5.993  1.00 20.00    -0.137 SA
ENDROOT
BRANCH   5   8
HETATM    8  C2  UNL     1     -33.788  15.142  -4.256  1.00 20.00     0.136 C 
HETATM    9  C7  UNL     1     -33.331  16.134  -3.221  1.00 20.00     0.092 C 
HETATM   10  O9  UNL     1     -33.757  13.930  -4.045  1.00 20.00    -0.297 OA
ENDBRANCH   5   8
TORSDOF 1
ENDMDL
