MODEL 1
REMARK VINA RESULT:      -4.5      0.000      0.000
REMARK  3 active torsions:
REMARK  status: ('A' for Active; 'I' for Inactive)
REMARK    1  A    between atoms: C4_4  and  C5_5 
REMARK    2  A    between atoms: C6_6  and  C9_9 
REMARK    3  A    between atoms: C7_7  and  C10_10 
ROOT
HETATM    1  C1  UNL     1     -34.744   5.960   6.548  1.00 20.00    -0.029 C 
HETATM    2  C2  UNL     1     -34.438   7.196   6.146  1.00 20.00    -0.021 C 
HETATM    3  C8  UNL     1     -34.307   4.925   5.569  1.00 20.00     0.039 C 
HETATM    4  C9  UNL     1     -33.749   7.204   4.817  1.00 20.00     0.041 C 
HETATM    5  C10 UNL     1     -33.429   5.714   4.588  1.00 20.00     0.062 C 
ENDROOT
BRANCH   4   6
HETATM    6  C6  UNL     1     -32.515   8.048   4.811  1.00 20.00    -0.017 C 
HETATM    7  C5  UNL     1     -32.098   8.748   3.746  1.00 20.00    -0.004 C 
BRANCH   7   8
HETATM    8  C4  UNL     1     -32.802   8.762   2.485  1.00 20.00    -0.011 C 
HETATM    9  C3  UNL     1     -32.231   8.432   1.321  1.00 20.00     0.011 C 
ENDBRANCH   7   8
ENDBRANCH   4   6
BRANCH   5  10
HETATM   10  C7  UNL     1     -33.720   5.320   3.172  1.00 20.00     0.236 C 
HETATM   11  O11 UNL     1     -32.850   5.019   2.362  1.00 20.00    -0.306 OA
ENDBRANCH   5  10
TORSDOF 3
ENDMDL
MODEL 2
REMARK VINA RESULT:      -4.4      1.375      1.855
REMARK  3 active torsions:
REMARK  status: ('A' for Active; 'I' for Inactive)
REMARK    1  A    between atoms: C4_4  and  C5_5 
REMARK    2  A    between atoms: C6_6  and  C9_9 
REMARK    3  A    between atoms: C7_7  and  C10_10 
ROOT
HETATM    1  C1  UNL     1     -33.743   8.370   6.266  1.00 20.00    -0.029 C 
HETATM    2  C2  UNL     1     -33.367   8.683   5.023  1.00 20.00    -0.021 C 
HETATM    3  C8  UNL     1     -34.120   6.934   6.396  1.00 20.00     0.039 C 
HETATM    4  C9  UNL     1     -33.436   7.507   4.099  1.00 20.00     0.041 C 
HETATM    5  C10 UNL     1     -33.661   6.326   5.063  1.00 20.00     0.062 C 
ENDROOT
BRANCH   4   6
HETATM    6  C6  UNL     1     -32.192   7.336   3.288  1.00 20.00    -0.017 C 
HETATM    7  C5  UNL     1     -31.931   8.031   2.171  1.00 20.00    -0.004 C 
BRANCH   7   8
HETATM    8  C4  UNL     1     -32.830   9.026   1.632  1.00 20.00    -0.011 C 
HETATM    9  C3  UNL     1     -32.778   9.454   0.365  1.00 20.00     0.011 C 
ENDBRANCH   7   8
ENDBRANCH   4   6
BRANCH   5  10
HETATM   10  C7  UNL     1     -34.695   5.387   4.519  1.00 20.00     0.236 C 
HETATM   11  O11 UNL     1     -34.578   4.167   4.542  1.00 20.00    -0.306 OA
ENDBRANCH   5  10
TORSDOF 3
ENDMDL
MODEL 3
REMARK VINA RESULT:      -4.0      9.889     10.903
REMARK  3 active torsions:
REMARK  status: ('A' for Active; 'I' for Inactive)
REMARK    1  A    between atoms: C4_4  and  C5_5 
REMARK    2  A    between atoms: C6_6  and  C9_9 
REMARK    3  A    between atoms: C7_7  and  C10_10 
ROOT
HETATM    1  C1  UNL     1     -41.496  15.909   7.260  1.00 20.00    -0.029 C 
HETATM    2  C2  UNL     1     -40.638  14.894   7.125  1.00 20.00    -0.021 C 
HETATM    3  C8  UNL     1     -42.590  15.860   6.250  1.00 20.00     0.039 C 
HETATM    4  C9  UNL     1     -41.005  13.991   5.989  1.00 20.00     0.041 C 
HETATM    5  C10 UNL     1     -42.418  14.475   5.609  1.00 20.00     0.062 C 
ENDROOT
BRANCH   4   6
HETATM    6  C6  UNL     1     -40.995  12.546   6.373  1.00 20.00    -0.017 C 
HETATM    7  C5  UNL     1     -40.072  11.671   5.949  1.00 20.00    -0.004 C 
BRANCH   7   8
HETATM    8  C4  UNL     1     -38.983  12.034   5.072  1.00 20.00    -0.011 C 
HETATM    9  C3  UNL     1     -38.917  11.661   3.788  1.00 20.00     0.011 C 
ENDBRANCH   7   8
ENDBRANCH   4   6
BRANCH   5  10
HETATM   10  C7  UNL     1     -42.570  14.552   4.120  1.00 20.00     0.236 C 
HETATM   11  O11 UNL     1     -41.690  14.218   3.334  1.00 20.00    -0.306 OA
ENDBRANCH   5  10
TORSDOF 3
ENDMDL
MODEL 4
REMARK VINA RESULT:      -3.9     11.797     13.025
REMARK  3 active torsions:
REMARK  status: ('A' for Active; 'I' for Inactive)
REMARK    1  A    between atoms: C4_4  and  C5_5 
REMARK    2  A    between atoms: C6_6  and  C9_9 
REMARK    3  A    between atoms: C7_7  and  C10_10 
ROOT
HETATM    1  C1  UNL     1     -33.973  18.582  -4.946  1.00 20.00    -0.029 C 
HETATM    2  C2  UNL     1     -33.426  18.717  -3.735  1.00 20.00    -0.021 C 
HETATM    3  C8  UNL     1     -34.280  17.160  -5.269  1.00 20.00     0.039 C 
HETATM    4  C9  UNL     1     -33.261  17.402  -3.039  1.00 20.00     0.041 C 
HETATM    5  C10 UNL     1     -34.069  16.439  -3.931  1.00 20.00     0.062 C 
ENDROOT
BRANCH   4   6
HETATM    6  C6  UNL     1     -33.774  17.425  -1.635  1.00 20.00    -0.017 C 
HETATM    7  C5  UNL     1     -33.069  17.891  -0.593  1.00 20.00    -0.004 C 
BRANCH   7   8
HETATM    8  C4  UNL     1     -31.733  18.426  -0.720  1.00 20.00    -0.011 C 
HETATM    9  C3  UNL     1     -30.944  18.688   0.328  1.00 20.00     0.011 C 
ENDBRANCH   7   8
ENDBRANCH   4   6
BRANCH   5  10
HETATM   10  C7  UNL     1     -33.327  15.151  -4.127  1.00 20.00     0.236 C 
HETATM   11  O11 UNL     1     -33.868  14.051  -4.108  1.00 20.00    -0.306 OA
ENDBRANCH   5  10
TORSDOF 3
ENDMDL
MODEL 5
REMARK VINA RESULT:      -3.8      9.786     10.808
REMARK  3 active torsions:
REMARK  status: ('A' for Active; 'I' for Inactive)
REMARK    1  A    between atoms: C4_4  and  C5_5 
REMARK    2  A    between atoms: C6_6  and  C9_9 
REMARK    3  A    between atoms: C7_7  and  C10_10 
ROOT
HETATM    1  C1  UNL     1     -42.660  14.808   5.084  1.00 20.00    -0.029 C 
HETATM    2  C2  UNL     1     -41.627  13.978   4.906  1.00 20.00    -0.021 C 
HETATM    3  C8  UNL     1     -43.417  14.504   6.330  1.00 20.00     0.039 C 
HETATM    4  C9  UNL     1     -41.521  12.965   6.003  1.00 20.00     0.041 C 
HETATM    5  C10 UNL     1     -42.519  13.492   7.054  1.00 20.00     0.062 C 
ENDROOT
BRANCH   4   6
HETATM    6  C6  UNL     1     -40.136  12.855   6.555  1.00 20.00    -0.017 C 
HETATM    7  C5  UNL     1     -39.173  12.106   6.000  1.00 20.00    -0.004 C 
BRANCH   7   8
HETATM    8  C4  UNL     1     -39.372  11.323   4.802  1.00 20.00    -0.011 C 
HETATM    9  C3  UNL     1     -38.893  11.679   3.604  1.00 20.00     0.011 C 
ENDBRANCH   7   8
ENDBRANCH   4   6
BRANCH   5  10
HETATM   10  C7  UNL     1     -43.330  12.368   7.624  1.00 20.00     0.236 C 
HETATM   11  O11 UNL     1     -43.179  11.936   8.762  1.00 20.00    -0.306 OA
ENDBRANCH   5  10
TORSDOF 3
ENDMDL
MODEL 6
REMARK VINA RESULT:      -3.8      1.743      4.119
REMARK  3 active torsions:
REMARK  status: ('A' for Active; 'I' for Inactive)
REMARK    1  A    between atoms: C4_4  and  C5_5 
REMARK    2  A    between atoms: C6_6  and  C9_9 
REMARK    3  A    between atoms: C7_7  and  C10_10 
ROOT
HETATM    1  C1  UNL     1     -32.611   5.953   2.540  1.00 20.00    -0.029 C 
HETATM    2  C2  UNL     1     -33.322   6.150   3.653  1.00 20.00    -0.021 C 
HETATM    3  C8  UNL     1     -32.085   7.228   1.975  1.00 20.00     0.039 C 
HETATM    4  C9  UNL     1     -33.404   7.599   4.023  1.00 20.00     0.041 C 
HETATM    5  C10 UNL     1     -32.372   8.251   3.082  1.00 20.00     0.062 C 
ENDROOT
BRANCH   4   6
HETATM    6  C6  UNL     1     -33.084   7.847   5.462  1.00 20.00    -0.017 C 
HETATM    7  C5  UNL     1     -33.707   7.234   6.478  1.00 20.00    -0.004 C 
BRANCH   7   8
HETATM    8  C4  UNL     1     -34.759   6.262   6.289  1.00 20.00    -0.011 C 
HETATM    9  C3  UNL     1     -34.564   4.941   6.381  1.00 20.00     0.011 C 
ENDBRANCH   7   8
ENDBRANCH   4   6
BRANCH   5  10
HETATM   10  C7  UNL     1     -32.910   9.526   2.507  1.00 20.00     0.236 C 
HETATM   11  O11 UNL     1     -32.898   9.784   1.308  1.00 20.00    -0.306 OA
ENDBRANCH   5  10
TORSDOF 3
ENDMDL
MODEL 7
REMARK VINA RESULT:      -3.6     12.038     13.233
REMARK  3 active torsions:
REMARK  status: ('A' for Active; 'I' for Inactive)
REMARK    1  A    between atoms: C4_4  and  C5_5 
REMARK    2  A    between atoms: C6_6  and  C9_9 
REMARK    3  A    between atoms: C7_7  and  C10_10 
ROOT
HETATM    1  C1  UNL     1     -33.777  15.937  -4.237  1.00 20.00    -0.029 C 
HETATM    2  C2  UNL     1     -33.374  16.045  -2.968  1.00 20.00    -0.021 C 
HETATM    3  C8  UNL     1     -34.500  17.154  -4.703  1.00 20.00     0.039 C 
HETATM    4  C9  UNL     1     -33.768  17.354  -2.359  1.00 20.00     0.041 C 
HETATM    5  C10 UNL     1     -34.254  18.166  -3.577  1.00 20.00     0.062 C 
ENDROOT
BRANCH   4   6
HETATM    6  C6  UNL     1     -32.635  18.028  -1.655  1.00 20.00    -0.017 C 
HETATM    7  C5  UNL     1     -32.662  18.368  -0.358  1.00 20.00    -0.004 C 
BRANCH   7   8
HETATM    8  C4  UNL     1     -33.795  18.115   0.501  1.00 20.00    -0.011 C 
HETATM    9  C3  UNL     1     -34.503  19.086   1.090  1.00 20.00     0.011 C 
ENDBRANCH   7   8
ENDBRANCH   4   6
BRANCH   5  10
HETATM   10  C7  UNL     1     -35.508  18.916  -3.247  1.00 20.00     0.236 C 
HETATM   11  O11 UNL     1     -36.024  18.913  -2.134  1.00 20.00    -0.306 OA
ENDBRANCH   5  10
TORSDOF 3
ENDMDL
MODEL 8
REMARK VINA RESULT:      -3.6     11.790     13.169
REMARK  3 active torsions:
REMARK  status: ('A' for Active; 'I' for Inactive)
REMARK    1  A    between atoms: C4_4  and  C5_5 
REMARK    2  A    between atoms: C6_6  and  C9_9 
REMARK    3  A    between atoms: C7_7  and  C10_10 
ROOT
HETATM    1  C1  UNL     1     -33.283  19.011  -4.172  1.00 20.00    -0.029 C 
HETATM    2  C2  UNL     1     -33.714  17.813  -4.577  1.00 20.00    -0.021 C 
HETATM    3  C8  UNL     1     -32.954  19.029  -2.719  1.00 20.00     0.039 C 
HETATM    4  C9  UNL     1     -33.757  16.820  -3.457  1.00 20.00     0.041 C 
HETATM    5  C10 UNL     1     -33.003  17.546  -2.325  1.00 20.00     0.062 C 
ENDROOT
BRANCH   4   6
HETATM    6  C6  UNL     1     -33.110  15.520  -3.813  1.00 20.00    -0.017 C 
HETATM    7  C5  UNL     1     -33.746  14.522  -4.444  1.00 20.00    -0.004 C 
BRANCH   7   8
HETATM    8  C4  UNL     1     -35.130  14.598  -4.849  1.00 20.00    -0.011 C 
HETATM    9  C3  UNL     1     -35.516  14.796  -6.116  1.00 20.00     0.011 C 
ENDBRANCH   7   8
ENDBRANCH   4   6
BRANCH   5  10
HETATM   10  C7  UNL     1     -33.709  17.363  -1.016  1.00 20.00     0.236 C 
HETATM   11  O11 UNL     1     -33.544  18.101  -0.051  1.00 20.00    -0.306 OA
ENDBRANCH   5  10
TORSDOF 3
ENDMDL
MODEL 9
REMARK VINA RESULT:      -3.6      1.641      2.592
REMARK  3 active torsions:
REMARK  status: ('A' for Active; 'I' for Inactive)
REMARK    1  A    between atoms: C4_4  and  C5_5 
REMARK    2  A    between atoms: C6_6  and  C9_9 
REMARK    3  A    between atoms: C7_7  and  C10_10 
ROOT
HETATM    1  C1  UNL     1     -33.218   5.417   2.868  1.00 20.00    -0.029 C 
HETATM    2  C2  UNL     1     -32.413   6.475   2.998  1.00 20.00    -0.021 C 
HETATM    3  C8  UNL     1     -34.242   5.353   3.948  1.00 20.00     0.039 C 
HETATM    4  C9  UNL     1     -32.755   7.301   4.199  1.00 20.00     0.041 C 
HETATM    5  C10 UNL     1     -34.109   6.714   4.644  1.00 20.00     0.062 C 
ENDROOT
BRANCH   4   6
HETATM    6  C6  UNL     1     -32.855   8.760   3.887  1.00 20.00    -0.017 C 
HETATM    7  C5  UNL     1     -32.706   9.269   2.655  1.00 20.00    -0.004 C 
BRANCH   7   8
HETATM    8  C4  UNL     1     -32.433   8.456   1.493  1.00 20.00    -0.011 C 
HETATM    9  C3  UNL     1     -32.551   8.905   0.237  1.00 20.00     0.011 C 
ENDBRANCH   7   8
ENDBRANCH   4   6
BRANCH   5  10
HETATM   10  C7  UNL     1     -34.155   6.561   6.134  1.00 20.00     0.236 C 
HETATM   11  O11 UNL     1     -34.256   5.477   6.699  1.00 20.00    -0.306 OA
ENDBRANCH   5  10
TORSDOF 3
ENDMDL
