MODEL 1
REMARK VINA RESULT:      -4.3      0.000      0.000
REMARK  1 active torsions:
REMARK  status: ('A' for Active; 'I' for Inactive)
REMARK    1  A    between atoms: C2_2  and  C3_3 
ROOT
HETATM    1  C1  UNL     1     -33.501   8.258   5.167  1.00 20.00    -0.009 C 
HETATM    2  C2  UNL     1     -33.163   7.464   4.107  1.00 20.00    -0.007 C 
HETATM    3  C4  UNL     1     -34.615   4.919   6.407  1.00 20.00     0.002 C 
HETATM    4  C5  UNL     1     -34.717   6.403   6.859  1.00 20.00     0.009 C 
HETATM    5  C6  UNL     1     -33.894   4.957   5.024  1.00 20.00     0.015 C 
HETATM    6  C7  UNL     1     -33.657   7.002   5.981  1.00 20.00     0.021 C 
HETATM    7  C8  UNL     1     -34.125   6.396   4.592  1.00 20.00    -0.007 C 
HETATM    8  C10 UNL     1     -35.524   6.563   3.962  1.00 20.00     0.021 C 
ENDROOT
BRANCH   2   9
HETATM    9  C3  UNL     1     -32.590   7.869   2.832  1.00 20.00     0.152 C 
HETATM   10  C9  UNL     1     -32.737   9.312   2.402  1.00 20.00     0.096 C 
HETATM   11  O11 UNL     1     -31.999   7.054   2.110  1.00 20.00    -0.293 OA
ENDBRANCH   2   9
TORSDOF 1
ENDMDL
MODEL 2
REMARK VINA RESULT:      -4.3     12.102     13.728
REMARK  1 active torsions:
REMARK  status: ('A' for Active; 'I' for Inactive)
REMARK    1  A    between atoms: C2_2  and  C3_3 
ROOT
HETATM    1  C1  UNL     1     -33.375  16.782  -1.950  1.00 20.00    -0.009 C 
HETATM    2  C2  UNL     1     -32.729  17.970  -1.756  1.00 20.00    -0.007 C 
HETATM    3  C4  UNL     1     -34.139  18.523  -5.161  1.00 20.00     0.002 C 
HETATM    4  C5  UNL     1     -34.557  17.211  -4.439  1.00 20.00     0.009 C 
HETATM    5  C6  UNL     1     -33.198  19.263  -4.159  1.00 20.00     0.015 C 
HETATM    6  C7  UNL     1     -33.469  17.137  -3.408  1.00 20.00     0.021 C 
HETATM    7  C8  UNL     1     -33.578  18.613  -2.838  1.00 20.00    -0.007 C 
HETATM    8  C10 UNL     1     -34.850  19.261  -2.252  1.00 20.00     0.021 C 
ENDROOT
BRANCH   2   9
HETATM    9  C3  UNL     1     -32.011  18.417  -0.573  1.00 20.00     0.152 C 
HETATM   10  C9  UNL     1     -32.773  18.543   0.728  1.00 20.00     0.096 C 
HETATM   11  O11 UNL     1     -30.805  18.695  -0.625  1.00 20.00    -0.293 OA
ENDBRANCH   2   9
TORSDOF 1
ENDMDL
MODEL 3
REMARK VINA RESULT:      -4.2      9.793     10.623
REMARK  1 active torsions:
REMARK  status: ('A' for Active; 'I' for Inactive)
REMARK    1  A    between atoms: C2_2  and  C3_3 
ROOT
HETATM    1  C1  UNL     1     -41.523  13.650   4.919  1.00 20.00    -0.009 C 
HETATM    2  C2  UNL     1     -40.761  13.121   5.923  1.00 20.00    -0.007 C 
HETATM    3  C4  UNL     1     -43.158  15.166   7.911  1.00 20.00     0.002 C 
HETATM    4  C5  UNL     1     -43.416  15.084   6.380  1.00 20.00     0.009 C 
HETATM    5  C6  UNL     1     -41.889  14.294   8.163  1.00 20.00     0.015 C 
HETATM    6  C7  UNL     1     -42.060  14.632   5.924  1.00 20.00     0.021 C 
HETATM    7  C8  UNL     1     -41.865  13.415   6.922  1.00 20.00    -0.007 C 
HETATM    8  C10 UNL     1     -42.823  12.215   7.080  1.00 20.00     0.021 C 
ENDROOT
BRANCH   2   9
HETATM    9  C3  UNL     1     -39.664  12.173   5.810  1.00 20.00     0.152 C 
HETATM   10  C9  UNL     1     -39.256  11.704   4.431  1.00 20.00     0.096 C 
HETATM   11  O11 UNL     1     -39.078  11.751   6.817  1.00 20.00    -0.293 OA
ENDBRANCH   2   9
TORSDOF 1
ENDMDL
MODEL 4
REMARK VINA RESULT:      -4.1     12.350     13.389
REMARK  1 active torsions:
REMARK  status: ('A' for Active; 'I' for Inactive)
REMARK    1  A    between atoms: C2_2  and  C3_3 
ROOT
HETATM    1  C1  UNL     1     -33.107  16.000  -3.537  1.00 20.00    -0.009 C 
HETATM    2  C2  UNL     1     -34.221  16.513  -4.139  1.00 20.00    -0.007 C 
HETATM    3  C4  UNL     1     -33.992  18.735  -1.157  1.00 20.00     0.002 C 
HETATM    4  C5  UNL     1     -32.826  17.727  -1.365  1.00 20.00     0.009 C 
HETATM    5  C6  UNL     1     -34.964  18.494  -2.354  1.00 20.00     0.015 C 
HETATM    6  C7  UNL     1     -33.496  16.763  -2.300  1.00 20.00     0.021 C 
HETATM    7  C8  UNL     1     -34.055  17.804  -3.358  1.00 20.00    -0.007 C 
HETATM    8  C10 UNL     1     -33.214  18.836  -4.139  1.00 20.00     0.021 C 
ENDROOT
BRANCH   2   9
HETATM    9  C3  UNL     1     -34.821  16.113  -5.403  1.00 20.00     0.152 C 
HETATM   10  C9  UNL     1     -34.070  15.135  -6.278  1.00 20.00     0.096 C 
HETATM   11  O11 UNL     1     -35.917  16.565  -5.760  1.00 20.00    -0.293 OA
ENDBRANCH   2   9
TORSDOF 1
ENDMDL
MODEL 5
REMARK VINA RESULT:      -3.6      1.412      2.253
REMARK  1 active torsions:
REMARK  status: ('A' for Active; 'I' for Inactive)
REMARK    1  A    between atoms: C2_2  and  C3_3 
ROOT
HETATM    1  C1  UNL     1     -32.335   6.400   3.230  1.00 20.00    -0.009 C 
HETATM    2  C2  UNL     1     -33.055   7.541   3.446  1.00 20.00    -0.007 C 
HETATM    3  C4  UNL     1     -35.327   5.018   4.981  1.00 20.00     0.002 C 
HETATM    4  C5  UNL     1     -33.946   4.502   4.487  1.00 20.00     0.009 C 
HETATM    5  C6  UNL     1     -35.331   6.547   4.669  1.00 20.00     0.015 C 
HETATM    6  C7  UNL     1     -33.581   5.622   3.558  1.00 20.00     0.021 C 
HETATM    7  C8  UNL     1     -33.845   6.842   4.537  1.00 20.00    -0.007 C 
HETATM    8  C10 UNL     1     -33.199   7.041   5.924  1.00 20.00     0.021 C 
ENDROOT
BRANCH   2   9
HETATM    9  C3  UNL     1     -32.681   8.909   3.125  1.00 20.00     0.152 C 
HETATM   10  C9  UNL     1     -32.839   9.383   1.697  1.00 20.00     0.096 C 
HETATM   11  O11 UNL     1     -32.237   9.671   3.995  1.00 20.00    -0.293 OA
ENDBRANCH   2   9
TORSDOF 1
ENDMDL
MODEL 6
REMARK VINA RESULT:      -3.6     10.157     11.074
REMARK  1 active torsions:
REMARK  status: ('A' for Active; 'I' for Inactive)
REMARK    1  A    between atoms: C2_2  and  C3_3 
ROOT
HETATM    1  C1  UNL     1     -42.082  13.179   7.280  1.00 20.00    -0.009 C 
HETATM    2  C2  UNL     1     -40.805  13.454   6.879  1.00 20.00    -0.007 C 
HETATM    3  C4  UNL     1     -41.842  16.803   8.141  1.00 20.00     0.002 C 
HETATM    4  C5  UNL     1     -42.847  15.636   8.356  1.00 20.00     0.009 C 
HETATM    5  C6  UNL     1     -40.615  16.162   7.420  1.00 20.00     0.015 C 
HETATM    6  C7  UNL     1     -42.319  14.664   7.342  1.00 20.00     0.021 C 
HETATM    7  C8  UNL     1     -40.789  14.690   7.759  1.00 20.00    -0.007 C 
HETATM    8  C10 UNL     1     -40.232  14.380   9.165  1.00 20.00     0.021 C 
ENDROOT
BRANCH   2   9
HETATM    9  C3  UNL     1     -39.820  12.532   6.334  1.00 20.00     0.152 C 
HETATM   10  C9  UNL     1     -39.834  12.260   4.847  1.00 20.00     0.096 C 
HETATM   11  O11 UNL     1     -38.992  11.976   7.069  1.00 20.00    -0.293 OA
ENDBRANCH   2   9
TORSDOF 1
ENDMDL
MODEL 7
REMARK VINA RESULT:      -3.5     12.373     13.950
REMARK  1 active torsions:
REMARK  status: ('A' for Active; 'I' for Inactive)
REMARK    1  A    between atoms: C2_2  and  C3_3 
ROOT
HETATM    1  C1  UNL     1     -34.041  15.478  -4.001  1.00 20.00    -0.009 C 
HETATM    2  C2  UNL     1     -33.780  16.815  -4.114  1.00 20.00    -0.007 C 
HETATM    3  C4  UNL     1     -35.122  16.107  -7.517  1.00 20.00     0.002 C 
HETATM    4  C5  UNL     1     -35.175  14.940  -6.491  1.00 20.00     0.009 C 
HETATM    5  C6  UNL     1     -34.487  17.306  -6.745  1.00 20.00     0.015 C 
HETATM    6  C7  UNL     1     -34.163  15.435  -5.500  1.00 20.00     0.021 C 
HETATM    7  C8  UNL     1     -34.725  16.905  -5.298  1.00 20.00    -0.007 C 
HETATM    8  C10 UNL     1     -36.158  17.269  -4.855  1.00 20.00     0.021 C 
ENDROOT
BRANCH   2   9
HETATM    9  C3  UNL     1     -33.281  17.719  -3.089  1.00 20.00     0.152 C 
HETATM   10  C9  UNL     1     -33.386  17.295  -1.641  1.00 20.00     0.096 C 
HETATM   11  O11 UNL     1     -32.788  18.815  -3.391  1.00 20.00    -0.293 OA
ENDBRANCH   2   9
TORSDOF 1
ENDMDL
MODEL 8
REMARK VINA RESULT:      -3.5     12.629     14.069
REMARK  1 active torsions:
REMARK  status: ('A' for Active; 'I' for Inactive)
REMARK    1  A    between atoms: C2_2  and  C3_3 
ROOT
HETATM    1  C1  UNL     1     -25.704  -4.191  11.030  1.00 20.00    -0.009 C 
HETATM    2  C2  UNL     1     -25.173  -3.195  10.259  1.00 20.00    -0.007 C 
HETATM    3  C4  UNL     1     -28.654  -1.933  10.675  1.00 20.00     0.002 C 
HETATM    4  C5  UNL     1     -28.277  -3.212  11.475  1.00 20.00     0.009 C 
HETATM    5  C6  UNL     1     -27.361  -1.537   9.897  1.00 20.00     0.015 C 
HETATM    6  C7  UNL     1     -27.065  -3.640  10.701  1.00 20.00     0.021 C 
HETATM    7  C8  UNL     1     -26.285  -2.259  10.694  1.00 20.00    -0.007 C 
HETATM    8  C10 UNL     1     -25.885  -1.443  11.942  1.00 20.00     0.021 C 
ENDROOT
BRANCH   2   9
HETATM    9  C3  UNL     1     -23.804  -3.061   9.787  1.00 20.00     0.152 C 
HETATM   10  C9  UNL     1     -23.534  -3.213   8.307  1.00 20.00     0.096 C 
HETATM   11  O11 UNL     1     -22.876  -2.835  10.576  1.00 20.00    -0.293 OA
ENDBRANCH   2   9
TORSDOF 1
ENDMDL
MODEL 9
REMARK VINA RESULT:      -3.5     10.231     11.082
REMARK  1 active torsions:
REMARK  status: ('A' for Active; 'I' for Inactive)
REMARK    1  A    between atoms: C2_2  and  C3_3 
ROOT
HETATM    1  C1  UNL     1     -40.445  14.109   8.082  1.00 20.00    -0.009 C 
HETATM    2  C2  UNL     1     -41.402  14.663   7.280  1.00 20.00    -0.007 C 
HETATM    3  C4  UNL     1     -39.965  12.134   4.952  1.00 20.00     0.002 C 
HETATM    4  C5  UNL     1     -39.435  12.115   6.414  1.00 20.00     0.009 C 
HETATM    5  C6  UNL     1     -41.020  13.283   4.911  1.00 20.00     0.015 C 
HETATM    6  C7  UNL     1     -39.851  13.491   6.846  1.00 20.00     0.021 C 
HETATM    7  C8  UNL     1     -41.367  13.440   6.383  1.00 20.00    -0.007 C 
HETATM    8  C10 UNL     1     -42.407  12.386   6.818  1.00 20.00     0.021 C 
ENDROOT
BRANCH   2   9
HETATM    9  C3  UNL     1     -42.369  15.695   7.622  1.00 20.00     0.152 C 
HETATM   10  C9  UNL     1     -43.240  15.490   8.842  1.00 20.00     0.096 C 
HETATM   11  O11 UNL     1     -42.485  16.716   6.930  1.00 20.00    -0.293 OA
ENDBRANCH   2   9
TORSDOF 1
ENDMDL
