MODEL 1
REMARK VINA RESULT:      -4.7      0.000      0.000
REMARK  1 active torsions:
REMARK  status: ('A' for Active; 'I' for Inactive)
REMARK    1  A    between atoms: C4_4  and  C6_6 
ROOT
HETATM    1  C1  UNL     1     -33.368   7.801   5.873  1.00 20.00     0.009 A 
HETATM    2  C2  UNL     1     -34.162   6.740   6.047  1.00 20.00     0.082 A 
HETATM    3  C3  UNL     1     -32.673   8.003   4.635  1.00 20.00     0.037 A 
HETATM    4  C4  UNL     1     -32.836   7.107   3.658  1.00 20.00     0.079 A 
HETATM    5  C5  UNL     1     -34.339   5.752   4.963  1.00 20.00     0.288 A 
HETATM    6  O10 UNL     1     -35.067   4.777   5.119  1.00 20.00    -0.260 OA
HETATM    7  O11 UNL     1     -33.661   5.973   3.793  1.00 20.00    -0.276 OA
ENDROOT
BRANCH   4   8
HETATM    8  C6  UNL     1     -32.180   7.209   2.353  1.00 20.00     0.039 C 
HETATM    9  C7  UNL     1     -32.278   8.264   1.525  1.00 20.00    -0.085 C 
HETATM   10  C8  UNL     1     -31.621   8.407   0.181  1.00 20.00     0.043 C 
HETATM   11  C9  UNL     1     -33.115   9.451   1.926  1.00 20.00     0.043 C 
ENDBRANCH   4   8
TORSDOF 1
ENDMDL
MODEL 2
REMARK VINA RESULT:      -4.6     11.540     12.217
REMARK  1 active torsions:
REMARK  status: ('A' for Active; 'I' for Inactive)
REMARK    1  A    between atoms: C4_4  and  C6_6 
ROOT
HETATM    1  C1  UNL     1     -33.922  18.912   0.487  1.00 20.00     0.009 A 
HETATM    2  C2  UNL     1     -32.648  19.262   0.686  1.00 20.00     0.082 A 
HETATM    3  C3  UNL     1     -34.277  17.992  -0.553  1.00 20.00     0.037 A 
HETATM    4  C4  UNL     1     -33.304  17.491  -1.321  1.00 20.00     0.079 A 
HETATM    5  C5  UNL     1     -31.576  18.705  -0.165  1.00 20.00     0.288 A 
HETATM    6  O10 UNL     1     -30.405  19.024   0.016  1.00 20.00    -0.260 OA
HETATM    7  O11 UNL     1     -31.947  17.828  -1.151  1.00 20.00    -0.276 OA
ENDROOT
BRANCH   4   8
HETATM    8  C6  UNL     1     -33.546  16.544  -2.411  1.00 20.00     0.039 C 
HETATM    9  C7  UNL     1     -33.723  16.885  -3.700  1.00 20.00    -0.085 C 
HETATM   10  C8  UNL     1     -33.973  15.943  -4.845  1.00 20.00     0.043 C 
HETATM   11  C9  UNL     1     -33.680  18.337  -4.100  1.00 20.00     0.043 C 
ENDBRANCH   4   8
TORSDOF 1
ENDMDL
MODEL 3
REMARK VINA RESULT:      -4.5     11.432     12.366
REMARK  1 active torsions:
REMARK  status: ('A' for Active; 'I' for Inactive)
REMARK    1  A    between atoms: C4_4  and  C6_6 
ROOT
HETATM    1  C1  UNL     1     -34.999  18.218  -3.617  1.00 20.00     0.009 A 
HETATM    2  C2  UNL     1     -34.409  17.163  -4.188  1.00 20.00     0.082 A 
HETATM    3  C3  UNL     1     -34.768  18.531  -2.238  1.00 20.00     0.037 A 
HETATM    4  C4  UNL     1     -33.949  17.744  -1.533  1.00 20.00     0.079 A 
HETATM    5  C5  UNL     1     -33.504  16.296  -3.405  1.00 20.00     0.288 A 
HETATM    6  O10 UNL     1     -32.961  15.327  -3.925  1.00 20.00    -0.260 OA
HETATM    7  O11 UNL     1     -33.304  16.622  -2.089  1.00 20.00    -0.276 OA
ENDROOT
BRANCH   4   8
HETATM    8  C6  UNL     1     -33.638  17.965  -0.120  1.00 20.00     0.039 C 
HETATM    9  C7  UNL     1     -32.479  18.468   0.342  1.00 20.00    -0.085 C 
HETATM   10  C8  UNL     1     -32.123  18.710   1.782  1.00 20.00     0.043 C 
HETATM   11  C9  UNL     1     -31.390  18.844  -0.629  1.00 20.00     0.043 C 
ENDBRANCH   4   8
TORSDOF 1
ENDMDL
MODEL 4
REMARK VINA RESULT:      -4.5      9.937     10.679
REMARK  1 active torsions:
REMARK  status: ('A' for Active; 'I' for Inactive)
REMARK    1  A    between atoms: C4_4  and  C6_6 
ROOT
HETATM    1  C1  UNL     1     -42.158  15.185   7.821  1.00 20.00     0.009 A 
HETATM    2  C2  UNL     1     -42.777  14.293   8.601  1.00 20.00     0.082 A 
HETATM    3  C3  UNL     1     -41.481  14.771   6.628  1.00 20.00     0.037 A 
HETATM    4  C4  UNL     1     -41.480  13.472   6.312  1.00 20.00     0.079 A 
HETATM    5  C5  UNL     1     -42.774  12.859   8.247  1.00 20.00     0.288 A 
HETATM    6  O10 UNL     1     -43.341  12.038   8.961  1.00 20.00    -0.260 OA
HETATM    7  O11 UNL     1     -42.118  12.495   7.101  1.00 20.00    -0.276 OA
ENDROOT
BRANCH   4   8
HETATM    8  C6  UNL     1     -40.823  12.934   5.119  1.00 20.00     0.039 C 
HETATM    9  C7  UNL     1     -39.670  12.242   5.124  1.00 20.00    -0.085 C 
HETATM   10  C8  UNL     1     -38.967  11.675   3.922  1.00 20.00     0.043 C 
HETATM   11  C9  UNL     1     -38.964  11.978   6.428  1.00 20.00     0.043 C 
ENDBRANCH   4   8
TORSDOF 1
ENDMDL
MODEL 5
REMARK VINA RESULT:      -4.5      0.873      1.380
REMARK  1 active torsions:
REMARK  status: ('A' for Active; 'I' for Inactive)
REMARK    1  A    between atoms: C4_4  and  C6_6 
ROOT
HETATM    1  C1  UNL     1     -34.084   7.228   6.709  1.00 20.00     0.009 A 
HETATM    2  C2  UNL     1     -34.524   5.994   6.445  1.00 20.00     0.082 A 
HETATM    3  C3  UNL     1     -33.509   8.039   5.677  1.00 20.00     0.037 A 
HETATM    4  C4  UNL     1     -33.421   7.534   4.442  1.00 20.00     0.079 A 
HETATM    5  C5  UNL     1     -34.426   5.441   5.078  1.00 20.00     0.288 A 
HETATM    6  O10 UNL     1     -34.829   4.308   4.832  1.00 20.00    -0.260 OA
HETATM    7  O11 UNL     1     -33.871   6.240   4.114  1.00 20.00    -0.276 OA
ENDROOT
BRANCH   4   8
HETATM    8  C6  UNL     1     -32.855   8.269   3.310  1.00 20.00     0.039 C 
HETATM    9  C7  UNL     1     -32.399   7.703   2.178  1.00 20.00    -0.085 C 
HETATM   10  C8  UNL     1     -31.812   8.423   0.996  1.00 20.00     0.043 C 
HETATM   11  C9  UNL     1     -32.452   6.206   2.018  1.00 20.00     0.043 C 
ENDBRANCH   4   8
TORSDOF 1
ENDMDL
MODEL 6
REMARK VINA RESULT:      -4.4     10.034     10.802
REMARK  1 active torsions:
REMARK  status: ('A' for Active; 'I' for Inactive)
REMARK    1  A    between atoms: C4_4  and  C6_6 
ROOT
HETATM    1  C1  UNL     1     -42.859  13.433   8.267  1.00 20.00     0.009 A 
HETATM    2  C2  UNL     1     -42.262  14.501   8.805  1.00 20.00     0.082 A 
HETATM    3  C3  UNL     1     -42.378  12.862   7.044  1.00 20.00     0.037 A 
HETATM    4  C4  UNL     1     -41.318  13.421   6.451  1.00 20.00     0.079 A 
HETATM    5  C5  UNL     1     -41.091  15.116   8.146  1.00 20.00     0.288 A 
HETATM    6  O10 UNL     1     -40.541  16.096   8.637  1.00 20.00    -0.260 OA
HETATM    7  O11 UNL     1     -40.656  14.546   6.978  1.00 20.00    -0.276 OA
ENDROOT
BRANCH   4   8
HETATM    8  C6  UNL     1     -40.739  12.924   5.202  1.00 20.00     0.039 C 
HETATM    9  C7  UNL     1     -39.606  12.205   5.114  1.00 20.00    -0.085 C 
HETATM   10  C8  UNL     1     -38.981  11.678   3.852  1.00 20.00     0.043 C 
HETATM   11  C9  UNL     1     -38.841  11.861   6.365  1.00 20.00     0.043 C 
ENDBRANCH   4   8
TORSDOF 1
ENDMDL
MODEL 7
REMARK VINA RESULT:      -4.4     11.674     12.812
REMARK  1 active torsions:
REMARK  status: ('A' for Active; 'I' for Inactive)
REMARK    1  A    between atoms: C4_4  and  C6_6 
ROOT
HETATM    1  C1  UNL     1     -33.574  16.288  -3.691  1.00 20.00     0.009 A 
HETATM    2  C2  UNL     1     -34.365  17.105  -4.393  1.00 20.00     0.082 A 
HETATM    3  C3  UNL     1     -33.324  16.526  -2.299  1.00 20.00     0.037 A 
HETATM    4  C4  UNL     1     -33.899  17.584  -1.719  1.00 20.00     0.079 A 
HETATM    5  C5  UNL     1     -34.999  18.272  -3.747  1.00 20.00     0.288 A 
HETATM    6  O10 UNL     1     -35.726  19.024  -4.389  1.00 20.00    -0.260 OA
HETATM    7  O11 UNL     1     -34.740  18.472  -2.416  1.00 20.00    -0.276 OA
ENDROOT
BRANCH   4   8
HETATM    8  C6  UNL     1     -33.718  17.925  -0.307  1.00 20.00     0.039 C 
HETATM    9  C7  UNL     1     -32.624  18.515   0.206  1.00 20.00    -0.085 C 
HETATM   10  C8  UNL     1     -32.401  18.880   1.648  1.00 20.00     0.043 C 
HETATM   11  C9  UNL     1     -31.473  18.868  -0.699  1.00 20.00     0.043 C 
ENDBRANCH   4   8
TORSDOF 1
ENDMDL
MODEL 8
REMARK VINA RESULT:      -4.3     11.518     12.086
REMARK  1 active torsions:
REMARK  status: ('A' for Active; 'I' for Inactive)
REMARK    1  A    between atoms: C4_4  and  C6_6 
ROOT
HETATM    1  C1  UNL     1     -31.554  18.999   0.034  1.00 20.00     0.009 A 
HETATM    2  C2  UNL     1     -32.548  19.263   0.888  1.00 20.00     0.082 A 
HETATM    3  C3  UNL     1     -31.762  18.139  -1.093  1.00 20.00     0.037 A 
HETATM    4  C4  UNL     1     -32.974  17.604  -1.273  1.00 20.00     0.079 A 
HETATM    5  C5  UNL     1     -33.886  18.670   0.684  1.00 20.00     0.288 A 
HETATM    6  O10 UNL     1     -34.801  18.910   1.466  1.00 20.00    -0.260 OA
HETATM    7  O11 UNL     1     -34.053  17.852  -0.402  1.00 20.00    -0.276 OA
ENDROOT
BRANCH   4   8
HETATM    8  C6  UNL     1     -33.304  16.714  -2.387  1.00 20.00     0.039 C 
HETATM    9  C7  UNL     1     -33.813  17.115  -3.565  1.00 20.00    -0.085 C 
HETATM   10  C8  UNL     1     -34.164  16.233  -4.731  1.00 20.00     0.043 C 
HETATM   11  C9  UNL     1     -34.081  18.578  -3.803  1.00 20.00     0.043 C 
ENDBRANCH   4   8
TORSDOF 1
ENDMDL
MODEL 9
REMARK VINA RESULT:      -4.2     11.653     12.799
REMARK  1 active torsions:
REMARK  status: ('A' for Active; 'I' for Inactive)
REMARK    1  A    between atoms: C4_4  and  C6_6 
ROOT
HETATM    1  C1  UNL     1     -33.728  15.076  -5.265  1.00 20.00     0.009 A 
HETATM    2  C2  UNL     1     -34.745  15.757  -5.802  1.00 20.00     0.082 A 
HETATM    3  C3  UNL     1     -33.202  15.433  -3.981  1.00 20.00     0.037 A 
HETATM    4  C4  UNL     1     -33.751  16.464  -3.331  1.00 20.00     0.079 A 
HETATM    5  C5  UNL     1     -35.348  16.896  -5.079  1.00 20.00     0.288 A 
HETATM    6  O10 UNL     1     -36.282  17.523  -5.569  1.00 20.00    -0.260 OA
HETATM    7  O11 UNL     1     -34.823  17.213  -3.854  1.00 20.00    -0.276 OA
ENDROOT
BRANCH   4   8
HETATM    8  C6  UNL     1     -33.299  16.919  -2.014  1.00 20.00     0.039 C 
HETATM    9  C7  UNL     1     -32.783  18.134  -1.757  1.00 20.00    -0.085 C 
HETATM   10  C8  UNL     1     -32.309  18.636  -0.421  1.00 20.00     0.043 C 
HETATM   11  C9  UNL     1     -32.640  19.135  -2.873  1.00 20.00     0.043 C 
ENDBRANCH   4   8
TORSDOF 1
ENDMDL
