MODEL 1
REMARK VINA RESULT:      -4.2      0.000      0.000
REMARK  1 active torsions:
REMARK  status: ('A' for Active; 'I' for Inactive)
REMARK    1  A    between atoms: C1_1  and  C3_3 
REMARK       I    between atoms: C3_3  and  N8_8 
ROOT
HETATM    1  C3  UNL     1     -33.031   7.635   4.386  1.00 20.00     0.243 C 
HETATM    2  C4  UNL     1     -34.253   5.394   3.939  1.00 20.00     0.151 A 
HETATM    3  C5  UNL     1     -34.780   6.000   5.314  1.00 20.00     0.101 A 
HETATM    4  C7  UNL     1     -34.400   5.383   6.610  1.00 20.00     0.034 C 
HETATM    5  N8  UNL     1     -33.825   6.565   4.510  1.00 20.00    -0.341 N 
HETATM    6  O9  UNL     1     -32.932   8.545   5.203  1.00 20.00    -0.268 OA
ENDROOT
BRANCH   1   7
HETATM    7  C1  UNL     1     -32.239   7.661   3.143  1.00 20.00     0.070 C 
HETATM    8  C2  UNL     1     -32.618   8.318   2.039  1.00 20.00    -0.026 C 
HETATM    9  C6  UNL     1     -31.821   8.343   0.777  1.00 20.00     0.036 C 
ENDBRANCH   1   7
TORSDOF 1
ENDMDL
MODEL 2
REMARK VINA RESULT:      -3.9     11.780     12.700
REMARK  1 active torsions:
REMARK  status: ('A' for Active; 'I' for Inactive)
REMARK    1  A    between atoms: C1_1  and  C3_3 
REMARK       I    between atoms: C3_3  and  N8_8 
ROOT
HETATM    1  C3  UNL     1     -33.919  15.290  -4.221  1.00 20.00     0.243 C 
HETATM    2  C4  UNL     1     -35.582  16.983  -5.262  1.00 20.00     0.151 A 
HETATM    3  C5  UNL     1     -35.970  15.518  -5.750  1.00 20.00     0.101 A 
HETATM    4  C7  UNL     1     -35.726  15.096  -7.152  1.00 20.00     0.034 C 
HETATM    5  N8  UNL     1     -34.918  15.830  -4.928  1.00 20.00    -0.341 N 
HETATM    6  O9  UNL     1     -33.631  14.098  -4.194  1.00 20.00    -0.268 OA
ENDROOT
BRANCH   1   7
HETATM    7  C1  UNL     1     -33.140  16.262  -3.434  1.00 20.00     0.070 C 
HETATM    8  C2  UNL     1     -33.532  16.730  -2.241  1.00 20.00    -0.026 C 
HETATM    9  C6  UNL     1     -32.748  17.717  -1.441  1.00 20.00     0.036 C 
ENDBRANCH   1   7
TORSDOF 1
ENDMDL
MODEL 3
REMARK VINA RESULT:      -3.9      1.187      4.066
REMARK  1 active torsions:
REMARK  status: ('A' for Active; 'I' for Inactive)
REMARK    1  A    between atoms: C1_1  and  C3_3 
REMARK       I    between atoms: C3_3  and  N8_8 
ROOT
HETATM    1  C3  UNL     1     -32.609   8.178   4.580  1.00 20.00     0.243 C 
HETATM    2  C4  UNL     1     -32.579   6.431   2.666  1.00 20.00     0.151 A 
HETATM    3  C5  UNL     1     -31.900   7.774   2.145  1.00 20.00     0.101 A 
HETATM    4  C7  UNL     1     -32.595   8.644   1.163  1.00 20.00     0.034 C 
HETATM    5  N8  UNL     1     -32.428   7.583   3.395  1.00 20.00    -0.341 N 
HETATM    6  O9  UNL     1     -32.306   9.336   4.847  1.00 20.00    -0.268 OA
ENDROOT
BRANCH   1   7
HETATM    7  C1  UNL     1     -33.227   7.316   5.603  1.00 20.00     0.070 C 
HETATM    8  C2  UNL     1     -34.242   6.479   5.348  1.00 20.00    -0.026 C 
HETATM    9  C6  UNL     1     -34.874   5.606   6.381  1.00 20.00     0.036 C 
ENDBRANCH   1   7
TORSDOF 1
ENDMDL
MODEL 4
REMARK VINA RESULT:      -3.8     11.972     12.540
REMARK  1 active torsions:
REMARK  status: ('A' for Active; 'I' for Inactive)
REMARK    1  A    between atoms: C1_1  and  C3_3 
REMARK       I    between atoms: C3_3  and  N8_8 
ROOT
HETATM    1  C3  UNL     1     -31.466  18.660   0.136  1.00 20.00     0.243 C 
HETATM    2  C4  UNL     1     -33.969  18.232   0.656  1.00 20.00     0.151 A 
HETATM    3  C5  UNL     1     -33.669  17.769  -0.838  1.00 20.00     0.101 A 
HETATM    4  C7  UNL     1     -34.179  18.553  -1.992  1.00 20.00     0.034 C 
HETATM    5  N8  UNL     1     -32.755  18.319   0.022  1.00 20.00    -0.341 N 
HETATM    6  O9  UNL     1     -30.628  18.575  -0.755  1.00 20.00    -0.268 OA
ENDROOT
BRANCH   1   7
HETATM    7  C1  UNL     1     -31.090  19.171   1.466  1.00 20.00     0.070 C 
HETATM    8  C2  UNL     1     -30.303  18.502   2.319  1.00 20.00    -0.026 C 
HETATM    9  C6  UNL     1     -29.921  19.015   3.668  1.00 20.00     0.036 C 
ENDBRANCH   1   7
TORSDOF 1
ENDMDL
MODEL 5
REMARK VINA RESULT:      -3.7     11.599     12.591
REMARK  1 active torsions:
REMARK  status: ('A' for Active; 'I' for Inactive)
REMARK    1  A    between atoms: C1_1  and  C3_3 
REMARK       I    between atoms: C3_3  and  N8_8 
ROOT
HETATM    1  C3  UNL     1     -33.668  16.932  -3.811  1.00 20.00     0.243 C 
HETATM    2  C4  UNL     1     -33.959  14.379  -4.146  1.00 20.00     0.151 A 
HETATM    3  C5  UNL     1     -34.042  15.094  -5.566  1.00 20.00     0.101 A 
HETATM    4  C7  UNL     1     -35.336  15.203  -6.286  1.00 20.00     0.034 C 
HETATM    5  N8  UNL     1     -33.863  15.730  -4.365  1.00 20.00    -0.341 N 
HETATM    6  O9  UNL     1     -33.654  17.999  -4.417  1.00 20.00    -0.268 OA
ENDROOT
BRANCH   1   7
HETATM    7  C1  UNL     1     -33.459  16.901  -2.353  1.00 20.00     0.070 C 
HETATM    8  C2  UNL     1     -33.920  17.844  -1.521  1.00 20.00    -0.026 C 
HETATM    9  C6  UNL     1     -33.707  17.820  -0.043  1.00 20.00     0.036 C 
ENDBRANCH   1   7
TORSDOF 1
ENDMDL
MODEL 6
REMARK VINA RESULT:      -3.6     10.135     10.699
REMARK  1 active torsions:
REMARK  status: ('A' for Active; 'I' for Inactive)
REMARK    1  A    between atoms: C1_1  and  C3_3 
REMARK       I    between atoms: C3_3  and  N8_8 
ROOT
HETATM    1  C3  UNL     1     -41.471  12.923   6.730  1.00 20.00     0.243 C 
HETATM    2  C4  UNL     1     -40.455  15.171   7.523  1.00 20.00     0.151 A 
HETATM    3  C5  UNL     1     -41.519  14.681   8.602  1.00 20.00     0.101 A 
HETATM    4  C7  UNL     1     -42.826  15.371   8.748  1.00 20.00     0.034 C 
HETATM    5  N8  UNL     1     -41.207  14.027   7.438  1.00 20.00    -0.341 N 
HETATM    6  O9  UNL     1     -42.299  12.068   7.029  1.00 20.00    -0.268 OA
ENDROOT
BRANCH   1   7
HETATM    7  C1  UNL     1     -40.667  12.784   5.503  1.00 20.00     0.070 C 
HETATM    8  C2  UNL     1     -39.752  11.823   5.324  1.00 20.00    -0.026 C 
HETATM    9  C6  UNL     1     -38.933  11.680   4.084  1.00 20.00     0.036 C 
ENDBRANCH   1   7
TORSDOF 1
ENDMDL
MODEL 7
REMARK VINA RESULT:      -3.5      1.547      1.891
REMARK  1 active torsions:
REMARK  status: ('A' for Active; 'I' for Inactive)
REMARK    1  A    between atoms: C1_1  and  C3_3 
REMARK       I    between atoms: C3_3  and  N8_8 
ROOT
HETATM    1  C3  UNL     1     -32.780   7.257   3.567  1.00 20.00     0.243 C 
HETATM    2  C4  UNL     1     -33.730   8.453   5.660  1.00 20.00     0.151 A 
HETATM    3  C5  UNL     1     -33.464   6.924   6.020  1.00 20.00     0.101 A 
HETATM    4  C7  UNL     1     -34.595   5.981   6.208  1.00 20.00     0.034 C 
HETATM    5  N8  UNL     1     -33.242   7.504   4.798  1.00 20.00    -0.341 N 
HETATM    6  O9  UNL     1     -32.408   6.163   3.154  1.00 20.00    -0.268 OA
ENDROOT
BRANCH   1   7
HETATM    7  C1  UNL     1     -32.739   8.437   2.686  1.00 20.00     0.070 C 
HETATM    8  C2  UNL     1     -32.594   8.362   1.357  1.00 20.00    -0.026 C 
HETATM    9  C6  UNL     1     -32.549   9.556   0.461  1.00 20.00     0.036 C 
ENDBRANCH   1   7
TORSDOF 1
ENDMDL
MODEL 8
REMARK VINA RESULT:      -3.5      9.798     10.308
REMARK  1 active torsions:
REMARK  status: ('A' for Active; 'I' for Inactive)
REMARK    1  A    between atoms: C1_1  and  C3_3 
REMARK       I    between atoms: C3_3  and  N8_8 
ROOT
HETATM    1  C3  UNL     1     -40.719  13.166   6.950  1.00 20.00     0.243 C 
HETATM    2  C4  UNL     1     -43.257  13.315   6.448  1.00 20.00     0.151 A 
HETATM    3  C5  UNL     1     -43.015  13.677   7.980  1.00 20.00     0.101 A 
HETATM    4  C7  UNL     1     -43.417  12.735   9.055  1.00 20.00     0.034 C 
HETATM    5  N8  UNL     1     -42.041  13.328   7.082  1.00 20.00    -0.341 N 
HETATM    6  O9  UNL     1     -39.896  13.277   7.853  1.00 20.00    -0.268 OA
ENDROOT
BRANCH   1   7
HETATM    7  C1  UNL     1     -40.283  12.827   5.584  1.00 20.00     0.070 C 
HETATM    8  C2  UNL     1     -39.362  11.894   5.313  1.00 20.00    -0.026 C 
HETATM    9  C6  UNL     1     -38.914  11.550   3.930  1.00 20.00     0.036 C 
ENDBRANCH   1   7
TORSDOF 1
ENDMDL
MODEL 9
REMARK VINA RESULT:      -3.4     10.310     10.812
REMARK  1 active torsions:
REMARK  status: ('A' for Active; 'I' for Inactive)
REMARK    1  A    between atoms: C1_1  and  C3_3 
REMARK       I    between atoms: C3_3  and  N8_8 
ROOT
HETATM    1  C3  UNL     1     -40.686  13.588   6.872  1.00 20.00     0.243 C 
HETATM    2  C4  UNL     1     -42.442  15.276   5.989  1.00 20.00     0.151 A 
HETATM    3  C5  UNL     1     -42.225  15.530   7.546  1.00 20.00     0.101 A 
HETATM    4  C7  UNL     1     -43.273  15.155   8.529  1.00 20.00     0.034 C 
HETATM    5  N8  UNL     1     -41.597  14.565   6.802  1.00 20.00    -0.341 N 
HETATM    6  O9  UNL     1     -40.109  13.225   7.892  1.00 20.00    -0.268 OA
ENDROOT
BRANCH   1   7
HETATM    7  C1  UNL     1     -40.398  12.935   5.582  1.00 20.00     0.070 C 
HETATM    8  C2  UNL     1     -39.302  12.200   5.356  1.00 20.00    -0.026 C 
HETATM    9  C6  UNL     1     -39.003  11.539   4.050  1.00 20.00     0.036 C 
ENDBRANCH   1   7
TORSDOF 1
ENDMDL
