MODEL 1
REMARK VINA RESULT:      -3.9      0.000      0.000
REMARK  5 active torsions:
REMARK  status: ('A' for Active; 'I' for Inactive)
REMARK    1  A    between atoms: C2_2  and  C7_7 
REMARK    2  A    between atoms: C7_7  and  N11_11 
REMARK    3  A    between atoms: C8_8  and  C9_9 
REMARK    4  A    between atoms: C8_8  and  C10_10 
REMARK    5  A    between atoms: C9_9  and  N11_11 
ROOT
HETATM    1  C1  UNL     1     -32.524   8.572   0.997  1.00 20.00    -0.109 C 
HETATM    2  C2  UNL     1     -32.365   8.134   2.104  1.00 20.00    -0.077 C 
HETATM    3  C3  UNL     1     -32.719   9.104  -0.352  1.00 20.00     0.112 C 
ENDROOT
BRANCH   2   4
HETATM    4  C7  UNL     1     -32.178   7.598   3.455  1.00 20.00     0.365 C 
BRANCH   4   5
HETATM    5  N11 UNL     1     -32.913   8.401   4.446  1.00 20.00     0.095 N 
HETATM    6  C6  UNL     1     -31.974   9.290   5.149  1.00 20.00     0.310 C 
BRANCH   5   7
HETATM    7  C9  UNL     1     -33.635   7.567   5.365  1.00 20.00     0.273 C 
BRANCH   7   8
HETATM    8  C8  UNL     1     -34.748   6.774   4.685  1.00 20.00     0.034 C 
BRANCH   8   9
HETATM    9  C10 UNL     1     -34.866   5.302   5.131  1.00 20.00    -0.021 C 
HETATM   10  C4  UNL     1     -34.471   5.176   6.605  1.00 20.00     0.009 C 
HETATM   11  C5  UNL     1     -34.003   4.364   4.284  1.00 20.00     0.009 C 
ENDBRANCH   8   9
ENDBRANCH   7   8
ENDBRANCH   5   7
ENDBRANCH   4   5
ENDBRANCH   2   4
TORSDOF 5
ENDMDL
MODEL 2
REMARK VINA RESULT:      -3.8     11.225     12.294
REMARK  5 active torsions:
REMARK  status: ('A' for Active; 'I' for Inactive)
REMARK    1  A    between atoms: C2_2  and  C7_7 
REMARK    2  A    between atoms: C7_7  and  N11_11 
REMARK    3  A    between atoms: C8_8  and  C9_9 
REMARK    4  A    between atoms: C8_8  and  C10_10 
REMARK    5  A    between atoms: C9_9  and  N11_11 
ROOT
HETATM    1  C1  UNL     1     -30.645  18.663   1.424  1.00 20.00    -0.109 C 
HETATM    2  C2  UNL     1     -31.186  18.540   0.359  1.00 20.00    -0.077 C 
HETATM    3  C3  UNL     1     -29.985  18.811   2.721  1.00 20.00     0.112 C 
ENDROOT
BRANCH   2   4
HETATM    4  C7  UNL     1     -31.841  18.387  -0.943  1.00 20.00     0.365 C 
BRANCH   4   5
HETATM    5  N11 UNL     1     -33.287  18.645  -0.837  1.00 20.00     0.095 N 
HETATM    6  C6  UNL     1     -33.772  18.181   0.473  1.00 20.00     0.310 C 
BRANCH   5   7
HETATM    7  C9  UNL     1     -34.010  18.027  -1.913  1.00 20.00     0.273 C 
BRANCH   7   8
HETATM    8  C8  UNL     1     -33.474  16.639  -2.256  1.00 20.00     0.034 C 
BRANCH   8   9
HETATM    9  C10 UNL     1     -33.441  16.307  -3.762  1.00 20.00    -0.021 C 
HETATM   10  C4  UNL     1     -34.400  17.231  -4.516  1.00 20.00     0.009 C 
HETATM   11  C5  UNL     1     -33.801  14.847  -4.045  1.00 20.00     0.009 C 
ENDBRANCH   8   9
ENDBRANCH   7   8
ENDBRANCH   5   7
ENDBRANCH   4   5
ENDBRANCH   2   4
TORSDOF 5
ENDMDL
MODEL 3
REMARK VINA RESULT:      -3.6     11.318     12.463
REMARK  5 active torsions:
REMARK  status: ('A' for Active; 'I' for Inactive)
REMARK    1  A    between atoms: C2_2  and  C7_7 
REMARK    2  A    between atoms: C7_7  and  N11_11 
REMARK    3  A    between atoms: C8_8  and  C9_9 
REMARK    4  A    between atoms: C8_8  and  C10_10 
REMARK    5  A    between atoms: C9_9  and  N11_11 
ROOT
HETATM    1  C1  UNL     1     -31.231  18.685   0.493  1.00 20.00    -0.109 C 
HETATM    2  C2  UNL     1     -31.785  18.945  -0.539  1.00 20.00    -0.077 C 
HETATM    3  C3  UNL     1     -30.556  18.368   1.752  1.00 20.00     0.112 C 
ENDROOT
BRANCH   2   4
HETATM    4  C7  UNL     1     -32.468  19.262  -1.797  1.00 20.00     0.365 C 
BRANCH   4   5
HETATM    5  N11 UNL     1     -33.782  18.600  -1.863  1.00 20.00     0.095 N 
HETATM    6  C6  UNL     1     -34.679  19.190  -0.857  1.00 20.00     0.310 C 
BRANCH   5   7
HETATM    7  C9  UNL     1     -33.662  17.179  -1.691  1.00 20.00     0.273 C 
BRANCH   7   8
HETATM    8  C8  UNL     1     -33.018  16.497  -2.895  1.00 20.00     0.034 C 
BRANCH   8   9
HETATM    9  C10 UNL     1     -33.999  15.755  -3.826  1.00 20.00    -0.021 C 
HETATM   10  C4  UNL     1     -33.298  14.552  -4.461  1.00 20.00     0.009 C 
HETATM   11  C5  UNL     1     -34.561  16.663  -4.923  1.00 20.00     0.009 C 
ENDBRANCH   8   9
ENDBRANCH   7   8
ENDBRANCH   5   7
ENDBRANCH   4   5
ENDBRANCH   2   4
TORSDOF 5
ENDMDL
MODEL 4
REMARK VINA RESULT:      -3.6     11.543     13.641
REMARK  5 active torsions:
REMARK  status: ('A' for Active; 'I' for Inactive)
REMARK    1  A    between atoms: C2_2  and  C7_7 
REMARK    2  A    between atoms: C7_7  and  N11_11 
REMARK    3  A    between atoms: C8_8  and  C9_9 
REMARK    4  A    between atoms: C8_8  and  C10_10 
REMARK    5  A    between atoms: C9_9  and  N11_11 
ROOT
HETATM    1  C1  UNL     1     -33.336  16.593  -2.584  1.00 20.00    -0.109 C 
HETATM    2  C2  UNL     1     -33.516  15.785  -3.454  1.00 20.00    -0.077 C 
HETATM    3  C3  UNL     1     -33.116  17.576  -1.524  1.00 20.00     0.112 C 
ENDROOT
BRANCH   2   4
HETATM    4  C7  UNL     1     -33.729  14.799  -4.517  1.00 20.00     0.365 C 
BRANCH   4   5
HETATM    5  N11 UNL     1     -34.919  15.135  -5.316  1.00 20.00     0.095 N 
HETATM    6  C6  UNL     1     -35.944  14.096  -5.128  1.00 20.00     0.310 C 
BRANCH   5   7
HETATM    7  C9  UNL     1     -34.589  15.303  -6.703  1.00 20.00     0.273 C 
BRANCH   7   8
HETATM    8  C8  UNL     1     -34.452  16.771  -7.097  1.00 20.00     0.034 C 
BRANCH   8   9
HETATM    9  C10 UNL     1     -35.185  17.766  -6.173  1.00 20.00    -0.021 C 
HETATM   10  C4  UNL     1     -36.304  18.465  -6.949  1.00 20.00     0.009 C 
HETATM   11  C5  UNL     1     -34.241  18.811  -5.575  1.00 20.00     0.009 C 
ENDBRANCH   8   9
ENDBRANCH   7   8
ENDBRANCH   5   7
ENDBRANCH   4   5
ENDBRANCH   2   4
TORSDOF 5
ENDMDL
MODEL 5
REMARK VINA RESULT:      -3.4      1.515      2.227
REMARK  5 active torsions:
REMARK  status: ('A' for Active; 'I' for Inactive)
REMARK    1  A    between atoms: C2_2  and  C7_7 
REMARK    2  A    between atoms: C7_7  and  N11_11 
REMARK    3  A    between atoms: C8_8  and  C9_9 
REMARK    4  A    between atoms: C8_8  and  C10_10 
REMARK    5  A    between atoms: C9_9  and  N11_11 
ROOT
HETATM    1  C1  UNL     1     -32.653   5.756   2.643  1.00 20.00    -0.109 C 
HETATM    2  C2  UNL     1     -32.462   6.932   2.791  1.00 20.00    -0.077 C 
HETATM    3  C3  UNL     1     -32.888   4.324   2.460  1.00 20.00     0.112 C 
ENDROOT
BRANCH   2   4
HETATM    4  C7  UNL     1     -32.229   8.368   2.967  1.00 20.00     0.365 C 
BRANCH   4   5
HETATM    5  N11 UNL     1     -32.866   8.858   4.200  1.00 20.00     0.095 N 
HETATM    6  C6  UNL     1     -31.884   8.847   5.296  1.00 20.00     0.310 C 
BRANCH   5   7
HETATM    7  C9  UNL     1     -34.030   8.085   4.532  1.00 20.00     0.273 C 
BRANCH   7   8
HETATM    8  C8  UNL     1     -33.918   7.418   5.900  1.00 20.00     0.034 C 
BRANCH   8   9
HETATM    9  C10 UNL     1     -34.724   6.111   6.056  1.00 20.00    -0.021 C 
HETATM   10  C4  UNL     1     -33.793   4.979   6.497  1.00 20.00     0.009 C 
HETATM   11  C5  UNL     1     -35.446   5.714   4.767  1.00 20.00     0.009 C 
ENDBRANCH   8   9
ENDBRANCH   7   8
ENDBRANCH   5   7
ENDBRANCH   4   5
ENDBRANCH   2   4
TORSDOF 5
ENDMDL
MODEL 6
REMARK VINA RESULT:      -3.4     11.382     13.477
REMARK  5 active torsions:
REMARK  status: ('A' for Active; 'I' for Inactive)
REMARK    1  A    between atoms: C2_2  and  C7_7 
REMARK    2  A    between atoms: C7_7  and  N11_11 
REMARK    3  A    between atoms: C8_8  and  C9_9 
REMARK    4  A    between atoms: C8_8  and  C10_10 
REMARK    5  A    between atoms: C9_9  and  N11_11 
ROOT
HETATM    1  C1  UNL     1     -33.373  16.398  -2.892  1.00 20.00    -0.109 C 
HETATM    2  C2  UNL     1     -33.690  15.495  -3.617  1.00 20.00    -0.077 C 
HETATM    3  C3  UNL     1     -32.988  17.498  -2.008  1.00 20.00     0.112 C 
ENDROOT
BRANCH   2   4
HETATM    4  C7  UNL     1     -34.079  14.390  -4.497  1.00 20.00     0.365 C 
BRANCH   4   5
HETATM    5  N11 UNL     1     -34.826  14.885  -5.665  1.00 20.00     0.095 N 
HETATM    6  C6  UNL     1     -33.878  15.321  -6.702  1.00 20.00     0.310 C 
BRANCH   5   7
HETATM    7  C9  UNL     1     -35.728  15.941  -5.301  1.00 20.00     0.273 C 
BRANCH   7   8
HETATM    8  C8  UNL     1     -35.652  17.130  -6.256  1.00 20.00     0.034 C 
BRANCH   8   9
HETATM    9  C10 UNL     1     -35.529  18.507  -5.572  1.00 20.00    -0.021 C 
HETATM   10  C4  UNL     1     -34.058  18.928  -5.517  1.00 20.00     0.009 C 
HETATM   11  C5  UNL     1     -36.120  18.513  -4.161  1.00 20.00     0.009 C 
ENDBRANCH   8   9
ENDBRANCH   7   8
ENDBRANCH   5   7
ENDBRANCH   4   5
ENDBRANCH   2   4
TORSDOF 5
ENDMDL
MODEL 7
REMARK VINA RESULT:      -3.4     11.636     13.343
REMARK  5 active torsions:
REMARK  status: ('A' for Active; 'I' for Inactive)
REMARK    1  A    between atoms: C2_2  and  C7_7 
REMARK    2  A    between atoms: C7_7  and  N11_11 
REMARK    3  A    between atoms: C8_8  and  C9_9 
REMARK    4  A    between atoms: C8_8  and  C10_10 
REMARK    5  A    between atoms: C9_9  and  N11_11 
ROOT
HETATM    1  C1  UNL     1     -33.569  17.199  -1.570  1.00 20.00    -0.109 C 
HETATM    2  C2  UNL     1     -33.469  16.572  -2.589  1.00 20.00    -0.077 C 
HETATM    3  C3  UNL     1     -33.690  17.962  -0.328  1.00 20.00     0.112 C 
ENDROOT
BRANCH   2   4
HETATM    4  C7  UNL     1     -33.340  15.808  -3.834  1.00 20.00     0.365 C 
BRANCH   4   5
HETATM    5  N11 UNL     1     -34.404  16.169  -4.785  1.00 20.00     0.095 N 
HETATM    6  C6  UNL     1     -34.386  15.231  -5.918  1.00 20.00     0.310 C 
BRANCH   5   7
HETATM    7  C9  UNL     1     -34.273  17.529  -5.227  1.00 20.00     0.273 C 
BRANCH   7   8
HETATM    8  C8  UNL     1     -35.618  18.247  -5.315  1.00 20.00     0.034 C 
BRANCH   8   9
HETATM    9  C10 UNL     1     -36.590  17.953  -4.153  1.00 20.00    -0.021 C 
HETATM   10  C4  UNL     1     -38.023  17.873  -4.686  1.00 20.00     0.009 C 
HETATM   11  C5  UNL     1     -36.510  19.005  -3.046  1.00 20.00     0.009 C 
ENDBRANCH   8   9
ENDBRANCH   7   8
ENDBRANCH   5   7
ENDBRANCH   4   5
ENDBRANCH   2   4
TORSDOF 5
ENDMDL
MODEL 8
REMARK VINA RESULT:      -3.3     10.110     11.171
REMARK  5 active torsions:
REMARK  status: ('A' for Active; 'I' for Inactive)
REMARK    1  A    between atoms: C2_2  and  C7_7 
REMARK    2  A    between atoms: C7_7  and  N11_11 
REMARK    3  A    between atoms: C8_8  and  C9_9 
REMARK    4  A    between atoms: C8_8  and  C10_10 
REMARK    5  A    between atoms: C9_9  and  N11_11 
ROOT
HETATM    1  C1  UNL     1     -40.003  12.092   5.228  1.00 20.00    -0.109 C 
HETATM    2  C2  UNL     1     -40.876  12.410   5.988  1.00 20.00    -0.077 C 
HETATM    3  C3  UNL     1     -38.939  11.705   4.301  1.00 20.00     0.112 C 
ENDROOT
BRANCH   2   4
HETATM    4  C7  UNL     1     -41.938  12.804   6.918  1.00 20.00     0.365 C 
BRANCH   4   5
HETATM    5  N11 UNL     1     -41.725  14.177   7.407  1.00 20.00     0.095 N 
HETATM    6  C6  UNL     1     -41.877  15.123   6.290  1.00 20.00     0.310 C 
BRANCH   5   7
HETATM    7  C9  UNL     1     -40.445  14.316   8.042  1.00 20.00     0.273 C 
BRANCH   7   8
HETATM    8  C8  UNL     1     -40.514  15.148   9.320  1.00 20.00     0.034 C 
BRANCH   8   9
HETATM    9  C10 UNL     1     -40.522  14.333  10.629  1.00 20.00    -0.021 C 
HETATM   10  C4  UNL     1     -41.945  13.859  10.934  1.00 20.00     0.009 C 
HETATM   11  C5  UNL     1     -39.978  15.129  11.816  1.00 20.00     0.009 C 
ENDBRANCH   8   9
ENDBRANCH   7   8
ENDBRANCH   5   7
ENDBRANCH   4   5
ENDBRANCH   2   4
TORSDOF 5
ENDMDL
MODEL 9
REMARK VINA RESULT:      -3.2     10.534     11.743
REMARK  5 active torsions:
REMARK  status: ('A' for Active; 'I' for Inactive)
REMARK    1  A    between atoms: C2_2  and  C7_7 
REMARK    2  A    between atoms: C7_7  and  N11_11 
REMARK    3  A    between atoms: C8_8  and  C9_9 
REMARK    4  A    between atoms: C8_8  and  C10_10 
REMARK    5  A    between atoms: C9_9  and  N11_11 
ROOT
HETATM    1  C1  UNL     1     -39.965  12.086   5.123  1.00 20.00    -0.109 C 
HETATM    2  C2  UNL     1     -40.787  12.460   5.913  1.00 20.00    -0.077 C 
HETATM    3  C3  UNL     1     -38.962  11.632   4.159  1.00 20.00     0.112 C 
ENDROOT
BRANCH   2   4
HETATM    4  C7  UNL     1     -41.788  12.922   6.879  1.00 20.00     0.365 C 
BRANCH   4   5
HETATM    5  N11 UNL     1     -41.746  14.388   7.020  1.00 20.00     0.095 N 
HETATM    6  C6  UNL     1     -42.239  15.012   5.782  1.00 20.00     0.310 C 
BRANCH   5   7
HETATM    7  C9  UNL     1     -40.425  14.845   7.348  1.00 20.00     0.273 C 
BRANCH   7   8
HETATM    8  C8  UNL     1     -40.356  15.485   8.732  1.00 20.00     0.034 C 
BRANCH   8   9
HETATM    9  C10 UNL     1     -41.324  16.666   8.953  1.00 20.00    -0.021 C 
HETATM   10  C4  UNL     1     -40.876  17.866   8.115  1.00 20.00     0.009 C 
HETATM   11  C5  UNL     1     -41.423  17.072  10.425  1.00 20.00     0.009 C 
ENDBRANCH   8   9
ENDBRANCH   7   8
ENDBRANCH   5   7
ENDBRANCH   4   5
ENDBRANCH   2   4
TORSDOF 5
ENDMDL
