MODEL 1
REMARK VINA RESULT:      -4.0      0.000      0.000
REMARK  1 active torsions:
REMARK  status: ('A' for Active; 'I' for Inactive)
REMARK    1  A    between atoms: C8_8  and  N10_10 
ROOT
HETATM    1  C1  UNL     1     -32.426   7.147   2.330  1.00 20.00     0.089 C 
HETATM    2  C8  UNL     1     -32.914   5.819   2.696  1.00 20.00     0.396 C 
HETATM    3  N9  UNL     1     -32.038   8.201   2.037  1.00 20.00    -0.195 NA
ENDROOT
BRANCH   2   4
HETATM    4  N10 UNL     1     -33.165   5.735   4.129  1.00 20.00     0.110 N 
HETATM    5  C5  UNL     1     -33.891   4.478   4.502  1.00 20.00     0.283 C 
HETATM    6  C6  UNL     1     -35.110   5.003   5.289  1.00 20.00     0.038 C 
HETATM    7  C2  UNL     1     -34.611   5.694   6.538  1.00 20.00    -0.022 C 
HETATM    8  C4  UNL     1     -35.451   6.234   4.455  1.00 20.00     0.050 C 
HETATM    9  C3  UNL     1     -33.969   6.802   6.134  1.00 20.00     0.005 C 
HETATM   10  C7  UNL     1     -34.053   6.825   4.622  1.00 20.00     0.247 C 
ENDBRANCH   2   4
TORSDOF 1
ENDMDL
MODEL 2
REMARK VINA RESULT:      -4.0      9.120     10.282
REMARK  1 active torsions:
REMARK  status: ('A' for Active; 'I' for Inactive)
REMARK    1  A    between atoms: C8_8  and  N10_10 
ROOT
HETATM    1  C1  UNL     1     -43.383   3.994  -1.759  1.00 20.00     0.089 C 
HETATM    2  C8  UNL     1     -43.346   4.828  -0.560  1.00 20.00     0.396 C 
HETATM    3  N9  UNL     1     -43.414   3.330  -2.710  1.00 20.00    -0.195 NA
ENDROOT
BRANCH   2   4
HETATM    4  N10 UNL     1     -42.510   6.004  -0.771  1.00 20.00     0.110 N 
HETATM    5  C5  UNL     1     -41.116   5.806  -0.260  1.00 20.00     0.283 C 
HETATM    6  C6  UNL     1     -40.917   7.014   0.678  1.00 20.00     0.038 C 
HETATM    7  C2  UNL     1     -40.982   8.278  -0.149  1.00 20.00    -0.022 C 
HETATM    8  C4  UNL     1     -42.298   7.078   1.322  1.00 20.00     0.050 C 
HETATM    9  C3  UNL     1     -42.249   8.391  -0.578  1.00 20.00     0.005 C 
HETATM   10  C7  UNL     1     -43.002   7.198  -0.027  1.00 20.00     0.247 C 
ENDBRANCH   2   4
TORSDOF 1
ENDMDL
MODEL 3
REMARK VINA RESULT:      -3.8      1.101      1.423
REMARK  1 active torsions:
REMARK  status: ('A' for Active; 'I' for Inactive)
REMARK    1  A    between atoms: C8_8  and  N10_10 
ROOT
HETATM    1  C1  UNL     1     -32.396   8.122   2.705  1.00 20.00     0.089 C 
HETATM    2  C8  UNL     1     -32.832   8.366   4.077  1.00 20.00     0.396 C 
HETATM    3  N9  UNL     1     -32.049   7.932   1.614  1.00 20.00    -0.195 NA
ENDROOT
BRANCH   2   4
HETATM    4  N10 UNL     1     -33.056   7.110   4.783  1.00 20.00     0.110 N 
HETATM    5  C5  UNL     1     -33.245   5.960   3.841  1.00 20.00     0.283 C 
HETATM    6  C6  UNL     1     -34.585   5.351   4.303  1.00 20.00     0.038 C 
HETATM    7  C2  UNL     1     -34.415   4.833   5.713  1.00 20.00    -0.022 C 
HETATM    8  C4  UNL     1     -35.362   6.628   4.608  1.00 20.00     0.050 C 
HETATM    9  C3  UNL     1     -34.246   5.909   6.499  1.00 20.00     0.005 C 
HETATM   10  C7  UNL     1     -34.306   7.122   5.594  1.00 20.00     0.247 C 
ENDBRANCH   2   4
TORSDOF 1
ENDMDL
MODEL 4
REMARK VINA RESULT:      -3.6     12.705     13.744
REMARK  1 active torsions:
REMARK  status: ('A' for Active; 'I' for Inactive)
REMARK    1  A    between atoms: C8_8  and  N10_10 
ROOT
HETATM    1  C1  UNL     1     -31.313  18.810   0.611  1.00 20.00     0.089 C 
HETATM    2  C8  UNL     1     -32.636  18.461   0.101  1.00 20.00     0.396 C 
HETATM    3  N9  UNL     1     -30.262  19.088   1.018  1.00 20.00    -0.195 NA
ENDROOT
BRANCH   2   4
HETATM    4  N10 UNL     1     -32.552  17.965  -1.268  1.00 20.00     0.110 N 
HETATM    5  C5  UNL     1     -32.536  19.077  -2.271  1.00 20.00     0.283 C 
HETATM    6  C6  UNL     1     -33.692  18.702  -3.222  1.00 20.00     0.038 C 
HETATM    7  C2  UNL     1     -33.347  17.397  -3.902  1.00 20.00    -0.022 C 
HETATM    8  C4  UNL     1     -34.708  18.184  -2.209  1.00 20.00     0.050 C 
HETATM    9  C3  UNL     1     -33.373  16.450  -2.951  1.00 20.00     0.005 C 
HETATM   10  C7  UNL     1     -33.735  17.146  -1.655  1.00 20.00     0.247 C 
ENDBRANCH   2   4
TORSDOF 1
ENDMDL
MODEL 5
REMARK VINA RESULT:      -3.5     12.842     14.082
REMARK  1 active torsions:
REMARK  status: ('A' for Active; 'I' for Inactive)
REMARK    1  A    between atoms: C8_8  and  N10_10 
ROOT
HETATM    1  C1  UNL     1     -34.478  16.006  -6.314  1.00 20.00     0.089 C 
HETATM    2  C8  UNL     1     -34.907  17.243  -5.667  1.00 20.00     0.396 C 
HETATM    3  N9  UNL     1     -34.137  15.024  -6.832  1.00 20.00    -0.195 NA
ENDROOT
BRANCH   2   4
HETATM    4  N10 UNL     1     -34.800  17.134  -4.217  1.00 20.00     0.110 N 
HETATM    5  C5  UNL     1     -35.388  18.322  -3.517  1.00 20.00     0.283 C 
HETATM    6  C6  UNL     1     -34.233  18.794  -2.609  1.00 20.00     0.038 C 
HETATM    7  C2  UNL     1     -33.940  17.703  -1.603  1.00 20.00    -0.022 C 
HETATM    8  C4  UNL     1     -33.053  18.577  -3.549  1.00 20.00     0.050 C 
HETATM    9  C3  UNL     1     -33.425  16.673  -2.294  1.00 20.00     0.005 C 
HETATM   10  C7  UNL     1     -33.387  17.100  -3.747  1.00 20.00     0.247 C 
ENDBRANCH   2   4
TORSDOF 1
ENDMDL
MODEL 6
REMARK VINA RESULT:      -3.5     12.372     13.510
REMARK  1 active torsions:
REMARK  status: ('A' for Active; 'I' for Inactive)
REMARK    1  A    between atoms: C8_8  and  N10_10 
ROOT
HETATM    1  C1  UNL     1     -34.293  15.217  -4.534  1.00 20.00     0.089 C 
HETATM    2  C8  UNL     1     -34.411  16.673  -4.534  1.00 20.00     0.396 C 
HETATM    3  N9  UNL     1     -34.201  14.060  -4.535  1.00 20.00    -0.195 NA
ENDROOT
BRANCH   2   4
HETATM    4  N10 UNL     1     -33.434  17.274  -3.635  1.00 20.00     0.110 N 
HETATM    5  C5  UNL     1     -33.342  16.543  -2.331  1.00 20.00     0.283 C 
HETATM    6  C6  UNL     1     -33.564  17.660  -1.291  1.00 20.00     0.038 C 
HETATM    7  C2  UNL     1     -32.427  18.650  -1.401  1.00 20.00    -0.022 C 
HETATM    8  C4  UNL     1     -34.652  18.464  -1.997  1.00 20.00     0.050 C 
HETATM    9  C3  UNL     1     -32.566  19.263  -2.588  1.00 20.00     0.005 C 
HETATM   10  C7  UNL     1     -33.794  18.666  -3.244  1.00 20.00     0.247 C 
ENDBRANCH   2   4
TORSDOF 1
ENDMDL
MODEL 7
REMARK VINA RESULT:      -3.4     12.634     13.840
REMARK  1 active torsions:
REMARK  status: ('A' for Active; 'I' for Inactive)
REMARK    1  A    between atoms: C8_8  and  N10_10 
ROOT
HETATM    1  C1  UNL     1     -33.975  15.129  -5.688  1.00 20.00     0.089 C 
HETATM    2  C8  UNL     1     -34.017  15.266  -4.234  1.00 20.00     0.396 C 
HETATM    3  N9  UNL     1     -33.942  15.018  -6.843  1.00 20.00    -0.195 NA
ENDROOT
BRANCH   2   4
HETATM    4  N10 UNL     1     -33.346  16.488  -3.808  1.00 20.00     0.110 N 
HETATM    5  C5  UNL     1     -33.380  16.660  -2.320  1.00 20.00     0.283 C 
HETATM    6  C6  UNL     1     -33.984  18.070  -2.148  1.00 20.00     0.038 C 
HETATM    7  C2  UNL     1     -33.033  19.075  -2.757  1.00 20.00    -0.022 C 
HETATM    8  C4  UNL     1     -35.038  18.039  -3.250  1.00 20.00     0.050 C 
HETATM    9  C3  UNL     1     -33.046  18.863  -4.083  1.00 20.00     0.005 C 
HETATM   10  C7  UNL     1     -34.007  17.718  -4.329  1.00 20.00     0.247 C 
ENDBRANCH   2   4
TORSDOF 1
ENDMDL
MODEL 8
REMARK VINA RESULT:      -3.4     12.587     14.049
REMARK  1 active torsions:
REMARK  status: ('A' for Active; 'I' for Inactive)
REMARK    1  A    between atoms: C8_8  and  N10_10 
ROOT
HETATM    1  C1  UNL     1     -33.301  16.553  -2.804  1.00 20.00     0.089 C 
HETATM    2  C8  UNL     1     -33.589  15.496  -3.770  1.00 20.00     0.396 C 
HETATM    3  N9  UNL     1     -33.071  17.391  -2.035  1.00 20.00    -0.195 NA
ENDROOT
BRANCH   2   4
HETATM    4  N10 UNL     1     -34.003  16.059  -5.049  1.00 20.00     0.110 N 
HETATM    5  C5  UNL     1     -35.334  16.743  -4.961  1.00 20.00     0.283 C 
HETATM    6  C6  UNL     1     -36.146  16.064  -6.083  1.00 20.00     0.038 C 
HETATM    7  C2  UNL     1     -35.494  16.387  -7.408  1.00 20.00    -0.022 C 
HETATM    8  C4  UNL     1     -35.665  14.626  -5.923  1.00 20.00     0.050 C 
HETATM    9  C3  UNL     1     -34.311  15.752  -7.419  1.00 20.00     0.005 C 
HETATM   10  C7  UNL     1     -34.200  15.019  -6.098  1.00 20.00     0.247 C 
ENDBRANCH   2   4
TORSDOF 1
ENDMDL
MODEL 9
REMARK VINA RESULT:      -3.4      9.608     10.485
REMARK  1 active torsions:
REMARK  status: ('A' for Active; 'I' for Inactive)
REMARK    1  A    between atoms: C8_8  and  N10_10 
ROOT
HETATM    1  C1  UNL     1     -39.267  11.943   4.595  1.00 20.00     0.089 C 
HETATM    2  C8  UNL     1     -39.453  12.238   6.014  1.00 20.00     0.396 C 
HETATM    3  N9  UNL     1     -39.118  11.705   3.469  1.00 20.00    -0.195 NA
ENDROOT
BRANCH   2   4
HETATM    4  N10 UNL     1     -40.213  13.469   6.193  1.00 20.00     0.110 N 
HETATM    5  C5  UNL     1     -40.389  13.819   7.639  1.00 20.00     0.283 C 
HETATM    6  C6  UNL     1     -41.917  13.986   7.772  1.00 20.00     0.038 C 
HETATM    7  C2  UNL     1     -42.347  15.151   6.909  1.00 20.00    -0.022 C 
HETATM    8  C4  UNL     1     -42.384  12.841   6.879  1.00 20.00     0.050 C 
HETATM    9  C3  UNL     1     -42.159  14.774   5.634  1.00 20.00     0.005 C 
HETATM   10  C7  UNL     1     -41.606  13.365   5.674  1.00 20.00     0.247 C 
ENDBRANCH   2   4
TORSDOF 1
ENDMDL
