MODEL 1
REMARK VINA RESULT:      -4.0      0.000      0.000
REMARK  2 active torsions:
REMARK  status: ('A' for Active; 'I' for Inactive)
REMARK    1  A    between atoms: C5_5  and  C7_7 
REMARK    2  A    between atoms: C5_5  and  O11_11 
ROOT
HETATM    1  C1  UNL     1     -33.186  15.032  -4.169  1.00 20.00     0.003 A 
HETATM    2  C2  UNL     1     -33.804  14.765  -5.322  1.00 20.00    -0.007 A 
HETATM    3  C3  UNL     1     -33.672  16.259  -3.598  1.00 20.00    -0.066 A 
HETATM    4  C4  UNL     1     -33.303  16.772  -2.421  1.00 20.00     0.019 C 
HETATM    5  C6  UNL     1     -34.665  16.864  -4.557  1.00 20.00     0.061 A 
HETATM    6  C7  UNL     1     -34.829  15.805  -5.669  1.00 20.00     0.066 A 
HETATM    7  C8  UNL     1     -34.626  16.388  -7.064  1.00 20.00     0.031 C 
ENDROOT
BRANCH   6   8
HETATM    8  C5  UNL     1     -36.169  15.126  -5.582  1.00 20.00     0.271 C 
HETATM    9  O10 UNL     1     -36.339  13.999  -5.134  1.00 20.00    -0.264 OA
BRANCH   8  10
HETATM   10  O11 UNL     1     -37.133  15.955  -6.074  1.00 20.00    -0.326 OA
HETATM   11  C9  UNL     1     -38.213  16.241  -5.180  1.00 20.00     0.213 C 
ENDBRANCH   8  10
ENDBRANCH   6   8
TORSDOF 2
ENDMDL
MODEL 2
REMARK VINA RESULT:      -3.8     12.907     13.955
REMARK  2 active torsions:
REMARK  status: ('A' for Active; 'I' for Inactive)
REMARK    1  A    between atoms: C5_5  and  C7_7 
REMARK    2  A    between atoms: C5_5  and  O11_11 
ROOT
HETATM    1  C1  UNL     1     -41.087  13.358   4.705  1.00 20.00     0.003 A 
HETATM    2  C2  UNL     1     -41.645  14.032   5.713  1.00 20.00    -0.007 A 
HETATM    3  C3  UNL     1     -40.013  12.526   5.177  1.00 20.00    -0.066 A 
HETATM    4  C4  UNL     1     -39.294  11.682   4.431  1.00 20.00     0.019 C 
HETATM    5  C6  UNL     1     -39.840  12.772   6.654  1.00 20.00     0.061 A 
HETATM    6  C7  UNL     1     -41.007  13.710   7.033  1.00 20.00     0.066 A 
HETATM    7  C8  UNL     1     -40.537  14.954   7.777  1.00 20.00     0.031 C 
ENDROOT
BRANCH   6   8
HETATM    8  C5  UNL     1     -42.048  12.985   7.843  1.00 20.00     0.271 C 
HETATM    9  O10 UNL     1     -42.761  12.093   7.402  1.00 20.00    -0.264 OA
BRANCH   8  10
HETATM   10  O11 UNL     1     -42.061  13.477   9.114  1.00 20.00    -0.326 OA
HETATM   11  C9  UNL     1     -43.219  13.150   9.888  1.00 20.00     0.213 C 
ENDBRANCH   8  10
ENDBRANCH   6   8
TORSDOF 2
ENDMDL
MODEL 3
REMARK VINA RESULT:      -3.7     12.512     13.608
REMARK  2 active torsions:
REMARK  status: ('A' for Active; 'I' for Inactive)
REMARK    1  A    between atoms: C5_5  and  C7_7 
REMARK    2  A    between atoms: C5_5  and  O11_11 
ROOT
HETATM    1  C1  UNL     1     -41.344  14.604   8.210  1.00 20.00     0.003 A 
HETATM    2  C2  UNL     1     -40.791  14.612   6.995  1.00 20.00    -0.007 A 
HETATM    3  C3  UNL     1     -42.356  13.586   8.307  1.00 20.00    -0.066 A 
HETATM    4  C4  UNL     1     -43.051  13.279   9.405  1.00 20.00     0.019 C 
HETATM    5  C6  UNL     1     -42.495  12.931   6.957  1.00 20.00     0.061 A 
HETATM    6  C7  UNL     1     -41.369  13.553   6.102  1.00 20.00     0.066 A 
HETATM    7  C8  UNL     1     -41.882  14.114   4.781  1.00 20.00     0.031 C 
ENDROOT
BRANCH   6   8
HETATM    8  C5  UNL     1     -40.266  12.561   5.850  1.00 20.00     0.271 C 
HETATM    9  O10 UNL     1     -39.645  11.986   6.734  1.00 20.00    -0.264 OA
BRANCH   8  10
HETATM   10  O11 UNL     1     -40.081  12.417   4.506  1.00 20.00    -0.326 OA
HETATM   11  C9  UNL     1     -38.945  11.637   4.122  1.00 20.00     0.213 C 
ENDBRANCH   8  10
ENDBRANCH   6   8
TORSDOF 2
ENDMDL
MODEL 4
REMARK VINA RESULT:      -3.7     12.203     13.362
REMARK  2 active torsions:
REMARK  status: ('A' for Active; 'I' for Inactive)
REMARK    1  A    between atoms: C5_5  and  C7_7 
REMARK    2  A    between atoms: C5_5  and  O11_11 
ROOT
HETATM    1  C1  UNL     1     -41.822  15.447   5.948  1.00 20.00     0.003 A 
HETATM    2  C2  UNL     1     -41.933  14.170   5.572  1.00 20.00    -0.007 A 
HETATM    3  C3  UNL     1     -41.351  15.544   7.303  1.00 20.00    -0.066 A 
HETATM    4  C4  UNL     1     -41.076  16.678   7.954  1.00 20.00     0.019 C 
HETATM    5  C6  UNL     1     -41.223  14.149   7.859  1.00 20.00     0.061 A 
HETATM    6  C7  UNL     1     -41.517  13.222   6.659  1.00 20.00     0.066 A 
HETATM    7  C8  UNL     1     -42.588  12.183   6.973  1.00 20.00     0.031 C 
ENDROOT
BRANCH   6   8
HETATM    8  C5  UNL     1     -40.264  12.544   6.174  1.00 20.00     0.271 C 
HETATM    9  O10 UNL     1     -39.396  12.098   6.913  1.00 20.00    -0.264 OA
BRANCH   8  10
HETATM   10  O11 UNL     1     -40.262  12.511   4.811  1.00 20.00    -0.326 OA
HETATM   11  C9  UNL     1     -39.214  11.740   4.216  1.00 20.00     0.213 C 
ENDBRANCH   8  10
ENDBRANCH   6   8
TORSDOF 2
ENDMDL
MODEL 5
REMARK VINA RESULT:      -3.6     11.948     12.950
REMARK  2 active torsions:
REMARK  status: ('A' for Active; 'I' for Inactive)
REMARK    1  A    between atoms: C5_5  and  C7_7 
REMARK    2  A    between atoms: C5_5  and  O11_11 
ROOT
HETATM    1  C1  UNL     1     -39.095  12.046   6.268  1.00 20.00     0.003 A 
HETATM    2  C2  UNL     1     -39.934  12.610   7.141  1.00 20.00    -0.007 A 
HETATM    3  C3  UNL     1     -39.589  12.177   4.923  1.00 20.00    -0.066 A 
HETATM    4  C4  UNL     1     -38.958  11.775   3.817  1.00 20.00     0.019 C 
HETATM    5  C6  UNL     1     -40.940  12.844   4.981  1.00 20.00     0.061 A 
HETATM    6  C7  UNL     1     -41.124  13.227   6.465  1.00 20.00     0.066 A 
HETATM    7  C8  UNL     1     -42.447  12.729   7.036  1.00 20.00     0.031 C 
ENDROOT
BRANCH   6   8
HETATM    8  C5  UNL     1     -41.002  14.713   6.664  1.00 20.00     0.271 C 
HETATM    9  O10 UNL     1     -40.182  15.241   7.404  1.00 20.00    -0.264 OA
BRANCH   8  10
HETATM   10  O11 UNL     1     -41.933  15.354   5.901  1.00 20.00    -0.326 OA
HETATM   11  C9  UNL     1     -42.190  16.715   6.258  1.00 20.00     0.213 C 
ENDBRANCH   8  10
ENDBRANCH   6   8
TORSDOF 2
ENDMDL
MODEL 6
REMARK VINA RESULT:      -3.5      1.712      2.716
REMARK  2 active torsions:
REMARK  status: ('A' for Active; 'I' for Inactive)
REMARK    1  A    between atoms: C5_5  and  C7_7 
REMARK    2  A    between atoms: C5_5  and  O11_11 
ROOT
HETATM    1  C1  UNL     1     -34.893  17.436  -4.004  1.00 20.00     0.003 A 
HETATM    2  C2  UNL     1     -35.548  16.855  -5.011  1.00 20.00    -0.007 A 
HETATM    3  C3  UNL     1     -33.811  16.605  -3.548  1.00 20.00    -0.066 A 
HETATM    4  C4  UNL     1     -32.929  16.925  -2.597  1.00 20.00     0.019 C 
HETATM    5  C6  UNL     1     -33.848  15.315  -4.326  1.00 20.00     0.061 A 
HETATM    6  C7  UNL     1     -34.955  15.527  -5.382  1.00 20.00     0.066 A 
HETATM    7  C8  UNL     1     -35.985  14.403  -5.381  1.00 20.00     0.031 C 
ENDROOT
BRANCH   6   8
HETATM    8  C5  UNL     1     -34.371  15.692  -6.759  1.00 20.00     0.271 C 
HETATM    9  O10 UNL     1     -33.517  14.955  -7.234  1.00 20.00    -0.264 OA
BRANCH   8  10
HETATM   10  O11 UNL     1     -34.939  16.771  -7.369  1.00 20.00    -0.326 OA
HETATM   11  C9  UNL     1     -34.021  17.722  -7.916  1.00 20.00     0.213 C 
ENDBRANCH   8  10
ENDBRANCH   6   8
TORSDOF 2
ENDMDL
MODEL 7
REMARK VINA RESULT:      -3.5      1.280      1.833
REMARK  2 active torsions:
REMARK  status: ('A' for Active; 'I' for Inactive)
REMARK    1  A    between atoms: C5_5  and  C7_7 
REMARK    2  A    between atoms: C5_5  and  O11_11 
ROOT
HETATM    1  C1  UNL     1     -34.784  14.298  -4.478  1.00 20.00     0.003 A 
HETATM    2  C2  UNL     1     -35.820  14.324  -5.320  1.00 20.00    -0.007 A 
HETATM    3  C3  UNL     1     -34.151  15.587  -4.403  1.00 20.00    -0.066 A 
HETATM    4  C4  UNL     1     -33.127  15.909  -3.608  1.00 20.00     0.019 C 
HETATM    5  C6  UNL     1     -34.841  16.507  -5.377  1.00 20.00     0.061 A 
HETATM    6  C7  UNL     1     -36.030  15.684  -5.918  1.00 20.00     0.066 A 
HETATM    7  C8  UNL     1     -36.075  15.655  -7.442  1.00 20.00     0.031 C 
ENDROOT
BRANCH   6   8
HETATM    8  C5  UNL     1     -37.338  16.191  -5.371  1.00 20.00     0.271 C 
HETATM    9  O10 UNL     1     -37.606  17.376  -5.224  1.00 20.00    -0.264 OA
BRANCH   8  10
HETATM   10  O11 UNL     1     -38.149  15.135  -5.077  1.00 20.00    -0.326 OA
HETATM   11  C9  UNL     1     -39.295  15.444  -4.279  1.00 20.00     0.213 C 
ENDBRANCH   8  10
ENDBRANCH   6   8
TORSDOF 2
ENDMDL
MODEL 8
REMARK VINA RESULT:      -3.5      2.568      4.068
REMARK  2 active torsions:
REMARK  status: ('A' for Active; 'I' for Inactive)
REMARK    1  A    between atoms: C5_5  and  C7_7 
REMARK    2  A    between atoms: C5_5  and  O11_11 
ROOT
HETATM    1  C1  UNL     1     -32.174  19.263  -1.924  1.00 20.00     0.003 A 
HETATM    2  C2  UNL     1     -32.995  19.046  -2.954  1.00 20.00    -0.007 A 
HETATM    3  C3  UNL     1     -32.567  18.483  -0.781  1.00 20.00    -0.066 A 
HETATM    4  C4  UNL     1     -31.919  18.426   0.385  1.00 20.00     0.019 C 
HETATM    5  C6  UNL     1     -33.835  17.745  -1.128  1.00 20.00     0.061 A 
HETATM    6  C7  UNL     1     -34.064  18.046  -2.625  1.00 20.00     0.066 A 
HETATM    7  C8  UNL     1     -35.467  18.572  -2.906  1.00 20.00     0.031 C 
ENDROOT
BRANCH   6   8
HETATM    8  C5  UNL     1     -33.787  16.834  -3.473  1.00 20.00     0.271 C 
HETATM    9  O10 UNL     1     -32.971  15.968  -3.186  1.00 20.00    -0.264 OA
BRANCH   8  10
HETATM   10  O11 UNL     1     -34.578  16.863  -4.584  1.00 20.00    -0.326 OA
HETATM   11  C9  UNL     1     -34.465  15.730  -5.450  1.00 20.00     0.213 C 
ENDBRANCH   8  10
ENDBRANCH   6   8
TORSDOF 2
ENDMDL
MODEL 9
REMARK VINA RESULT:      -3.5      1.685      3.606
REMARK  2 active torsions:
REMARK  status: ('A' for Active; 'I' for Inactive)
REMARK    1  A    between atoms: C5_5  and  C7_7 
REMARK    2  A    between atoms: C5_5  and  O11_11 
ROOT
HETATM    1  C1  UNL     1     -36.211  17.479  -5.412  1.00 20.00     0.003 A 
HETATM    2  C2  UNL     1     -34.930  17.135  -5.562  1.00 20.00    -0.007 A 
HETATM    3  C3  UNL     1     -37.059  16.317  -5.415  1.00 20.00    -0.066 A 
HETATM    4  C4  UNL     1     -38.380  16.315  -5.225  1.00 20.00     0.019 C 
HETATM    5  C6  UNL     1     -36.197  15.107  -5.672  1.00 20.00     0.061 A 
HETATM    6  C7  UNL     1     -34.751  15.648  -5.667  1.00 20.00     0.066 A 
HETATM    7  C8  UNL     1     -33.971  15.237  -6.911  1.00 20.00     0.031 C 
ENDROOT
BRANCH   6   8
HETATM    8  C5  UNL     1     -34.012  15.220  -4.428  1.00 20.00     0.271 C 
HETATM    9  O10 UNL     1     -34.065  14.093  -3.953  1.00 20.00    -0.264 OA
BRANCH   8  10
HETATM   10  O11 UNL     1     -33.293  16.271  -3.940  1.00 20.00    -0.326 OA
HETATM   11  C9  UNL     1     -33.389  16.477  -2.527  1.00 20.00     0.213 C 
ENDBRANCH   8  10
ENDBRANCH   6   8
TORSDOF 2
ENDMDL
