MODEL 1
REMARK VINA RESULT:      -6.3      0.000      0.000
REMARK  0 active torsions:
REMARK  status: ('A' for Active; 'I' for Inactive)
ROOT
HETATM    1  C1  UNL     1     -32.508   7.282   2.838  1.00 20.00     0.057 C 
HETATM    2  C2  UNL     1     -34.189   4.745   4.935  1.00 20.00    -0.019 C 
HETATM    3  C3  UNL     1     -33.773   5.881   4.359  1.00 20.00    -0.051 C 
HETATM    4  C4  UNL     1     -33.045   6.083   3.126  1.00 20.00    -0.052 C 
HETATM    5  C5  UNL     1     -32.567   8.412   3.809  1.00 20.00     0.150 C 
HETATM    6  C6  UNL     1     -34.902   5.013   6.222  1.00 20.00     0.028 C 
HETATM    7  C7  UNL     1     -33.093   8.136   5.205  1.00 20.00     0.092 C 
HETATM    8  C8  UNL     1     -34.519   6.464   6.523  1.00 20.00     0.013 C 
HETATM    9  C9  UNL     1     -34.188   7.081   5.161  1.00 20.00     0.026 C 
HETATM   10  C10 UNL     1     -32.926   4.931   2.168  1.00 20.00     0.049 C 
HETATM   11  O11 UNL     1     -32.126   9.515   3.491  1.00 20.00    -0.293 OA
ENDROOT
TORSDOF 0
ENDMDL
MODEL 2
REMARK VINA RESULT:      -5.5      2.080      3.477
REMARK  0 active torsions:
REMARK  status: ('A' for Active; 'I' for Inactive)
ROOT
HETATM    1  C1  UNL     1     -34.150   4.833   4.438  1.00 20.00     0.057 C 
HETATM    2  C2  UNL     1     -32.460   7.862   3.162  1.00 20.00    -0.019 C 
HETATM    3  C3  UNL     1     -32.992   6.901   3.929  1.00 20.00    -0.051 C 
HETATM    4  C4  UNL     1     -33.417   5.564   3.580  1.00 20.00    -0.052 C 
HETATM    5  C5  UNL     1     -34.623   5.401   5.733  1.00 20.00     0.150 C 
HETATM    6  C6  UNL     1     -32.182   9.101   3.951  1.00 20.00     0.028 C 
HETATM    7  C7  UNL     1     -34.410   6.881   5.991  1.00 20.00     0.092 C 
HETATM    8  C8  UNL     1     -32.982   8.869   5.235  1.00 20.00     0.013 C 
HETATM    9  C9  UNL     1     -33.108   7.348   5.358  1.00 20.00     0.026 C 
HETATM   10  C10 UNL     1     -32.997   5.004   2.249  1.00 20.00     0.049 C 
HETATM   11  O11 UNL     1     -35.235   4.687   6.526  1.00 20.00    -0.293 OA
ENDROOT
TORSDOF 0
ENDMDL
MODEL 3
REMARK VINA RESULT:      -5.3      1.805      3.542
REMARK  0 active torsions:
REMARK  status: ('A' for Active; 'I' for Inactive)
ROOT
HETATM    1  C1  UNL     1     -33.960   4.839   3.897  1.00 20.00     0.057 C 
HETATM    2  C2  UNL     1     -33.516   7.897   5.923  1.00 20.00    -0.019 C 
HETATM    3  C3  UNL     1     -33.612   7.004   4.930  1.00 20.00    -0.051 C 
HETATM    4  C4  UNL     1     -34.173   5.672   4.930  1.00 20.00    -0.052 C 
HETATM    5  C5  UNL     1     -33.069   5.222   2.763  1.00 20.00     0.150 C 
HETATM    6  C6  UNL     1     -32.845   9.154   5.467  1.00 20.00     0.028 C 
HETATM    7  C7  UNL     1     -32.268   6.505   2.878  1.00 20.00     0.092 C 
HETATM    8  C8  UNL     1     -32.210   8.734   4.140  1.00 20.00     0.013 C 
HETATM    9  C9  UNL     1     -33.055   7.555   3.648  1.00 20.00     0.026 C 
HETATM   10  C10 UNL     1     -35.021   5.254   6.099  1.00 20.00     0.049 C 
HETATM   11  O11 UNL     1     -32.946   4.466   1.801  1.00 20.00    -0.293 OA
ENDROOT
TORSDOF 0
ENDMDL
MODEL 4
REMARK VINA RESULT:      -5.2      2.086      4.093
REMARK  0 active torsions:
REMARK  status: ('A' for Active; 'I' for Inactive)
ROOT
HETATM    1  C1  UNL     1     -34.057   7.103   6.304  1.00 20.00     0.057 C 
HETATM    2  C2  UNL     1     -32.270   7.319   3.076  1.00 20.00    -0.019 C 
HETATM    3  C3  UNL     1     -33.112   7.017   4.073  1.00 20.00    -0.051 C 
HETATM    4  C4  UNL     1     -33.345   7.695   5.329  1.00 20.00    -0.052 C 
HETATM    5  C5  UNL     1     -34.551   5.702   6.162  1.00 20.00     0.150 C 
HETATM    6  C6  UNL     1     -32.356   6.323   1.964  1.00 20.00     0.028 C 
HETATM    7  C7  UNL     1     -34.089   4.893   4.966  1.00 20.00     0.092 C 
HETATM    8  C8  UNL     1     -33.110   5.160   2.613  1.00 20.00     0.013 C 
HETATM    9  C9  UNL     1     -33.918   5.791   3.750  1.00 20.00     0.026 C 
HETATM   10  C10 UNL     1     -32.797   9.083   5.505  1.00 20.00     0.049 C 
HETATM   11  O11 UNL     1     -35.255   5.211   7.043  1.00 20.00    -0.293 OA
ENDROOT
TORSDOF 0
ENDMDL
MODEL 5
REMARK VINA RESULT:      -5.1      1.745      2.907
REMARK  0 active torsions:
REMARK  status: ('A' for Active; 'I' for Inactive)
ROOT
HETATM    1  C1  UNL     1     -32.476   6.737   2.810  1.00 20.00     0.057 C 
HETATM    2  C2  UNL     1     -33.986   7.670   6.051  1.00 20.00    -0.019 C 
HETATM    3  C3  UNL     1     -33.454   7.016   5.010  1.00 20.00    -0.051 C 
HETATM    4  C4  UNL     1     -32.720   7.524   3.872  1.00 20.00    -0.052 C 
HETATM    5  C5  UNL     1     -33.024   5.352   2.728  1.00 20.00     0.150 C 
HETATM    6  C6  UNL     1     -34.671   6.733   6.994  1.00 20.00     0.028 C 
HETATM    7  C7  UNL     1     -34.009   4.903   3.789  1.00 20.00     0.092 C 
HETATM    8  C8  UNL     1     -34.796   5.452   6.165  1.00 20.00     0.013 C 
HETATM    9  C9  UNL     1     -33.669   5.535   5.131  1.00 20.00     0.026 C 
HETATM   10  C10 UNL     1     -32.218   8.939   3.919  1.00 20.00     0.049 C 
HETATM   11  O11 UNL     1     -32.728   4.634   1.774  1.00 20.00    -0.293 OA
ENDROOT
TORSDOF 0
ENDMDL
MODEL 6
REMARK VINA RESULT:      -5.0      1.038      2.678
REMARK  0 active torsions:
REMARK  status: ('A' for Active; 'I' for Inactive)
ROOT
HETATM    1  C1  UNL     1     -32.360   8.381   3.610  1.00 20.00     0.057 C 
HETATM    2  C2  UNL     1     -34.310   6.632   6.216  1.00 20.00    -0.019 C 
HETATM    3  C3  UNL     1     -33.538   6.946   5.167  1.00 20.00    -0.051 C 
HETATM    4  C4  UNL     1     -32.896   8.196   4.828  1.00 20.00    -0.052 C 
HETATM    5  C5  UNL     1     -32.485   7.347   2.542  1.00 20.00     0.150 C 
HETATM    6  C6  UNL     1     -34.769   5.210   6.152  1.00 20.00     0.028 C 
HETATM    7  C7  UNL     1     -33.380   6.150   2.800  1.00 20.00     0.092 C 
HETATM    8  C8  UNL     1     -34.464   4.822   4.704  1.00 20.00     0.013 C 
HETATM    9  C9  UNL     1     -33.333   5.759   4.269  1.00 20.00     0.026 C 
HETATM   10  C10 UNL     1     -32.819   9.268   5.878  1.00 20.00     0.049 C 
HETATM   11  O11 UNL     1     -31.927   7.517   1.458  1.00 20.00    -0.293 OA
ENDROOT
TORSDOF 0
ENDMDL
MODEL 7
REMARK VINA RESULT:      -4.9      1.104      1.329
REMARK  0 active torsions:
REMARK  status: ('A' for Active; 'I' for Inactive)
ROOT
HETATM    1  C1  UNL     1     -32.113   8.393   3.786  1.00 20.00     0.057 C 
HETATM    2  C2  UNL     1     -33.959   5.193   3.881  1.00 20.00    -0.019 C 
HETATM    3  C3  UNL     1     -33.525   6.445   4.079  1.00 20.00    -0.051 C 
HETATM    4  C4  UNL     1     -32.611   7.245   3.295  1.00 20.00    -0.052 C 
HETATM    5  C5  UNL     1     -32.414   8.835   5.179  1.00 20.00     0.150 C 
HETATM    6  C6  UNL     1     -34.899   4.761   4.961  1.00 20.00     0.028 C 
HETATM    7  C7  UNL     1     -33.152   7.879   6.095  1.00 20.00     0.092 C 
HETATM    8  C8  UNL     1     -34.671   5.815   6.047  1.00 20.00     0.013 C 
HETATM    9  C9  UNL     1     -34.151   7.049   5.303  1.00 20.00     0.026 C 
HETATM   10  C10 UNL     1     -32.253   6.775   1.913  1.00 20.00     0.049 C 
HETATM   11  O11 UNL     1     -31.998   9.923   5.577  1.00 20.00    -0.293 OA
ENDROOT
TORSDOF 0
ENDMDL
MODEL 8
REMARK VINA RESULT:      -4.9      0.906      2.952
REMARK  0 active torsions:
REMARK  status: ('A' for Active; 'I' for Inactive)
ROOT
HETATM    1  C1  UNL     1     -33.427   7.982   5.837  1.00 20.00     0.057 C 
HETATM    2  C2  UNL     1     -34.100   5.010   3.745  1.00 20.00    -0.019 C 
HETATM    3  C3  UNL     1     -33.570   6.100   4.315  1.00 20.00    -0.051 C 
HETATM    4  C4  UNL     1     -33.915   6.761   5.553  1.00 20.00    -0.052 C 
HETATM    5  C5  UNL     1     -32.593   8.731   4.853  1.00 20.00     0.150 C 
HETATM    6  C6  UNL     1     -33.430   4.689   2.447  1.00 20.00     0.028 C 
HETATM    7  C7  UNL     1     -32.444   8.164   3.454  1.00 20.00     0.092 C 
HETATM    8  C8  UNL     1     -32.664   5.977   2.136  1.00 20.00     0.013 C 
HETATM    9  C9  UNL     1     -32.433   6.643   3.496  1.00 20.00     0.026 C 
HETATM   10  C10 UNL     1     -34.807   6.040   6.524  1.00 20.00     0.049 C 
HETATM   11  O11 UNL     1     -32.106   9.817   5.166  1.00 20.00    -0.293 OA
ENDROOT
TORSDOF 0
ENDMDL
MODEL 9
REMARK VINA RESULT:      -4.5      2.118      4.229
REMARK  0 active torsions:
REMARK  status: ('A' for Active; 'I' for Inactive)
ROOT
HETATM    1  C1  UNL     1     -34.340   5.215   5.498  1.00 20.00     0.057 C 
HETATM    2  C2  UNL     1     -32.883   8.569   4.962  1.00 20.00    -0.019 C 
HETATM    3  C3  UNL     1     -33.420   7.350   4.813  1.00 20.00    -0.051 C 
HETATM    4  C4  UNL     1     -34.085   6.505   5.779  1.00 20.00    -0.052 C 
HETATM    5  C5  UNL     1     -33.873   4.591   4.227  1.00 20.00     0.150 C 
HETATM    6  C6  UNL     1     -32.286   9.064   3.684  1.00 20.00     0.028 C 
HETATM    7  C7  UNL     1     -32.949   5.391   3.328  1.00 20.00     0.092 C 
HETATM    8  C8  UNL     1     -32.210   7.794   2.833  1.00 20.00     0.013 C 
HETATM    9  C9  UNL     1     -33.295   6.871   3.395  1.00 20.00     0.026 C 
HETATM   10  C10 UNL     1     -34.505   7.109   7.089  1.00 20.00     0.049 C 
HETATM   11  O11 UNL     1     -34.179   3.428   3.969  1.00 20.00    -0.293 OA
ENDROOT
TORSDOF 0
ENDMDL
