MODEL 1
REMARK VINA RESULT:      -4.4      0.000      0.000
REMARK  1 active torsions:
REMARK  status: ('A' for Active; 'I' for Inactive)
REMARK    1  A    between atoms: C9_9  and  N10_10 
ROOT
HETATM    1  C1  UNL     1     -34.757   5.774   6.295  1.00 20.00     0.072 A 
HETATM    2  C2  UNL     1     -34.922   5.006   5.214  1.00 20.00    -0.002 A 
HETATM    3  C5  UNL     1     -33.819   6.849   5.919  1.00 20.00     0.243 A 
HETATM    4  C8  UNL     1     -34.135   5.473   4.039  1.00 20.00     0.154 A 
HETATM    5  N10 UNL     1     -33.482   6.634   4.591  1.00 20.00    -0.340 N 
HETATM    6  O11 UNL     1     -33.452   7.729   6.678  1.00 20.00    -0.268 OA
ENDROOT
BRANCH   5   7
HETATM    7  C9  UNL     1     -32.581   7.472   3.849  1.00 20.00     0.094 C 
HETATM    8  C6  UNL     1     -32.228   6.889   2.475  1.00 20.00     0.052 C 
HETATM    9  C3  UNL     1     -32.123   8.106   1.618  1.00 20.00    -0.029 C 
HETATM   10  C4  UNL     1     -32.632   9.185   2.220  1.00 20.00    -0.029 C 
HETATM   11  C7  UNL     1     -33.161   8.866   3.578  1.00 20.00     0.052 C 
ENDBRANCH   5   7
TORSDOF 1
ENDMDL
MODEL 2
REMARK VINA RESULT:      -4.3     11.840     12.868
REMARK  1 active torsions:
REMARK  status: ('A' for Active; 'I' for Inactive)
REMARK    1  A    between atoms: C9_9  and  N10_10 
ROOT
HETATM    1  C1  UNL     1     -35.552  14.681  -5.490  1.00 20.00     0.072 A 
HETATM    2  C2  UNL     1     -36.134  15.871  -5.665  1.00 20.00    -0.002 A 
HETATM    3  C5  UNL     1     -34.354  14.907  -4.658  1.00 20.00     0.243 A 
HETATM    4  C8  UNL     1     -35.409  16.982  -4.989  1.00 20.00     0.154 A 
HETATM    5  N10 UNL     1     -34.311  16.267  -4.388  1.00 20.00    -0.340 N 
HETATM    6  O11 UNL     1     -33.592  14.023  -4.308  1.00 20.00    -0.268 OA
ENDROOT
BRANCH   5   7
HETATM    7  C9  UNL     1     -33.285  16.893  -3.599  1.00 20.00     0.094 C 
HETATM    8  C6  UNL     1     -33.212  18.408  -3.822  1.00 20.00     0.052 C 
HETATM    9  C3  UNL     1     -32.860  18.923  -2.467  1.00 20.00    -0.029 C 
HETATM   10  C4  UNL     1     -33.017  17.991  -1.523  1.00 20.00    -0.029 C 
HETATM   11  C7  UNL     1     -33.499  16.699  -2.093  1.00 20.00     0.052 C 
ENDBRANCH   5   7
TORSDOF 1
ENDMDL
MODEL 3
REMARK VINA RESULT:      -4.3     12.013     12.718
REMARK  1 active torsions:
REMARK  status: ('A' for Active; 'I' for Inactive)
REMARK    1  A    between atoms: C9_9  and  N10_10 
ROOT
HETATM    1  C1  UNL     1     -32.267  18.937   1.093  1.00 20.00     0.072 A 
HETATM    2  C2  UNL     1     -33.602  18.907   1.035  1.00 20.00    -0.002 A 
HETATM    3  C5  UNL     1     -31.770  18.575  -0.248  1.00 20.00     0.243 A 
HETATM    4  C8  UNL     1     -34.120  18.532  -0.309  1.00 20.00     0.154 A 
HETATM    5  N10 UNL     1     -32.889  18.347  -1.036  1.00 20.00    -0.340 N 
HETATM    6  O11 UNL     1     -30.589  18.509  -0.541  1.00 20.00    -0.268 OA
ENDROOT
BRANCH   5   7
HETATM    7  C9  UNL     1     -32.826  17.968  -2.421  1.00 20.00     0.094 C 
HETATM    8  C6  UNL     1     -33.286  16.525  -2.659  1.00 20.00     0.052 C 
HETATM    9  C3  UNL     1     -33.976  16.612  -3.979  1.00 20.00    -0.029 C 
HETATM   10  C4  UNL     1     -34.209  17.878  -4.336  1.00 20.00    -0.029 C 
HETATM   11  C7  UNL     1     -33.713  18.845  -3.313  1.00 20.00     0.052 C 
ENDBRANCH   5   7
TORSDOF 1
ENDMDL
MODEL 4
REMARK VINA RESULT:      -4.2      1.347      1.768
REMARK  1 active torsions:
REMARK  status: ('A' for Active; 'I' for Inactive)
REMARK    1  A    between atoms: C9_9  and  N10_10 
ROOT
HETATM    1  C1  UNL     1     -34.695   5.167   5.454  1.00 20.00     0.072 A 
HETATM    2  C2  UNL     1     -34.615   6.118   6.389  1.00 20.00    -0.002 A 
HETATM    3  C5  UNL     1     -33.872   5.615   4.314  1.00 20.00     0.243 A 
HETATM    4  C8  UNL     1     -33.758   7.265   5.985  1.00 20.00     0.154 A 
HETATM    5  N10 UNL     1     -33.342   6.847   4.669  1.00 20.00    -0.340 N 
HETATM    6  O11 UNL     1     -33.726   4.976   3.287  1.00 20.00    -0.268 OA
ENDROOT
BRANCH   5   7
HETATM    7  C9  UNL     1     -32.478   7.620   3.820  1.00 20.00     0.094 C 
HETATM    8  C6  UNL     1     -32.239   6.954   2.459  1.00 20.00     0.052 C 
HETATM    9  C3  UNL     1     -32.167   8.120   1.531  1.00 20.00    -0.029 C 
HETATM   10  C4  UNL     1     -32.605   9.243   2.106  1.00 20.00    -0.029 C 
HETATM   11  C7  UNL     1     -33.042   9.012   3.514  1.00 20.00     0.052 C 
ENDBRANCH   5   7
TORSDOF 1
ENDMDL
MODEL 5
REMARK VINA RESULT:      -4.2     11.848     12.614
REMARK  1 active torsions:
REMARK  status: ('A' for Active; 'I' for Inactive)
REMARK    1  A    between atoms: C9_9  and  N10_10 
ROOT
HETATM    1  C1  UNL     1     -32.110  18.859   1.801  1.00 20.00     0.072 A 
HETATM    2  C2  UNL     1     -30.997  18.743   1.071  1.00 20.00    -0.002 A 
HETATM    3  C5  UNL     1     -33.249  18.690   0.878  1.00 20.00     0.243 A 
HETATM    4  C8  UNL     1     -31.267  18.493  -0.371  1.00 20.00     0.154 A 
HETATM    5  N10 UNL     1     -32.708  18.478  -0.382  1.00 20.00    -0.340 N 
HETATM    6  O11 UNL     1     -34.417  18.737   1.222  1.00 20.00    -0.268 OA
ENDROOT
BRANCH   5   7
HETATM    7  C9  UNL     1     -33.497  18.268  -1.565  1.00 20.00     0.094 C 
HETATM    8  C6  UNL     1     -33.047  19.146  -2.738  1.00 20.00     0.052 C 
HETATM    9  C3  UNL     1     -33.264  18.258  -3.917  1.00 20.00    -0.029 C 
HETATM   10  C4  UNL     1     -33.472  16.989  -3.553  1.00 20.00    -0.029 C 
HETATM   11  C7  UNL     1     -33.429  16.822  -2.071  1.00 20.00     0.052 C 
ENDBRANCH   5   7
TORSDOF 1
ENDMDL
MODEL 6
REMARK VINA RESULT:      -3.9      1.664      4.444
REMARK  1 active torsions:
REMARK  status: ('A' for Active; 'I' for Inactive)
REMARK    1  A    between atoms: C9_9  and  N10_10 
ROOT
HETATM    1  C1  UNL     1     -32.282   7.929   1.813  1.00 20.00     0.072 A 
HETATM    2  C2  UNL     1     -32.422   8.994   2.608  1.00 20.00    -0.002 A 
HETATM    3  C5  UNL     1     -32.590   6.739   2.629  1.00 20.00     0.243 A 
HETATM    4  C8  UNL     1     -32.826   8.638   3.996  1.00 20.00     0.154 A 
HETATM    5  N10 UNL     1     -32.903   7.201   3.899  1.00 20.00    -0.340 N 
HETATM    6  O11 UNL     1     -32.558   5.597   2.206  1.00 20.00    -0.268 OA
ENDROOT
BRANCH   5   7
HETATM    7  C9  UNL     1     -33.264   6.344   4.995  1.00 20.00     0.094 C 
HETATM    8  C6  UNL     1     -33.746   7.126   6.222  1.00 20.00     0.052 C 
HETATM    9  C3  UNL     1     -34.811   6.241   6.778  1.00 20.00    -0.029 C 
HETATM   10  C4  UNL     1     -35.167   5.286   5.914  1.00 20.00    -0.029 C 
HETATM   11  C7  UNL     1     -34.399   5.376   4.638  1.00 20.00     0.052 C 
ENDBRANCH   5   7
TORSDOF 1
ENDMDL
MODEL 7
REMARK VINA RESULT:      -3.9     12.229     13.219
REMARK  1 active torsions:
REMARK  status: ('A' for Active; 'I' for Inactive)
REMARK    1  A    between atoms: C9_9  and  N10_10 
ROOT
HETATM    1  C1  UNL     1     -32.681  18.849  -2.359  1.00 20.00     0.072 A 
HETATM    2  C2  UNL     1     -32.873  17.788  -1.570  1.00 20.00    -0.002 A 
HETATM    3  C5  UNL     1     -33.126  18.465  -3.712  1.00 20.00     0.243 A 
HETATM    4  C8  UNL     1     -33.448  16.620  -2.291  1.00 20.00     0.154 A 
HETATM    5  N10 UNL     1     -33.567  17.152  -3.626  1.00 20.00    -0.340 N 
HETATM    6  O11 UNL     1     -33.088  19.207  -4.678  1.00 20.00    -0.268 OA
ENDROOT
BRANCH   5   7
HETATM    7  C9  UNL     1     -34.084  16.408  -4.741  1.00 20.00     0.094 C 
HETATM    8  C6  UNL     1     -34.138  14.900  -4.469  1.00 20.00     0.052 C 
HETATM    9  C3  UNL     1     -35.378  14.481  -5.186  1.00 20.00    -0.029 C 
HETATM   10  C4  UNL     1     -36.128  15.529  -5.539  1.00 20.00    -0.029 C 
HETATM   11  C7  UNL     1     -35.512  16.820  -5.115  1.00 20.00     0.052 C 
ENDBRANCH   5   7
TORSDOF 1
ENDMDL
MODEL 8
REMARK VINA RESULT:      -3.9     12.029     12.947
REMARK  1 active torsions:
REMARK  status: ('A' for Active; 'I' for Inactive)
REMARK    1  A    between atoms: C9_9  and  N10_10 
ROOT
HETATM    1  C1  UNL     1     -34.666  17.287  -4.516  1.00 20.00     0.072 A 
HETATM    2  C2  UNL     1     -35.381  18.285  -3.987  1.00 20.00    -0.002 A 
HETATM    3  C5  UNL     1     -33.694  16.864  -3.489  1.00 20.00     0.243 A 
HETATM    4  C8  UNL     1     -34.974  18.622  -2.595  1.00 20.00     0.154 A 
HETATM    5  N10 UNL     1     -33.910  17.672  -2.382  1.00 20.00    -0.340 N 
HETATM    6  O11 UNL     1     -32.883  15.968  -3.647  1.00 20.00    -0.268 OA
ENDROOT
BRANCH   5   7
HETATM    7  C9  UNL     1     -33.159  17.573  -1.162  1.00 20.00     0.094 C 
HETATM    8  C6  UNL     1     -31.916  18.471  -1.160  1.00 20.00     0.052 C 
HETATM    9  C3  UNL     1     -31.834  18.918   0.261  1.00 20.00    -0.029 C 
HETATM   10  C4  UNL     1     -32.959  18.652   0.932  1.00 20.00    -0.029 C 
HETATM   11  C7  UNL     1     -33.976  17.983   0.070  1.00 20.00     0.052 C 
ENDBRANCH   5   7
TORSDOF 1
ENDMDL
MODEL 9
REMARK VINA RESULT:      -3.9     12.476     13.622
REMARK  1 active torsions:
REMARK  status: ('A' for Active; 'I' for Inactive)
REMARK    1  A    between atoms: C9_9  and  N10_10 
ROOT
HETATM    1  C1  UNL     1     -35.684  15.863  -7.099  1.00 20.00     0.072 A 
HETATM    2  C2  UNL     1     -35.626  14.772  -6.329  1.00 20.00    -0.002 A 
HETATM    3  C5  UNL     1     -35.035  16.955  -6.347  1.00 20.00     0.243 A 
HETATM    4  C8  UNL     1     -34.953  15.014  -5.023  1.00 20.00     0.154 A 
HETATM    5  N10 UNL     1     -34.622  16.412  -5.139  1.00 20.00    -0.340 N 
HETATM    6  O11 UNL     1     -34.916  18.093  -6.766  1.00 20.00    -0.268 OA
ENDROOT
BRANCH   5   7
HETATM    7  C9  UNL     1     -33.942  17.161  -4.118  1.00 20.00     0.094 C 
HETATM    8  C6  UNL     1     -34.881  18.103  -3.354  1.00 20.00     0.052 C 
HETATM    9  C3  UNL     1     -34.336  18.055  -1.966  1.00 20.00    -0.029 C 
HETATM   10  C4  UNL     1     -33.470  17.050  -1.804  1.00 20.00    -0.029 C 
HETATM   11  C7  UNL     1     -33.295  16.261  -3.059  1.00 20.00     0.052 C 
ENDBRANCH   5   7
TORSDOF 1
ENDMDL
