MODEL 1
REMARK VINA RESULT:      -4.7      0.000      0.000
REMARK  1 active torsions:
REMARK  status: ('A' for Active; 'I' for Inactive)
REMARK    1  A    between atoms: C4_4  and  O11_11 
ROOT
HETATM    1  C1  UNL     1     -34.437   6.886   6.337  1.00 20.00     0.034 C 
HETATM    2  C2  UNL     1     -33.635   7.773   5.712  1.00 20.00     0.003 C 
HETATM    3  C3  UNL     1     -34.268   5.240   4.534  1.00 20.00     0.017 C 
HETATM    4  C4  UNL     1     -34.587   5.528   5.813  1.00 20.00     0.062 C 
HETATM    5  C5  UNL     1     -32.377   7.608   2.422  1.00 20.00     0.004 C 
HETATM    6  C6  UNL     1     -32.887   6.180   2.476  1.00 20.00     0.065 C 
HETATM    7  C7  UNL     1     -33.784   6.368   3.677  1.00 20.00     0.045 C 
HETATM    8  C8  UNL     1     -32.887   7.293   4.508  1.00 20.00     0.139 C 
HETATM    9  C9  UNL     1     -31.854   8.177   1.144  1.00 20.00     0.065 C 
HETATM   10  N10 UNL     1     -32.428   8.299   3.532  1.00 20.00    -0.289 NA
ENDROOT
BRANCH   4  11
HETATM   11  O11 UNL     1     -35.111   4.615   6.697  1.00 20.00    -0.361 OA
HETATM   12  H22 UNL     1     -35.412   5.062   7.498  1.00 20.00     0.217 HD
ENDBRANCH   4  11
TORSDOF 1
ENDMDL
MODEL 2
REMARK VINA RESULT:      -4.4     12.377     13.544
REMARK  1 active torsions:
REMARK  status: ('A' for Active; 'I' for Inactive)
REMARK    1  A    between atoms: C4_4  and  O11_11 
ROOT
HETATM    1  C1  UNL     1     -34.809  16.369  -6.403  1.00 20.00     0.034 C 
HETATM    2  C2  UNL     1     -34.536  17.532  -5.778  1.00 20.00     0.003 C 
HETATM    3  C3  UNL     1     -34.295  15.017  -4.429  1.00 20.00     0.017 C 
HETATM    4  C4  UNL     1     -34.873  15.119  -5.645  1.00 20.00     0.062 C 
HETATM    5  C5  UNL     1     -33.103  17.989  -2.588  1.00 20.00     0.004 C 
HETATM    6  C6  UNL     1     -33.369  16.503  -2.439  1.00 20.00     0.065 C 
HETATM    7  C7  UNL     1     -33.573  16.221  -3.909  1.00 20.00     0.045 C 
HETATM    8  C8  UNL     1     -34.348  17.487  -4.294  1.00 20.00     0.139 C 
HETATM    9  C9  UNL     1     -32.327  18.727  -1.548  1.00 20.00     0.065 C 
HETATM   10  N10 UNL     1     -33.575  18.572  -3.661  1.00 20.00    -0.289 NA
ENDROOT
BRANCH   4  11
HETATM   11  O11 UNL     1     -35.506  14.079  -6.282  1.00 20.00    -0.361 OA
HETATM   12  H22 UNL     1     -35.307  14.096  -7.226  1.00 20.00     0.217 HD
ENDBRANCH   4  11
TORSDOF 1
ENDMDL
MODEL 3
REMARK VINA RESULT:      -4.2     12.674     13.116
REMARK  1 active torsions:
REMARK  status: ('A' for Active; 'I' for Inactive)
REMARK    1  A    between atoms: C4_4  and  O11_11 
ROOT
HETATM    1  C1  UNL     1     -33.563  17.724  -2.238  1.00 20.00     0.034 C 
HETATM    2  C2  UNL     1     -32.275  17.817  -1.851  1.00 20.00     0.003 C 
HETATM    3  C3  UNL     1     -34.407  18.750  -0.183  1.00 20.00     0.017 C 
HETATM    4  C4  UNL     1     -34.617  18.383  -1.465  1.00 20.00     0.062 C 
HETATM    5  C5  UNL     1     -31.027  18.774   1.305  1.00 20.00     0.004 C 
HETATM    6  C6  UNL     1     -32.459  19.210   1.554  1.00 20.00     0.065 C 
HETATM    7  C7  UNL     1     -33.071  18.433   0.413  1.00 20.00     0.045 C 
HETATM    8  C8  UNL     1     -31.979  18.647  -0.641  1.00 20.00     0.139 C 
HETATM    9  C9  UNL     1     -30.026  18.798   2.412  1.00 20.00     0.065 C 
HETATM   10  N10 UNL     1     -30.729  18.375   0.094  1.00 20.00    -0.289 NA
ENDROOT
BRANCH   4  11
HETATM   11  O11 UNL     1     -35.813  18.541  -2.122  1.00 20.00    -0.361 OA
HETATM   12  H22 UNL     1     -36.530  18.653  -1.486  1.00 20.00     0.217 HD
ENDBRANCH   4  11
TORSDOF 1
ENDMDL
MODEL 4
REMARK VINA RESULT:      -4.1     11.845     13.334
REMARK  1 active torsions:
REMARK  status: ('A' for Active; 'I' for Inactive)
REMARK    1  A    between atoms: C4_4  and  O11_11 
ROOT
HETATM    1  C1  UNL     1     -34.910  14.087  -4.717  1.00 20.00     0.034 C 
HETATM    2  C2  UNL     1     -34.051  14.599  -3.811  1.00 20.00     0.003 C 
HETATM    3  C3  UNL     1     -35.223  16.233  -5.850  1.00 20.00     0.017 C 
HETATM    4  C4  UNL     1     -35.340  14.889  -5.863  1.00 20.00     0.062 C 
HETATM    5  C5  UNL     1     -33.227  17.986  -3.284  1.00 20.00     0.004 C 
HETATM    6  C6  UNL     1     -33.954  18.195  -4.599  1.00 20.00     0.065 C 
HETATM    7  C7  UNL     1     -34.663  16.862  -4.612  1.00 20.00     0.045 C 
HETATM    8  C8  UNL     1     -33.536  15.982  -4.057  1.00 20.00     0.139 C 
HETATM    9  C9  UNL     1     -32.769  19.156  -2.477  1.00 20.00     0.065 C 
HETATM   10  N10 UNL     1     -33.035  16.749  -2.902  1.00 20.00    -0.289 NA
ENDROOT
BRANCH   4  11
HETATM   11  O11 UNL     1     -35.902  14.178  -6.896  1.00 20.00    -0.361 OA
HETATM   12  H22 UNL     1     -35.284  14.119  -7.635  1.00 20.00     0.217 HD
ENDBRANCH   4  11
TORSDOF 1
ENDMDL
MODEL 5
REMARK VINA RESULT:      -4.0      2.551      4.223
REMARK  1 active torsions:
REMARK  status: ('A' for Active; 'I' for Inactive)
REMARK    1  A    between atoms: C4_4  and  O11_11 
ROOT
HETATM    1  C1  UNL     1     -31.941   8.600   3.390  1.00 20.00     0.034 C 
HETATM    2  C2  UNL     1     -32.551   8.516   4.591  1.00 20.00     0.003 C 
HETATM    3  C3  UNL     1     -32.976   6.545   2.557  1.00 20.00     0.017 C 
HETATM    4  C4  UNL     1     -32.323   7.698   2.303  1.00 20.00     0.062 C 
HETATM    5  C5  UNL     1     -34.464   5.842   5.864  1.00 20.00     0.004 C 
HETATM    6  C6  UNL     1     -34.411   5.341   4.433  1.00 20.00     0.065 C 
HETATM    7  C7  UNL     1     -33.266   6.222   3.990  1.00 20.00     0.045 C 
HETATM    8  C8  UNL     1     -33.645   7.506   4.737  1.00 20.00     0.139 C 
HETATM    9  C9  UNL     1     -35.047   4.991   6.943  1.00 20.00     0.065 C 
HETATM   10  N10 UNL     1     -33.973   7.034   6.095  1.00 20.00    -0.289 NA
ENDROOT
BRANCH   4  11
HETATM   11  O11 UNL     1     -31.925   8.093   1.048  1.00 20.00    -0.361 OA
HETATM   12  H22 UNL     1     -32.401   8.889   0.783  1.00 20.00     0.217 HD
ENDBRANCH   4  11
TORSDOF 1
ENDMDL
MODEL 6
REMARK VINA RESULT:      -3.9     12.365     13.921
REMARK  1 active torsions:
REMARK  status: ('A' for Active; 'I' for Inactive)
REMARK    1  A    between atoms: C4_4  and  O11_11 
ROOT
HETATM    1  C1  UNL     1     -33.327  15.806  -3.582  1.00 20.00     0.034 C 
HETATM    2  C2  UNL     1     -33.729  17.084  -3.742  1.00 20.00     0.003 C 
HETATM    3  C3  UNL     1     -34.705  14.987  -5.431  1.00 20.00     0.017 C 
HETATM    4  C4  UNL     1     -33.681  14.790  -4.574  1.00 20.00     0.062 C 
HETATM    5  C5  UNL     1     -36.278  18.302  -5.852  1.00 20.00     0.004 C 
HETATM    6  C6  UNL     1     -36.223  16.908  -6.447  1.00 20.00     0.065 C 
HETATM    7  C7  UNL     1     -35.470  16.268  -5.305  1.00 20.00     0.045 C 
HETATM    8  C8  UNL     1     -34.501  17.411  -4.981  1.00 20.00     0.139 C 
HETATM    9  C9  UNL     1     -37.341  19.263  -6.272  1.00 20.00     0.065 C 
HETATM   10  N10 UNL     1     -35.367  18.605  -4.962  1.00 20.00    -0.289 NA
ENDROOT
BRANCH   4  11
HETATM   11  O11 UNL     1     -32.937  13.637  -4.521  1.00 20.00    -0.361 OA
HETATM   12  H22 UNL     1     -32.685  13.361  -5.411  1.00 20.00     0.217 HD
ENDBRANCH   4  11
TORSDOF 1
ENDMDL
MODEL 7
REMARK VINA RESULT:      -3.9     12.495     13.113
REMARK  1 active torsions:
REMARK  status: ('A' for Active; 'I' for Inactive)
REMARK    1  A    between atoms: C4_4  and  O11_11 
ROOT
HETATM    1  C1  UNL     1     -34.814  18.987  -1.480  1.00 20.00     0.034 C 
HETATM    2  C2  UNL     1     -35.257  18.658  -2.711  1.00 20.00     0.003 C 
HETATM    3  C3  UNL     1     -32.978  17.371  -1.550  1.00 20.00     0.017 C 
HETATM    4  C4  UNL     1     -33.539  18.462  -0.989  1.00 20.00     0.062 C 
HETATM    5  C5  UNL     1     -34.189  15.991  -4.755  1.00 20.00     0.004 C 
HETATM    6  C6  UNL     1     -33.061  15.889  -3.746  1.00 20.00     0.065 C 
HETATM    7  C7  UNL     1     -33.725  16.712  -2.668  1.00 20.00     0.045 C 
HETATM    8  C8  UNL     1     -34.377  17.785  -3.548  1.00 20.00     0.139 C 
HETATM    9  C9  UNL     1     -34.347  14.958  -5.821  1.00 20.00     0.065 C 
HETATM   10  N10 UNL     1     -35.004  17.009  -4.634  1.00 20.00    -0.289 NA
ENDROOT
BRANCH   4  11
HETATM   11  O11 UNL     1     -33.009  19.128   0.089  1.00 20.00    -0.361 OA
HETATM   12  H22 UNL     1     -32.611  19.960  -0.195  1.00 20.00     0.217 HD
ENDBRANCH   4  11
TORSDOF 1
ENDMDL
MODEL 8
REMARK VINA RESULT:      -3.8     12.882     13.276
REMARK  1 active torsions:
REMARK  status: ('A' for Active; 'I' for Inactive)
REMARK    1  A    between atoms: C4_4  and  O11_11 
ROOT
HETATM    1  C1  UNL     1     -32.331  18.995   1.684  1.00 20.00     0.034 C 
HETATM    2  C2  UNL     1     -33.527  19.157   1.081  1.00 20.00     0.003 C 
HETATM    3  C3  UNL     1     -31.166  18.548  -0.420  1.00 20.00     0.017 C 
HETATM    4  C4  UNL     1     -31.110  18.883   0.886  1.00 20.00     0.062 C 
HETATM    5  C5  UNL     1     -34.351  18.541  -2.292  1.00 20.00     0.004 C 
HETATM    6  C6  UNL     1     -32.847  18.440  -2.467  1.00 20.00     0.065 C 
HETATM    7  C7  UNL     1     -32.518  18.275  -1.002  1.00 20.00     0.045 C 
HETATM    8  C8  UNL     1     -33.536  19.257  -0.411  1.00 20.00     0.139 C 
HETATM    9  C9  UNL     1     -35.269  18.199  -3.418  1.00 20.00     0.065 C 
HETATM   10  N10 UNL     1     -34.787  18.928  -1.119  1.00 20.00    -0.289 NA
ENDROOT
BRANCH   4  11
HETATM   11  O11 UNL     1     -29.940  19.091   1.574  1.00 20.00    -0.361 OA
HETATM   12  H22 UNL     1     -29.182  18.871   1.018  1.00 20.00     0.217 HD
ENDBRANCH   4  11
TORSDOF 1
ENDMDL
MODEL 9
REMARK VINA RESULT:      -3.8      9.300     10.531
REMARK  1 active torsions:
REMARK  status: ('A' for Active; 'I' for Inactive)
REMARK    1  A    between atoms: C4_4  and  O11_11 
ROOT
HETATM    1  C1  UNL     1     -38.903  11.776   5.273  1.00 20.00     0.034 C 
HETATM    2  C2  UNL     1     -39.073  12.192   6.545  1.00 20.00     0.003 C 
HETATM    3  C3  UNL     1     -40.750  13.140   4.427  1.00 20.00     0.017 C 
HETATM    4  C4  UNL     1     -39.636  12.419   4.182  1.00 20.00     0.062 C 
HETATM    5  C5  UNL     1     -41.699  14.148   7.851  1.00 20.00     0.004 C 
HETATM    6  C6  UNL     1     -42.034  14.376   6.389  1.00 20.00     0.065 C 
HETATM    7  C7  UNL     1     -41.211  13.231   5.848  1.00 20.00     0.045 C 
HETATM    8  C8  UNL     1     -39.993  13.349   6.773  1.00 20.00     0.139 C 
HETATM    9  C9  UNL     1     -42.616  14.638   8.923  1.00 20.00     0.065 C 
HETATM   10  N10 UNL     1     -40.590  13.504   8.113  1.00 20.00    -0.289 NA
ENDROOT
BRANCH   4  11
HETATM   11  O11 UNL     1     -39.135  12.187   2.924  1.00 20.00    -0.361 OA
HETATM   12  H22 UNL     1     -38.255  11.795   2.983  1.00 20.00     0.217 HD
ENDBRANCH   4  11
TORSDOF 1
ENDMDL
