MODEL 1
REMARK VINA RESULT:      -4.4      0.000      0.000
REMARK  3 active torsions:
REMARK  status: ('A' for Active; 'I' for Inactive)
REMARK    1  A    between atoms: C3_3  and  C8_8 
REMARK    2  A    between atoms: C7_7  and  C8_8 
REMARK    3  A    between atoms: C8_8  and  C9_9 
ROOT
HETATM    1  C1  UNL     1     -32.142   8.410   1.141  1.00 20.00     0.012 C 
HETATM    2  C2  UNL     1     -32.326   7.548   1.957  1.00 20.00    -0.117 C 
HETATM    3  C7  UNL     1     -32.552   6.488   2.955  1.00 20.00     0.105 C 
ENDROOT
BRANCH   3   4
HETATM    4  C8  UNL     1     -33.621   6.898   3.985  1.00 20.00     0.069 C 
BRANCH   4   5
HETATM    5  C3  UNL     1     -34.557   5.726   4.303  1.00 20.00     0.128 C 
HETATM    6  C4  UNL     1     -33.914   4.374   4.487  1.00 20.00     0.091 C 
HETATM    7  O10 UNL     1     -35.777   5.861   4.394  1.00 20.00    -0.298 OA
ENDBRANCH   4   5
BRANCH   4   8
HETATM    8  C9  UNL     1     -33.046   7.471   5.307  1.00 20.00    -0.011 C 
HETATM    9  C5  UNL     1     -32.557   8.918   5.188  1.00 20.00     0.010 C 
HETATM   10  C6  UNL     1     -34.059   7.360   6.450  1.00 20.00     0.010 C 
ENDBRANCH   4   8
ENDBRANCH   3   4
TORSDOF 3
ENDMDL
MODEL 2
REMARK VINA RESULT:      -4.1     12.060     12.999
REMARK  3 active torsions:
REMARK  status: ('A' for Active; 'I' for Inactive)
REMARK    1  A    between atoms: C3_3  and  C8_8 
REMARK    2  A    between atoms: C7_7  and  C8_8 
REMARK    3  A    between atoms: C8_8  and  C9_9 
ROOT
HETATM    1  C1  UNL     1     -33.377  15.164  -4.455  1.00 20.00     0.012 C 
HETATM    2  C2  UNL     1     -33.481  15.788  -3.434  1.00 20.00    -0.117 C 
HETATM    3  C7  UNL     1     -33.611  16.553  -2.182  1.00 20.00     0.105 C 
ENDROOT
BRANCH   3   4
HETATM    4  C8  UNL     1     -32.807  17.867  -2.234  1.00 20.00     0.069 C 
BRANCH   4   5
HETATM    5  C3  UNL     1     -33.378  18.819  -3.291  1.00 20.00     0.128 C 
HETATM    6  C4  UNL     1     -34.813  19.249  -3.114  1.00 20.00     0.091 C 
HETATM    7  O10 UNL     1     -32.717  19.213  -4.251  1.00 20.00    -0.298 OA
ENDBRANCH   4   5
BRANCH   4   8
HETATM    8  C9  UNL     1     -32.706  18.607  -0.874  1.00 20.00    -0.011 C 
HETATM    9  C5  UNL     1     -33.690  18.091   0.181  1.00 20.00     0.010 C 
HETATM   10  C6  UNL     1     -31.279  18.558  -0.318  1.00 20.00     0.010 C 
ENDBRANCH   4   8
ENDBRANCH   3   4
TORSDOF 3
ENDMDL
MODEL 3
REMARK VINA RESULT:      -4.1      9.480     10.792
REMARK  3 active torsions:
REMARK  status: ('A' for Active; 'I' for Inactive)
REMARK    1  A    between atoms: C3_3  and  C8_8 
REMARK    2  A    between atoms: C7_7  and  C8_8 
REMARK    3  A    between atoms: C8_8  and  C9_9 
ROOT
HETATM    1  C1  UNL     1     -40.576  16.781   7.814  1.00 20.00     0.012 C 
HETATM    2  C2  UNL     1     -40.520  15.582   7.797  1.00 20.00    -0.117 C 
HETATM    3  C7  UNL     1     -40.450  14.110   7.777  1.00 20.00     0.105 C 
ENDROOT
BRANCH   3   4
HETATM    4  C8  UNL     1     -40.554  13.557   6.343  1.00 20.00     0.069 C 
BRANCH   4   5
HETATM    5  C3  UNL     1     -39.581  12.390   6.132  1.00 20.00     0.128 C 
HETATM    6  C4  UNL     1     -39.437  11.872   4.723  1.00 20.00     0.091 C 
HETATM    7  O10 UNL     1     -38.950  11.880   7.058  1.00 20.00    -0.298 OA
ENDBRANCH   4   5
BRANCH   4   8
HETATM    8  C9  UNL     1     -41.984  13.115   5.933  1.00 20.00    -0.011 C 
HETATM    9  C5  UNL     1     -42.791  12.503   7.081  1.00 20.00     0.010 C 
HETATM   10  C6  UNL     1     -42.766  14.275   5.310  1.00 20.00     0.010 C 
ENDBRANCH   4   8
ENDBRANCH   3   4
TORSDOF 3
ENDMDL
MODEL 4
REMARK VINA RESULT:      -4.0     11.876     13.439
REMARK  3 active torsions:
REMARK  status: ('A' for Active; 'I' for Inactive)
REMARK    1  A    between atoms: C3_3  and  C8_8 
REMARK    2  A    between atoms: C7_7  and  C8_8 
REMARK    3  A    between atoms: C8_8  and  C9_9 
ROOT
HETATM    1  C1  UNL     1     -33.330  16.651  -2.483  1.00 20.00     0.012 C 
HETATM    2  C2  UNL     1     -33.452  15.974  -3.467  1.00 20.00    -0.117 C 
HETATM    3  C7  UNL     1     -33.599  15.143  -4.675  1.00 20.00     0.105 C 
ENDROOT
BRANCH   3   4
HETATM    4  C8  UNL     1     -34.660  15.718  -5.633  1.00 20.00     0.069 C 
BRANCH   4   5
HETATM    5  C3  UNL     1     -34.105  15.843  -7.057  1.00 20.00     0.128 C 
HETATM    6  C4  UNL     1     -34.337  17.155  -7.764  1.00 20.00     0.091 C 
HETATM    7  O10 UNL     1     -33.509  14.922  -7.617  1.00 20.00    -0.298 OA
ENDBRANCH   4   5
BRANCH   4   8
HETATM    8  C9  UNL     1     -35.989  14.918  -5.666  1.00 20.00    -0.011 C 
HETATM    9  C5  UNL     1     -36.020  13.738  -4.689  1.00 20.00     0.010 C 
HETATM   10  C6  UNL     1     -37.193  15.830  -5.415  1.00 20.00     0.010 C 
ENDBRANCH   4   8
ENDBRANCH   3   4
TORSDOF 3
ENDMDL
MODEL 5
REMARK VINA RESULT:      -4.0      9.507     10.517
REMARK  3 active torsions:
REMARK  status: ('A' for Active; 'I' for Inactive)
REMARK    1  A    between atoms: C3_3  and  C8_8 
REMARK    2  A    between atoms: C7_7  and  C8_8 
REMARK    3  A    between atoms: C8_8  and  C9_9 
ROOT
HETATM    1  C1  UNL     1     -39.009  11.597   4.223  1.00 20.00     0.012 C 
HETATM    2  C2  UNL     1     -39.450  12.071   5.234  1.00 20.00    -0.117 C 
HETATM    3  C7  UNL     1     -39.993  12.650   6.475  1.00 20.00     0.105 C 
ENDROOT
BRANCH   3   4
HETATM    4  C8  UNL     1     -40.613  14.039   6.229  1.00 20.00     0.069 C 
BRANCH   4   5
HETATM    5  C3  UNL     1     -41.856  13.936   5.337  1.00 20.00     0.128 C 
HETATM    6  C4  UNL     1     -43.156  13.588   6.019  1.00 20.00     0.091 C 
HETATM    7  O10 UNL     1     -41.811  14.112   4.119  1.00 20.00    -0.298 OA
ENDBRANCH   4   5
BRANCH   4   8
HETATM    8  C9  UNL     1     -40.971  14.816   7.524  1.00 20.00    -0.011 C 
HETATM    9  C5  UNL     1     -40.276  14.275   8.777  1.00 20.00     0.010 C 
HETATM   10  C6  UNL     1     -40.678  16.312   7.374  1.00 20.00     0.010 C 
ENDBRANCH   4   8
ENDBRANCH   3   4
TORSDOF 3
ENDMDL
MODEL 6
REMARK VINA RESULT:      -3.9      1.929      3.247
REMARK  3 active torsions:
REMARK  status: ('A' for Active; 'I' for Inactive)
REMARK    1  A    between atoms: C3_3  and  C8_8 
REMARK    2  A    between atoms: C7_7  and  C8_8 
REMARK    3  A    between atoms: C8_8  and  C9_9 
ROOT
HETATM    1  C1  UNL     1     -32.656   4.294   2.454  1.00 20.00     0.012 C 
HETATM    2  C2  UNL     1     -32.947   5.403   2.810  1.00 20.00    -0.117 C 
HETATM    3  C7  UNL     1     -33.300   6.765   3.246  1.00 20.00     0.105 C 
ENDROOT
BRANCH   3   4
HETATM    4  C8  UNL     1     -33.407   6.861   4.780  1.00 20.00     0.069 C 
BRANCH   4   5
HETATM    5  C3  UNL     1     -33.240   8.310   5.253  1.00 20.00     0.128 C 
HETATM    6  C4  UNL     1     -32.061   9.074   4.702  1.00 20.00     0.091 C 
HETATM    7  O10 UNL     1     -34.012   8.835   6.055  1.00 20.00    -0.298 OA
ENDBRANCH   4   5
BRANCH   4   8
HETATM    8  C9  UNL     1     -34.718   6.275   5.366  1.00 20.00    -0.011 C 
HETATM    9  C5  UNL     1     -35.751   5.895   4.300  1.00 20.00     0.010 C 
HETATM   10  C6  UNL     1     -34.436   5.069   6.267  1.00 20.00     0.010 C 
ENDBRANCH   4   8
ENDBRANCH   3   4
TORSDOF 3
ENDMDL
MODEL 7
REMARK VINA RESULT:      -3.9     11.695     13.021
REMARK  3 active torsions:
REMARK  status: ('A' for Active; 'I' for Inactive)
REMARK    1  A    between atoms: C3_3  and  C8_8 
REMARK    2  A    between atoms: C7_7  and  C8_8 
REMARK    3  A    between atoms: C8_8  and  C9_9 
ROOT
HETATM    1  C1  UNL     1     -32.291  18.231  -1.236  1.00 20.00     0.012 C 
HETATM    2  C2  UNL     1     -32.932  17.409  -1.832  1.00 20.00    -0.117 C 
HETATM    3  C7  UNL     1     -33.718  16.398  -2.561  1.00 20.00     0.105 C 
ENDROOT
BRANCH   3   4
HETATM    4  C8  UNL     1     -33.515  16.512  -4.084  1.00 20.00     0.069 C 
BRANCH   4   5
HETATM    5  C3  UNL     1     -33.745  15.161  -4.772  1.00 20.00     0.128 C 
HETATM    6  C4  UNL     1     -34.116  15.197  -6.234  1.00 20.00     0.091 C 
HETATM    7  O10 UNL     1     -33.651  14.090  -4.172  1.00 20.00    -0.298 OA
ENDBRANCH   4   5
BRANCH   4   8
HETATM    8  C9  UNL     1     -34.395  17.593  -4.765  1.00 20.00    -0.011 C 
HETATM    9  C5  UNL     1     -35.713  17.864  -4.033  1.00 20.00     0.010 C 
HETATM   10  C6  UNL     1     -33.624  18.904  -4.946  1.00 20.00     0.010 C 
ENDBRANCH   4   8
ENDBRANCH   3   4
TORSDOF 3
ENDMDL
MODEL 8
REMARK VINA RESULT:      -3.9      1.508      4.076
REMARK  3 active torsions:
REMARK  status: ('A' for Active; 'I' for Inactive)
REMARK    1  A    between atoms: C3_3  and  C8_8 
REMARK    2  A    between atoms: C7_7  and  C8_8 
REMARK    3  A    between atoms: C8_8  and  C9_9 
ROOT
HETATM    1  C1  UNL     1     -34.181   5.079   6.642  1.00 20.00     0.012 C 
HETATM    2  C2  UNL     1     -34.540   5.602   5.622  1.00 20.00    -0.117 C 
HETATM    3  C7  UNL     1     -34.980   6.240   4.369  1.00 20.00     0.105 C 
ENDROOT
BRANCH   3   4
HETATM    4  C8  UNL     1     -33.942   7.255   3.854  1.00 20.00     0.069 C 
BRANCH   4   5
HETATM    5  C3  UNL     1     -33.485   8.192   4.979  1.00 20.00     0.128 C 
HETATM    6  C4  UNL     1     -32.050   8.656   4.936  1.00 20.00     0.091 C 
HETATM    7  O10 UNL     1     -34.235   8.548   5.887  1.00 20.00    -0.298 OA
ENDBRANCH   4   5
BRANCH   4   8
HETATM    8  C9  UNL     1     -32.699   6.611   3.184  1.00 20.00    -0.011 C 
HETATM    9  C5  UNL     1     -32.944   5.187   2.676  1.00 20.00     0.010 C 
HETATM   10  C6  UNL     1     -32.169   7.484   2.042  1.00 20.00     0.010 C 
ENDBRANCH   4   8
ENDBRANCH   3   4
TORSDOF 3
ENDMDL
MODEL 9
REMARK VINA RESULT:      -3.9     11.531     12.788
REMARK  3 active torsions:
REMARK  status: ('A' for Active; 'I' for Inactive)
REMARK    1  A    between atoms: C3_3  and  C8_8 
REMARK    2  A    between atoms: C7_7  and  C8_8 
REMARK    3  A    between atoms: C8_8  and  C9_9 
ROOT
HETATM    1  C1  UNL     1     -34.098  14.613  -4.214  1.00 20.00     0.012 C 
HETATM    2  C2  UNL     1     -33.557  15.517  -3.637  1.00 20.00    -0.117 C 
HETATM    3  C7  UNL     1     -32.892  16.625  -2.929  1.00 20.00     0.105 C 
ENDROOT
BRANCH   3   4
HETATM    4  C8  UNL     1     -33.901  17.480  -2.139  1.00 20.00     0.069 C 
BRANCH   4   5
HETATM    5  C3  UNL     1     -33.317  17.912  -0.788  1.00 20.00     0.128 C 
HETATM    6  C4  UNL     1     -31.891  18.403  -0.790  1.00 20.00     0.091 C 
HETATM    7  O10 UNL     1     -33.962  17.854   0.259  1.00 20.00    -0.298 OA
ENDBRANCH   4   5
BRANCH   4   8
HETATM    8  C9  UNL     1     -34.414  18.730  -2.902  1.00 20.00    -0.011 C 
HETATM    9  C5  UNL     1     -33.518  19.143  -4.074  1.00 20.00     0.010 C 
HETATM   10  C6  UNL     1     -35.851  18.531  -3.393  1.00 20.00     0.010 C 
ENDBRANCH   4   8
ENDBRANCH   3   4
TORSDOF 3
ENDMDL
