MODEL 1
REMARK VINA RESULT:      -4.3      0.000      0.000
REMARK  3 active torsions:
REMARK  status: ('A' for Active; 'I' for Inactive)
REMARK    1  A    between atoms: C1_1  and  C7_7 
REMARK    2  A    between atoms: C7_7  and  O10_10 
REMARK    3  A    between atoms: C8_8  and  N9_9 
ROOT
HETATM    1  C1  UNL     1     -32.949   6.757   3.722  1.00 20.00     0.032 C 
HETATM    2  C2  UNL     1     -32.982   5.681   2.660  1.00 20.00     0.068 C 
HETATM    3  N9  UNL     1     -33.654   6.735   4.803  1.00 20.00    -0.287 NA
ENDROOT
BRANCH   1   4
HETATM    4  C7  UNL     1     -31.996   7.931   3.535  1.00 20.00     0.161 C 
HETATM    5  C3  UNL     1     -32.550   8.932   2.535  1.00 20.00     0.045 C 
BRANCH   4   6
HETATM    6  O10 UNL     1     -31.794   8.572   4.781  1.00 20.00    -0.390 OA
HETATM    7  H27 UNL     1     -31.939   7.904   5.472  1.00 20.00     0.210 HD
ENDBRANCH   4   6
ENDBRANCH   1   4
BRANCH   3   8
HETATM    8  C8  UNL     1     -34.549   5.610   5.029  1.00 20.00     0.043 C 
HETATM    9  C4  UNL     1     -33.874   4.344   4.506  1.00 20.00     0.039 C 
HETATM   10  C5  UNL     1     -34.798   5.505   6.533  1.00 20.00     0.039 C 
HETATM   11  C6  UNL     1     -35.856   5.877   4.284  1.00 20.00     0.039 C 
ENDBRANCH   3   8
TORSDOF 3
ENDMDL
MODEL 2
REMARK VINA RESULT:      -4.2      9.373     10.267
REMARK  3 active torsions:
REMARK  status: ('A' for Active; 'I' for Inactive)
REMARK    1  A    between atoms: C1_1  and  C7_7 
REMARK    2  A    between atoms: C7_7  and  O10_10 
REMARK    3  A    between atoms: C8_8  and  N9_9 
ROOT
HETATM    1  C1  UNL     1     -40.148  12.941   6.365  1.00 20.00     0.032 C 
HETATM    2  C2  UNL     1     -41.205  13.523   5.454  1.00 20.00     0.068 C 
HETATM    3  N9  UNL     1     -39.995  13.268   7.604  1.00 20.00    -0.287 NA
ENDROOT
BRANCH   1   4
HETATM    4  C7  UNL     1     -39.222  11.866   5.807  1.00 20.00     0.161 C 
HETATM    5  C3  UNL     1     -39.360  11.755   4.298  1.00 20.00     0.045 C 
BRANCH   4   6
HETATM    6  O10 UNL     1     -37.883  12.187   6.135  1.00 20.00    -0.390 OA
HETATM    7  H27 UNL     1     -37.914  12.892   6.804  1.00 20.00     0.210 HD
ENDBRANCH   4   6
ENDBRANCH   1   4
BRANCH   3   8
HETATM    8  C8  UNL     1     -40.885  14.266   8.177  1.00 20.00     0.043 C 
HETATM    9  C4  UNL     1     -42.324  13.780   8.011  1.00 20.00     0.039 C 
HETATM   10  C5  UNL     1     -40.533  14.412   9.657  1.00 20.00     0.039 C 
HETATM   11  C6  UNL     1     -40.668  15.587   7.440  1.00 20.00     0.039 C 
ENDBRANCH   3   8
TORSDOF 3
ENDMDL
MODEL 3
REMARK VINA RESULT:      -4.1     12.051     13.001
REMARK  3 active torsions:
REMARK  status: ('A' for Active; 'I' for Inactive)
REMARK    1  A    between atoms: C1_1  and  C7_7 
REMARK    2  A    between atoms: C7_7  and  O10_10 
REMARK    3  A    between atoms: C8_8  and  N9_9 
ROOT
HETATM    1  C1  UNL     1     -33.623  16.513  -3.495  1.00 20.00     0.032 C 
HETATM    2  C2  UNL     1     -33.950  17.633  -4.455  1.00 20.00     0.068 C 
HETATM    3  N9  UNL     1     -33.499  16.661  -2.219  1.00 20.00    -0.287 NA
ENDROOT
BRANCH   1   4
HETATM    4  C7  UNL     1     -33.466  15.103  -4.052  1.00 20.00     0.161 C 
HETATM    5  C3  UNL     1     -34.380  14.882  -5.246  1.00 20.00     0.045 C 
BRANCH   4   6
HETATM    6  O10 UNL     1     -32.121  14.903  -4.447  1.00 20.00    -0.390 OA
HETATM    7  H27 UNL     1     -31.961  13.944  -4.439  1.00 20.00     0.210 HD
ENDBRANCH   4   6
ENDBRANCH   1   4
BRANCH   3   8
HETATM    8  C8  UNL     1     -33.676  17.988  -1.650  1.00 20.00     0.043 C 
HETATM    9  C4  UNL     1     -35.010  18.548  -2.141  1.00 20.00     0.039 C 
HETATM   10  C5  UNL     1     -33.679  17.848  -0.128  1.00 20.00     0.039 C 
HETATM   11  C6  UNL     1     -32.515  18.869  -2.108  1.00 20.00     0.039 C 
ENDBRANCH   3   8
TORSDOF 3
ENDMDL
MODEL 4
REMARK VINA RESULT:      -4.0     12.053     12.995
REMARK  3 active torsions:
REMARK  status: ('A' for Active; 'I' for Inactive)
REMARK    1  A    between atoms: C1_1  and  C7_7 
REMARK    2  A    between atoms: C7_7  and  O10_10 
REMARK    3  A    between atoms: C8_8  and  N9_9 
ROOT
HETATM    1  C1  UNL     1     -33.621  16.516  -3.488  1.00 20.00     0.032 C 
HETATM    2  C2  UNL     1     -33.946  17.641  -4.444  1.00 20.00     0.068 C 
HETATM    3  N9  UNL     1     -33.500  16.659  -2.210  1.00 20.00    -0.287 NA
ENDROOT
BRANCH   1   4
HETATM    4  C7  UNL     1     -33.464  15.109  -4.051  1.00 20.00     0.161 C 
HETATM    5  C3  UNL     1     -34.377  14.893  -5.246  1.00 20.00     0.045 C 
BRANCH   4   6
HETATM    6  O10 UNL     1     -32.119  14.910  -4.444  1.00 20.00    -0.390 OA
HETATM    7  H27 UNL     1     -31.687  15.781  -4.432  1.00 20.00     0.210 HD
ENDBRANCH   4   6
ENDBRANCH   1   4
BRANCH   3   8
HETATM    8  C8  UNL     1     -33.678  17.984  -1.637  1.00 20.00     0.043 C 
HETATM    9  C4  UNL     1     -33.685  17.852  -0.115  1.00 20.00     0.039 C 
HETATM   10  C5  UNL     1     -32.508  18.854  -2.096  1.00 20.00     0.039 C 
HETATM   11  C6  UNL     1     -35.003  18.554  -2.139  1.00 20.00     0.039 C 
ENDBRANCH   3   8
TORSDOF 3
ENDMDL
MODEL 5
REMARK VINA RESULT:      -4.0     12.066     13.019
REMARK  3 active torsions:
REMARK  status: ('A' for Active; 'I' for Inactive)
REMARK    1  A    between atoms: C1_1  and  C7_7 
REMARK    2  A    between atoms: C7_7  and  O10_10 
REMARK    3  A    between atoms: C8_8  and  N9_9 
ROOT
HETATM    1  C1  UNL     1     -33.614  16.528  -3.489  1.00 20.00     0.032 C 
HETATM    2  C2  UNL     1     -33.938  17.658  -4.441  1.00 20.00     0.068 C 
HETATM    3  N9  UNL     1     -33.494  16.665  -2.211  1.00 20.00    -0.287 NA
ENDROOT
BRANCH   1   4
HETATM    4  C7  UNL     1     -33.457  15.123  -4.059  1.00 20.00     0.161 C 
HETATM    5  C3  UNL     1     -34.379  14.908  -5.247  1.00 20.00     0.045 C 
BRANCH   4   6
HETATM    6  O10 UNL     1     -32.114  14.931  -4.464  1.00 20.00    -0.390 OA
HETATM    7  H27 UNL     1     -32.116  14.857  -5.434  1.00 20.00     0.210 HD
ENDBRANCH   4   6
ENDBRANCH   1   4
BRANCH   3   8
HETATM    8  C8  UNL     1     -33.673  17.987  -1.631  1.00 20.00     0.043 C 
HETATM    9  C4  UNL     1     -32.509  18.870  -2.079  1.00 20.00     0.039 C 
HETATM   10  C5  UNL     1     -35.000  18.546  -2.141  1.00 20.00     0.039 C 
HETATM   11  C6  UNL     1     -33.695  17.848  -0.110  1.00 20.00     0.039 C 
ENDBRANCH   3   8
TORSDOF 3
ENDMDL
MODEL 6
REMARK VINA RESULT:      -3.9      1.095      2.064
REMARK  3 active torsions:
REMARK  status: ('A' for Active; 'I' for Inactive)
REMARK    1  A    between atoms: C1_1  and  C7_7 
REMARK    2  A    between atoms: C7_7  and  O10_10 
REMARK    3  A    between atoms: C8_8  and  N9_9 
ROOT
HETATM    1  C1  UNL     1     -33.208   7.511   4.875  1.00 20.00     0.032 C 
HETATM    2  C2  UNL     1     -34.033   8.023   6.034  1.00 20.00     0.068 C 
HETATM    3  N9  UNL     1     -33.369   6.357   4.320  1.00 20.00    -0.287 NA
ENDROOT
BRANCH   1   4
HETATM    4  C7  UNL     1     -32.139   8.424   4.287  1.00 20.00     0.161 C 
HETATM    5  C3  UNL     1     -32.590   9.012   2.961  1.00 20.00     0.045 C 
BRANCH   4   6
HETATM    6  O10 UNL     1     -31.867   9.473   5.199  1.00 20.00    -0.390 OA
HETATM    7  H27 UNL     1     -30.904   9.492   5.332  1.00 20.00     0.210 HD
ENDBRANCH   4   6
ENDBRANCH   1   4
BRANCH   3   8
HETATM    8  C8  UNL     1     -34.405   5.474   4.836  1.00 20.00     0.043 C 
HETATM    9  C4  UNL     1     -35.753   5.947   4.295  1.00 20.00     0.039 C 
HETATM   10  C5  UNL     1     -34.097   4.058   4.351  1.00 20.00     0.039 C 
HETATM   11  C6  UNL     1     -34.379   5.538   6.362  1.00 20.00     0.039 C 
ENDBRANCH   3   8
TORSDOF 3
ENDMDL
MODEL 7
REMARK VINA RESULT:      -3.7     12.150     13.845
REMARK  3 active torsions:
REMARK  status: ('A' for Active; 'I' for Inactive)
REMARK    1  A    between atoms: C1_1  and  C7_7 
REMARK    2  A    between atoms: C7_7  and  O10_10 
REMARK    3  A    between atoms: C8_8  and  N9_9 
ROOT
HETATM    1  C1  UNL     1     -33.683  16.443  -3.573  1.00 20.00     0.032 C 
HETATM    2  C2  UNL     1     -33.308  16.929  -2.191  1.00 20.00     0.068 C 
HETATM    3  N9  UNL     1     -34.161  17.198  -4.505  1.00 20.00    -0.287 NA
ENDROOT
BRANCH   1   4
HETATM    4  C7  UNL     1     -33.448  14.977  -3.915  1.00 20.00     0.161 C 
HETATM    5  C3  UNL     1     -34.581  14.424  -4.763  1.00 20.00     0.045 C 
BRANCH   4   6
HETATM    6  O10 UNL     1     -32.227  14.851  -4.620  1.00 20.00    -0.390 OA
HETATM    7  H27 UNL     1     -31.511  14.932  -3.967  1.00 20.00     0.210 HD
ENDBRANCH   4   6
ENDBRANCH   1   4
BRANCH   3   8
HETATM    8  C8  UNL     1     -34.365  18.610  -4.223  1.00 20.00     0.043 C 
HETATM    9  C4  UNL     1     -33.015  19.231  -3.868  1.00 20.00     0.039 C 
HETATM   10  C5  UNL     1     -34.943  19.260  -5.480  1.00 20.00     0.039 C 
HETATM   11  C6  UNL     1     -35.344  18.733  -3.056  1.00 20.00     0.039 C 
ENDBRANCH   3   8
TORSDOF 3
ENDMDL
MODEL 8
REMARK VINA RESULT:      -3.7     12.548     13.611
REMARK  3 active torsions:
REMARK  status: ('A' for Active; 'I' for Inactive)
REMARK    1  A    between atoms: C1_1  and  C7_7 
REMARK    2  A    between atoms: C7_7  and  O10_10 
REMARK    3  A    between atoms: C8_8  and  N9_9 
ROOT
HETATM    1  C1  UNL     1     -34.150  16.396  -4.379  1.00 20.00     0.032 C 
HETATM    2  C2  UNL     1     -33.448  15.067  -4.211  1.00 20.00     0.068 C 
HETATM    3  N9  UNL     1     -35.021  16.647  -5.298  1.00 20.00    -0.287 NA
ENDROOT
BRANCH   1   4
HETATM    4  C7  UNL     1     -33.847  17.507  -3.382  1.00 20.00     0.161 C 
HETATM    5  C3  UNL     1     -33.405  16.937  -2.045  1.00 20.00     0.045 C 
BRANCH   4   6
HETATM    6  O10 UNL     1     -32.824  18.336  -3.902  1.00 20.00    -0.390 OA
HETATM    7  H27 UNL     1     -32.002  17.818  -3.886  1.00 20.00     0.210 HD
ENDBRANCH   4   6
ENDBRANCH   1   4
BRANCH   3   8
HETATM    8  C8  UNL     1     -35.358  15.596  -6.246  1.00 20.00     0.043 C 
HETATM    9  C4  UNL     1     -35.892  14.396  -5.465  1.00 20.00     0.039 C 
HETATM   10  C5  UNL     1     -36.428  16.143  -7.190  1.00 20.00     0.039 C 
HETATM   11  C6  UNL     1     -34.096  15.222  -7.021  1.00 20.00     0.039 C 
ENDBRANCH   3   8
TORSDOF 3
ENDMDL
MODEL 9
REMARK VINA RESULT:      -3.7     12.563     13.639
REMARK  3 active torsions:
REMARK  status: ('A' for Active; 'I' for Inactive)
REMARK    1  A    between atoms: C1_1  and  C7_7 
REMARK    2  A    between atoms: C7_7  and  O10_10 
REMARK    3  A    between atoms: C8_8  and  N9_9 
ROOT
HETATM    1  C1  UNL     1     -34.005  15.859  -4.705  1.00 20.00     0.032 C 
HETATM    2  C2  UNL     1     -32.765  15.372  -3.990  1.00 20.00     0.068 C 
HETATM    3  N9  UNL     1     -34.643  16.939  -4.400  1.00 20.00    -0.287 NA
ENDROOT
BRANCH   1   4
HETATM    4  C7  UNL     1     -34.522  15.053  -5.890  1.00 20.00     0.161 C 
HETATM    5  C3  UNL     1     -35.575  15.830  -6.662  1.00 20.00     0.045 C 
BRANCH   4   6
HETATM    6  O10 UNL     1     -33.441  14.743  -6.751  1.00 20.00    -0.390 OA
HETATM    7  H27 UNL     1     -33.130  13.854  -6.510  1.00 20.00     0.210 HD
ENDBRANCH   4   6
ENDBRANCH   1   4
BRANCH   3   8
HETATM    8  C8  UNL     1     -34.156  17.750  -3.295  1.00 20.00     0.043 C 
HETATM    9  C4  UNL     1     -33.041  18.655  -3.817  1.00 20.00     0.039 C 
HETATM   10  C5  UNL     1     -35.326  18.582  -2.773  1.00 20.00     0.039 C 
HETATM   11  C6  UNL     1     -33.632  16.816  -2.205  1.00 20.00     0.039 C 
ENDBRANCH   3   8
TORSDOF 3
ENDMDL
