MODEL 1
REMARK VINA RESULT:      -4.1      0.000      0.000
REMARK  3 active torsions:
REMARK  status: ('A' for Active; 'I' for Inactive)
REMARK    1  A    between atoms: C2_2  and  C5_5 
REMARK    2  A    between atoms: C3_3  and  C6_6 
REMARK    3  A    between atoms: C3_3  and  O10_10 
ROOT
HETATM    1  C4  UNL     1     -34.567   6.737   6.788  1.00 20.00     0.025 A 
HETATM    2  C5  UNL     1     -33.262   7.016   6.094  1.00 20.00     0.028 A 
HETATM    3  C6  UNL     1     -33.962   5.694   5.889  1.00 20.00     0.094 A 
ENDROOT
BRANCH   3   4
HETATM    4  C3  UNL     1     -34.625   5.370   4.618  1.00 20.00     0.263 C 
HETATM    5  O9  UNL     1     -35.718   5.808   4.284  1.00 20.00    -0.265 OA
BRANCH   4   6
HETATM    6  O10 UNL     1     -33.838   4.522   3.896  1.00 20.00    -0.326 OA
HETATM    7  C8  UNL     1     -33.178   5.105   2.769  1.00 20.00     0.213 C 
ENDBRANCH   4   6
ENDBRANCH   3   4
BRANCH   2   8
HETATM    8  C2  UNL     1     -33.227   8.011   5.035  1.00 20.00    -0.088 C 
HETATM    9  C1  UNL     1     -34.230   8.881   4.845  1.00 20.00     0.014 C 
HETATM   10  C7  UNL     1     -32.004   8.010   4.166  1.00 20.00     0.043 C 
ENDBRANCH   2   8
TORSDOF 3
ENDMDL
MODEL 2
REMARK VINA RESULT:      -3.8      1.851      2.985
REMARK  3 active torsions:
REMARK  status: ('A' for Active; 'I' for Inactive)
REMARK    1  A    between atoms: C2_2  and  C5_5 
REMARK    2  A    between atoms: C3_3  and  C6_6 
REMARK    3  A    between atoms: C3_3  and  O10_10 
ROOT
HETATM    1  C4  UNL     1     -33.293   6.022   6.637  1.00 20.00     0.025 A 
HETATM    2  C5  UNL     1     -34.714   6.024   6.143  1.00 20.00     0.028 A 
HETATM    3  C6  UNL     1     -33.973   7.327   6.326  1.00 20.00     0.094 A 
ENDROOT
BRANCH   3   4
HETATM    4  C3  UNL     1     -33.519   8.115   5.173  1.00 20.00     0.263 C 
HETATM    5  O9  UNL     1     -34.150   9.045   4.687  1.00 20.00    -0.265 OA
BRANCH   4   6
HETATM    6  O10 UNL     1     -32.311   7.648   4.747  1.00 20.00    -0.326 OA
HETATM    7  C8  UNL     1     -32.160   7.535   3.328  1.00 20.00     0.213 C 
ENDBRANCH   4   6
ENDBRANCH   3   4
BRANCH   2   8
HETATM    8  C2  UNL     1     -34.996   5.510   4.812  1.00 20.00    -0.088 C 
HETATM    9  C1  UNL     1     -36.028   5.959   4.082  1.00 20.00     0.014 C 
HETATM   10  C7  UNL     1     -34.067   4.447   4.302  1.00 20.00     0.043 C 
ENDBRANCH   2   8
TORSDOF 3
ENDMDL
MODEL 3
REMARK VINA RESULT:      -3.6     15.483     16.569
REMARK  3 active torsions:
REMARK  status: ('A' for Active; 'I' for Inactive)
REMARK    1  A    between atoms: C2_2  and  C5_5 
REMARK    2  A    between atoms: C3_3  and  C6_6 
REMARK    3  A    between atoms: C3_3  and  O10_10 
ROOT
HETATM    1  C4  UNL     1     -22.404  17.954  11.992  1.00 20.00     0.025 A 
HETATM    2  C5  UNL     1     -23.803  18.430  12.273  1.00 20.00     0.028 A 
HETATM    3  C6  UNL     1     -23.093  18.865  11.014  1.00 20.00     0.094 A 
ENDROOT
BRANCH   3   4
HETATM    4  C3  UNL     1     -23.483  18.342   9.698  1.00 20.00     0.263 C 
HETATM    5  O9  UNL     1     -24.442  18.750   9.055  1.00 20.00    -0.265 OA
BRANCH   4   6
HETATM    6  O10 UNL     1     -22.622  17.353   9.326  1.00 20.00    -0.326 OA
HETATM    7  C8  UNL     1     -21.739  17.679   8.248  1.00 20.00     0.213 C 
ENDBRANCH   4   6
ENDBRANCH   3   4
BRANCH   2   8
HETATM    8  C2  UNL     1     -24.896  17.472  12.218  1.00 20.00    -0.088 C 
HETATM    9  C1  UNL     1     -26.177  17.851  12.332  1.00 20.00     0.014 C 
HETATM   10  C7  UNL     1     -24.508  16.036  12.025  1.00 20.00     0.043 C 
ENDBRANCH   2   8
TORSDOF 3
ENDMDL
MODEL 4
REMARK VINA RESULT:      -3.5      8.454      9.969
REMARK  3 active torsions:
REMARK  status: ('A' for Active; 'I' for Inactive)
REMARK    1  A    between atoms: C2_2  and  C5_5 
REMARK    2  A    between atoms: C3_3  and  C6_6 
REMARK    3  A    between atoms: C3_3  and  O10_10 
ROOT
HETATM    1  C4  UNL     1     -42.307  13.672   5.972  1.00 20.00     0.025 A 
HETATM    2  C5  UNL     1     -41.925  13.678   7.427  1.00 20.00     0.028 A 
HETATM    3  C6  UNL     1     -41.541  12.512   6.547  1.00 20.00     0.094 A 
ENDROOT
BRANCH   3   4
HETATM    4  C3  UNL     1     -40.149  12.295   6.132  1.00 20.00     0.263 C 
HETATM    5  O9  UNL     1     -39.257  11.933   6.889  1.00 20.00    -0.265 OA
BRANCH   4   6
HETATM    6  O10 UNL     1     -40.022  12.559   4.801  1.00 20.00    -0.326 OA
HETATM    7  C8  UNL     1     -39.106  11.720   4.091  1.00 20.00     0.213 C 
ENDBRANCH   4   6
ENDBRANCH   3   4
BRANCH   2   8
HETATM    8  C2  UNL     1     -40.922  14.625   7.887  1.00 20.00    -0.088 C 
HETATM    9  C1  UNL     1     -40.564  15.690   7.156  1.00 20.00     0.014 C 
HETATM   10  C7  UNL     1     -40.309  14.340   9.227  1.00 20.00     0.043 C 
ENDBRANCH   2   8
TORSDOF 3
ENDMDL
MODEL 5
REMARK VINA RESULT:      -3.4      1.978      3.275
REMARK  3 active torsions:
REMARK  status: ('A' for Active; 'I' for Inactive)
REMARK    1  A    between atoms: C2_2  and  C5_5 
REMARK    2  A    between atoms: C3_3  and  C6_6 
REMARK    3  A    between atoms: C3_3  and  O10_10 
ROOT
HETATM    1  C4  UNL     1     -32.523   8.302   5.214  1.00 20.00     0.025 A 
HETATM    2  C5  UNL     1     -33.957   7.978   4.895  1.00 20.00     0.028 A 
HETATM    3  C6  UNL     1     -32.975   8.252   3.781  1.00 20.00     0.094 A 
ENDROOT
BRANCH   3   4
HETATM    4  C3  UNL     1     -32.486   7.174   2.911  1.00 20.00     0.263 C 
HETATM    5  O9  UNL     1     -32.399   6.003   3.255  1.00 20.00    -0.265 OA
BRANCH   4   6
HETATM    6  O10 UNL     1     -32.154   7.686   1.692  1.00 20.00    -0.326 OA
HETATM    7  C8  UNL     1     -32.643   9.004   1.424  1.00 20.00     0.213 C 
ENDBRANCH   4   6
ENDBRANCH   3   4
BRANCH   2   8
HETATM    8  C2  UNL     1     -34.444   6.630   5.141  1.00 20.00    -0.088 C 
HETATM    9  C1  UNL     1     -35.349   6.046   4.342  1.00 20.00     0.014 C 
HETATM   10  C7  UNL     1     -33.877   5.930   6.341  1.00 20.00     0.043 C 
ENDBRANCH   2   8
TORSDOF 3
ENDMDL
MODEL 6
REMARK VINA RESULT:      -3.4      1.927      3.366
REMARK  3 active torsions:
REMARK  status: ('A' for Active; 'I' for Inactive)
REMARK    1  A    between atoms: C2_2  and  C5_5 
REMARK    2  A    between atoms: C3_3  and  C6_6 
REMARK    3  A    between atoms: C3_3  and  O10_10 
ROOT
HETATM    1  C4  UNL     1     -35.198   5.338   5.955  1.00 20.00     0.025 A 
HETATM    2  C5  UNL     1     -34.984   5.404   4.468  1.00 20.00     0.028 A 
HETATM    3  C6  UNL     1     -34.935   6.664   5.297  1.00 20.00     0.094 A 
ENDROOT
BRANCH   3   4
HETATM    4  C3  UNL     1     -33.667   7.357   5.560  1.00 20.00     0.263 C 
HETATM    5  O9  UNL     1     -32.930   7.103   6.504  1.00 20.00    -0.265 OA
BRANCH   4   6
HETATM    6  O10 UNL     1     -33.458   8.306   4.603  1.00 20.00    -0.326 OA
HETATM    7  C8  UNL     1     -32.094   8.495   4.213  1.00 20.00     0.213 C 
ENDBRANCH   4   6
ENDBRANCH   3   4
BRANCH   2   8
HETATM    8  C2  UNL     1     -33.768   4.836   3.907  1.00 20.00    -0.088 C 
HETATM    9  C1  UNL     1     -33.209   5.320   2.788  1.00 20.00     0.014 C 
HETATM   10  C7  UNL     1     -33.174   3.677   4.652  1.00 20.00     0.043 C 
ENDBRANCH   2   8
TORSDOF 3
ENDMDL
MODEL 7
REMARK VINA RESULT:      -3.4      2.038      3.643
REMARK  3 active torsions:
REMARK  status: ('A' for Active; 'I' for Inactive)
REMARK    1  A    between atoms: C2_2  and  C5_5 
REMARK    2  A    between atoms: C3_3  and  C6_6 
REMARK    3  A    between atoms: C3_3  and  O10_10 
ROOT
HETATM    1  C4  UNL     1     -33.531   5.143   2.483  1.00 20.00     0.025 A 
HETATM    2  C5  UNL     1     -33.556   5.076   3.985  1.00 20.00     0.028 A 
HETATM    3  C6  UNL     1     -32.468   5.848   3.278  1.00 20.00     0.094 A 
ENDROOT
BRANCH   3   4
HETATM    4  C3  UNL     1     -32.439   7.316   3.294  1.00 20.00     0.263 C 
HETATM    5  O9  UNL     1     -32.757   8.019   2.344  1.00 20.00    -0.265 OA
BRANCH   4   6
HETATM    6  O10 UNL     1     -32.008   7.751   4.513  1.00 20.00    -0.326 OA
HETATM    7  C8  UNL     1     -32.534   9.012   4.937  1.00 20.00     0.213 C 
ENDBRANCH   4   6
ENDBRANCH   3   4
BRANCH   2   8
HETATM    8  C2  UNL     1     -34.613   5.770   4.703  1.00 20.00    -0.088 C 
HETATM    9  C1  UNL     1     -35.719   6.210   4.085  1.00 20.00     0.014 C 
HETATM   10  C7  UNL     1     -34.396   5.965   6.174  1.00 20.00     0.043 C 
ENDBRANCH   2   8
TORSDOF 3
ENDMDL
MODEL 8
REMARK VINA RESULT:      -3.4      1.268      1.959
REMARK  3 active torsions:
REMARK  status: ('A' for Active; 'I' for Inactive)
REMARK    1  A    between atoms: C2_2  and  C5_5 
REMARK    2  A    between atoms: C3_3  and  C6_6 
REMARK    3  A    between atoms: C3_3  and  O10_10 
ROOT
HETATM    1  C4  UNL     1     -33.788   8.657   5.613  1.00 20.00     0.025 A 
HETATM    2  C5  UNL     1     -32.610   7.960   4.989  1.00 20.00     0.028 A 
HETATM    3  C6  UNL     1     -33.625   7.172   5.782  1.00 20.00     0.094 A 
ENDROOT
BRANCH   3   4
HETATM    4  C3  UNL     1     -34.574   6.266   5.122  1.00 20.00     0.263 C 
HETATM    5  O9  UNL     1     -35.486   6.640   4.396  1.00 20.00    -0.265 OA
BRANCH   4   6
HETATM    6  O10 UNL     1     -34.277   4.976   5.448  1.00 20.00    -0.326 OA
HETATM    7  C8  UNL     1     -33.937   4.126   4.348  1.00 20.00     0.213 C 
ENDBRANCH   4   6
ENDBRANCH   3   4
BRANCH   2   8
HETATM    8  C2  UNL     1     -32.548   7.846   3.541  1.00 20.00    -0.088 C 
HETATM    9  C1  UNL     1     -32.190   6.705   2.933  1.00 20.00     0.014 C 
HETATM   10  C7  UNL     1     -32.906   9.078   2.764  1.00 20.00     0.043 C 
ENDBRANCH   2   8
TORSDOF 3
ENDMDL
MODEL 9
REMARK VINA RESULT:      -3.3     12.227     13.456
REMARK  3 active torsions:
REMARK  status: ('A' for Active; 'I' for Inactive)
REMARK    1  A    between atoms: C2_2  and  C5_5 
REMARK    2  A    between atoms: C3_3  and  C6_6 
REMARK    3  A    between atoms: C3_3  and  O10_10 
ROOT
HETATM    1  C4  UNL     1     -33.680  16.246  -2.683  1.00 20.00     0.025 A 
HETATM    2  C5  UNL     1     -33.392  17.214  -3.797  1.00 20.00     0.028 A 
HETATM    3  C6  UNL     1     -33.035  15.755  -3.950  1.00 20.00     0.094 A 
ENDROOT
BRANCH   3   4
HETATM    4  C3  UNL     1     -33.795  14.873  -4.846  1.00 20.00     0.263 C 
HETATM    5  O9  UNL     1     -33.736  14.922  -6.068  1.00 20.00    -0.265 OA
BRANCH   4   6
HETATM    6  O10 UNL     1     -34.557  14.018  -4.107  1.00 20.00    -0.326 OA
HETATM    7  C8  UNL     1     -35.862  13.748  -4.630  1.00 20.00     0.213 C 
ENDBRANCH   4   6
ENDBRANCH   3   4
BRANCH   2   8
HETATM    8  C2  UNL     1     -34.505  17.789  -4.535  1.00 20.00    -0.088 C 
HETATM    9  C1  UNL     1     -35.761  17.754  -4.066  1.00 20.00     0.014 C 
HETATM   10  C7  UNL     1     -34.169  18.424  -5.852  1.00 20.00     0.043 C 
ENDBRANCH   2   8
TORSDOF 3
ENDMDL
