MODEL 1
REMARK VINA RESULT:      -4.3      0.000      0.000
REMARK  1 active torsions:
REMARK  status: ('A' for Active; 'I' for Inactive)
REMARK    1  A    between atoms: C2_2  and  C3_3 
ROOT
HETATM    1  C1  UNL     1     -32.120  18.875   1.544  1.00 20.00     0.050 C 
HETATM    2  C2  UNL     1     -32.946  18.911   0.495  1.00 20.00     0.082 C 
HETATM    3  C4  UNL     1     -30.676  18.494   1.491  1.00 20.00     0.071 C 
HETATM    4  C5  UNL     1     -31.388  19.072   3.658  1.00 20.00     0.179 C 
HETATM    5  C6  UNL     1     -30.175  19.175   2.748  1.00 20.00     0.012 C 
HETATM    6  C8  UNL     1     -28.922  18.550   3.331  1.00 20.00     0.012 C 
HETATM    7  O10 UNL     1     -32.535  19.263   2.812  1.00 20.00    -0.355 OA
ENDROOT
BRANCH   2   8
HETATM    8  C3  UNL     1     -32.463  18.558  -0.867  1.00 20.00     0.147 C 
HETATM    9  C7  UNL     1     -33.135  17.392  -1.542  1.00 20.00     0.096 C 
HETATM   10  O9  UNL     1     -31.577  19.195  -1.431  1.00 20.00    -0.294 OA
ENDBRANCH   2   8
TORSDOF 1
ENDMDL
MODEL 2
REMARK VINA RESULT:      -4.2      2.624      5.734
REMARK  1 active torsions:
REMARK  status: ('A' for Active; 'I' for Inactive)
REMARK    1  A    between atoms: C2_2  and  C3_3 
ROOT
HETATM    1  C1  UNL     1     -33.002  18.362  -2.673  1.00 20.00     0.050 C 
HETATM    2  C2  UNL     1     -32.568  19.257  -1.782  1.00 20.00     0.082 C 
HETATM    3  C4  UNL     1     -32.842  16.882  -2.557  1.00 20.00     0.071 C 
HETATM    4  C5  UNL     1     -33.991  17.523  -4.507  1.00 20.00     0.179 C 
HETATM    5  C6  UNL     1     -33.965  16.420  -3.462  1.00 20.00     0.012 C 
HETATM    6  C8  UNL     1     -33.759  15.034  -4.043  1.00 20.00     0.012 C 
HETATM    7  O10 UNL     1     -33.721  18.745  -3.800  1.00 20.00    -0.355 OA
ENDROOT
BRANCH   2   8
HETATM    8  C3  UNL     1     -31.861  18.821  -0.548  1.00 20.00     0.147 C 
HETATM    9  C7  UNL     1     -32.715  18.560   0.665  1.00 20.00     0.096 C 
HETATM   10  O9  UNL     1     -30.645  18.655  -0.516  1.00 20.00    -0.294 OA
ENDBRANCH   2   8
TORSDOF 1
ENDMDL
MODEL 3
REMARK VINA RESULT:      -4.0     11.326     12.213
REMARK  1 active torsions:
REMARK  status: ('A' for Active; 'I' for Inactive)
REMARK    1  A    between atoms: C2_2  and  C3_3 
ROOT
HETATM    1  C1  UNL     1     -40.964  12.453   6.251  1.00 20.00     0.050 C 
HETATM    2  C2  UNL     1     -40.072  11.524   5.896  1.00 20.00     0.082 C 
HETATM    3  C4  UNL     1     -40.891  13.901   5.890  1.00 20.00     0.071 C 
HETATM    4  C5  UNL     1     -42.799  13.374   7.161  1.00 20.00     0.179 C 
HETATM    5  C6  UNL     1     -42.348  14.285   6.031  1.00 20.00     0.012 C 
HETATM    6  C8  UNL     1     -42.574  15.759   6.310  1.00 20.00     0.012 C 
HETATM    7  O10 UNL     1     -42.113  12.127   6.961  1.00 20.00    -0.355 OA
ENDROOT
BRANCH   2   8
HETATM    8  C3  UNL     1     -38.885  11.883   5.076  1.00 20.00     0.147 C 
HETATM    9  C7  UNL     1     -39.018  11.721   3.585  1.00 20.00     0.096 C 
HETATM   10  O9  UNL     1     -37.850  12.315   5.578  1.00 20.00    -0.294 OA
ENDBRANCH   2   8
TORSDOF 1
ENDMDL
MODEL 4
REMARK VINA RESULT:      -4.0     11.950     12.564
REMARK  1 active torsions:
REMARK  status: ('A' for Active; 'I' for Inactive)
REMARK    1  A    between atoms: C2_2  and  C3_3 
ROOT
HETATM    1  C1  UNL     1     -33.243   7.724   5.101  1.00 20.00     0.050 C 
HETATM    2  C2  UNL     1     -33.898   7.142   6.109  1.00 20.00     0.082 C 
HETATM    3  C4  UNL     1     -33.007   7.113   3.759  1.00 20.00     0.071 C 
HETATM    4  C5  UNL     1     -32.116   9.283   3.941  1.00 20.00     0.179 C 
HETATM    5  C6  UNL     1     -32.782   8.362   2.933  1.00 20.00     0.012 C 
HETATM    6  C8  UNL     1     -31.959   8.134   1.679  1.00 20.00     0.012 C 
HETATM    7  O10 UNL     1     -32.761   9.024   5.200  1.00 20.00    -0.355 OA
ENDROOT
BRANCH   2   8
HETATM    8  C3  UNL     1     -34.466   5.776   5.958  1.00 20.00     0.147 C 
HETATM    9  C7  UNL     1     -35.436   5.569   4.824  1.00 20.00     0.096 C 
HETATM   10  O9  UNL     1     -34.149   4.850   6.700  1.00 20.00    -0.294 OA
ENDBRANCH   2   8
TORSDOF 1
ENDMDL
MODEL 5
REMARK VINA RESULT:      -4.0      3.868      5.965
REMARK  1 active torsions:
REMARK  status: ('A' for Active; 'I' for Inactive)
REMARK    1  A    between atoms: C2_2  and  C3_3 
ROOT
HETATM    1  C1  UNL     1     -33.780  16.952  -3.868  1.00 20.00     0.050 C 
HETATM    2  C2  UNL     1     -34.041  16.072  -4.838  1.00 20.00     0.082 C 
HETATM    3  C4  UNL     1     -33.577  16.613  -2.428  1.00 20.00     0.071 C 
HETATM    4  C5  UNL     1     -33.362  18.915  -2.861  1.00 20.00     0.179 C 
HETATM    5  C6  UNL     1     -32.783  17.822  -1.979  1.00 20.00     0.012 C 
HETATM    6  C8  UNL     1     -32.891  18.115  -0.494  1.00 20.00     0.012 C 
HETATM    7  O10 UNL     1     -33.607  18.305  -4.139  1.00 20.00    -0.355 OA
ENDROOT
BRANCH   2   8
HETATM    8  C3  UNL     1     -34.152  14.619  -4.537  1.00 20.00     0.147 C 
HETATM    9  C7  UNL     1     -35.529  14.014  -4.623  1.00 20.00     0.096 C 
HETATM   10  O9  UNL     1     -33.173  13.933  -4.254  1.00 20.00    -0.294 OA
ENDBRANCH   2   8
TORSDOF 1
ENDMDL
MODEL 6
REMARK VINA RESULT:      -3.9      1.823      2.524
REMARK  1 active torsions:
REMARK  status: ('A' for Active; 'I' for Inactive)
REMARK    1  A    between atoms: C2_2  and  C3_3 
ROOT
HETATM    1  C1  UNL     1     -33.312  18.186  -0.551  1.00 20.00     0.050 C 
HETATM    2  C2  UNL     1     -34.031  17.811  -1.612  1.00 20.00     0.082 C 
HETATM    3  C4  UNL     1     -31.823  18.298  -0.514  1.00 20.00     0.071 C 
HETATM    4  C5  UNL     1     -32.832  18.886   1.528  1.00 20.00     0.179 C 
HETATM    5  C6  UNL     1     -31.657  19.263   0.641  1.00 20.00     0.012 C 
HETATM    6  C8  UNL     1     -30.313  19.168   1.338  1.00 20.00     0.012 C 
HETATM    7  O10 UNL     1     -33.917  18.577   0.638  1.00 20.00    -0.355 OA
ENDROOT
BRANCH   2   8
HETATM    8  C3  UNL     1     -33.366  17.462  -2.896  1.00 20.00     0.147 C 
HETATM    9  C7  UNL     1     -33.292  15.999  -3.245  1.00 20.00     0.096 C 
HETATM   10  O9  UNL     1     -32.917  18.319  -3.653  1.00 20.00    -0.294 OA
ENDBRANCH   2   8
TORSDOF 1
ENDMDL
MODEL 7
REMARK VINA RESULT:      -3.9      1.640      4.630
REMARK  1 active torsions:
REMARK  status: ('A' for Active; 'I' for Inactive)
REMARK    1  A    between atoms: C2_2  and  C3_3 
ROOT
HETATM    1  C1  UNL     1     -33.148  18.709  -0.368  1.00 20.00     0.050 C 
HETATM    2  C2  UNL     1     -32.641  19.263   0.737  1.00 20.00     0.082 C 
HETATM    3  C4  UNL     1     -32.424  17.760  -1.267  1.00 20.00     0.071 C 
HETATM    4  C5  UNL     1     -34.625  18.190  -1.978  1.00 20.00     0.179 C 
HETATM    5  C6  UNL     1     -33.599  17.070  -1.927  1.00 20.00     0.012 C 
HETATM    6  C8  UNL     1     -33.281  16.473  -3.285  1.00 20.00     0.012 C 
HETATM    7  O10 UNL     1     -34.464  18.931  -0.756  1.00 20.00    -0.355 OA
ENDROOT
BRANCH   2   8
HETATM    8  C3  UNL     1     -31.252  18.957   1.172  1.00 20.00     0.147 C 
HETATM    9  C7  UNL     1     -31.072  18.513   2.600  1.00 20.00     0.096 C 
HETATM   10  O9  UNL     1     -30.295  19.037   0.407  1.00 20.00    -0.294 OA
ENDBRANCH   2   8
TORSDOF 1
ENDMDL
MODEL 8
REMARK VINA RESULT:      -3.9     12.113     12.671
REMARK  1 active torsions:
REMARK  status: ('A' for Active; 'I' for Inactive)
REMARK    1  A    between atoms: C2_2  and  C3_3 
ROOT
HETATM    1  C1  UNL     1     -33.077   6.432   3.333  1.00 20.00     0.050 C 
HETATM    2  C2  UNL     1     -32.518   7.266   2.453  1.00 20.00     0.082 C 
HETATM    3  C4  UNL     1     -33.712   6.837   4.623  1.00 20.00     0.071 C 
HETATM    4  C5  UNL     1     -33.811   4.517   4.249  1.00 20.00     0.179 C 
HETATM    5  C6  UNL     1     -34.621   5.649   4.858  1.00 20.00     0.012 C 
HETATM    6  C8  UNL     1     -34.980   5.425   6.315  1.00 20.00     0.012 C 
HETATM    7  O10 UNL     1     -33.175   5.068   3.083  1.00 20.00    -0.355 OA
ENDROOT
BRANCH   2   8
HETATM    8  C3  UNL     1     -32.487   8.731   2.708  1.00 20.00     0.147 C 
HETATM    9  C7  UNL     1     -32.863   9.627   1.558  1.00 20.00     0.096 C 
HETATM   10  O9  UNL     1     -32.193   9.197   3.806  1.00 20.00    -0.294 OA
ENDBRANCH   2   8
TORSDOF 1
ENDMDL
MODEL 9
REMARK VINA RESULT:      -3.8     11.325     12.185
REMARK  1 active torsions:
REMARK  status: ('A' for Active; 'I' for Inactive)
REMARK    1  A    between atoms: C2_2  and  C3_3 
ROOT
HETATM    1  C1  UNL     1     -41.464  13.567   6.726  1.00 20.00     0.050 C 
HETATM    2  C2  UNL     1     -41.159  12.382   6.193  1.00 20.00     0.082 C 
HETATM    3  C4  UNL     1     -40.474  14.595   7.167  1.00 20.00     0.071 C 
HETATM    4  C5  UNL     1     -42.701  15.283   7.482  1.00 20.00     0.179 C 
HETATM    5  C6  UNL     1     -41.336  15.838   7.111  1.00 20.00     0.012 C 
HETATM    6  C8  UNL     1     -40.866  16.958   8.020  1.00 20.00     0.012 C 
HETATM    7  O10 UNL     1     -42.782  13.987   6.866  1.00 20.00    -0.355 OA
ENDROOT
BRANCH   2   8
HETATM    8  C3  UNL     1     -39.741  11.982   5.988  1.00 20.00     0.147 C 
HETATM    9  C7  UNL     1     -39.283  11.822   4.562  1.00 20.00     0.096 C 
HETATM   10  O9  UNL     1     -38.969  11.811   6.927  1.00 20.00    -0.294 OA
ENDBRANCH   2   8
TORSDOF 1
ENDMDL
