MODEL 1
REMARK VINA RESULT:      -3.8      0.000      0.000
REMARK  3 active torsions:
REMARK  status: ('A' for Active; 'I' for Inactive)
REMARK    1  A    between atoms: C2_2  and  C6_6 
REMARK    2  A    between atoms: C3_3  and  C5_5 
REMARK    3  A    between atoms: C3_3  and  O10_10 
ROOT
HETATM    1  C4  UNL     1     -42.164  13.751   5.962  1.00 20.00     0.033 A 
HETATM    2  C5  UNL     1     -41.491  12.499   6.452  1.00 20.00     0.101 A 
HETATM    3  C6  UNL     1     -41.790  13.630   7.422  1.00 20.00     0.023 A 
HETATM    4  C7  UNL     1     -42.900  13.422   8.417  1.00 20.00     0.023 C 
ENDROOT
BRANCH   2   5
HETATM    5  C3  UNL     1     -40.118  12.206   6.019  1.00 20.00     0.263 C 
HETATM    6  O9  UNL     1     -39.244  11.771   6.758  1.00 20.00    -0.265 OA
BRANCH   5   7
HETATM    7  O10 UNL     1     -39.988  12.493   4.693  1.00 20.00    -0.326 OA
HETATM    8  C8  UNL     1     -39.014  11.714   3.987  1.00 20.00     0.213 C 
ENDBRANCH   5   7
ENDBRANCH   2   5
BRANCH   3   9
HETATM    9  C2  UNL     1     -40.679  14.468   7.889  1.00 20.00     0.093 C 
HETATM   10  C1  UNL     1     -40.396  15.702   7.456  1.00 20.00     0.052 C 
HETATM   11  F11 UNL     1     -39.871  13.946   8.843  1.00 20.00    -0.211 F 
ENDBRANCH   3   9
TORSDOF 3
ENDMDL
MODEL 2
REMARK VINA RESULT:      -3.4     13.349     14.239
REMARK  3 active torsions:
REMARK  status: ('A' for Active; 'I' for Inactive)
REMARK    1  A    between atoms: C2_2  and  C6_6 
REMARK    2  A    between atoms: C3_3  and  C5_5 
REMARK    3  A    between atoms: C3_3  and  O10_10 
ROOT
HETATM    1  C4  UNL     1     -34.889  14.595  -4.603  1.00 20.00     0.033 A 
HETATM    2  C5  UNL     1     -33.868  14.977  -5.638  1.00 20.00     0.101 A 
HETATM    3  C6  UNL     1     -34.166  15.918  -4.482  1.00 20.00     0.023 A 
HETATM    4  C7  UNL     1     -33.124  16.054  -3.404  1.00 20.00     0.023 C 
ENDROOT
BRANCH   2   5
HETATM    5  C3  UNL     1     -34.312  15.282  -7.005  1.00 20.00     0.263 C 
HETATM    6  O9  UNL     1     -33.644  15.905  -7.820  1.00 20.00    -0.265 OA
BRANCH   5   7
HETATM    7  O10 UNL     1     -35.558  14.767  -7.204  1.00 20.00    -0.326 OA
HETATM    8  C8  UNL     1     -36.467  15.612  -7.918  1.00 20.00     0.213 C 
ENDBRANCH   5   7
ENDBRANCH   2   5
BRANCH   3   9
HETATM    9  C2  UNL     1     -34.957  17.127  -4.745  1.00 20.00     0.093 C 
HETATM   10  C1  UNL     1     -34.466  18.365  -4.881  1.00 20.00     0.052 C 
HETATM   11  F11 UNL     1     -36.297  16.975  -4.860  1.00 20.00    -0.211 F 
ENDBRANCH   3   9
TORSDOF 3
ENDMDL
MODEL 3
REMARK VINA RESULT:      -3.4     12.586     13.877
REMARK  3 active torsions:
REMARK  status: ('A' for Active; 'I' for Inactive)
REMARK    1  A    between atoms: C2_2  and  C6_6 
REMARK    2  A    between atoms: C3_3  and  C5_5 
REMARK    3  A    between atoms: C3_3  and  O10_10 
ROOT
HETATM    1  C4  UNL     1     -34.423  16.681  -6.620  1.00 20.00     0.033 A 
HETATM    2  C5  UNL     1     -34.196  15.282  -6.118  1.00 20.00     0.101 A 
HETATM    3  C6  UNL     1     -35.578  15.705  -6.589  1.00 20.00     0.023 A 
HETATM    4  C7  UNL     1     -36.068  15.154  -7.900  1.00 20.00     0.023 C 
ENDROOT
BRANCH   2   5
HETATM    5  C3  UNL     1     -33.906  15.070  -4.694  1.00 20.00     0.263 C 
HETATM    6  O9  UNL     1     -34.126  14.025  -4.097  1.00 20.00    -0.265 OA
BRANCH   5   7
HETATM    7  O10 UNL     1     -33.364  16.204  -4.166  1.00 20.00    -0.326 OA
HETATM    8  C8  UNL     1     -33.481  16.339  -2.745  1.00 20.00     0.213 C 
ENDBRANCH   5   7
ENDBRANCH   2   5
BRANCH   3   9
HETATM    9  C2  UNL     1     -36.619  15.948  -5.583  1.00 20.00     0.093 C 
HETATM   10  C1  UNL     1     -37.024  17.150  -5.154  1.00 20.00     0.052 C 
HETATM   11  F11 UNL     1     -37.223  14.862  -5.044  1.00 20.00    -0.211 F 
ENDBRANCH   3   9
TORSDOF 3
ENDMDL
MODEL 4
REMARK VINA RESULT:      -3.4      1.394      1.696
REMARK  3 active torsions:
REMARK  status: ('A' for Active; 'I' for Inactive)
REMARK    1  A    between atoms: C2_2  and  C6_6 
REMARK    2  A    between atoms: C3_3  and  C5_5 
REMARK    3  A    between atoms: C3_3  and  O10_10 
ROOT
HETATM    1  C4  UNL     1     -43.115  13.575   6.465  1.00 20.00     0.033 A 
HETATM    2  C5  UNL     1     -41.959  12.654   6.744  1.00 20.00     0.101 A 
HETATM    3  C6  UNL     1     -42.229  13.834   7.663  1.00 20.00     0.023 A 
HETATM    4  C7  UNL     1     -42.791  13.542   9.029  1.00 20.00     0.023 C 
ENDROOT
BRANCH   2   5
HETATM    5  C3  UNL     1     -40.811  12.646   5.828  1.00 20.00     0.263 C 
HETATM    6  O9  UNL     1     -40.821  13.147   4.712  1.00 20.00    -0.265 OA
BRANCH   5   7
HETATM    7  O10 UNL     1     -39.762  12.006   6.418  1.00 20.00    -0.326 OA
HETATM    8  C8  UNL     1     -38.529  12.044   5.690  1.00 20.00     0.213 C 
ENDBRANCH   5   7
ENDBRANCH   2   5
BRANCH   3   9
HETATM    9  C2  UNL     1     -41.343  15.002   7.587  1.00 20.00     0.093 C 
HETATM   10  C1  UNL     1     -40.351  15.285   8.440  1.00 20.00     0.052 C 
HETATM   11  F11 UNL     1     -41.546  15.866   6.565  1.00 20.00    -0.211 F 
ENDBRANCH   3   9
TORSDOF 3
ENDMDL
MODEL 5
REMARK VINA RESULT:      -3.3     12.709     14.050
REMARK  3 active torsions:
REMARK  status: ('A' for Active; 'I' for Inactive)
REMARK    1  A    between atoms: C2_2  and  C6_6 
REMARK    2  A    between atoms: C3_3  and  C5_5 
REMARK    3  A    between atoms: C3_3  and  O10_10 
ROOT
HETATM    1  C4  UNL     1     -34.670  17.372  -6.478  1.00 20.00     0.033 A 
HETATM    2  C5  UNL     1     -35.904  16.955  -5.725  1.00 20.00     0.101 A 
HETATM    3  C6  UNL     1     -34.527  16.648  -5.158  1.00 20.00     0.023 A 
HETATM    4  C7  UNL     1     -34.069  17.444  -3.966  1.00 20.00     0.023 C 
ENDROOT
BRANCH   2   5
HETATM    5  C3  UNL     1     -36.756  15.894  -6.278  1.00 20.00     0.263 C 
HETATM    6  O9  UNL     1     -36.703  15.504  -7.437  1.00 20.00    -0.265 OA
BRANCH   5   7
HETATM    7  O10 UNL     1     -37.592  15.429  -5.306  1.00 20.00    -0.326 OA
HETATM    8  C8  UNL     1     -38.632  16.328  -4.905  1.00 20.00     0.213 C 
ENDBRANCH   5   7
ENDBRANCH   2   5
BRANCH   3   9
HETATM    9  C2  UNL     1     -34.036  15.265  -5.214  1.00 20.00     0.093 C 
HETATM   10  C1  UNL     1     -33.963  14.421  -4.179  1.00 20.00     0.052 C 
HETATM   11  F11 UNL     1     -33.621  14.806  -6.419  1.00 20.00    -0.211 F 
ENDBRANCH   3   9
TORSDOF 3
ENDMDL
MODEL 6
REMARK VINA RESULT:      -3.3      1.623      2.395
REMARK  3 active torsions:
REMARK  status: ('A' for Active; 'I' for Inactive)
REMARK    1  A    between atoms: C2_2  and  C6_6 
REMARK    2  A    between atoms: C3_3  and  C5_5 
REMARK    3  A    between atoms: C3_3  and  O10_10 
ROOT
HETATM    1  C4  UNL     1     -40.534  14.481   7.916  1.00 20.00     0.033 A 
HETATM    2  C5  UNL     1     -40.323  14.067   6.485  1.00 20.00     0.101 A 
HETATM    3  C6  UNL     1     -41.723  14.381   6.987  1.00 20.00     0.023 A 
HETATM    4  C7  UNL     1     -42.361  15.663   6.523  1.00 20.00     0.023 C 
ENDROOT
BRANCH   2   5
HETATM    5  C3  UNL     1     -39.909  12.689   6.190  1.00 20.00     0.263 C 
HETATM    6  O9  UNL     1     -39.397  11.937   7.009  1.00 20.00    -0.265 OA
BRANCH   5   7
HETATM    7  O10 UNL     1     -40.185  12.400   4.887  1.00 20.00    -0.326 OA
HETATM    8  C8  UNL     1     -39.162  11.684   4.185  1.00 20.00     0.213 C 
ENDBRANCH   5   7
ENDBRANCH   2   5
BRANCH   3   9
HETATM    9  C2  UNL     1     -42.652  13.269   7.223  1.00 20.00     0.093 C 
HETATM   10  C1  UNL     1     -43.005  12.788   8.421  1.00 20.00     0.052 C 
HETATM   11  F11 UNL     1     -43.199  12.681   6.133  1.00 20.00    -0.211 F 
ENDBRANCH   3   9
TORSDOF 3
ENDMDL
MODEL 7
REMARK VINA RESULT:      -3.3     11.513     13.001
REMARK  3 active torsions:
REMARK  status: ('A' for Active; 'I' for Inactive)
REMARK    1  A    between atoms: C2_2  and  C6_6 
REMARK    2  A    between atoms: C3_3  and  C5_5 
REMARK    3  A    between atoms: C3_3  and  O10_10 
ROOT
HETATM    1  C4  UNL     1     -33.085  18.932  -4.005  1.00 20.00     0.033 A 
HETATM    2  C5  UNL     1     -34.265  19.222  -3.118  1.00 20.00     0.101 A 
HETATM    3  C6  UNL     1     -33.135  18.337  -2.615  1.00 20.00     0.023 A 
HETATM    4  C7  UNL     1     -32.212  18.908  -1.573  1.00 20.00     0.023 C 
ENDROOT
BRANCH   2   5
HETATM    5  C3  UNL     1     -35.577  18.661  -3.464  1.00 20.00     0.263 C 
HETATM    6  O9  UNL     1     -35.848  18.168  -4.552  1.00 20.00    -0.265 OA
BRANCH   5   7
HETATM    7  O10 UNL     1     -36.418  18.777  -2.398  1.00 20.00    -0.326 OA
HETATM    8  C8  UNL     1     -37.811  18.865  -2.719  1.00 20.00     0.213 C 
ENDBRANCH   5   7
ENDBRANCH   2   5
BRANCH   3   9
HETATM    9  C2  UNL     1     -33.362  16.889  -2.525  1.00 20.00     0.093 C 
HETATM   10  C1  UNL     1     -33.146  16.004  -3.505  1.00 20.00     0.052 C 
HETATM   11  F11 UNL     1     -33.829  16.410  -1.348  1.00 20.00    -0.211 F 
ENDBRANCH   3   9
TORSDOF 3
ENDMDL
MODEL 8
REMARK VINA RESULT:      -3.3     12.673     13.650
REMARK  3 active torsions:
REMARK  status: ('A' for Active; 'I' for Inactive)
REMARK    1  A    between atoms: C2_2  and  C6_6 
REMARK    2  A    between atoms: C3_3  and  C5_5 
REMARK    3  A    between atoms: C3_3  and  O10_10 
ROOT
HETATM    1  C4  UNL     1     -34.046  15.104  -6.427  1.00 20.00     0.033 A 
HETATM    2  C5  UNL     1     -35.521  15.321  -6.233  1.00 20.00     0.101 A 
HETATM    3  C6  UNL     1     -34.533  16.396  -5.811  1.00 20.00     0.023 A 
HETATM    4  C7  UNL     1     -34.460  17.645  -6.648  1.00 20.00     0.023 C 
ENDROOT
BRANCH   2   5
HETATM    5  C3  UNL     1     -36.241  14.513  -5.239  1.00 20.00     0.263 C 
HETATM    6  O9  UNL     1     -35.716  13.653  -4.545  1.00 20.00    -0.265 OA
BRANCH   5   7
HETATM    7  O10 UNL     1     -37.555  14.876  -5.222  1.00 20.00    -0.326 OA
HETATM    8  C8  UNL     1     -37.806  16.284  -5.284  1.00 20.00     0.213 C 
ENDBRANCH   5   7
ENDBRANCH   2   5
BRANCH   3   9
HETATM    9  C2  UNL     1     -34.268  16.585  -4.379  1.00 20.00     0.093 C 
HETATM   10  C1  UNL     1     -33.272  16.017  -3.689  1.00 20.00     0.052 C 
HETATM   11  F11 UNL     1     -35.103  17.407  -3.700  1.00 20.00    -0.211 F 
ENDBRANCH   3   9
TORSDOF 3
ENDMDL
MODEL 9
REMARK VINA RESULT:      -3.2     12.145     13.547
REMARK  3 active torsions:
REMARK  status: ('A' for Active; 'I' for Inactive)
REMARK    1  A    between atoms: C2_2  and  C6_6 
REMARK    2  A    between atoms: C3_3  and  C5_5 
REMARK    3  A    between atoms: C3_3  and  O10_10 
ROOT
HETATM    1  C4  UNL     1     -33.201  18.008  -4.038  1.00 20.00     0.033 A 
HETATM    2  C5  UNL     1     -34.682  17.772  -3.920  1.00 20.00     0.101 A 
HETATM    3  C6  UNL     1     -33.708  16.880  -3.168  1.00 20.00     0.023 A 
HETATM    4  C7  UNL     1     -33.617  17.048  -1.675  1.00 20.00     0.023 C 
ENDROOT
BRANCH   2   5
HETATM    5  C3  UNL     1     -35.424  17.278  -5.087  1.00 20.00     0.263 C 
HETATM    6  O9  UNL     1     -36.519  16.734  -5.025  1.00 20.00    -0.265 OA
BRANCH   5   7
HETATM    7  O10 UNL     1     -34.708  17.525  -6.221  1.00 20.00    -0.326 OA
HETATM    8  C8  UNL     1     -34.621  16.434  -7.144  1.00 20.00     0.213 C 
ENDBRANCH   5   7
ENDBRANCH   2   5
BRANCH   3   9
HETATM    9  C2  UNL     1     -33.480  15.515  -3.660  1.00 20.00     0.093 C 
HETATM   10  C1  UNL     1     -32.400  15.099  -4.332  1.00 20.00     0.052 C 
HETATM   11  F11 UNL     1     -34.446  14.600  -3.410  1.00 20.00    -0.211 F 
ENDBRANCH   3   9
TORSDOF 3
ENDMDL
