MODEL 1
REMARK VINA RESULT:      -4.9      0.000      0.000
REMARK  2 active torsions:
REMARK  status: ('A' for Active; 'I' for Inactive)
REMARK    1  A    between atoms: C1_1  and  C4_4 
REMARK    2  A    between atoms: C3_3  and  C5_5 
ROOT
HETATM    1  C4  UNL     1     -33.659   7.673   4.556  1.00 20.00     0.029 A 
HETATM    2  C5  UNL     1     -32.347   7.298   3.907  1.00 20.00     0.089 A 
HETATM    3  C6  UNL     1     -32.685   8.760   4.141  1.00 20.00    -0.028 A 
HETATM    4  C8  UNL     1     -31.869   9.495   5.179  1.00 20.00     0.016 C 
HETATM    5  C9  UNL     1     -33.089   9.630   2.975  1.00 20.00     0.016 C 
ENDROOT
BRANCH   1   6
HETATM    6  C1  UNL     1     -33.868   7.350   5.961  1.00 20.00    -0.025 C 
HETATM    7  C2  UNL     1     -34.377   6.187   6.392  1.00 20.00    -0.034 C 
HETATM    8  C7  UNL     1     -34.794   5.076   5.487  1.00 20.00     0.036 C 
ENDBRANCH   1   6
BRANCH   2   9
HETATM    9  C3  UNL     1     -32.354   6.730   2.552  1.00 20.00     0.224 C 
HETATM   10  O10 UNL     1     -31.985   7.379   1.578  1.00 20.00    -0.279 OA
HETATM   11 CL11 UNL     1     -32.930   5.091   2.533  1.00 20.00    -0.043 Cl
ENDBRANCH   2   9
TORSDOF 2
ENDMDL
MODEL 2
REMARK VINA RESULT:      -4.8      9.991     10.705
REMARK  2 active torsions:
REMARK  status: ('A' for Active; 'I' for Inactive)
REMARK    1  A    between atoms: C1_1  and  C4_4 
REMARK    2  A    between atoms: C3_3  and  C5_5 
ROOT
HETATM    1  C4  UNL     1     -40.737  14.098   7.377  1.00 20.00     0.029 A 
HETATM    2  C5  UNL     1     -40.281  13.516   6.059  1.00 20.00     0.089 A 
HETATM    3  C6  UNL     1     -41.758  13.523   6.413  1.00 20.00    -0.028 A 
HETATM    4  C8  UNL     1     -42.651  14.437   5.607  1.00 20.00     0.016 C 
HETATM    5  C9  UNL     1     -42.435  12.237   6.822  1.00 20.00     0.016 C 
ENDROOT
BRANCH   1   6
HETATM    6  C1  UNL     1     -40.631  15.536   7.586  1.00 20.00    -0.025 C 
HETATM    7  C2  UNL     1     -40.463  16.105   8.789  1.00 20.00    -0.034 C 
HETATM    8  C7  UNL     1     -40.365  15.338  10.065  1.00 20.00     0.036 C 
ENDBRANCH   1   6
BRANCH   2   9
HETATM    9  C3  UNL     1     -39.512  12.264   6.056  1.00 20.00     0.224 C 
HETATM   10  O10 UNL     1     -38.986  11.827   7.076  1.00 20.00    -0.279 OA
HETATM   11 CL11 UNL     1     -39.460  11.532   4.481  1.00 20.00    -0.043 Cl
ENDBRANCH   2   9
TORSDOF 2
ENDMDL
MODEL 3
REMARK VINA RESULT:      -4.7     11.900     12.814
REMARK  2 active torsions:
REMARK  status: ('A' for Active; 'I' for Inactive)
REMARK    1  A    between atoms: C1_1  and  C4_4 
REMARK    2  A    between atoms: C3_3  and  C5_5 
ROOT
HETATM    1  C4  UNL     1     -34.496  16.072  -4.154  1.00 20.00     0.029 A 
HETATM    2  C5  UNL     1     -34.620  15.646  -5.599  1.00 20.00     0.089 A 
HETATM    3  C6  UNL     1     -35.103  17.021  -5.171  1.00 20.00    -0.028 A 
HETATM    4  C8  UNL     1     -34.317  18.211  -5.673  1.00 20.00     0.016 C 
HETATM    5  C9  UNL     1     -36.583  17.291  -5.055  1.00 20.00     0.016 C 
ENDROOT
BRANCH   1   6
HETATM    6  C1  UNL     1     -33.170  16.312  -3.602  1.00 20.00    -0.025 C 
HETATM    7  C2  UNL     1     -32.944  17.008  -2.478  1.00 20.00    -0.034 C 
HETATM    8  C7  UNL     1     -34.024  17.624  -1.651  1.00 20.00     0.036 C 
ENDBRANCH   1   6
BRANCH   2   9
HETATM    9  C3  UNL     1     -35.575  14.589  -5.956  1.00 20.00     0.224 C 
HETATM   10  O10 UNL     1     -35.979  14.446  -7.107  1.00 20.00    -0.279 OA
HETATM   11 CL11 UNL     1     -36.024  13.622  -4.584  1.00 20.00    -0.043 Cl
ENDBRANCH   2   9
TORSDOF 2
ENDMDL
MODEL 4
REMARK VINA RESULT:      -4.7     10.259     10.948
REMARK  2 active torsions:
REMARK  status: ('A' for Active; 'I' for Inactive)
REMARK    1  A    between atoms: C1_1  and  C4_4 
REMARK    2  A    between atoms: C3_3  and  C5_5 
ROOT
HETATM    1  C4  UNL     1     -41.007  12.845   5.937  1.00 20.00     0.029 A 
HETATM    2  C5  UNL     1     -41.411  14.295   5.800  1.00 20.00     0.089 A 
HETATM    3  C6  UNL     1     -41.986  13.451   6.925  1.00 20.00    -0.028 A 
HETATM    4  C8  UNL     1     -41.546  13.790   8.330  1.00 20.00     0.016 C 
HETATM    5  C9  UNL     1     -43.417  12.975   6.847  1.00 20.00     0.016 C 
ENDROOT
BRANCH   1   6
HETATM    6  C1  UNL     1     -39.641  12.530   6.333  1.00 20.00    -0.025 C 
HETATM    7  C2  UNL     1     -38.726  12.003   5.506  1.00 20.00    -0.034 C 
HETATM    8  C7  UNL     1     -38.992  11.673   4.074  1.00 20.00     0.036 C 
ENDBRANCH   1   6
BRANCH   2   9
HETATM    9  C3  UNL     1     -42.246  14.702   4.661  1.00 20.00     0.224 C 
HETATM   10  O10 UNL     1     -42.219  14.098   3.593  1.00 20.00    -0.279 OA
HETATM   11 CL11 UNL     1     -43.222  16.091   5.029  1.00 20.00    -0.043 Cl
ENDBRANCH   2   9
TORSDOF 2
ENDMDL
MODEL 5
REMARK VINA RESULT:      -4.7     11.644     12.349
REMARK  2 active torsions:
REMARK  status: ('A' for Active; 'I' for Inactive)
REMARK    1  A    between atoms: C1_1  and  C4_4 
REMARK    2  A    between atoms: C3_3  and  C5_5 
ROOT
HETATM    1  C4  UNL     1     -33.733  16.770  -2.709  1.00 20.00     0.029 A 
HETATM    2  C5  UNL     1     -33.236  16.229  -4.029  1.00 20.00     0.089 A 
HETATM    3  C6  UNL     1     -34.029  17.524  -3.992  1.00 20.00    -0.028 A 
HETATM    4  C8  UNL     1     -33.281  18.795  -4.324  1.00 20.00     0.016 C 
HETATM    5  C9  UNL     1     -35.463  17.537  -4.462  1.00 20.00     0.016 C 
ENDROOT
BRANCH   1   6
HETATM    6  C1  UNL     1     -32.765  17.279  -1.747  1.00 20.00    -0.025 C 
HETATM    7  C2  UNL     1     -33.075  18.113  -0.744  1.00 20.00    -0.034 C 
HETATM    8  C7  UNL     1     -34.453  18.626  -0.486  1.00 20.00     0.036 C 
ENDBRANCH   1   6
BRANCH   2   9
HETATM    9  C3  UNL     1     -33.829  14.997  -4.568  1.00 20.00     0.224 C 
HETATM   10  O10 UNL     1     -34.234  14.101  -3.833  1.00 20.00    -0.279 OA
HETATM   11 CL11 UNL     1     -33.870  14.996  -6.305  1.00 20.00    -0.043 Cl
ENDBRANCH   2   9
TORSDOF 2
ENDMDL
MODEL 6
REMARK VINA RESULT:      -4.4     10.605     11.295
REMARK  2 active torsions:
REMARK  status: ('A' for Active; 'I' for Inactive)
REMARK    1  A    between atoms: C1_1  and  C4_4 
REMARK    2  A    between atoms: C3_3  and  C5_5 
ROOT
HETATM    1  C4  UNL     1     -40.485  13.626   6.456  1.00 20.00     0.029 A 
HETATM    2  C5  UNL     1     -41.176  14.211   7.666  1.00 20.00     0.089 A 
HETATM    3  C6  UNL     1     -41.996  13.551   6.571  1.00 20.00    -0.028 A 
HETATM    4  C8  UNL     1     -42.675  12.246   6.915  1.00 20.00     0.016 C 
HETATM    5  C9  UNL     1     -42.796  14.406   5.618  1.00 20.00     0.016 C 
ENDROOT
BRANCH   1   6
HETATM    6  C1  UNL     1     -39.661  12.436   6.623  1.00 20.00    -0.025 C 
HETATM    7  C2  UNL     1     -39.173  11.717   5.602  1.00 20.00    -0.034 C 
HETATM    8  C7  UNL     1     -39.412  12.044   4.165  1.00 20.00     0.036 C 
ENDBRANCH   1   6
BRANCH   2   9
HETATM    9  C3  UNL     1     -41.193  15.669   7.847  1.00 20.00     0.224 C 
HETATM   10  O10 UNL     1     -40.327  16.390   7.361  1.00 20.00    -0.279 OA
HETATM   11 CL11 UNL     1     -42.548  16.194   8.800  1.00 20.00    -0.043 Cl
ENDBRANCH   2   9
TORSDOF 2
ENDMDL
MODEL 7
REMARK VINA RESULT:      -4.3     10.928     11.611
REMARK  2 active torsions:
REMARK  status: ('A' for Active; 'I' for Inactive)
REMARK    1  A    between atoms: C1_1  and  C4_4 
REMARK    2  A    between atoms: C3_3  and  C5_5 
ROOT
HETATM    1  C4  UNL     1     -40.797  13.561   7.223  1.00 20.00     0.029 A 
HETATM    2  C5  UNL     1     -41.930  14.017   8.113  1.00 20.00     0.089 A 
HETATM    3  C6  UNL     1     -41.354  14.966   7.076  1.00 20.00    -0.028 A 
HETATM    4  C8  UNL     1     -42.239  15.320   5.905  1.00 20.00     0.016 C 
HETATM    5  C9  UNL     1     -40.463  16.102   7.516  1.00 20.00     0.016 C 
ENDROOT
BRANCH   1   6
HETATM    6  C1  UNL     1     -41.059  12.542   6.216  1.00 20.00    -0.025 C 
HETATM    7  C2  UNL     1     -40.100  11.923   5.513  1.00 20.00    -0.034 C 
HETATM    8  C7  UNL     1     -38.642  12.199   5.674  1.00 20.00     0.036 C 
ENDBRANCH   1   6
BRANCH   2   9
HETATM    9  C3  UNL     1     -41.678  14.223   9.547  1.00 20.00     0.224 C 
HETATM   10  O10 UNL     1     -40.759  13.655  10.128  1.00 20.00    -0.279 OA
HETATM   11 CL11 UNL     1     -42.814  15.329  10.258  1.00 20.00    -0.043 Cl
ENDBRANCH   2   9
TORSDOF 2
ENDMDL
MODEL 8
REMARK VINA RESULT:      -4.3     12.216     13.388
REMARK  2 active torsions:
REMARK  status: ('A' for Active; 'I' for Inactive)
REMARK    1  A    between atoms: C1_1  and  C4_4 
REMARK    2  A    between atoms: C3_3  and  C5_5 
ROOT
HETATM    1  C4  UNL     1     -33.730  16.464  -4.324  1.00 20.00     0.029 A 
HETATM    2  C5  UNL     1     -35.139  16.731  -4.801  1.00 20.00     0.089 A 
HETATM    3  C6  UNL     1     -34.453  15.423  -5.159  1.00 20.00    -0.028 A 
HETATM    4  C8  UNL     1     -34.995  14.167  -4.518  1.00 20.00     0.016 C 
HETATM    5  C9  UNL     1     -33.948  15.204  -6.565  1.00 20.00     0.016 C 
ENDROOT
BRANCH   1   6
HETATM    6  C1  UNL     1     -33.496  16.253  -2.902  1.00 20.00    -0.025 C 
HETATM    7  C2  UNL     1     -33.098  17.217  -2.060  1.00 20.00    -0.034 C 
HETATM    8  C7  UNL     1     -32.844  18.629  -2.472  1.00 20.00     0.036 C 
ENDBRANCH   1   6
BRANCH   2   9
HETATM    9  C3  UNL     1     -35.367  17.766  -5.819  1.00 20.00     0.224 C 
HETATM   10  O10 UNL     1     -36.403  17.807  -6.475  1.00 20.00    -0.279 OA
HETATM   11 CL11 UNL     1     -34.027  18.863  -5.948  1.00 20.00    -0.043 Cl
ENDBRANCH   2   9
TORSDOF 2
ENDMDL
MODEL 9
REMARK VINA RESULT:      -4.3     11.670     13.552
REMARK  2 active torsions:
REMARK  status: ('A' for Active; 'I' for Inactive)
REMARK    1  A    between atoms: C1_1  and  C4_4 
REMARK    2  A    between atoms: C3_3  and  C5_5 
ROOT
HETATM    1  C4  UNL     1     -35.217  16.888  -4.862  1.00 20.00     0.029 A 
HETATM    2  C5  UNL     1     -35.268  16.182  -6.197  1.00 20.00     0.089 A 
HETATM    3  C6  UNL     1     -36.285  17.264  -5.873  1.00 20.00    -0.028 A 
HETATM    4  C8  UNL     1     -36.183  18.555  -6.650  1.00 20.00     0.016 C 
HETATM    5  C9  UNL     1     -37.706  16.878  -5.540  1.00 20.00     0.016 C 
ENDROOT
BRANCH   1   6
HETATM    6  C1  UNL     1     -34.103  17.783  -4.580  1.00 20.00    -0.025 C 
HETATM    7  C2  UNL     1     -33.278  17.641  -3.533  1.00 20.00    -0.034 C 
HETATM    8  C7  UNL     1     -33.395  16.548  -2.523  1.00 20.00     0.036 C 
ENDBRANCH   1   6
BRANCH   2   9
HETATM    9  C3  UNL     1     -35.662  14.768  -6.247  1.00 20.00     0.224 C 
HETATM   10  O10 UNL     1     -36.048  14.241  -7.286  1.00 20.00    -0.279 OA
HETATM   11 CL11 UNL     1     -35.509  13.992  -4.700  1.00 20.00    -0.043 Cl
ENDBRANCH   2   9
TORSDOF 2
ENDMDL
