MODEL 1
REMARK VINA RESULT:      -5.0      0.000      0.000
REMARK  1 active torsions:
REMARK  status: ('A' for Active; 'I' for Inactive)
REMARK    1  A    between atoms: C3_3  and  C6_6 
ROOT
HETATM    1  C1  UNL     1     -32.511   7.378   3.374  1.00 20.00    -0.023 C 
HETATM    2  C2  UNL     1     -33.190   6.225   3.408  1.00 20.00    -0.071 C 
HETATM    3  C4  UNL     1     -33.061   8.383   4.329  1.00 20.00     0.033 C 
HETATM    4  C5  UNL     1     -33.954   7.536   5.258  1.00 20.00     0.005 C 
HETATM    5  C6  UNL     1     -34.312   6.273   4.418  1.00 20.00     0.043 C 
HETATM    6  C7  UNL     1     -32.944   5.054   2.519  1.00 20.00     0.044 C 
HETATM    7  C9  UNL     1     -33.212   7.257   6.573  1.00 20.00     0.011 C 
HETATM    8  C10 UNL     1     -35.669   6.437   3.723  1.00 20.00     0.029 C 
ENDROOT
BRANCH   5   9
HETATM    9  C3  UNL     1     -34.319   5.005   5.232  1.00 20.00     0.136 C 
HETATM   10  C8  UNL     1     -34.779   5.119   6.660  1.00 20.00     0.092 C 
HETATM   11  O11 UNL     1     -33.966   3.929   4.753  1.00 20.00    -0.297 OA
ENDBRANCH   5   9
TORSDOF 1
ENDMDL
MODEL 2
REMARK VINA RESULT:      -4.9      0.864      2.203
REMARK  1 active torsions:
REMARK  status: ('A' for Active; 'I' for Inactive)
REMARK    1  A    between atoms: C3_3  and  C6_6 
ROOT
HETATM    1  C1  UNL     1     -33.283   7.992   5.586  1.00 20.00    -0.023 C 
HETATM    2  C2  UNL     1     -33.407   7.329   4.429  1.00 20.00    -0.071 C 
HETATM    3  C4  UNL     1     -34.149   7.420   6.658  1.00 20.00     0.033 C 
HETATM    4  C5  UNL     1     -34.543   6.041   6.095  1.00 20.00     0.005 C 
HETATM    5  C6  UNL     1     -34.383   6.183   4.551  1.00 20.00     0.043 C 
HETATM    6  C7  UNL     1     -32.742   7.701   3.148  1.00 20.00     0.044 C 
HETATM    7  C9  UNL     1     -33.677   4.952   6.744  1.00 20.00     0.011 C 
HETATM    8  C10 UNL     1     -35.720   6.526   3.884  1.00 20.00     0.029 C 
ENDROOT
BRANCH   5   9
HETATM    9  C3  UNL     1     -33.805   4.951   3.902  1.00 20.00     0.136 C 
HETATM   10  C8  UNL     1     -32.906   5.170   2.715  1.00 20.00     0.092 C 
HETATM   11  O11 UNL     1     -34.054   3.823   4.323  1.00 20.00    -0.297 OA
ENDBRANCH   5   9
TORSDOF 1
ENDMDL
MODEL 3
REMARK VINA RESULT:      -4.7     12.938     14.176
REMARK  1 active torsions:
REMARK  status: ('A' for Active; 'I' for Inactive)
REMARK    1  A    between atoms: C3_3  and  C6_6 
ROOT
HETATM    1  C1  UNL     1     -34.189  17.036  -4.121  1.00 20.00    -0.023 C 
HETATM    2  C2  UNL     1     -34.117  15.875  -4.785  1.00 20.00    -0.071 C 
HETATM    3  C4  UNL     1     -35.070  18.024  -4.808  1.00 20.00     0.033 C 
HETATM    4  C5  UNL     1     -35.857  17.158  -5.811  1.00 20.00     0.005 C 
HETATM    5  C6  UNL     1     -34.962  15.902  -6.037  1.00 20.00     0.043 C 
HETATM    6  C7  UNL     1     -33.258  14.717  -4.405  1.00 20.00     0.044 C 
HETATM    7  C9  UNL     1     -37.259  16.870  -5.256  1.00 20.00     0.011 C 
HETATM    8  C10 UNL     1     -34.088  16.061  -7.287  1.00 20.00     0.029 C 
ENDROOT
BRANCH   5   9
HETATM    9  C3  UNL     1     -35.755  14.624  -6.142  1.00 20.00     0.136 C 
HETATM   10  C8  UNL     1     -36.098  13.931  -4.851  1.00 20.00     0.092 C 
HETATM   11  O11 UNL     1     -36.105  14.170  -7.230  1.00 20.00    -0.297 OA
ENDBRANCH   5   9
TORSDOF 1
ENDMDL
MODEL 4
REMARK VINA RESULT:      -4.7     10.324     11.268
REMARK  1 active torsions:
REMARK  status: ('A' for Active; 'I' for Inactive)
REMARK    1  A    between atoms: C3_3  and  C6_6 
ROOT
HETATM    1  C1  UNL     1     -41.208  13.568   4.691  1.00 20.00    -0.023 C 
HETATM    2  C2  UNL     1     -41.019  12.988   5.883  1.00 20.00    -0.071 C 
HETATM    3  C4  UNL     1     -42.415  14.444   4.676  1.00 20.00     0.033 C 
HETATM    4  C5  UNL     1     -42.734  14.632   6.172  1.00 20.00     0.005 C 
HETATM    5  C6  UNL     1     -42.082  13.402   6.873  1.00 20.00     0.043 C 
HETATM    6  C7  UNL     1     -39.953  11.996   6.200  1.00 20.00     0.044 C 
HETATM    7  C9  UNL     1     -42.218  16.000   6.641  1.00 20.00     0.011 C 
HETATM    8  C10 UNL     1     -43.104  12.278   7.084  1.00 20.00     0.029 C 
ENDROOT
BRANCH   5   9
HETATM    9  C3  UNL     1     -41.442  13.746   8.194  1.00 20.00     0.136 C 
HETATM   10  C8  UNL     1     -42.353  13.827   9.388  1.00 20.00     0.092 C 
HETATM   11  O11 UNL     1     -40.232  13.950   8.290  1.00 20.00    -0.297 OA
ENDBRANCH   5   9
TORSDOF 1
ENDMDL
MODEL 5
REMARK VINA RESULT:      -4.6     12.908     14.482
REMARK  1 active torsions:
REMARK  status: ('A' for Active; 'I' for Inactive)
REMARK    1  A    between atoms: C3_3  and  C6_6 
ROOT
HETATM    1  C1  UNL     1     -33.650  17.119  -1.560  1.00 20.00    -0.023 C 
HETATM    2  C2  UNL     1     -33.603  17.059  -2.896  1.00 20.00    -0.071 C 
HETATM    3  C4  UNL     1     -34.105  18.453  -1.072  1.00 20.00     0.033 C 
HETATM    4  C5  UNL     1     -34.716  19.100  -2.330  1.00 20.00     0.005 C 
HETATM    5  C6  UNL     1     -34.036  18.363  -3.524  1.00 20.00     0.043 C 
HETATM    6  C7  UNL     1     -33.112  15.896  -3.689  1.00 20.00     0.044 C 
HETATM    7  C9  UNL     1     -36.246  18.986  -2.278  1.00 20.00     0.011 C 
HETATM    8  C10 UNL     1     -32.829  19.149  -4.047  1.00 20.00     0.029 C 
ENDROOT
BRANCH   5   9
HETATM    9  C3  UNL     1     -34.984  18.088  -4.664  1.00 20.00     0.136 C 
HETATM   10  C8  UNL     1     -34.972  19.068  -5.806  1.00 20.00     0.092 C 
HETATM   11  O11 UNL     1     -35.729  17.109  -4.662  1.00 20.00    -0.297 OA
ENDBRANCH   5   9
TORSDOF 1
ENDMDL
MODEL 6
REMARK VINA RESULT:      -4.4      1.294      3.252
REMARK  1 active torsions:
REMARK  status: ('A' for Active; 'I' for Inactive)
REMARK    1  A    between atoms: C3_3  and  C6_6 
ROOT
HETATM    1  C1  UNL     1     -34.107   6.707   6.635  1.00 20.00    -0.023 C 
HETATM    2  C2  UNL     1     -33.886   7.164   5.396  1.00 20.00    -0.071 C 
HETATM    3  C4  UNL     1     -34.692   5.335   6.633  1.00 20.00     0.033 C 
HETATM    4  C5  UNL     1     -34.437   4.844   5.194  1.00 20.00     0.005 C 
HETATM    5  C6  UNL     1     -34.285   6.148   4.353  1.00 20.00     0.043 C 
HETATM    6  C7  UNL     1     -33.387   8.528   5.058  1.00 20.00     0.044 C 
HETATM    7  C9  UNL     1     -33.218   3.910   5.177  1.00 20.00     0.011 C 
HETATM    8  C10 UNL     1     -35.611   6.535   3.687  1.00 20.00     0.029 C 
ENDROOT
BRANCH   5   9
HETATM    9  C3  UNL     1     -33.210   6.049   3.301  1.00 20.00     0.136 C 
HETATM   10  C8  UNL     1     -33.318   4.909   2.325  1.00 20.00     0.092 C 
HETATM   11  O11 UNL     1     -32.289   6.862   3.243  1.00 20.00    -0.297 OA
ENDBRANCH   5   9
TORSDOF 1
ENDMDL
MODEL 7
REMARK VINA RESULT:      -4.4     13.316     14.547
REMARK  1 active torsions:
REMARK  status: ('A' for Active; 'I' for Inactive)
REMARK    1  A    between atoms: C3_3  and  C6_6 
ROOT
HETATM    1  C1  UNL     1     -33.798  18.769  -5.426  1.00 20.00    -0.023 C 
HETATM    2  C2  UNL     1     -34.426  17.801  -6.104  1.00 20.00    -0.071 C 
HETATM    3  C4  UNL     1     -33.957  18.617  -3.950  1.00 20.00     0.033 C 
HETATM    4  C5  UNL     1     -34.458  17.168  -3.796  1.00 20.00     0.005 C 
HETATM    5  C6  UNL     1     -35.106  16.825  -5.172  1.00 20.00     0.043 C 
HETATM    6  C7  UNL     1     -34.527  17.715  -7.589  1.00 20.00     0.044 C 
HETATM    7  C9  UNL     1     -33.292  16.260  -3.380  1.00 20.00     0.011 C 
HETATM    8  C10 UNL     1     -36.621  17.057  -5.144  1.00 20.00     0.029 C 
ENDROOT
BRANCH   5   9
HETATM    9  C3  UNL     1     -34.826  15.414  -5.621  1.00 20.00     0.136 C 
HETATM   10  C8  UNL     1     -35.887  14.387  -5.330  1.00 20.00     0.092 C 
HETATM   11  O11 UNL     1     -33.781  15.116  -6.198  1.00 20.00    -0.297 OA
ENDBRANCH   5   9
TORSDOF 1
ENDMDL
MODEL 8
REMARK VINA RESULT:      -4.3     12.741     14.047
REMARK  1 active torsions:
REMARK  status: ('A' for Active; 'I' for Inactive)
REMARK    1  A    between atoms: C3_3  and  C6_6 
ROOT
HETATM    1  C1  UNL     1     -34.023  14.917  -3.628  1.00 20.00    -0.023 C 
HETATM    2  C2  UNL     1     -34.911  14.727  -4.613  1.00 20.00    -0.071 C 
HETATM    3  C4  UNL     1     -33.258  16.186  -3.798  1.00 20.00     0.033 C 
HETATM    4  C5  UNL     1     -34.086  16.962  -4.840  1.00 20.00     0.005 C 
HETATM    5  C6  UNL     1     -34.886  15.865  -5.606  1.00 20.00     0.043 C 
HETATM    6  C7  UNL     1     -35.769  13.520  -4.777  1.00 20.00     0.044 C 
HETATM    7  C9  UNL     1     -34.943  18.022  -4.134  1.00 20.00     0.011 C 
HETATM    8  C10 UNL     1     -34.166  15.453  -6.896  1.00 20.00     0.029 C 
ENDROOT
BRANCH   5   9
HETATM    9  C3  UNL     1     -36.296  16.284  -5.935  1.00 20.00     0.136 C 
HETATM   10  C8  UNL     1     -36.524  16.887  -7.294  1.00 20.00     0.092 C 
HETATM   11  O11 UNL     1     -37.216  16.139  -5.131  1.00 20.00    -0.297 OA
ENDBRANCH   5   9
TORSDOF 1
ENDMDL
MODEL 9
REMARK VINA RESULT:      -4.3     13.071     14.465
REMARK  1 active torsions:
REMARK  status: ('A' for Active; 'I' for Inactive)
REMARK    1  A    between atoms: C3_3  and  C6_6 
ROOT
HETATM    1  C1  UNL     1     -35.726  14.510  -5.021  1.00 20.00    -0.023 C 
HETATM    2  C2  UNL     1     -36.031  15.760  -5.393  1.00 20.00    -0.071 C 
HETATM    3  C4  UNL     1     -34.262  14.331  -4.800  1.00 20.00     0.033 C 
HETATM    4  C5  UNL     1     -33.738  15.777  -4.710  1.00 20.00     0.005 C 
HETATM    5  C6  UNL     1     -34.799  16.631  -5.468  1.00 20.00     0.043 C 
HETATM    6  C7  UNL     1     -37.392  16.239  -5.768  1.00 20.00     0.044 C 
HETATM    7  C9  UNL     1     -33.525  16.158  -3.237  1.00 20.00     0.011 C 
HETATM    8  C10 UNL     1     -34.382  16.867  -6.925  1.00 20.00     0.029 C 
ENDROOT
BRANCH   5   9
HETATM    9  C3  UNL     1     -35.072  17.957  -4.806  1.00 20.00     0.136 C 
HETATM   10  C8  UNL     1     -34.320  19.147  -5.338  1.00 20.00     0.092 C 
HETATM   11  O11 UNL     1     -35.871  18.062  -3.878  1.00 20.00    -0.297 OA
ENDBRANCH   5   9
TORSDOF 1
ENDMDL
