MODEL 1
REMARK VINA RESULT:      -5.5      0.000      0.000
REMARK  0 active torsions:
REMARK  status: ('A' for Active; 'I' for Inactive)
ROOT
HETATM    1  C1  UNL     1     -32.931   5.198   2.396  1.00 20.00     0.100 C 
HETATM    2  C2  UNL     1     -32.213   7.431   3.088  1.00 20.00     0.042 A 
HETATM    3  C3  UNL     1     -32.248   8.459   4.031  1.00 20.00     0.118 A 
HETATM    4  C4  UNL     1     -32.932   6.265   3.344  1.00 20.00     0.054 A 
HETATM    5  C5  UNL     1     -33.635   6.186   4.528  1.00 20.00    -0.013 A 
HETATM    6  C6  UNL     1     -33.611   7.267   5.403  1.00 20.00     0.042 A 
HETATM    7  C7  UNL     1     -34.507   5.090   5.042  1.00 20.00     0.042 C 
HETATM    8  C8  UNL     1     -34.479   7.003   6.599  1.00 20.00     0.060 C 
HETATM    9  C9  UNL     1     -34.617   5.474   6.527  1.00 20.00     0.011 C 
HETATM   10  N10 UNL     1     -32.932   4.330   1.626  1.00 20.00    -0.191 NA
HETATM   11  N11 UNL     1     -32.941   8.412   5.195  1.00 20.00    -0.265 NA
ENDROOT
TORSDOF 0
ENDMDL
MODEL 2
REMARK VINA RESULT:      -5.3      1.013      3.156
REMARK  0 active torsions:
REMARK  status: ('A' for Active; 'I' for Inactive)
ROOT
HETATM    1  C1  UNL     1     -32.204   8.974   4.824  1.00 20.00     0.100 C 
HETATM    2  C2  UNL     1     -32.241   7.410   2.944  1.00 20.00     0.042 A 
HETATM    3  C3  UNL     1     -32.664   6.191   2.412  1.00 20.00     0.118 A 
HETATM    4  C4  UNL     1     -32.629   7.743   4.240  1.00 20.00     0.054 A 
HETATM    5  C5  UNL     1     -33.424   6.849   4.927  1.00 20.00    -0.013 A 
HETATM    6  C6  UNL     1     -33.790   5.657   4.310  1.00 20.00     0.042 A 
HETATM    7  C7  UNL     1     -33.953   6.926   6.319  1.00 20.00     0.042 C 
HETATM    8  C8  UNL     1     -34.604   4.805   5.241  1.00 20.00     0.060 C 
HETATM    9  C9  UNL     1     -35.050   5.849   6.276  1.00 20.00     0.011 C 
HETATM   10  N10 UNL     1     -31.858   9.975   5.299  1.00 20.00    -0.191 NA
HETATM   11  N11 UNL     1     -33.433   5.290   3.068  1.00 20.00    -0.265 NA
ENDROOT
TORSDOF 0
ENDMDL
MODEL 3
REMARK VINA RESULT:      -5.1      1.025      2.784
REMARK  0 active torsions:
REMARK  status: ('A' for Active; 'I' for Inactive)
ROOT
HETATM    1  C1  UNL     1     -33.250   4.953   2.726  1.00 20.00     0.100 C 
HETATM    2  C2  UNL     1     -34.471   4.973   4.844  1.00 20.00     0.042 A 
HETATM    3  C3  UNL     1     -34.805   5.637   6.026  1.00 20.00     0.118 A 
HETATM    4  C4  UNL     1     -33.625   5.608   3.938  1.00 20.00     0.054 A 
HETATM    5  C5  UNL     1     -33.171   6.872   4.253  1.00 20.00    -0.013 A 
HETATM    6  C6  UNL     1     -33.559   7.449   5.458  1.00 20.00     0.042 A 
HETATM    7  C7  UNL     1     -32.242   7.761   3.497  1.00 20.00     0.042 C 
HETATM    8  C8  UNL     1     -32.914   8.794   5.634  1.00 20.00     0.060 C 
HETATM    9  C9  UNL     1     -32.500   9.110   4.188  1.00 20.00     0.011 C 
HETATM   10  N10 UNL     1     -32.943   4.422   1.741  1.00 20.00    -0.191 NA
HETATM   11  N11 UNL     1     -34.363   6.872   6.365  1.00 20.00    -0.265 NA
ENDROOT
TORSDOF 0
ENDMDL
MODEL 4
REMARK VINA RESULT:      -4.9      1.513      3.892
REMARK  0 active torsions:
REMARK  status: ('A' for Active; 'I' for Inactive)
ROOT
HETATM    1  C1  UNL     1     -32.629   8.630   5.044  1.00 20.00     0.100 C 
HETATM    2  C2  UNL     1     -34.074   7.128   6.322  1.00 20.00     0.042 A 
HETATM    3  C3  UNL     1     -34.769   5.920   6.404  1.00 20.00     0.118 A 
HETATM    4  C4  UNL     1     -33.341   7.399   5.169  1.00 20.00     0.054 A 
HETATM    5  C5  UNL     1     -33.332   6.448   4.170  1.00 20.00    -0.013 A 
HETATM    6  C6  UNL     1     -34.061   5.276   4.344  1.00 20.00     0.042 A 
HETATM    7  C7  UNL     1     -32.671   6.485   2.833  1.00 20.00     0.042 C 
HETATM    8  C8  UNL     1     -33.965   4.405   3.125  1.00 20.00     0.060 C 
HETATM    9  C9  UNL     1     -32.726   4.999   2.439  1.00 20.00     0.011 C 
HETATM   10  N10 UNL     1     -32.050   9.630   4.940  1.00 20.00    -0.191 NA
HETATM   11  N11 UNL     1     -34.788   4.976   5.432  1.00 20.00    -0.265 NA
ENDROOT
TORSDOF 0
ENDMDL
MODEL 5
REMARK VINA RESULT:      -4.8      1.555      2.174
REMARK  0 active torsions:
REMARK  status: ('A' for Active; 'I' for Inactive)
ROOT
HETATM    1  C1  UNL     1     -32.324   7.864   2.448  1.00 20.00     0.100 C 
HETATM    2  C2  UNL     1     -32.802   8.748   4.677  1.00 20.00     0.042 A 
HETATM    3  C3  UNL     1     -33.365   8.564   5.941  1.00 20.00     0.118 A 
HETATM    4  C4  UNL     1     -32.875   7.706   3.755  1.00 20.00     0.054 A 
HETATM    5  C5  UNL     1     -33.494   6.538   4.148  1.00 20.00    -0.013 A 
HETATM    6  C6  UNL     1     -34.028   6.453   5.430  1.00 20.00     0.042 A 
HETATM    7  C7  UNL     1     -33.744   5.290   3.371  1.00 20.00     0.042 C 
HETATM    8  C8  UNL     1     -34.702   5.127   5.638  1.00 20.00     0.060 C 
HETATM    9  C9  UNL     1     -34.079   4.302   4.501  1.00 20.00     0.011 C 
HETATM   10  N10 UNL     1     -31.876   7.990   1.385  1.00 20.00    -0.191 NA
HETATM   11  N11 UNL     1     -33.989   7.433   6.348  1.00 20.00    -0.265 NA
ENDROOT
TORSDOF 0
ENDMDL
MODEL 6
REMARK VINA RESULT:      -4.6      1.665      3.623
REMARK  0 active torsions:
REMARK  status: ('A' for Active; 'I' for Inactive)
ROOT
HETATM    1  C1  UNL     1     -34.630   5.467   5.936  1.00 20.00     0.100 C 
HETATM    2  C2  UNL     1     -33.708   4.845   3.758  1.00 20.00     0.042 A 
HETATM    3  C3  UNL     1     -33.001   5.210   2.611  1.00 20.00     0.118 A 
HETATM    4  C4  UNL     1     -33.898   5.799   4.756  1.00 20.00     0.054 A 
HETATM    5  C5  UNL     1     -33.364   7.055   4.560  1.00 20.00    -0.013 A 
HETATM    6  C6  UNL     1     -32.677   7.322   3.380  1.00 20.00     0.042 A 
HETATM    7  C7  UNL     1     -33.440   8.264   5.431  1.00 20.00     0.042 C 
HETATM    8  C8  UNL     1     -32.226   8.754   3.340  1.00 20.00     0.060 C 
HETATM    9  C9  UNL     1     -32.324   9.132   4.827  1.00 20.00     0.011 C 
HETATM   10  N10 UNL     1     -35.224   5.199   6.896  1.00 20.00    -0.191 NA
HETATM   11  N11 UNL     1     -32.477   6.439   2.388  1.00 20.00    -0.265 NA
ENDROOT
TORSDOF 0
ENDMDL
MODEL 7
REMARK VINA RESULT:      -4.6      1.844      2.756
REMARK  0 active torsions:
REMARK  status: ('A' for Active; 'I' for Inactive)
ROOT
HETATM    1  C1  UNL     1     -32.326   7.386   2.108  1.00 20.00     0.100 C 
HETATM    2  C2  UNL     1     -33.263   5.230   2.782  1.00 20.00     0.042 A 
HETATM    3  C3  UNL     1     -33.882   4.449   3.759  1.00 20.00     0.118 A 
HETATM    4  C4  UNL     1     -32.972   6.560   3.076  1.00 20.00     0.054 A 
HETATM    5  C5  UNL     1     -33.323   7.039   4.322  1.00 20.00    -0.013 A 
HETATM    6  C6  UNL     1     -33.934   6.179   5.229  1.00 20.00     0.042 A 
HETATM    7  C7  UNL     1     -33.106   8.391   4.914  1.00 20.00     0.042 C 
HETATM    8  C8  UNL     1     -34.182   6.876   6.536  1.00 20.00     0.060 C 
HETATM    9  C9  UNL     1     -34.075   8.347   6.107  1.00 20.00     0.011 C 
HETATM   10  N10 UNL     1     -31.802   8.059   1.320  1.00 20.00    -0.191 NA
HETATM   11  N11 UNL     1     -34.225   4.890   4.993  1.00 20.00    -0.265 NA
ENDROOT
TORSDOF 0
ENDMDL
MODEL 8
REMARK VINA RESULT:      -4.3      9.457     10.804
REMARK  0 active torsions:
REMARK  status: ('A' for Active; 'I' for Inactive)
ROOT
HETATM    1  C1  UNL     1     -42.331  14.384   4.118  1.00 20.00     0.100 C 
HETATM    2  C2  UNL     1     -42.220  14.675   6.543  1.00 20.00     0.042 A 
HETATM    3  C3  UNL     1     -41.616  14.352   7.760  1.00 20.00     0.118 A 
HETATM    4  C4  UNL     1     -41.730  14.089   5.379  1.00 20.00     0.054 A 
HETATM    5  C5  UNL     1     -40.661  13.224   5.490  1.00 20.00    -0.013 A 
HETATM    6  C6  UNL     1     -40.130  12.963   6.749  1.00 20.00     0.042 A 
HETATM    7  C7  UNL     1     -39.963  12.439   4.431  1.00 20.00     0.042 C 
HETATM    8  C8  UNL     1     -39.016  11.960   6.658  1.00 20.00     0.060 C 
HETATM    9  C9  UNL     1     -38.670  12.044   5.163  1.00 20.00     0.011 C 
HETATM   10  N10 UNL     1     -42.819  14.623   3.093  1.00 20.00    -0.191 NA
HETATM   11  N11 UNL     1     -40.575  13.496   7.898  1.00 20.00    -0.265 NA
ENDROOT
TORSDOF 0
ENDMDL
MODEL 9
REMARK VINA RESULT:      -4.0     12.770     14.027
REMARK  0 active torsions:
REMARK  status: ('A' for Active; 'I' for Inactive)
ROOT
HETATM    1  C1  UNL     1     -35.917  15.254  -7.139  1.00 20.00     0.100 C 
HETATM    2  C2  UNL     1     -36.151  17.521  -6.254  1.00 20.00     0.042 A 
HETATM    3  C3  UNL     1     -35.805  18.470  -5.291  1.00 20.00     0.118 A 
HETATM    4  C4  UNL     1     -35.575  16.255  -6.181  1.00 20.00     0.054 A 
HETATM    5  C5  UNL     1     -34.678  16.010  -5.162  1.00 20.00    -0.013 A 
HETATM    6  C6  UNL     1     -34.400  17.021  -4.248  1.00 20.00     0.042 A 
HETATM    7  C7  UNL     1     -33.946  14.755  -4.825  1.00 20.00     0.042 C 
HETATM    8  C8  UNL     1     -33.449  16.537  -3.193  1.00 20.00     0.060 C 
HETATM    9  C9  UNL     1     -32.859  15.295  -3.880  1.00 20.00     0.011 C 
HETATM   10  N10 UNL     1     -36.194  14.439  -7.918  1.00 20.00    -0.191 NA
HETATM   11  N11 UNL     1     -34.938  18.252  -4.273  1.00 20.00    -0.265 NA
ENDROOT
TORSDOF 0
ENDMDL
