MODEL 1
REMARK VINA RESULT:      -6.0      0.000      0.000
REMARK  1 active torsions:
REMARK  status: ('A' for Active; 'I' for Inactive)
REMARK    1  A    between atoms: C4_4  and  C5_5 
ROOT
HETATM    1  C1  UNL     1     -33.415   5.194   3.477  1.00 20.00    -0.021 C 
HETATM    2  C2  UNL     1     -33.845   4.298   4.373  1.00 20.00    -0.025 C 
HETATM    3  C3  UNL     1     -33.447   7.640   5.763  1.00 20.00    -0.015 C 
HETATM    4  C4  UNL     1     -33.404   7.473   4.430  1.00 20.00    -0.009 C 
HETATM    5  C6  UNL     1     -34.263   6.863   6.763  1.00 20.00     0.028 C 
HETATM    6  C7  UNL     1     -34.453   5.349   6.568  1.00 20.00     0.012 C 
HETATM    7  C8  UNL     1     -35.465   5.970   4.278  1.00 20.00     0.022 C 
HETATM    8  C9  UNL     1     -34.182   6.482   3.604  1.00 20.00     0.045 C 
HETATM    9  C10 UNL     1     -34.969   4.858   5.206  1.00 20.00     0.009 C 
ENDROOT
BRANCH   4  10
HETATM   10  C5  UNL     1     -32.515   8.390   3.698  1.00 20.00     0.152 C 
HETATM   11  C11 UNL     1     -32.153   8.036   2.280  1.00 20.00     0.096 C 
HETATM   12  O12 UNL     1     -32.082   9.404   4.242  1.00 20.00    -0.293 OA
ENDBRANCH   4  10
TORSDOF 1
ENDMDL
MODEL 2
REMARK VINA RESULT:      -4.8      1.638      2.106
REMARK  1 active torsions:
REMARK  status: ('A' for Active; 'I' for Inactive)
REMARK    1  A    between atoms: C4_4  and  C5_5 
ROOT
HETATM    1  C1  UNL     1     -33.858   4.478   4.975  1.00 20.00    -0.021 C 
HETATM    2  C2  UNL     1     -34.130   4.777   6.251  1.00 20.00    -0.025 C 
HETATM    3  C3  UNL     1     -33.051   7.656   4.299  1.00 20.00    -0.015 C 
HETATM    4  C4  UNL     1     -33.372   6.515   3.666  1.00 20.00    -0.009 C 
HETATM    5  C6  UNL     1     -33.656   8.208   5.564  1.00 20.00     0.028 C 
HETATM    6  C7  UNL     1     -34.042   7.243   6.699  1.00 20.00     0.012 C 
HETATM    7  C8  UNL     1     -35.542   6.093   4.945  1.00 20.00     0.022 C 
HETATM    8  C9  UNL     1     -34.432   5.518   4.052  1.00 20.00     0.045 C 
HETATM    9  C10 UNL     1     -34.939   6.045   6.351  1.00 20.00     0.009 C 
ENDROOT
BRANCH   4  10
HETATM   10  C5  UNL     1     -32.613   6.231   2.436  1.00 20.00     0.152 C 
HETATM   11  C11 UNL     1     -31.988   7.393   1.711  1.00 20.00     0.096 C 
HETATM   12  O12 UNL     1     -32.509   5.078   2.021  1.00 20.00    -0.293 OA
ENDBRANCH   4  10
TORSDOF 1
ENDMDL
MODEL 3
REMARK VINA RESULT:      -4.6     12.263     13.767
REMARK  1 active torsions:
REMARK  status: ('A' for Active; 'I' for Inactive)
REMARK    1  A    between atoms: C4_4  and  C5_5 
ROOT
HETATM    1  C1  UNL     1     -35.840  17.794  -4.505  1.00 20.00    -0.021 C 
HETATM    2  C2  UNL     1     -35.988  18.709  -3.538  1.00 20.00    -0.025 C 
HETATM    3  C3  UNL     1     -33.422  16.235  -2.793  1.00 20.00    -0.015 C 
HETATM    4  C4  UNL     1     -33.925  16.306  -4.038  1.00 20.00    -0.009 C 
HETATM    5  C6  UNL     1     -33.213  17.365  -1.819  1.00 20.00     0.028 C 
HETATM    6  C7  UNL     1     -34.254  18.495  -1.739  1.00 20.00     0.012 C 
HETATM    7  C8  UNL     1     -33.773  18.848  -4.248  1.00 20.00     0.022 C 
HETATM    8  C9  UNL     1     -34.383  17.538  -4.773  1.00 20.00     0.045 C 
HETATM    9  C10 UNL     1     -34.651  19.200  -3.046  1.00 20.00     0.009 C 
ENDROOT
BRANCH   4  10
HETATM   10  C5  UNL     1     -34.007  15.030  -4.769  1.00 20.00     0.152 C 
HETATM   11  C11 UNL     1     -34.008  15.081  -6.273  1.00 20.00     0.096 C 
HETATM   12  O12 UNL     1     -34.080  13.966  -4.157  1.00 20.00    -0.293 OA
ENDBRANCH   4  10
TORSDOF 1
ENDMDL
MODEL 4
REMARK VINA RESULT:      -4.5     10.071     11.111
REMARK  1 active torsions:
REMARK  status: ('A' for Active; 'I' for Inactive)
REMARK    1  A    between atoms: C4_4  and  C5_5 
ROOT
HETATM    1  C1  UNL     1     -40.470  14.934   7.726  1.00 20.00    -0.021 C 
HETATM    2  C2  UNL     1     -41.230  16.010   7.488  1.00 20.00    -0.025 C 
HETATM    3  C3  UNL     1     -41.311  13.568   4.787  1.00 20.00    -0.015 C 
HETATM    4  C4  UNL     1     -40.769  13.225   5.968  1.00 20.00    -0.009 C 
HETATM    5  C6  UNL     1     -42.465  14.505   4.542  1.00 20.00     0.028 C 
HETATM    6  C7  UNL     1     -42.603  15.774   5.402  1.00 20.00     0.012 C 
HETATM    7  C8  UNL     1     -42.652  14.165   7.417  1.00 20.00     0.022 C 
HETATM    8  C9  UNL     1     -41.197  13.676   7.340  1.00 20.00     0.045 C 
HETATM    9  C10 UNL     1     -42.573  15.614   6.930  1.00 20.00     0.009 C 
ENDROOT
BRANCH   4  10
HETATM   10  C5  UNL     1     -39.646  12.275   5.905  1.00 20.00     0.152 C 
HETATM   11  C11 UNL     1     -39.229  11.767   4.550  1.00 20.00     0.096 C 
HETATM   12  O12 UNL     1     -39.080  11.910   6.935  1.00 20.00    -0.293 OA
ENDBRANCH   4  10
TORSDOF 1
ENDMDL
MODEL 5
REMARK VINA RESULT:      -4.4      1.967      4.317
REMARK  1 active torsions:
REMARK  status: ('A' for Active; 'I' for Inactive)
REMARK    1  A    between atoms: C4_4  and  C5_5 
ROOT
HETATM    1  C1  UNL     1     -32.982   7.962   5.620  1.00 20.00    -0.021 C 
HETATM    2  C2  UNL     1     -32.162   8.760   4.924  1.00 20.00    -0.025 C 
HETATM    3  C3  UNL     1     -33.113   5.746   3.115  1.00 20.00    -0.015 C 
HETATM    4  C4  UNL     1     -33.771   6.072   4.241  1.00 20.00    -0.009 C 
HETATM    5  C6  UNL     1     -32.517   6.679   2.094  1.00 20.00     0.028 C 
HETATM    6  C7  UNL     1     -31.836   7.977   2.564  1.00 20.00     0.012 C 
HETATM    7  C8  UNL     1     -34.104   8.537   3.657  1.00 20.00     0.022 C 
HETATM    8  C9  UNL     1     -34.095   7.454   4.747  1.00 20.00     0.045 C 
HETATM    9  C10 UNL     1     -32.627   8.906   3.499  1.00 20.00     0.009 C 
ENDROOT
BRANCH   4  10
HETATM   10  C5  UNL     1     -34.253   4.942   5.051  1.00 20.00     0.152 C 
HETATM   11  C11 UNL     1     -34.814   5.243   6.415  1.00 20.00     0.096 C 
HETATM   12  O12 UNL     1     -34.187   3.792   4.618  1.00 20.00    -0.293 OA
ENDBRANCH   4  10
TORSDOF 1
ENDMDL
MODEL 6
REMARK VINA RESULT:      -4.4      2.032      3.633
REMARK  1 active torsions:
REMARK  status: ('A' for Active; 'I' for Inactive)
REMARK    1  A    between atoms: C4_4  and  C5_5 
ROOT
HETATM    1  C1  UNL     1     -33.985   6.357   6.163  1.00 20.00    -0.021 C 
HETATM    2  C2  UNL     1     -33.513   7.516   6.640  1.00 20.00    -0.025 C 
HETATM    3  C3  UNL     1     -32.463   6.834   3.220  1.00 20.00    -0.015 C 
HETATM    4  C4  UNL     1     -33.434   6.085   3.771  1.00 20.00    -0.009 C 
HETATM    5  C6  UNL     1     -32.171   8.291   3.467  1.00 20.00     0.028 C 
HETATM    6  C7  UNL     1     -32.324   8.861   4.888  1.00 20.00     0.012 C 
HETATM    7  C8  UNL     1     -34.764   8.038   4.744  1.00 20.00     0.022 C 
HETATM    8  C9  UNL     1     -34.485   6.527   4.755  1.00 20.00     0.045 C 
HETATM    9  C10 UNL     1     -33.653   8.619   5.622  1.00 20.00     0.009 C 
ENDROOT
BRANCH   4  10
HETATM   10  C5  UNL     1     -33.486   4.680   3.334  1.00 20.00     0.152 C 
HETATM   11  C11 UNL     1     -32.900   4.341   1.989  1.00 20.00     0.096 C 
HETATM   12  O12 UNL     1     -34.001   3.824   4.051  1.00 20.00    -0.293 OA
ENDBRANCH   4  10
TORSDOF 1
ENDMDL
MODEL 7
REMARK VINA RESULT:      -4.3     12.380     13.950
REMARK  1 active torsions:
REMARK  status: ('A' for Active; 'I' for Inactive)
REMARK    1  A    between atoms: C4_4  and  C5_5 
ROOT
HETATM    1  C1  UNL     1     -34.386  18.286  -5.648  1.00 20.00    -0.021 C 
HETATM    2  C2  UNL     1     -34.448  17.482  -6.717  1.00 20.00    -0.025 C 
HETATM    3  C3  UNL     1     -33.342  15.773  -3.696  1.00 20.00    -0.015 C 
HETATM    4  C4  UNL     1     -33.867  17.007  -3.599  1.00 20.00    -0.009 C 
HETATM    5  C6  UNL     1     -33.706  14.693  -4.682  1.00 20.00     0.028 C 
HETATM    6  C7  UNL     1     -34.034  15.077  -6.135  1.00 20.00     0.012 C 
HETATM    7  C8  UNL     1     -35.875  16.569  -5.117  1.00 20.00     0.022 C 
HETATM    8  C9  UNL     1     -34.965  17.606  -4.438  1.00 20.00     0.045 C 
HETATM    9  C10 UNL     1     -35.094  16.166  -6.370  1.00 20.00     0.009 C 
ENDROOT
BRANCH   4  10
HETATM   10  C5  UNL     1     -33.319  17.853  -2.527  1.00 20.00     0.152 C 
HETATM   11  C11 UNL     1     -33.681  17.511  -1.106  1.00 20.00     0.096 C 
HETATM   12  O12 UNL     1     -32.595  18.811  -2.797  1.00 20.00    -0.293 OA
ENDBRANCH   4  10
TORSDOF 1
ENDMDL
MODEL 8
REMARK VINA RESULT:      -4.3     12.009     13.434
REMARK  1 active torsions:
REMARK  status: ('A' for Active; 'I' for Inactive)
REMARK    1  A    between atoms: C4_4  and  C5_5 
ROOT
HETATM    1  C1  UNL     1     -34.266  14.435  -4.095  1.00 20.00    -0.021 C 
HETATM    2  C2  UNL     1     -35.349  13.893  -4.667  1.00 20.00    -0.025 C 
HETATM    3  C3  UNL     1     -35.467  17.531  -4.527  1.00 20.00    -0.015 C 
HETATM    4  C4  UNL     1     -34.311  16.899  -4.258  1.00 20.00    -0.009 C 
HETATM    5  C6  UNL     1     -36.540  17.112  -5.497  1.00 20.00     0.028 C 
HETATM    6  C7  UNL     1     -36.885  15.619  -5.644  1.00 20.00     0.012 C 
HETATM    7  C8  UNL     1     -34.398  15.308  -6.256  1.00 20.00     0.022 C 
HETATM    8  C9  UNL     1     -33.794  15.628  -4.879  1.00 20.00     0.045 C 
HETATM    9  C10 UNL     1     -35.733  14.639  -5.919  1.00 20.00     0.009 C 
ENDROOT
BRANCH   4  10
HETATM   10  C5  UNL     1     -33.443  17.549  -3.262  1.00 20.00     0.152 C 
HETATM   11  C11 UNL     1     -33.461  17.011  -1.856  1.00 20.00     0.096 C 
HETATM   12  O12 UNL     1     -32.737  18.505  -3.580  1.00 20.00    -0.293 OA
ENDBRANCH   4  10
TORSDOF 1
ENDMDL
MODEL 9
REMARK VINA RESULT:      -4.2     10.100     10.996
REMARK  1 active torsions:
REMARK  status: ('A' for Active; 'I' for Inactive)
REMARK    1  A    between atoms: C4_4  and  C5_5 
ROOT
HETATM    1  C1  UNL     1     -43.097  12.117   7.147  1.00 20.00    -0.021 C 
HETATM    2  C2  UNL     1     -43.417  12.397   8.416  1.00 20.00    -0.025 C 
HETATM    3  C3  UNL     1     -40.347  14.018   7.318  1.00 20.00    -0.015 C 
HETATM    4  C4  UNL     1     -41.147  13.440   6.407  1.00 20.00    -0.009 C 
HETATM    5  C6  UNL     1     -40.753  14.707   8.596  1.00 20.00     0.028 C 
HETATM    6  C7  UNL     1     -41.915  14.133   9.425  1.00 20.00     0.012 C 
HETATM    7  C8  UNL     1     -43.329  14.435   7.290  1.00 20.00     0.022 C 
HETATM    8  C9  UNL     1     -42.651  13.359   6.426  1.00 20.00     0.045 C 
HETATM    9  C10 UNL     1     -43.248  13.865   8.708  1.00 20.00     0.009 C 
ENDROOT
BRANCH   4  10
HETATM   10  C5  UNL     1     -40.468  12.847   5.243  1.00 20.00     0.152 C 
HETATM   11  C11 UNL     1     -39.446  11.772   5.498  1.00 20.00     0.096 C 
HETATM   12  O12 UNL     1     -40.732  13.232   4.105  1.00 20.00    -0.293 OA
ENDBRANCH   4  10
TORSDOF 1
ENDMDL
