MODEL 1
REMARK VINA RESULT:      -4.2      0.000      0.000
REMARK  2 active torsions:
REMARK  status: ('A' for Active; 'I' for Inactive)
REMARK    1  A    between atoms: C2_2  and  C3_3 
REMARK    2  A    between atoms: C4_4  and  C5_5 
ROOT
HETATM    1  C1  UNL     1     -34.392   4.626   4.783  1.00 20.00     0.087 C 
HETATM    2  C2  UNL     1     -34.954   5.248   5.930  1.00 20.00     0.093 C 
HETATM    3  N8  UNL     1     -33.935   4.116   3.847  1.00 20.00    -0.192 NA
ENDROOT
BRANCH   2   4
HETATM    4  C3  UNL     1     -34.260   6.138   6.656  1.00 20.00     0.012 C 
HETATM    5  C4  UNL     1     -34.096   7.518   6.260  1.00 20.00     0.017 C 
BRANCH   5   6
HETATM    6  C5  UNL     1     -33.879   7.898   4.995  1.00 20.00     0.084 C 
HETATM    7  N9  UNL     1     -32.682   8.138   4.398  1.00 20.00    -0.398 N 
HETATM    8  C6  UNL     1     -32.244   7.379   3.230  1.00 20.00     0.148 C 
HETATM    9  C7  UNL     1     -31.883   9.317   4.726  1.00 20.00     0.148 C 
ENDBRANCH   5   6
ENDBRANCH   2   4
TORSDOF 2
ENDMDL
MODEL 2
REMARK VINA RESULT:      -4.1     12.682     13.732
REMARK  2 active torsions:
REMARK  status: ('A' for Active; 'I' for Inactive)
REMARK    1  A    between atoms: C2_2  and  C3_3 
REMARK    2  A    between atoms: C4_4  and  C5_5 
ROOT
HETATM    1  C1  UNL     1     -31.732  18.532  -0.831  1.00 20.00     0.087 C 
HETATM    2  C2  UNL     1     -32.990  18.335  -1.462  1.00 20.00     0.093 C 
HETATM    3  N8  UNL     1     -30.706  18.695  -0.316  1.00 20.00    -0.192 NA
ENDROOT
BRANCH   2   4
HETATM    4  C3  UNL     1     -33.548  17.119  -1.549  1.00 20.00     0.012 C 
HETATM    5  C4  UNL     1     -33.488  16.309  -2.744  1.00 20.00     0.017 C 
BRANCH   5   6
HETATM    6  C5  UNL     1     -33.621  16.810  -3.978  1.00 20.00     0.084 C 
HETATM    7  N9  UNL     1     -34.398  16.332  -4.985  1.00 20.00    -0.398 N 
HETATM    8  C6  UNL     1     -35.457  17.139  -5.584  1.00 20.00     0.148 C 
HETATM    9  C7  UNL     1     -34.066  15.096  -5.690  1.00 20.00     0.148 C 
ENDBRANCH   5   6
ENDBRANCH   2   4
TORSDOF 2
ENDMDL
MODEL 3
REMARK VINA RESULT:      -4.0      1.245      2.054
REMARK  2 active torsions:
REMARK  status: ('A' for Active; 'I' for Inactive)
REMARK    1  A    between atoms: C2_2  and  C3_3 
REMARK    2  A    between atoms: C4_4  and  C5_5 
ROOT
HETATM    1  C1  UNL     1     -34.519   5.456   5.676  1.00 20.00     0.087 C 
HETATM    2  C2  UNL     1     -33.720   6.415   6.356  1.00 20.00     0.093 C 
HETATM    3  N8  UNL     1     -35.168   4.671   5.122  1.00 20.00    -0.192 NA
ENDROOT
BRANCH   2   4
HETATM    4  C3  UNL     1     -33.862   7.730   6.133  1.00 20.00     0.012 C 
HETATM    5  C4  UNL     1     -33.547   8.351   4.866  1.00 20.00     0.017 C 
BRANCH   5   6
HETATM    6  C5  UNL     1     -32.483   8.013   4.128  1.00 20.00     0.084 C 
HETATM    7  N9  UNL     1     -32.479   7.376   2.928  1.00 20.00    -0.398 N 
HETATM    8  C6  UNL     1     -31.903   7.992   1.736  1.00 20.00     0.148 C 
HETATM    9  C7  UNL     1     -32.817   5.959   2.811  1.00 20.00     0.148 C 
ENDBRANCH   5   6
ENDBRANCH   2   4
TORSDOF 2
ENDMDL
MODEL 4
REMARK VINA RESULT:      -3.7      1.957      4.337
REMARK  2 active torsions:
REMARK  status: ('A' for Active; 'I' for Inactive)
REMARK    1  A    between atoms: C2_2  and  C3_3 
REMARK    2  A    between atoms: C4_4  and  C5_5 
ROOT
HETATM    1  C1  UNL     1     -32.559   8.794   1.375  1.00 20.00     0.087 C 
HETATM    2  C2  UNL     1     -32.414   8.045   2.574  1.00 20.00     0.093 C 
HETATM    3  N8  UNL     1     -32.677   9.404   0.395  1.00 20.00    -0.192 NA
ENDROOT
BRANCH   2   4
HETATM    4  C3  UNL     1     -32.244   8.647   3.760  1.00 20.00     0.012 C 
HETATM    5  C4  UNL     1     -32.720   8.083   5.003  1.00 20.00     0.017 C 
BRANCH   5   6
HETATM    6  C5  UNL     1     -33.901   7.464   5.124  1.00 20.00     0.084 C 
HETATM    7  N9  UNL     1     -34.133   6.125   5.144  1.00 20.00    -0.398 N 
HETATM    8  C6  UNL     1     -34.763   5.475   6.289  1.00 20.00     0.148 C 
HETATM    9  C7  UNL     1     -33.999   5.305   3.942  1.00 20.00     0.148 C 
ENDBRANCH   5   6
ENDBRANCH   2   4
TORSDOF 2
ENDMDL
MODEL 5
REMARK VINA RESULT:      -3.7      1.425      3.565
REMARK  2 active torsions:
REMARK  status: ('A' for Active; 'I' for Inactive)
REMARK    1  A    between atoms: C2_2  and  C3_3 
REMARK    2  A    between atoms: C4_4  and  C5_5 
ROOT
HETATM    1  C1  UNL     1     -32.243   7.805   3.135  1.00 20.00     0.087 C 
HETATM    2  C2  UNL     1     -32.208   8.014   4.540  1.00 20.00     0.093 C 
HETATM    3  N8  UNL     1     -32.268   7.633   1.988  1.00 20.00    -0.192 NA
ENDROOT
BRANCH   2   4
HETATM    4  C3  UNL     1     -33.290   8.429   5.213  1.00 20.00     0.012 C 
HETATM    5  C4  UNL     1     -34.000   7.593   6.154  1.00 20.00     0.017 C 
BRANCH   5   6
HETATM    6  C5  UNL     1     -34.231   6.290   5.949  1.00 20.00     0.084 C 
HETATM    7  N9  UNL     1     -34.609   5.691   4.789  1.00 20.00    -0.398 N 
HETATM    8  C6  UNL     1     -33.791   4.659   4.158  1.00 20.00     0.148 C 
HETATM    9  C7  UNL     1     -35.955   5.857   4.243  1.00 20.00     0.148 C 
ENDBRANCH   5   6
ENDBRANCH   2   4
TORSDOF 2
ENDMDL
MODEL 6
REMARK VINA RESULT:      -3.6      1.719      2.776
REMARK  2 active torsions:
REMARK  status: ('A' for Active; 'I' for Inactive)
REMARK    1  A    between atoms: C2_2  and  C3_3 
REMARK    2  A    between atoms: C4_4  and  C5_5 
ROOT
HETATM    1  C1  UNL     1     -34.387   6.173   6.145  1.00 20.00     0.087 C 
HETATM    2  C2  UNL     1     -34.395   5.032   5.298  1.00 20.00     0.093 C 
HETATM    3  N8  UNL     1     -34.382   7.103   6.838  1.00 20.00    -0.192 NA
ENDROOT
BRANCH   2   4
HETATM    4  C3  UNL     1     -34.567   5.144   3.973  1.00 20.00     0.012 C 
HETATM    5  C4  UNL     1     -33.474   5.363   3.053  1.00 20.00     0.017 C 
BRANCH   5   6
HETATM    6  C5  UNL     1     -32.450   6.186   3.313  1.00 20.00     0.084 C 
HETATM    7  N9  UNL     1     -32.389   7.525   3.091  1.00 20.00    -0.398 N 
HETATM    8  C6  UNL     1     -32.172   8.472   4.182  1.00 20.00     0.148 C 
HETATM    9  C7  UNL     1     -32.287   8.076   1.742  1.00 20.00     0.148 C 
ENDBRANCH   5   6
ENDBRANCH   2   4
TORSDOF 2
ENDMDL
MODEL 7
REMARK VINA RESULT:      -3.6     12.701     13.316
REMARK  2 active torsions:
REMARK  status: ('A' for Active; 'I' for Inactive)
REMARK    1  A    between atoms: C2_2  and  C3_3 
REMARK    2  A    between atoms: C4_4  and  C5_5 
ROOT
HETATM    1  C1  UNL     1     -35.673  14.683  -6.022  1.00 20.00     0.087 C 
HETATM    2  C2  UNL     1     -35.019  14.467  -4.779  1.00 20.00     0.093 C 
HETATM    3  N8  UNL     1     -36.209  14.858  -7.035  1.00 20.00    -0.192 NA
ENDROOT
BRANCH   2   4
HETATM    4  C3  UNL     1     -33.701  14.665  -4.637  1.00 20.00     0.012 C 
HETATM    5  C4  UNL     1     -33.145  15.623  -3.708  1.00 20.00     0.017 C 
BRANCH   5   6
HETATM    6  C5  UNL     1     -33.676  16.834  -3.496  1.00 20.00     0.084 C 
HETATM    7  N9  UNL     1     -33.330  17.730  -2.536  1.00 20.00    -0.398 N 
HETATM    8  C6  UNL     1     -32.843  19.065  -2.875  1.00 20.00     0.148 C 
HETATM    9  C7  UNL     1     -33.656  17.512  -1.128  1.00 20.00     0.148 C 
ENDBRANCH   5   6
ENDBRANCH   2   4
TORSDOF 2
ENDMDL
MODEL 8
REMARK VINA RESULT:      -3.5     12.439     13.187
REMARK  2 active torsions:
REMARK  status: ('A' for Active; 'I' for Inactive)
REMARK    1  A    between atoms: C2_2  and  C3_3 
REMARK    2  A    between atoms: C4_4  and  C5_5 
ROOT
HETATM    1  C1  UNL     1     -27.520  18.535   4.635  1.00 20.00     0.087 C 
HETATM    2  C2  UNL     1     -28.579  18.397   3.697  1.00 20.00     0.093 C 
HETATM    3  N8  UNL     1     -26.655  18.644   5.400  1.00 20.00    -0.192 NA
ENDROOT
BRANCH   2   4
HETATM    4  C3  UNL     1     -29.602  19.263   3.664  1.00 20.00     0.012 C 
HETATM    5  C4  UNL     1     -30.897  18.930   3.113  1.00 20.00     0.017 C 
BRANCH   5   6
HETATM    6  C5  UNL     1     -31.056  18.203   2.000  1.00 20.00     0.084 C 
HETATM    7  N9  UNL     1     -31.791  18.522   0.904  1.00 20.00    -0.398 N 
HETATM    8  C6  UNL     1     -31.182  18.643  -0.418  1.00 20.00     0.148 C 
HETATM    9  C7  UNL     1     -33.253  18.517   0.931  1.00 20.00     0.148 C 
ENDBRANCH   5   6
ENDBRANCH   2   4
TORSDOF 2
ENDMDL
MODEL 9
REMARK VINA RESULT:      -3.5     12.586     13.298
REMARK  2 active torsions:
REMARK  status: ('A' for Active; 'I' for Inactive)
REMARK    1  A    between atoms: C2_2  and  C3_3 
REMARK    2  A    between atoms: C4_4  and  C5_5 
ROOT
HETATM    1  C1  UNL     1     -30.189  18.546   2.386  1.00 20.00     0.087 C 
HETATM    2  C2  UNL     1     -31.196  18.461   1.388  1.00 20.00     0.093 C 
HETATM    3  N8  UNL     1     -29.368  18.615   3.204  1.00 20.00    -0.192 NA
ENDROOT
BRANCH   2   4
HETATM    4  C3  UNL     1     -30.994  18.925   0.147  1.00 20.00     0.012 C 
HETATM    5  C4  UNL     1     -32.011  18.894  -0.880  1.00 20.00     0.017 C 
BRANCH   5   6
HETATM    6  C5  UNL     1     -32.844  17.861  -1.056  1.00 20.00     0.084 C 
HETATM    7  N9  UNL     1     -33.601  17.588  -2.151  1.00 20.00    -0.398 N 
HETATM    8  C6  UNL     1     -33.444  16.344  -2.899  1.00 20.00     0.148 C 
HETATM    9  C7  UNL     1     -34.772  18.392  -2.495  1.00 20.00     0.148 C 
ENDBRANCH   5   6
ENDBRANCH   2   4
TORSDOF 2
ENDMDL
