MODEL 1
REMARK VINA RESULT:      -3.5      0.000      0.000
REMARK  1 active torsions:
REMARK  status: ('A' for Active; 'I' for Inactive)
REMARK    1  A    between atoms: C7_7  and  N11_11 
ROOT
HETATM    1  C1  UNL     1     -34.460  15.121  -4.785  1.00 20.00     0.164 C 
HETATM    2  C2  UNL     1     -34.803  15.313  -7.208  1.00 20.00     0.013 C 
HETATM    3  C3  UNL     1     -36.721  15.593  -5.596  1.00 20.00     0.013 C 
HETATM    4  C4  UNL     1     -34.527  16.824  -7.124  1.00 20.00     0.008 C 
HETATM    5  C5  UNL     1     -36.432  17.102  -5.554  1.00 20.00     0.008 C 
HETATM    6  C6  UNL     1     -35.441  14.810  -5.907  1.00 20.00     0.058 C 
HETATM    7  C7  UNL     1     -34.091  16.595  -4.672  1.00 20.00     0.295 C 
HETATM    8  C8  UNL     1     -34.921  17.361  -5.732  1.00 20.00     0.026 C 
HETATM    9  O12 UNL     1     -34.014  14.254  -4.039  1.00 20.00    -0.295 OA
ENDROOT
BRANCH   7  10
HETATM   10  N11 UNL     1     -34.347  17.018  -3.302  1.00 20.00     0.092 N 
HETATM   11  C9  UNL     1     -34.632  18.453  -3.250  1.00 20.00     0.310 C 
HETATM   12  C10 UNL     1     -33.209  16.695  -2.440  1.00 20.00     0.310 C 
ENDBRANCH   7  10
TORSDOF 1
ENDMDL
MODEL 2
REMARK VINA RESULT:      -3.3     13.069     13.947
REMARK  1 active torsions:
REMARK  status: ('A' for Active; 'I' for Inactive)
REMARK    1  A    between atoms: C7_7  and  N11_11 
ROOT
HETATM    1  C1  UNL     1     -40.797  13.818   7.463  1.00 20.00     0.164 C 
HETATM    2  C2  UNL     1     -40.795  12.784   5.237  1.00 20.00     0.013 C 
HETATM    3  C3  UNL     1     -42.704  12.412   6.843  1.00 20.00     0.013 C 
HETATM    4  C4  UNL     1     -41.528  14.012   4.669  1.00 20.00     0.008 C 
HETATM    5  C5  UNL     1     -43.417  13.632   6.236  1.00 20.00     0.008 C 
HETATM    6  C6  UNL     1     -41.184  12.557   6.704  1.00 20.00     0.058 C 
HETATM    7  C7  UNL     1     -41.439  15.090   6.925  1.00 20.00     0.295 C 
HETATM    8  C8  UNL     1     -42.383  14.677   5.769  1.00 20.00     0.026 C 
HETATM    9  O12 UNL     1     -40.037  13.800   8.427  1.00 20.00    -0.295 OA
ENDROOT
BRANCH   7  10
HETATM   10  N11 UNL     1     -42.115  15.755   8.031  1.00 20.00     0.092 N 
HETATM   11  C9  UNL     1     -43.230  16.568   7.541  1.00 20.00     0.310 C 
HETATM   12  C10 UNL     1     -41.176  16.585   8.786  1.00 20.00     0.310 C 
ENDBRANCH   7  10
TORSDOF 1
ENDMDL
MODEL 3
REMARK VINA RESULT:      -3.3      1.717      2.879
REMARK  1 active torsions:
REMARK  status: ('A' for Active; 'I' for Inactive)
REMARK    1  A    between atoms: C7_7  and  N11_11 
ROOT
HETATM    1  C1  UNL     1     -34.487  17.862  -5.513  1.00 20.00     0.164 C 
HETATM    2  C2  UNL     1     -36.503  17.745  -6.908  1.00 20.00     0.013 C 
HETATM    3  C3  UNL     1     -34.311  16.784  -7.704  1.00 20.00     0.013 C 
HETATM    4  C4  UNL     1     -36.856  16.386  -6.278  1.00 20.00     0.008 C 
HETATM    5  C5  UNL     1     -34.707  15.435  -7.082  1.00 20.00     0.008 C 
HETATM    6  C6  UNL     1     -34.982  17.939  -6.950  1.00 20.00     0.058 C 
HETATM    7  C7  UNL     1     -34.847  16.566  -4.798  1.00 20.00     0.295 C 
HETATM    8  C8  UNL     1     -35.572  15.660  -5.825  1.00 20.00     0.026 C 
HETATM    9  O12 UNL     1     -33.850  18.769  -4.985  1.00 20.00    -0.295 OA
ENDROOT
BRANCH   7  10
HETATM   10  N11 UNL     1     -33.620  15.991  -4.266  1.00 20.00     0.092 N 
HETATM   11  C9  UNL     1     -33.693  14.528  -4.266  1.00 20.00     0.310 C 
HETATM   12  C10 UNL     1     -33.362  16.485  -2.912  1.00 20.00     0.310 C 
ENDBRANCH   7  10
TORSDOF 1
ENDMDL
MODEL 4
REMARK VINA RESULT:      -3.2      2.240      4.424
REMARK  1 active torsions:
REMARK  status: ('A' for Active; 'I' for Inactive)
REMARK    1  A    between atoms: C7_7  and  N11_11 
ROOT
HETATM    1  C1  UNL     1     -35.268  18.590  -2.523  1.00 20.00     0.164 C 
HETATM    2  C2  UNL     1     -32.946  19.263  -2.097  1.00 20.00     0.013 C 
HETATM    3  C3  UNL     1     -33.662  16.853  -1.893  1.00 20.00     0.013 C 
HETATM    4  C4  UNL     1     -32.608  19.024  -3.579  1.00 20.00     0.008 C 
HETATM    5  C5  UNL     1     -33.293  16.645  -3.370  1.00 20.00     0.008 C 
HETATM    6  C6  UNL     1     -34.060  18.312  -1.640  1.00 20.00     0.058 C 
HETATM    7  C7  UNL     1     -34.999  18.431  -4.014  1.00 20.00     0.295 C 
HETATM    8  C8  UNL     1     -33.538  17.942  -4.169  1.00 20.00     0.026 C 
HETATM    9  O12 UNL     1     -36.361  18.911  -2.065  1.00 20.00    -0.295 OA
ENDROOT
BRANCH   7  10
HETATM   10  N11 UNL     1     -35.990  17.510  -4.553  1.00 20.00     0.092 N 
HETATM   11  C9  UNL     1     -35.450  16.788  -5.707  1.00 20.00     0.310 C 
HETATM   12  C10 UNL     1     -37.210  18.226  -4.929  1.00 20.00     0.310 C 
ENDBRANCH   7  10
TORSDOF 1
ENDMDL
MODEL 5
REMARK VINA RESULT:      -3.2      1.498      3.773
REMARK  1 active torsions:
REMARK  status: ('A' for Active; 'I' for Inactive)
REMARK    1  A    between atoms: C7_7  and  N11_11 
ROOT
HETATM    1  C1  UNL     1     -33.667  16.569  -3.763  1.00 20.00     0.164 C 
HETATM    2  C2  UNL     1     -34.419  18.140  -2.032  1.00 20.00     0.013 C 
HETATM    3  C3  UNL     1     -32.898  18.890  -3.899  1.00 20.00     0.013 C 
HETATM    4  C4  UNL     1     -35.638  18.503  -2.896  1.00 20.00     0.008 C 
HETATM    5  C5  UNL     1     -34.139  19.263  -4.725  1.00 20.00     0.008 C 
HETATM    6  C6  UNL     1     -33.226  17.757  -2.919  1.00 20.00     0.058 C 
HETATM    7  C7  UNL     1     -34.907  16.832  -4.608  1.00 20.00     0.295 C 
HETATM    8  C8  UNL     1     -35.307  18.312  -4.392  1.00 20.00     0.026 C 
HETATM    9  O12 UNL     1     -33.066  15.499  -3.759  1.00 20.00    -0.295 OA
ENDROOT
BRANCH   7  10
HETATM   10  N11 UNL     1     -34.587  16.502  -5.989  1.00 20.00     0.092 N 
HETATM   11  C9  UNL     1     -35.347  17.347  -6.912  1.00 20.00     0.310 C 
HETATM   12  C10 UNL     1     -34.856  15.088  -6.259  1.00 20.00     0.310 C 
ENDBRANCH   7  10
TORSDOF 1
ENDMDL
MODEL 6
REMARK VINA RESULT:      -3.2     12.268     13.400
REMARK  1 active torsions:
REMARK  status: ('A' for Active; 'I' for Inactive)
REMARK    1  A    between atoms: C7_7  and  N11_11 
ROOT
HETATM    1  C1  UNL     1     -41.742  14.021   4.863  1.00 20.00     0.164 C 
HETATM    2  C2  UNL     1     -42.564  15.652   6.503  1.00 20.00     0.013 C 
HETATM    3  C3  UNL     1     -43.414  13.277   6.490  1.00 20.00     0.013 C 
HETATM    4  C4  UNL     1     -41.447  15.234   7.474  1.00 20.00     0.008 C 
HETATM    5  C5  UNL     1     -42.298  12.901   7.479  1.00 20.00     0.008 C 
HETATM    6  C6  UNL     1     -42.983  14.466   5.624  1.00 20.00     0.058 C 
HETATM    7  C7  UNL     1     -40.567  13.643   5.757  1.00 20.00     0.295 C 
HETATM    8  C8  UNL     1     -41.046  13.765   7.225  1.00 20.00     0.026 C 
HETATM    9  O12 UNL     1     -41.702  13.969   3.638  1.00 20.00    -0.295 OA
ENDROOT
BRANCH   7  10
HETATM   10  N11 UNL     1     -40.133  12.303   5.386  1.00 20.00     0.092 N 
HETATM   11  C9  UNL     1     -39.238  11.750   6.404  1.00 20.00     0.310 C 
HETATM   12  C10 UNL     1     -39.470  12.317   4.081  1.00 20.00     0.310 C 
ENDBRANCH   7  10
TORSDOF 1
ENDMDL
MODEL 7
REMARK VINA RESULT:      -3.1      1.755      2.663
REMARK  1 active torsions:
REMARK  status: ('A' for Active; 'I' for Inactive)
REMARK    1  A    between atoms: C7_7  and  N11_11 
ROOT
HETATM    1  C1  UNL     1     -34.435  16.685  -4.876  1.00 20.00     0.164 C 
HETATM    2  C2  UNL     1     -33.754  15.138  -6.657  1.00 20.00     0.013 C 
HETATM    3  C3  UNL     1     -34.911  14.301  -4.578  1.00 20.00     0.013 C 
HETATM    4  C4  UNL     1     -35.124  15.318  -7.333  1.00 20.00     0.008 C 
HETATM    5  C5  UNL     1     -36.262  14.472  -5.293  1.00 20.00     0.008 C 
HETATM    6  C6  UNL     1     -33.881  15.291  -5.135  1.00 20.00     0.058 C 
HETATM    7  C7  UNL     1     -35.768  16.962  -5.560  1.00 20.00     0.295 C 
HETATM    8  C8  UNL     1     -36.198  15.658  -6.277  1.00 20.00     0.026 C 
HETATM    9  O12 UNL     1     -33.854  17.505  -4.172  1.00 20.00    -0.295 OA
ENDROOT
BRANCH   7  10
HETATM   10  N11 UNL     1     -36.708  17.416  -4.545  1.00 20.00     0.092 N 
HETATM   11  C9  UNL     1     -38.084  17.120  -4.947  1.00 20.00     0.310 C 
HETATM   12  C10 UNL     1     -36.549  18.850  -4.297  1.00 20.00     0.310 C 
ENDBRANCH   7  10
TORSDOF 1
ENDMDL
MODEL 8
REMARK VINA RESULT:      -3.1      1.882      3.339
REMARK  1 active torsions:
REMARK  status: ('A' for Active; 'I' for Inactive)
REMARK    1  A    between atoms: C7_7  and  N11_11 
ROOT
HETATM    1  C1  UNL     1     -36.080  15.252  -5.350  1.00 20.00     0.164 C 
HETATM    2  C2  UNL     1     -33.861  15.730  -4.416  1.00 20.00     0.013 C 
HETATM    3  C3  UNL     1     -34.197  15.461  -6.901  1.00 20.00     0.013 C 
HETATM    4  C4  UNL     1     -34.131  17.238  -4.555  1.00 20.00     0.008 C 
HETATM    5  C5  UNL     1     -34.439  16.975  -7.006  1.00 20.00     0.008 C 
HETATM    6  C6  UNL     1     -34.598  14.948  -5.512  1.00 20.00     0.058 C 
HETATM    7  C7  UNL     1     -36.424  16.734  -5.419  1.00 20.00     0.295 C 
HETATM    8  C8  UNL     1     -35.110  17.499  -5.719  1.00 20.00     0.026 C 
HETATM    9  O12 UNL     1     -36.919  14.371  -5.183  1.00 20.00    -0.295 OA
ENDROOT
BRANCH   7  10
HETATM   10  N11 UNL     1     -37.454  16.910  -6.432  1.00 20.00     0.092 N 
HETATM   11  C9  UNL     1     -37.324  18.217  -7.080  1.00 20.00     0.310 C 
HETATM   12  C10 UNL     1     -38.787  16.767  -5.845  1.00 20.00     0.310 C 
ENDBRANCH   7  10
TORSDOF 1
ENDMDL
MODEL 9
REMARK VINA RESULT:      -3.1      1.543      2.079
REMARK  1 active torsions:
REMARK  status: ('A' for Active; 'I' for Inactive)
REMARK    1  A    between atoms: C7_7  and  N11_11 
ROOT
HETATM    1  C1  UNL     1     -35.838  15.487  -6.371  1.00 20.00     0.164 C 
HETATM    2  C2  UNL     1     -36.414  17.354  -7.857  1.00 20.00     0.013 C 
HETATM    3  C3  UNL     1     -37.458  17.138  -5.571  1.00 20.00     0.013 C 
HETATM    4  C4  UNL     1     -35.275  18.188  -7.245  1.00 20.00     0.008 C 
HETATM    5  C5  UNL     1     -36.317  17.995  -4.998  1.00 20.00     0.008 C 
HETATM    6  C6  UNL     1     -36.986  16.380  -6.818  1.00 20.00     0.058 C 
HETATM    7  C7  UNL     1     -34.644  16.244  -5.803  1.00 20.00     0.295 C 
HETATM    8  C8  UNL     1     -35.016  17.747  -5.788  1.00 20.00     0.026 C 
HETATM    9  O12 UNL     1     -35.881  14.263  -6.461  1.00 20.00    -0.295 OA
ENDROOT
BRANCH   7  10
HETATM   10  N11 UNL     1     -34.349  15.695  -4.487  1.00 20.00     0.092 N 
HETATM   11  C9  UNL     1     -33.707  16.702  -3.640  1.00 20.00     0.310 C 
HETATM   12  C10 UNL     1     -33.496  14.510  -4.600  1.00 20.00     0.310 C 
ENDBRANCH   7  10
TORSDOF 1
ENDMDL
