MODEL 1
REMARK VINA RESULT:      -4.0      0.000      0.000
REMARK  1 active torsions:
REMARK  status: ('A' for Active; 'I' for Inactive)
REMARK    1  A    between atoms: C1_1  and  C8_8 
ROOT
HETATM    1  C2  UNL     1     -35.639  16.849  -5.074  1.00 20.00     0.013 A 
HETATM    2  C3  UNL     1     -36.019  14.779  -5.587  1.00 20.00     0.013 A 
HETATM    3  C4  UNL     1     -34.528  15.910  -6.679  1.00 20.00     0.013 A 
HETATM    4  C5  UNL     1     -36.884  16.039  -5.456  1.00 20.00     0.006 A 
HETATM    5  C6  UNL     1     -35.390  17.173  -6.552  1.00 20.00     0.006 A 
HETATM    6  C7  UNL     1     -35.770  15.097  -7.067  1.00 20.00     0.006 A 
HETATM    7  C8  UNL     1     -34.776  15.588  -5.201  1.00 20.00     0.033 A 
HETATM    8  C9  UNL     1     -36.642  16.364  -6.946  1.00 20.00    -0.031 A 
HETATM    9  C11 UNL     1     -37.683  16.796  -7.917  1.00 20.00     0.016 C 
ENDROOT
BRANCH   7  10
HETATM   10  C1  UNL     1     -33.731  15.151  -4.222  1.00 20.00     0.133 C 
HETATM   11  C10 UNL     1     -33.309  16.159  -3.187  1.00 20.00     0.091 C 
HETATM   12  O12 UNL     1     -33.245  14.022  -4.259  1.00 20.00    -0.297 OA
ENDBRANCH   7  10
TORSDOF 1
ENDMDL
MODEL 2
REMARK VINA RESULT:      -4.0      0.066      1.536
REMARK  1 active torsions:
REMARK  status: ('A' for Active; 'I' for Inactive)
REMARK    1  A    between atoms: C1_1  and  C8_8 
ROOT
HETATM    1  C2  UNL     1     -36.012  14.812  -5.564  1.00 20.00     0.013 A 
HETATM    2  C3  UNL     1     -34.490  15.931  -6.625  1.00 20.00     0.013 A 
HETATM    3  C4  UNL     1     -35.620  16.876  -5.036  1.00 20.00     0.013 A 
HETATM    4  C5  UNL     1     -35.732  15.132  -7.038  1.00 20.00     0.006 A 
HETATM    5  C6  UNL     1     -36.866  16.080  -5.445  1.00 20.00     0.006 A 
HETATM    6  C7  UNL     1     -35.339  17.203  -6.509  1.00 20.00     0.006 A 
HETATM    7  C8  UNL     1     -34.768  15.608  -5.152  1.00 20.00     0.033 A 
HETATM    8  C9  UNL     1     -36.594  16.408  -6.928  1.00 20.00    -0.031 A 
HETATM    9  C11 UNL     1     -37.610  16.853  -7.918  1.00 20.00     0.016 C 
ENDROOT
BRANCH   7  10
HETATM   10  C1  UNL     1     -33.742  15.158  -4.159  1.00 20.00     0.133 C 
HETATM   11  C10 UNL     1     -33.293  16.172  -3.142  1.00 20.00     0.091 C 
HETATM   12  O12 UNL     1     -33.290  14.014  -4.172  1.00 20.00    -0.297 OA
ENDBRANCH   7  10
TORSDOF 1
ENDMDL
MODEL 3
REMARK VINA RESULT:      -3.9      3.303      5.098
REMARK  1 active torsions:
REMARK  status: ('A' for Active; 'I' for Inactive)
REMARK    1  A    between atoms: C1_1  and  C8_8 
ROOT
HETATM    1  C2  UNL     1     -34.045  17.395  -1.277  1.00 20.00     0.013 A 
HETATM    2  C3  UNL     1     -32.378  17.456  -2.659  1.00 20.00     0.013 A 
HETATM    3  C4  UNL     1     -33.492  19.263  -2.224  1.00 20.00     0.013 A 
HETATM    4  C5  UNL     1     -33.667  16.632  -2.553  1.00 20.00     0.006 A 
HETATM    5  C6  UNL     1     -34.784  18.443  -2.117  1.00 20.00     0.006 A 
HETATM    6  C7  UNL     1     -33.112  18.505  -3.503  1.00 20.00     0.006 A 
HETATM    7  C8  UNL     1     -32.754  18.216  -1.382  1.00 20.00     0.033 A 
HETATM    8  C9  UNL     1     -34.413  17.681  -3.405  1.00 20.00    -0.031 A 
HETATM    9  C11 UNL     1     -35.336  17.382  -4.532  1.00 20.00     0.016 C 
ENDROOT
BRANCH   7  10
HETATM   10  C1  UNL     1     -31.823  18.513  -0.249  1.00 20.00     0.133 C 
HETATM   11  C10 UNL     1     -32.441  18.656   1.116  1.00 20.00     0.091 C 
HETATM   12  O12 UNL     1     -30.611  18.631  -0.424  1.00 20.00    -0.297 OA
ENDBRANCH   7  10
TORSDOF 1
ENDMDL
MODEL 4
REMARK VINA RESULT:      -3.9      0.127      1.484
REMARK  1 active torsions:
REMARK  status: ('A' for Active; 'I' for Inactive)
REMARK    1  A    between atoms: C1_1  and  C8_8 
ROOT
HETATM    1  C2  UNL     1     -34.468  16.086  -6.592  1.00 20.00     0.013 A 
HETATM    2  C3  UNL     1     -35.709  16.820  -4.976  1.00 20.00     0.013 A 
HETATM    3  C4  UNL     1     -35.938  14.783  -5.677  1.00 20.00     0.013 A 
HETATM    4  C5  UNL     1     -35.408  17.283  -6.407  1.00 20.00     0.006 A 
HETATM    5  C6  UNL     1     -35.638  15.241  -7.110  1.00 20.00     0.006 A 
HETATM    6  C7  UNL     1     -36.883  15.977  -5.489  1.00 20.00     0.006 A 
HETATM    7  C8  UNL     1     -34.766  15.626  -5.160  1.00 20.00     0.033 A 
HETATM    8  C9  UNL     1     -36.591  16.441  -6.932  1.00 20.00    -0.031 A 
HETATM    9  C11 UNL     1     -37.606  16.896  -7.918  1.00 20.00     0.016 C 
ENDROOT
BRANCH   7  10
HETATM   10  C1  UNL     1     -33.744  15.172  -4.165  1.00 20.00     0.133 C 
HETATM   11  C10 UNL     1     -33.289  16.186  -3.151  1.00 20.00     0.091 C 
HETATM   12  O12 UNL     1     -33.299  14.025  -4.176  1.00 20.00    -0.297 OA
ENDBRANCH   7  10
TORSDOF 1
ENDMDL
MODEL 5
REMARK VINA RESULT:      -3.7     13.230     14.327
REMARK  1 active torsions:
REMARK  status: ('A' for Active; 'I' for Inactive)
REMARK    1  A    between atoms: C1_1  and  C8_8 
ROOT
HETATM    1  C2  UNL     1     -42.063  13.038   7.333  1.00 20.00     0.013 A 
HETATM    2  C3  UNL     1     -41.336  14.501   5.910  1.00 20.00     0.013 A 
HETATM    3  C4  UNL     1     -40.428  14.353   7.872  1.00 20.00     0.013 A 
HETATM    4  C5  UNL     1     -42.705  14.165   6.515  1.00 20.00     0.006 A 
HETATM    5  C6  UNL     1     -41.795  14.018   8.482  1.00 20.00     0.006 A 
HETATM    6  C7  UNL     1     -41.066  15.485   7.055  1.00 20.00     0.006 A 
HETATM    7  C8  UNL     1     -40.696  13.372   6.725  1.00 20.00     0.033 A 
HETATM    8  C9  UNL     1     -42.443  15.157   7.668  1.00 20.00    -0.031 A 
HETATM    9  C11 UNL     1     -43.417  16.151   8.192  1.00 20.00     0.016 C 
ENDROOT
BRANCH   7  10
HETATM   10  C1  UNL     1     -39.717  12.371   6.194  1.00 20.00     0.133 C 
HETATM   11  C10 UNL     1     -39.761  12.102   4.714  1.00 20.00     0.091 C 
HETATM   12  O12 UNL     1     -38.915  11.800   6.930  1.00 20.00    -0.297 OA
ENDBRANCH   7  10
TORSDOF 1
ENDMDL
MODEL 6
REMARK VINA RESULT:      -3.7     25.015     26.338
REMARK  1 active torsions:
REMARK  status: ('A' for Active; 'I' for Inactive)
REMARK    1  A    between atoms: C1_1  and  C8_8 
ROOT
HETATM    1  C2  UNL     1     -26.532  -2.662  10.110  1.00 20.00     0.013 A 
HETATM    2  C3  UNL     1     -26.868  -0.965  11.414  1.00 20.00     0.013 A 
HETATM    3  C4  UNL     1     -26.688  -2.955  12.251  1.00 20.00     0.013 A 
HETATM    4  C5  UNL     1     -27.578  -1.543  10.184  1.00 20.00     0.006 A 
HETATM    5  C6  UNL     1     -27.398  -3.539  11.023  1.00 20.00     0.006 A 
HETATM    6  C7  UNL     1     -27.735  -1.837  12.331  1.00 20.00     0.006 A 
HETATM    7  C8  UNL     1     -25.820  -2.082  11.338  1.00 20.00     0.033 A 
HETATM    8  C9  UNL     1     -28.458  -2.421  11.100  1.00 20.00    -0.031 A 
HETATM    9  C11 UNL     1     -29.927  -2.609  10.966  1.00 20.00     0.016 C 
ENDROOT
BRANCH   7  10
HETATM   10  C1  UNL     1     -24.342  -1.888  11.471  1.00 20.00     0.133 C 
HETATM   11  C10 UNL     1     -23.463  -2.852  10.722  1.00 20.00     0.091 C 
HETATM   12  O12 UNL     1     -23.869  -0.983  12.157  1.00 20.00    -0.297 OA
ENDBRANCH   7  10
TORSDOF 1
ENDMDL
MODEL 7
REMARK VINA RESULT:      -3.7     13.147     14.179
REMARK  1 active torsions:
REMARK  status: ('A' for Active; 'I' for Inactive)
REMARK    1  A    between atoms: C1_1  and  C8_8 
ROOT
HETATM    1  C2  UNL     1     -40.416  14.370   7.720  1.00 20.00     0.013 A 
HETATM    2  C3  UNL     1     -42.049  13.018   7.278  1.00 20.00     0.013 A 
HETATM    3  C4  UNL     1     -41.373  14.427   5.777  1.00 20.00     0.013 A 
HETATM    4  C5  UNL     1     -41.763  14.047   8.379  1.00 20.00     0.006 A 
HETATM    5  C6  UNL     1     -41.086  15.460   6.874  1.00 20.00     0.006 A 
HETATM    6  C7  UNL     1     -42.724  14.104   6.430  1.00 20.00     0.006 A 
HETATM    7  C8  UNL     1     -40.701  13.339   6.622  1.00 20.00     0.033 A 
HETATM    8  C9  UNL     1     -42.444  15.145   7.534  1.00 20.00    -0.031 A 
HETATM    9  C11 UNL     1     -43.414  16.150   8.043  1.00 20.00     0.016 C 
ENDROOT
BRANCH   7  10
HETATM   10  C1  UNL     1     -39.726  12.324   6.113  1.00 20.00     0.133 C 
HETATM   11  C10 UNL     1     -39.732  12.062   4.631  1.00 20.00     0.091 C 
HETATM   12  O12 UNL     1     -38.955  11.735   6.869  1.00 20.00    -0.297 OA
ENDBRANCH   7  10
TORSDOF 1
ENDMDL
MODEL 8
REMARK VINA RESULT:      -3.7     13.110     14.202
REMARK  1 active torsions:
REMARK  status: ('A' for Active; 'I' for Inactive)
REMARK    1  A    between atoms: C1_1  and  C8_8 
ROOT
HETATM    1  C2  UNL     1     -41.483  14.331   5.693  1.00 20.00     0.013 A 
HETATM    2  C3  UNL     1     -40.402  14.423   7.568  1.00 20.00     0.013 A 
HETATM    3  C4  UNL     1     -42.027  13.010   7.322  1.00 20.00     0.013 A 
HETATM    4  C5  UNL     1     -41.151  15.440   6.699  1.00 20.00     0.006 A 
HETATM    5  C6  UNL     1     -42.780  14.025   6.452  1.00 20.00     0.006 A 
HETATM    6  C7  UNL     1     -41.696  14.116   8.333  1.00 20.00     0.006 A 
HETATM    7  C8  UNL     1     -40.732  13.315   6.562  1.00 20.00     0.033 A 
HETATM    8  C9  UNL     1     -42.457  15.141   7.466  1.00 20.00    -0.031 A 
HETATM    9  C11 UNL     1     -43.416  16.160   7.970  1.00 20.00     0.016 C 
ENDROOT
BRANCH   7  10
HETATM   10  C1  UNL     1     -39.762  12.293   6.055  1.00 20.00     0.133 C 
HETATM   11  C10 UNL     1     -39.728  12.070   4.568  1.00 20.00     0.091 C 
HETATM   12  O12 UNL     1     -39.027  11.667   6.818  1.00 20.00    -0.297 OA
ENDBRANCH   7  10
TORSDOF 1
ENDMDL
MODEL 9
REMARK VINA RESULT:      -3.6     13.808     15.095
REMARK  1 active torsions:
REMARK  status: ('A' for Active; 'I' for Inactive)
REMARK    1  A    between atoms: C1_1  and  C8_8 
ROOT
HETATM    1  C2  UNL     1     -40.754  15.457   7.181  1.00 20.00     0.013 A 
HETATM    2  C3  UNL     1     -40.254  14.247   8.908  1.00 20.00     0.013 A 
HETATM    3  C4  UNL     1     -42.171  14.000   7.930  1.00 20.00     0.013 A 
HETATM    4  C5  UNL     1     -40.294  15.752   8.615  1.00 20.00     0.006 A 
HETATM    5  C6  UNL     1     -42.218  15.505   7.635  1.00 20.00     0.006 A 
HETATM    6  C7  UNL     1     -41.716  14.291   9.367  1.00 20.00     0.006 A 
HETATM    7  C8  UNL     1     -40.709  13.952   7.474  1.00 20.00     0.033 A 
HETATM    8  C9  UNL     1     -41.766  15.806   9.079  1.00 20.00    -0.031 A 
HETATM    9  C11 UNL     1     -42.353  16.839   9.974  1.00 20.00     0.016 C 
ENDROOT
BRANCH   7  10
HETATM   10  C1  UNL     1     -40.114  12.913   6.576  1.00 20.00     0.133 C 
HETATM   11  C10 UNL     1     -40.577  12.910   5.144  1.00 20.00     0.091 C 
HETATM   12  O12 UNL     1     -39.284  12.103   6.987  1.00 20.00    -0.297 OA
ENDBRANCH   7  10
TORSDOF 1
ENDMDL
