MODEL 1
REMARK VINA RESULT:      -5.1      0.000      0.000
REMARK  0 active torsions:
REMARK  status: ('A' for Active; 'I' for Inactive)
ROOT
HETATM    1  C1  UNL     1     -32.860   4.563   2.268  1.00 20.00     0.015 C 
HETATM    2  C2  UNL     1     -33.117   5.465   3.017  1.00 20.00    -0.076 C 
HETATM    3  C3  UNL     1     -32.386   8.596   4.957  1.00 20.00     0.004 C 
HETATM    4  C4  UNL     1     -33.601   8.682   5.873  1.00 20.00     0.003 C 
HETATM    5  C5  UNL     1     -32.722   7.855   3.664  1.00 20.00     0.055 C 
HETATM    6  C6  UNL     1     -34.022   7.295   6.350  1.00 20.00     0.042 C 
HETATM    7  C7  UNL     1     -33.423   6.543   3.912  1.00 20.00     0.154 A 
HETATM    8  C8  UNL     1     -34.120   6.276   5.246  1.00 20.00     0.102 A 
HETATM    9  C9  UNL     1     -34.465   4.881   5.678  1.00 20.00     0.050 C 
HETATM   10  O10 UNL     1     -34.846   6.710   4.094  1.00 20.00    -0.350 OA
ENDROOT
TORSDOF 0
ENDMDL
MODEL 2
REMARK VINA RESULT:      -5.1      1.079      3.411
REMARK  0 active torsions:
REMARK  status: ('A' for Active; 'I' for Inactive)
ROOT
HETATM    1  C1  UNL     1     -31.880   9.418   4.919  1.00 20.00     0.015 C 
HETATM    2  C2  UNL     1     -32.627   8.480   4.963  1.00 20.00    -0.076 C 
HETATM    3  C3  UNL     1     -34.334   5.558   6.591  1.00 20.00     0.004 C 
HETATM    4  C4  UNL     1     -35.001   4.885   5.397  1.00 20.00     0.003 C 
HETATM    5  C5  UNL     1     -34.155   7.055   6.350  1.00 20.00     0.055 C 
HETATM    6  C6  UNL     1     -34.102   4.950   4.164  1.00 20.00     0.042 C 
HETATM    7  C7  UNL     1     -33.519   7.358   5.017  1.00 20.00     0.154 A 
HETATM    8  C8  UNL     1     -33.533   6.318   3.897  1.00 20.00     0.102 A 
HETATM    9  C9  UNL     1     -32.589   6.413   2.735  1.00 20.00     0.050 C 
HETATM   10  O10 UNL     1     -34.485   7.381   3.944  1.00 20.00    -0.350 OA
ENDROOT
TORSDOF 0
ENDMDL
MODEL 3
REMARK VINA RESULT:      -4.3     15.970     16.990
REMARK  0 active torsions:
REMARK  status: ('A' for Active; 'I' for Inactive)
ROOT
HETATM    1  C1  UNL     1     -26.476  18.912  12.332  1.00 20.00     0.015 C 
HETATM    2  C2  UNL     1     -25.391  18.686  11.871  1.00 20.00    -0.076 C 
HETATM    3  C3  UNL     1     -21.638  18.786  11.785  1.00 20.00     0.004 C 
HETATM    4  C4  UNL     1     -21.349  18.296  10.371  1.00 20.00     0.003 C 
HETATM    5  C5  UNL     1     -22.964  18.229  12.300  1.00 20.00     0.055 C 
HETATM    6  C6  UNL     1     -22.379  18.841   9.385  1.00 20.00     0.042 C 
HETATM    7  C7  UNL     1     -24.094  18.418  11.322  1.00 20.00     0.154 A 
HETATM    8  C8  UNL     1     -23.805  18.678   9.843  1.00 20.00     0.102 A 
HETATM    9  C9  UNL     1     -24.848  19.261   8.936  1.00 20.00     0.050 C 
HETATM   10  O10 UNL     1     -24.133  17.374  10.324  1.00 20.00    -0.350 OA
ENDROOT
TORSDOF 0
ENDMDL
MODEL 4
REMARK VINA RESULT:      -4.3      0.998      3.228
REMARK  0 active torsions:
REMARK  status: ('A' for Active; 'I' for Inactive)
ROOT
HETATM    1  C1  UNL     1     -34.877   5.398   6.739  1.00 20.00     0.015 C 
HETATM    2  C2  UNL     1     -34.418   5.874   5.737  1.00 20.00    -0.076 C 
HETATM    3  C3  UNL     1     -32.451   5.838   2.539  1.00 20.00     0.004 C 
HETATM    4  C4  UNL     1     -32.384   7.323   2.201  1.00 20.00     0.003 C 
HETATM    5  C5  UNL     1     -33.696   5.516   3.363  1.00 20.00     0.055 C 
HETATM    6  C6  UNL     1     -32.209   8.161   3.464  1.00 20.00     0.042 C 
HETATM    7  C7  UNL     1     -33.870   6.442   4.540  1.00 20.00     0.154 A 
HETATM    8  C8  UNL     1     -33.161   7.796   4.573  1.00 20.00     0.102 A 
HETATM    9  C9  UNL     1     -32.979   8.549   5.858  1.00 20.00     0.050 C 
HETATM   10  O10 UNL     1     -34.527   7.675   4.173  1.00 20.00    -0.350 OA
ENDROOT
TORSDOF 0
ENDMDL
MODEL 5
REMARK VINA RESULT:      -3.8     12.297     13.317
REMARK  0 active torsions:
REMARK  status: ('A' for Active; 'I' for Inactive)
ROOT
HETATM    1  C1  UNL     1     -33.336  14.642  -4.427  1.00 20.00     0.015 C 
HETATM    2  C2  UNL     1     -33.507  15.696  -3.879  1.00 20.00    -0.076 C 
HETATM    3  C3  UNL     1     -33.898  17.974  -0.920  1.00 20.00     0.004 C 
HETATM    4  C4  UNL     1     -34.374  19.262  -1.583  1.00 20.00     0.003 C 
HETATM    5  C5  UNL     1     -33.053  17.140  -1.881  1.00 20.00     0.055 C 
HETATM    6  C6  UNL     1     -35.327  18.960  -2.736  1.00 20.00     0.042 C 
HETATM    7  C7  UNL     1     -33.711  16.955  -3.224  1.00 20.00     0.154 A 
HETATM    8  C8  UNL     1     -34.825  17.899  -3.679  1.00 20.00     0.102 A 
HETATM    9  C9  UNL     1     -35.760  17.522  -4.790  1.00 20.00     0.050 C 
HETATM   10  O10 UNL     1     -33.473  18.072  -4.109  1.00 20.00    -0.350 OA
ENDROOT
TORSDOF 0
ENDMDL
MODEL 6
REMARK VINA RESULT:      -3.8      1.459      2.901
REMARK  0 active torsions:
REMARK  status: ('A' for Active; 'I' for Inactive)
ROOT
HETATM    1  C1  UNL     1     -32.126   8.046   1.345  1.00 20.00     0.015 C 
HETATM    2  C2  UNL     1     -32.527   7.566   2.370  1.00 20.00    -0.076 C 
HETATM    3  C3  UNL     1     -34.904   5.599   4.510  1.00 20.00     0.004 C 
HETATM    4  C4  UNL     1     -34.406   5.934   5.911  1.00 20.00     0.003 C 
HETATM    5  C5  UNL     1     -33.775   5.700   3.486  1.00 20.00     0.055 C 
HETATM    6  C6  UNL     1     -33.967   7.393   5.999  1.00 20.00     0.042 C 
HETATM    7  C7  UNL     1     -33.007   6.993   3.593  1.00 20.00     0.154 A 
HETATM    8  C8  UNL     1     -33.062   7.825   4.875  1.00 20.00     0.102 A 
HETATM    9  C9  UNL     1     -32.660   9.270   4.883  1.00 20.00     0.050 C 
HETATM   10  O10 UNL     1     -31.977   6.935   4.605  1.00 20.00    -0.350 OA
ENDROOT
TORSDOF 0
ENDMDL
MODEL 7
REMARK VINA RESULT:      -3.7     15.260     16.837
REMARK  0 active torsions:
REMARK  status: ('A' for Active; 'I' for Inactive)
ROOT
HETATM    1  C1  UNL     1     -24.610  15.975  12.028  1.00 20.00     0.015 C 
HETATM    2  C2  UNL     1     -24.010  16.679  11.262  1.00 20.00    -0.076 C 
HETATM    3  C3  UNL     1     -21.868  17.402   8.264  1.00 20.00     0.004 C 
HETATM    4  C4  UNL     1     -21.524  18.872   8.478  1.00 20.00     0.003 C 
HETATM    5  C5  UNL     1     -23.202  17.048   8.918  1.00 20.00     0.055 C 
HETATM    6  C6  UNL     1     -21.293  19.167   9.958  1.00 20.00     0.042 C 
HETATM    7  C7  UNL     1     -23.293  17.518  10.347  1.00 20.00     0.154 A 
HETATM    8  C8  UNL     1     -22.365  18.619  10.863  1.00 20.00     0.102 A 
HETATM    9  C9  UNL     1     -22.143  18.826  12.332  1.00 20.00     0.050 C 
HETATM   10  O10 UNL     1     -23.702  18.900  10.444  1.00 20.00    -0.350 OA
ENDROOT
TORSDOF 0
ENDMDL
MODEL 8
REMARK VINA RESULT:      -3.6      8.433     10.281
REMARK  0 active torsions:
REMARK  status: ('A' for Active; 'I' for Inactive)
ROOT
HETATM    1  C1  UNL     1     -40.286  14.818   9.292  1.00 20.00     0.015 C 
HETATM    2  C2  UNL     1     -40.239  14.115   8.320  1.00 20.00    -0.076 C 
HETATM    3  C3  UNL     1     -38.530  12.151   5.615  1.00 20.00     0.004 C 
HETATM    4  C4  UNL     1     -39.693  11.829   4.685  1.00 20.00     0.003 C 
HETATM    5  C5  UNL     1     -39.009  12.336   7.053  1.00 20.00     0.055 C 
HETATM    6  C6  UNL     1     -40.662  13.005   4.597  1.00 20.00     0.042 C 
HETATM    7  C7  UNL     1     -40.182  13.275   7.160  1.00 20.00     0.154 A 
HETATM    8  C8  UNL     1     -41.047  13.578   5.936  1.00 20.00     0.102 A 
HETATM    9  C9  UNL     1     -41.944  14.780   5.893  1.00 20.00     0.050 C 
HETATM   10  O10 UNL     1     -41.440  12.610   6.910  1.00 20.00    -0.350 OA
ENDROOT
TORSDOF 0
ENDMDL
MODEL 9
REMARK VINA RESULT:      -3.6     12.477     13.649
REMARK  0 active torsions:
REMARK  status: ('A' for Active; 'I' for Inactive)
ROOT
HETATM    1  C1  UNL     1     -35.546  14.768  -6.187  1.00 20.00     0.015 C 
HETATM    2  C2  UNL     1     -35.070  15.564  -5.425  1.00 20.00    -0.076 C 
HETATM    3  C3  UNL     1     -33.413  16.659  -2.238  1.00 20.00     0.004 C 
HETATM    4  C4  UNL     1     -33.539  18.175  -2.330  1.00 20.00     0.003 C 
HETATM    5  C5  UNL     1     -33.384  16.024  -3.627  1.00 20.00     0.055 C 
HETATM    6  C6  UNL     1     -34.881  18.574  -2.939  1.00 20.00     0.042 C 
HETATM    7  C7  UNL     1     -34.500  16.514  -4.513  1.00 20.00     0.154 A 
HETATM    8  C8  UNL     1     -35.225  17.823  -4.198  1.00 20.00     0.102 A 
HETATM    9  C9  UNL     1     -36.566  18.134  -4.794  1.00 20.00     0.050 C 
HETATM   10  O10 UNL     1     -34.174  17.762  -5.164  1.00 20.00    -0.350 OA
ENDROOT
TORSDOF 0
ENDMDL
