MODEL 1
REMARK VINA RESULT:      -4.1      0.000      0.000
REMARK  2 active torsions:
REMARK  status: ('A' for Active; 'I' for Inactive)
REMARK    1  A    between atoms: C1_1  and  C3_3 
REMARK    2  A    between atoms: C2_2  and  C7_7 
ROOT
HETATM    1  C4  UNL     1     -33.407  18.021  -0.090  1.00 20.00     0.002 C 
HETATM    2  C5  UNL     1     -34.316  18.488  -1.240  1.00 20.00     0.013 C 
HETATM    3  C6  UNL     1     -32.219  18.098  -1.063  1.00 20.00     0.013 C 
HETATM    4  C7  UNL     1     -33.229  17.999  -2.249  1.00 20.00    -0.026 C 
HETATM    5  C9  UNL     1     -32.950  18.959  -3.439  1.00 20.00     0.019 C 
ENDROOT
BRANCH   4   6
HETATM    6  C2  UNL     1     -33.453  16.567  -2.741  1.00 20.00    -0.014 C 
HETATM    7  C1  UNL     1     -33.734  16.261  -4.014  1.00 20.00     0.046 C 
BRANCH   7   8
HETATM    8  C3  UNL     1     -33.943  14.847  -4.427  1.00 20.00     0.145 C 
HETATM    9  C8  UNL     1     -35.263  14.513  -5.070  1.00 20.00     0.096 C 
HETATM   10  O10 UNL     1     -33.090  13.980  -4.245  1.00 20.00    -0.294 OA
ENDBRANCH   7   8
ENDBRANCH   4   6
TORSDOF 2
ENDMDL
MODEL 2
REMARK VINA RESULT:      -3.7     11.275     12.414
REMARK  2 active torsions:
REMARK  status: ('A' for Active; 'I' for Inactive)
REMARK    1  A    between atoms: C1_1  and  C3_3 
REMARK    2  A    between atoms: C2_2  and  C7_7 
ROOT
HETATM    1  C4  UNL     1     -42.626  15.696   6.496  1.00 20.00     0.002 C 
HETATM    2  C5  UNL     1     -42.131  14.728   7.584  1.00 20.00     0.013 C 
HETATM    3  C6  UNL     1     -43.193  14.482   5.741  1.00 20.00     0.013 C 
HETATM    4  C7  UNL     1     -42.206  13.571   6.537  1.00 20.00    -0.026 C 
HETATM    5  C9  UNL     1     -42.811  12.239   7.063  1.00 20.00     0.019 C 
ENDROOT
BRANCH   4   6
HETATM    6  C2  UNL     1     -40.883  13.322   5.808  1.00 20.00    -0.014 C 
HETATM    7  C1  UNL     1     -40.206  12.169   5.885  1.00 20.00     0.046 C 
BRANCH   7   8
HETATM    8  C3  UNL     1     -38.923  11.992   5.152  1.00 20.00     0.145 C 
HETATM    9  C8  UNL     1     -39.017  11.592   3.703  1.00 20.00     0.096 C 
HETATM   10  O10 UNL     1     -37.831  12.147   5.696  1.00 20.00    -0.294 OA
ENDBRANCH   7   8
ENDBRANCH   4   6
TORSDOF 2
ENDMDL
MODEL 3
REMARK VINA RESULT:      -3.6      1.065      1.073
REMARK  2 active torsions:
REMARK  status: ('A' for Active; 'I' for Inactive)
REMARK    1  A    between atoms: C1_1  and  C3_3 
REMARK    2  A    between atoms: C2_2  and  C7_7 
ROOT
HETATM    1  C4  UNL     1     -33.803  17.747  -0.679  1.00 20.00     0.002 C 
HETATM    2  C5  UNL     1     -34.599  18.375  -1.836  1.00 20.00     0.013 C 
HETATM    3  C6  UNL     1     -32.534  17.898  -1.534  1.00 20.00     0.013 C 
HETATM    4  C7  UNL     1     -33.441  17.971  -2.803  1.00 20.00    -0.026 C 
HETATM    5  C9  UNL     1     -33.039  19.054  -3.843  1.00 20.00     0.019 C 
ENDROOT
BRANCH   4   6
HETATM    6  C2  UNL     1     -33.656  16.615  -3.479  1.00 20.00    -0.014 C 
HETATM    7  C1  UNL     1     -34.092  16.481  -4.738  1.00 20.00     0.046 C 
BRANCH   7   8
HETATM    8  C3  UNL     1     -34.281  15.131  -5.336  1.00 20.00     0.145 C 
HETATM    9  C8  UNL     1     -34.892  14.075  -4.454  1.00 20.00     0.096 C 
HETATM   10  O10 UNL     1     -33.945  14.875  -6.491  1.00 20.00    -0.294 OA
ENDBRANCH   7   8
ENDBRANCH   4   6
TORSDOF 2
ENDMDL
MODEL 4
REMARK VINA RESULT:      -3.6      1.920      4.870
REMARK  2 active torsions:
REMARK  status: ('A' for Active; 'I' for Inactive)
REMARK    1  A    between atoms: C1_1  and  C3_3 
REMARK    2  A    between atoms: C2_2  and  C7_7 
ROOT
HETATM    1  C4  UNL     1     -35.721  14.790  -5.712  1.00 20.00     0.002 C 
HETATM    2  C5  UNL     1     -35.086  14.062  -4.515  1.00 20.00     0.013 C 
HETATM    3  C6  UNL     1     -34.325  15.329  -6.063  1.00 20.00     0.013 C 
HETATM    4  C7  UNL     1     -33.890  15.064  -4.587  1.00 20.00    -0.026 C 
HETATM    5  C9  UNL     1     -32.482  14.429  -4.416  1.00 20.00     0.019 C 
ENDROOT
BRANCH   4   6
HETATM    6  C2  UNL     1     -34.057  16.281  -3.674  1.00 20.00    -0.014 C 
HETATM    7  C1  UNL     1     -33.280  16.514  -2.609  1.00 20.00     0.046 C 
BRANCH   7   8
HETATM    8  C3  UNL     1     -33.497  17.718  -1.760  1.00 20.00     0.145 C 
HETATM    9  C8  UNL     1     -32.302  18.246  -1.011  1.00 20.00     0.096 C 
HETATM   10  O10 UNL     1     -34.598  18.255  -1.655  1.00 20.00    -0.294 OA
ENDBRANCH   7   8
ENDBRANCH   4   6
TORSDOF 2
ENDMDL
MODEL 5
REMARK VINA RESULT:      -3.6     11.553     13.236
REMARK  2 active torsions:
REMARK  status: ('A' for Active; 'I' for Inactive)
REMARK    1  A    between atoms: C1_1  and  C3_3 
REMARK    2  A    between atoms: C2_2  and  C7_7 
ROOT
HETATM    1  C4  UNL     1     -39.135  12.160   4.818  1.00 20.00     0.002 C 
HETATM    2  C5  UNL     1     -40.482  12.884   4.650  1.00 20.00     0.013 C 
HETATM    3  C6  UNL     1     -39.669  11.573   6.135  1.00 20.00     0.013 C 
HETATM    4  C7  UNL     1     -40.712  12.734   6.188  1.00 20.00    -0.026 C 
HETATM    5  C9  UNL     1     -42.149  12.315   6.605  1.00 20.00     0.019 C 
ENDROOT
BRANCH   4   6
HETATM    6  C2  UNL     1     -40.237  13.944   6.996  1.00 20.00    -0.014 C 
HETATM    7  C1  UNL     1     -40.891  14.418   8.065  1.00 20.00     0.046 C 
BRANCH   7   8
HETATM    8  C3  UNL     1     -40.375  15.600   8.807  1.00 20.00     0.145 C 
HETATM    9  C8  UNL     1     -40.709  16.956   8.244  1.00 20.00     0.096 C 
HETATM   10  O10 UNL     1     -39.696  15.488   9.826  1.00 20.00    -0.294 OA
ENDBRANCH   7   8
ENDBRANCH   4   6
TORSDOF 2
ENDMDL
MODEL 6
REMARK VINA RESULT:      -3.5      2.606      4.943
REMARK  2 active torsions:
REMARK  status: ('A' for Active; 'I' for Inactive)
REMARK    1  A    between atoms: C1_1  and  C3_3 
REMARK    2  A    between atoms: C2_2  and  C7_7 
ROOT
HETATM    1  C4  UNL     1     -33.049  16.035  -3.864  1.00 20.00     0.002 C 
HETATM    2  C5  UNL     1     -33.347  17.539  -3.994  1.00 20.00     0.013 C 
HETATM    3  C6  UNL     1     -33.929  16.019  -2.603  1.00 20.00     0.013 C 
HETATM    4  C7  UNL     1     -33.714  17.560  -2.475  1.00 20.00    -0.026 C 
HETATM    5  C9  UNL     1     -34.984  18.378  -2.112  1.00 20.00     0.019 C 
ENDROOT
BRANCH   4   6
HETATM    6  C2  UNL     1     -32.539  17.939  -1.570  1.00 20.00    -0.014 C 
HETATM    7  C1  UNL     1     -32.691  18.393  -0.320  1.00 20.00     0.046 C 
BRANCH   7   8
HETATM    8  C3  UNL     1     -31.506  18.745   0.509  1.00 20.00     0.145 C 
HETATM    9  C8  UNL     1     -31.714  18.817   1.999  1.00 20.00     0.096 C 
HETATM   10  O10 UNL     1     -30.407  18.982   0.011  1.00 20.00    -0.294 OA
ENDBRANCH   7   8
ENDBRANCH   4   6
TORSDOF 2
ENDMDL
MODEL 7
REMARK VINA RESULT:      -3.4      2.315      4.782
REMARK  2 active torsions:
REMARK  status: ('A' for Active; 'I' for Inactive)
REMARK    1  A    between atoms: C1_1  and  C3_3 
REMARK    2  A    between atoms: C2_2  and  C7_7 
ROOT
HETATM    1  C4  UNL     1     -35.504  14.537  -5.510  1.00 20.00     0.002 C 
HETATM    2  C5  UNL     1     -34.251  15.167  -6.141  1.00 20.00     0.013 C 
HETATM    3  C6  UNL     1     -36.138  15.938  -5.487  1.00 20.00     0.013 C 
HETATM    4  C7  UNL     1     -34.704  16.549  -5.572  1.00 20.00    -0.026 C 
HETATM    5  C9  UNL     1     -34.552  17.750  -6.547  1.00 20.00     0.019 C 
ENDROOT
BRANCH   4   6
HETATM    6  C2  UNL     1     -34.097  16.874  -4.204  1.00 20.00    -0.014 C 
HETATM    7  C1  UNL     1     -33.557  18.061  -3.902  1.00 20.00     0.046 C 
BRANCH   7   8
HETATM    8  C3  UNL     1     -32.982  18.312  -2.552  1.00 20.00     0.145 C 
HETATM    9  C8  UNL     1     -33.463  17.427  -1.432  1.00 20.00     0.096 C 
HETATM   10  O10 UNL     1     -32.164  19.206  -2.345  1.00 20.00    -0.294 OA
ENDBRANCH   7   8
ENDBRANCH   4   6
TORSDOF 2
ENDMDL
MODEL 8
REMARK VINA RESULT:      -3.4     11.380     12.610
REMARK  2 active torsions:
REMARK  status: ('A' for Active; 'I' for Inactive)
REMARK    1  A    between atoms: C1_1  and  C3_3 
REMARK    2  A    between atoms: C2_2  and  C7_7 
ROOT
HETATM    1  C4  UNL     1     -41.286  16.120   9.509  1.00 20.00     0.002 C 
HETATM    2  C5  UNL     1     -42.339  15.357   8.687  1.00 20.00     0.013 C 
HETATM    3  C6  UNL     1     -40.745  16.697   8.191  1.00 20.00     0.013 C 
HETATM    4  C7  UNL     1     -41.417  15.508   7.435  1.00 20.00    -0.026 C 
HETATM    5  C9  UNL     1     -42.146  15.887   6.117  1.00 20.00     0.019 C 
ENDROOT
BRANCH   4   6
HETATM    6  C2  UNL     1     -40.481  14.315   7.220  1.00 20.00    -0.014 C 
HETATM    7  C1  UNL     1     -40.590  13.472   6.186  1.00 20.00     0.046 C 
BRANCH   7   8
HETATM    8  C3  UNL     1     -39.647  12.330   6.035  1.00 20.00     0.145 C 
HETATM    9  C8  UNL     1     -39.500  11.746   4.655  1.00 20.00     0.096 C 
HETATM   10  O10 UNL     1     -39.023  11.867   6.989  1.00 20.00    -0.294 OA
ENDBRANCH   7   8
ENDBRANCH   4   6
TORSDOF 2
ENDMDL
MODEL 9
REMARK VINA RESULT:      -3.4      2.219      4.643
REMARK  2 active torsions:
REMARK  status: ('A' for Active; 'I' for Inactive)
REMARK    1  A    between atoms: C1_1  and  C3_3 
REMARK    2  A    between atoms: C2_2  and  C7_7 
ROOT
HETATM    1  C4  UNL     1     -33.969  14.509  -4.041  1.00 20.00     0.002 C 
HETATM    2  C5  UNL     1     -32.698  15.372  -4.129  1.00 20.00     0.013 C 
HETATM    3  C6  UNL     1     -34.795  15.800  -4.163  1.00 20.00     0.013 C 
HETATM    4  C7  UNL     1     -33.547  16.603  -3.679  1.00 20.00    -0.026 C 
HETATM    5  C9  UNL     1     -33.266  17.921  -4.454  1.00 20.00     0.019 C 
ENDROOT
BRANCH   4   6
HETATM    6  C2  UNL     1     -33.523  16.840  -2.167  1.00 20.00    -0.014 C 
HETATM    7  C1  UNL     1     -33.028  17.950  -1.604  1.00 20.00     0.046 C 
BRANCH   7   8
HETATM    8  C3  UNL     1     -33.034  18.118  -0.125  1.00 20.00     0.145 C 
HETATM    9  C8  UNL     1     -31.741  18.547   0.516  1.00 20.00     0.096 C 
HETATM   10  O10 UNL     1     -34.038  17.906   0.553  1.00 20.00    -0.294 OA
ENDBRANCH   7   8
ENDBRANCH   4   6
TORSDOF 2
ENDMDL
