MODEL 1
REMARK VINA RESULT:      -3.8      0.000      0.000
REMARK  2 active torsions:
REMARK  status: ('A' for Active; 'I' for Inactive)
REMARK    1  A    between atoms: C5_5  and  C8_8 
REMARK    2  A    between atoms: C8_8  and  N10_10 
ROOT
HETATM    1  C1  UNL     1     -31.764  18.684   1.609  1.00 20.00     0.135 A 
HETATM    2  C2  UNL     1     -32.918  18.569   0.871  1.00 20.00     0.112 A 
HETATM    3  C3  UNL     1     -31.132  18.562  -0.420  1.00 20.00     0.210 A 
HETATM    4  N9  UNL     1     -30.656  18.680   0.800  1.00 20.00    -0.255 NA
HETATM    5  N10 UNL     1     -32.497  18.492  -0.427  1.00 20.00    -0.338 N 
ENDROOT
BRANCH   5   6
HETATM    6  C8  UNL     1     -33.368  18.357  -1.632  1.00 20.00     0.047 C 
HETATM    7  C6  UNL     1     -34.809  18.887  -1.426  1.00 20.00     0.043 C 
HETATM    8  C7  UNL     1     -32.746  19.198  -2.772  1.00 20.00     0.043 C 
BRANCH   6   9
HETATM    9  C5  UNL     1     -33.530  16.873  -1.961  1.00 20.00    -0.007 C 
HETATM   10  C4  UNL     1     -33.316  16.271  -3.139  1.00 20.00     0.009 C 
ENDBRANCH   6   9
ENDBRANCH   5   6
TORSDOF 2
ENDMDL
MODEL 2
REMARK VINA RESULT:      -3.8     12.372     13.051
REMARK  2 active torsions:
REMARK  status: ('A' for Active; 'I' for Inactive)
REMARK    1  A    between atoms: C5_5  and  C8_8 
REMARK    2  A    between atoms: C8_8  and  N10_10 
ROOT
HETATM    1  C1  UNL     1     -32.419   8.897   4.833  1.00 20.00     0.135 A 
HETATM    2  C2  UNL     1     -33.351   7.991   5.278  1.00 20.00     0.112 A 
HETATM    3  C3  UNL     1     -32.422   7.331   3.392  1.00 20.00     0.210 A 
HETATM    4  N9  UNL     1     -31.845   8.482   3.658  1.00 20.00    -0.255 NA
HETATM    5  N10 UNL     1     -33.343   6.992   4.344  1.00 20.00    -0.338 N 
ENDROOT
BRANCH   5   6
HETATM    6  C8  UNL     1     -34.182   5.759   4.362  1.00 20.00     0.047 C 
HETATM    7  C6  UNL     1     -35.691   6.025   4.130  1.00 20.00     0.043 C 
HETATM    8  C7  UNL     1     -33.713   4.840   3.208  1.00 20.00     0.043 C 
BRANCH   6   9
HETATM    9  C5  UNL     1     -34.096   5.120   5.748  1.00 20.00    -0.007 C 
HETATM   10  C4  UNL     1     -34.877   5.367   6.809  1.00 20.00     0.009 C 
ENDBRANCH   6   9
ENDBRANCH   5   6
TORSDOF 2
ENDMDL
MODEL 3
REMARK VINA RESULT:      -3.7     12.280     12.974
REMARK  2 active torsions:
REMARK  status: ('A' for Active; 'I' for Inactive)
REMARK    1  A    between atoms: C5_5  and  C8_8 
REMARK    2  A    between atoms: C8_8  and  N10_10 
ROOT
HETATM    1  C1  UNL     1     -32.151   8.627   3.995  1.00 20.00     0.135 A 
HETATM    2  C2  UNL     1     -32.689   7.424   3.604  1.00 20.00     0.112 A 
HETATM    3  C3  UNL     1     -33.441   8.039   5.583  1.00 20.00     0.210 A 
HETATM    4  N9  UNL     1     -32.621   9.004   5.227  1.00 20.00    -0.255 NA
HETATM    5  N10 UNL     1     -33.514   7.059   4.632  1.00 20.00    -0.338 N 
ENDROOT
BRANCH   5   6
HETATM    6  C8  UNL     1     -34.342   5.820   4.703  1.00 20.00     0.047 C 
HETATM    7  C6  UNL     1     -34.509   5.260   6.139  1.00 20.00     0.043 C 
HETATM    8  C7  UNL     1     -35.763   6.160   4.194  1.00 20.00     0.043 C 
BRANCH   6   9
HETATM    9  C5  UNL     1     -33.642   4.710   3.919  1.00 20.00    -0.007 C 
HETATM   10  C4  UNL     1     -33.269   4.732   2.632  1.00 20.00     0.009 C 
ENDBRANCH   6   9
ENDBRANCH   5   6
TORSDOF 2
ENDMDL
MODEL 4
REMARK VINA RESULT:      -3.6     12.130     12.780
REMARK  2 active torsions:
REMARK  status: ('A' for Active; 'I' for Inactive)
REMARK    1  A    between atoms: C5_5  and  C8_8 
REMARK    2  A    between atoms: C8_8  and  N10_10 
ROOT
HETATM    1  C1  UNL     1     -34.709   5.460   6.332  1.00 20.00     0.135 A 
HETATM    2  C2  UNL     1     -34.060   6.666   6.209  1.00 20.00     0.112 A 
HETATM    3  C3  UNL     1     -34.207   5.628   4.270  1.00 20.00     0.210 A 
HETATM    4  N9  UNL     1     -34.796   4.819   5.123  1.00 20.00    -0.255 NA
HETATM    5  N10 UNL     1     -33.744   6.760   4.882  1.00 20.00    -0.338 N 
ENDROOT
BRANCH   5   6
HETATM    6  C8  UNL     1     -33.026   7.890   4.222  1.00 20.00     0.047 C 
HETATM    7  C6  UNL     1     -33.967   8.934   3.570  1.00 20.00     0.043 C 
HETATM    8  C7  UNL     1     -32.214   8.642   5.304  1.00 20.00     0.043 C 
BRANCH   6   9
HETATM    9  C5  UNL     1     -32.183   7.337   3.073  1.00 20.00    -0.007 C 
HETATM   10  C4  UNL     1     -32.153   7.765   1.804  1.00 20.00     0.009 C 
ENDBRANCH   6   9
ENDBRANCH   5   6
TORSDOF 2
ENDMDL
MODEL 5
REMARK VINA RESULT:      -3.5     11.418     12.202
REMARK  2 active torsions:
REMARK  status: ('A' for Active; 'I' for Inactive)
REMARK    1  A    between atoms: C5_5  and  C8_8 
REMARK    2  A    between atoms: C8_8  and  N10_10 
ROOT
HETATM    1  C1  UNL     1     -40.660  16.311   8.265  1.00 20.00     0.135 A 
HETATM    2  C2  UNL     1     -41.184  15.726   7.137  1.00 20.00     0.112 A 
HETATM    3  C3  UNL     1     -40.301  14.225   8.487  1.00 20.00     0.210 A 
HETATM    4  N9  UNL     1     -40.111  15.372   9.101  1.00 20.00    -0.255 NA
HETATM    5  N10 UNL     1     -40.947  14.389   7.293  1.00 20.00    -0.338 N 
ENDROOT
BRANCH   5   6
HETATM    6  C8  UNL     1     -41.323  13.306   6.337  1.00 20.00     0.047 C 
HETATM    7  C6  UNL     1     -42.470  12.395   6.843  1.00 20.00     0.043 C 
HETATM    8  C7  UNL     1     -41.828  13.969   5.033  1.00 20.00     0.043 C 
BRANCH   6   9
HETATM    9  C5  UNL     1     -40.125  12.375   6.146  1.00 20.00    -0.007 C 
HETATM   10  C4  UNL     1     -39.554  12.008   4.991  1.00 20.00     0.009 C 
ENDBRANCH   6   9
ENDBRANCH   5   6
TORSDOF 2
ENDMDL
MODEL 6
REMARK VINA RESULT:      -3.5      2.840      4.900
REMARK  2 active torsions:
REMARK  status: ('A' for Active; 'I' for Inactive)
REMARK    1  A    between atoms: C5_5  and  C8_8 
REMARK    2  A    between atoms: C8_8  and  N10_10 
ROOT
HETATM    1  C1  UNL     1     -34.577  15.384  -5.567  1.00 20.00     0.135 A 
HETATM    2  C2  UNL     1     -34.825  16.633  -5.051  1.00 20.00     0.112 A 
HETATM    3  C3  UNL     1     -33.366  15.529  -3.823  1.00 20.00     0.210 A 
HETATM    4  N9  UNL     1     -33.669  14.701  -4.799  1.00 20.00    -0.255 NA
HETATM    5  N10 UNL     1     -34.042  16.712  -3.933  1.00 20.00    -0.338 N 
ENDROOT
BRANCH   5   6
HETATM    6  C8  UNL     1     -33.942  17.875  -3.004  1.00 20.00     0.047 C 
HETATM    7  C6  UNL     1     -32.951  18.970  -3.474  1.00 20.00     0.043 C 
HETATM    8  C7  UNL     1     -35.334  18.546  -2.920  1.00 20.00     0.043 C 
BRANCH   6   9
HETATM    9  C5  UNL     1     -33.396  17.391  -1.660  1.00 20.00    -0.007 C 
HETATM   10  C4  UNL     1     -33.764  17.795  -0.437  1.00 20.00     0.009 C 
ENDBRANCH   6   9
ENDBRANCH   5   6
TORSDOF 2
ENDMDL
MODEL 7
REMARK VINA RESULT:      -3.3      3.762      5.926
REMARK  2 active torsions:
REMARK  status: ('A' for Active; 'I' for Inactive)
REMARK    1  A    between atoms: C5_5  and  C8_8 
REMARK    2  A    between atoms: C8_8  and  N10_10 
ROOT
HETATM    1  C1  UNL     1     -34.897  16.002  -7.331  1.00 20.00     0.135 A 
HETATM    2  C2  UNL     1     -34.787  17.160  -6.598  1.00 20.00     0.112 A 
HETATM    3  C3  UNL     1     -34.366  15.383  -5.365  1.00 20.00     0.210 A 
HETATM    4  N9  UNL     1     -34.635  14.900  -6.558  1.00 20.00    -0.255 NA
HETATM    5  N10 UNL     1     -34.446  16.748  -5.340  1.00 20.00    -0.338 N 
ENDROOT
BRANCH   5   6
HETATM    6  C8  UNL     1     -34.204  17.625  -4.158  1.00 20.00     0.047 C 
HETATM    7  C6  UNL     1     -33.252  18.814  -4.444  1.00 20.00     0.043 C 
HETATM    8  C7  UNL     1     -35.559  18.237  -3.727  1.00 20.00     0.043 C 
BRANCH   6   9
HETATM    9  C5  UNL     1     -33.509  16.807  -3.068  1.00 20.00    -0.007 C 
HETATM   10  C4  UNL     1     -33.507  17.042  -1.749  1.00 20.00     0.009 C 
ENDBRANCH   6   9
ENDBRANCH   5   6
TORSDOF 2
ENDMDL
MODEL 8
REMARK VINA RESULT:      -3.2      3.406      5.187
REMARK  2 active torsions:
REMARK  status: ('A' for Active; 'I' for Inactive)
REMARK    1  A    between atoms: C5_5  and  C8_8 
REMARK    2  A    between atoms: C8_8  and  N10_10 
ROOT
HETATM    1  C1  UNL     1     -33.435  17.917  -3.353  1.00 20.00     0.135 A 
HETATM    2  C2  UNL     1     -34.230  17.640  -4.440  1.00 20.00     0.112 A 
HETATM    3  C3  UNL     1     -33.575  15.794  -3.430  1.00 20.00     0.210 A 
HETATM    4  N9  UNL     1     -33.030  16.764  -2.729  1.00 20.00    -0.255 NA
HETATM    5  N10 UNL     1     -34.311  16.276  -4.477  1.00 20.00    -0.338 N 
ENDROOT
BRANCH   5   6
HETATM    6  C8  UNL     1     -35.063  15.462  -5.476  1.00 20.00     0.047 C 
HETATM    7  C6  UNL     1     -35.533  14.087  -4.937  1.00 20.00     0.043 C 
HETATM    8  C7  UNL     1     -36.341  16.243  -5.869  1.00 20.00     0.043 C 
BRANCH   6   9
HETATM    9  C5  UNL     1     -34.138  15.138  -6.650  1.00 20.00    -0.007 C 
HETATM   10  C4  UNL     1     -34.043  15.789  -7.817  1.00 20.00     0.009 C 
ENDBRANCH   6   9
ENDBRANCH   5   6
TORSDOF 2
ENDMDL
MODEL 9
REMARK VINA RESULT:      -3.2     23.351     24.261
REMARK  2 active torsions:
REMARK  status: ('A' for Active; 'I' for Inactive)
REMARK    1  A    between atoms: C5_5  and  C8_8 
REMARK    2  A    between atoms: C8_8  and  N10_10 
ROOT
HETATM    1  C1  UNL     1     -24.041  -2.417  11.208  1.00 20.00     0.135 A 
HETATM    2  C2  UNL     1     -25.263  -2.704  10.648  1.00 20.00     0.112 A 
HETATM    3  C3  UNL     1     -25.375  -0.943  11.968  1.00 20.00     0.210 A 
HETATM    4  N9  UNL     1     -24.117  -1.321  12.029  1.00 20.00    -0.255 NA
HETATM    5  N10 UNL     1     -26.108  -1.751  11.144  1.00 20.00    -0.338 N 
ENDROOT
BRANCH   5   6
HETATM    6  C8  UNL     1     -27.564  -1.617  10.843  1.00 20.00     0.047 C 
HETATM    7  C6  UNL     1     -28.472  -1.686  12.096  1.00 20.00     0.043 C 
HETATM    8  C7  UNL     1     -27.797  -0.227  10.203  1.00 20.00     0.043 C 
BRANCH   6   9
HETATM    9  C5  UNL     1     -27.999  -2.793   9.967  1.00 20.00    -0.007 C 
HETATM   10  C4  UNL     1     -28.937  -3.710  10.241  1.00 20.00     0.009 C 
ENDBRANCH   6   9
ENDBRANCH   5   6
TORSDOF 2
ENDMDL
