MODEL 1
REMARK VINA RESULT:      -4.6      0.000      0.000
REMARK  1 active torsions:
REMARK  status: ('A' for Active; 'I' for Inactive)
REMARK    1  A    between atoms: C4_4  and  C5_5 
ROOT
HETATM    1  C1  UNL     1     -24.981  16.961  11.871  1.00 20.00    -0.022 C 
HETATM    2  C2  UNL     1     -24.150  16.418  10.958  1.00 20.00    -0.021 C 
HETATM    3  C3  UNL     1     -25.106  19.034  10.534  1.00 20.00    -0.006 C 
HETATM    4  C4  UNL     1     -24.271  18.487   9.632  1.00 20.00     0.009 C 
HETATM    5  C6  UNL     1     -23.442  18.818  12.332  1.00 20.00     0.013 C 
HETATM    6  C7  UNL     1     -22.477  18.187  11.274  1.00 20.00     0.014 C 
HETATM    7  C8  UNL     1     -24.911  18.483  11.945  1.00 20.00     0.031 C 
HETATM    8  C9  UNL     1     -23.316  17.445  10.195  1.00 20.00     0.045 C 
ENDROOT
BRANCH   4   9
HETATM    9  C5  UNL     1     -24.280  18.878   8.231  1.00 20.00     0.248 C 
HETATM   10  O10 UNL     1     -23.209  18.925   7.606  1.00 20.00    -0.274 OA
HETATM   11 CL11 UNL     1     -25.834  19.263   7.511  1.00 20.00    -0.039 Cl
ENDBRANCH   4   9
TORSDOF 1
ENDMDL
MODEL 2
REMARK VINA RESULT:      -4.2     17.658     18.367
REMARK  1 active torsions:
REMARK  status: ('A' for Active; 'I' for Inactive)
REMARK    1  A    between atoms: C4_4  and  C5_5 
ROOT
HETATM    1  C1  UNL     1     -43.417  13.591   6.011  1.00 20.00    -0.022 C 
HETATM    2  C2  UNL     1     -42.844  13.004   7.081  1.00 20.00    -0.021 C 
HETATM    3  C3  UNL     1     -41.243  13.594   4.838  1.00 20.00    -0.006 C 
HETATM    4  C4  UNL     1     -40.678  13.013   5.914  1.00 20.00     0.009 C 
HETATM    5  C6  UNL     1     -41.942  15.549   6.156  1.00 20.00     0.013 C 
HETATM    6  C7  UNL     1     -41.279  14.867   7.399  1.00 20.00     0.014 C 
HETATM    7  C8  UNL     1     -42.460  14.448   5.188  1.00 20.00     0.031 C 
HETATM    8  C9  UNL     1     -41.359  13.323   7.238  1.00 20.00     0.045 C 
ENDROOT
BRANCH   4   9
HETATM    9  C5  UNL     1     -39.500  12.167   5.807  1.00 20.00     0.248 C 
HETATM   10  O10 UNL     1     -38.902  11.824   6.839  1.00 20.00    -0.274 OA
HETATM   11 CL11 UNL     1     -38.999  11.683   4.196  1.00 20.00    -0.039 Cl
ENDBRANCH   4   9
TORSDOF 1
ENDMDL
MODEL 3
REMARK VINA RESULT:      -4.1     15.357     16.341
REMARK  1 active torsions:
REMARK  status: ('A' for Active; 'I' for Inactive)
REMARK    1  A    between atoms: C4_4  and  C5_5 
ROOT
HETATM    1  C1  UNL     1     -34.214   5.100   6.121  1.00 20.00    -0.022 C 
HETATM    2  C2  UNL     1     -34.110   6.412   6.416  1.00 20.00    -0.021 C 
HETATM    3  C3  UNL     1     -33.307   5.528   3.864  1.00 20.00    -0.006 C 
HETATM    4  C4  UNL     1     -33.212   6.836   4.165  1.00 20.00     0.009 C 
HETATM    5  C6  UNL     1     -35.737   5.530   4.243  1.00 20.00     0.013 C 
HETATM    6  C7  UNL     1     -35.616   7.052   4.588  1.00 20.00     0.014 C 
HETATM    7  C8  UNL     1     -34.414   4.813   4.636  1.00 20.00     0.031 C 
HETATM    8  C9  UNL     1     -34.213   7.328   5.200  1.00 20.00     0.045 C 
ENDROOT
BRANCH   4   9
HETATM    9  C5  UNL     1     -32.232   7.707   3.535  1.00 20.00     0.248 C 
HETATM   10  O10 UNL     1     -31.521   8.437   4.243  1.00 20.00    -0.274 OA
HETATM   11 CL11 UNL     1     -32.122   7.661   1.783  1.00 20.00    -0.039 Cl
ENDBRANCH   4   9
TORSDOF 1
ENDMDL
MODEL 4
REMARK VINA RESULT:      -3.9     16.926     18.720
REMARK  1 active torsions:
REMARK  status: ('A' for Active; 'I' for Inactive)
REMARK    1  A    between atoms: C4_4  and  C5_5 
ROOT
HETATM    1  C1  UNL     1     -35.006  15.484  -7.066  1.00 20.00    -0.022 C 
HETATM    2  C2  UNL     1     -33.824  15.125  -6.526  1.00 20.00    -0.021 C 
HETATM    3  C3  UNL     1     -35.505  16.860  -5.076  1.00 20.00    -0.006 C 
HETATM    4  C4  UNL     1     -34.326  16.491  -4.542  1.00 20.00     0.009 C 
HETATM    5  C6  UNL     1     -36.277  14.528  -5.195  1.00 20.00     0.013 C 
HETATM    6  C7  UNL     1     -34.905  14.111  -4.570  1.00 20.00     0.014 C 
HETATM    7  C8  UNL     1     -36.080  15.821  -6.037  1.00 20.00     0.031 C 
HETATM    8  C9  UNL     1     -33.815  15.133  -4.999  1.00 20.00     0.045 C 
ENDROOT
BRANCH   4   9
HETATM    9  C5  UNL     1     -33.610  17.329  -3.592  1.00 20.00     0.248 C 
HETATM   10  O10 UNL     1     -33.116  18.400  -3.977  1.00 20.00    -0.274 OA
HETATM   11 CL11 UNL     1     -33.496  16.754  -1.937  1.00 20.00    -0.039 Cl
ENDBRANCH   4   9
TORSDOF 1
ENDMDL
MODEL 5
REMARK VINA RESULT:      -3.9     17.541     18.295
REMARK  1 active torsions:
REMARK  status: ('A' for Active; 'I' for Inactive)
REMARK    1  A    between atoms: C4_4  and  C5_5 
ROOT
HETATM    1  C1  UNL     1     -42.262  15.449   5.955  1.00 20.00    -0.022 C 
HETATM    2  C2  UNL     1     -42.438  14.348   5.197  1.00 20.00    -0.021 C 
HETATM    3  C3  UNL     1     -40.435  14.324   7.180  1.00 20.00    -0.006 C 
HETATM    4  C4  UNL     1     -40.623  13.226   6.422  1.00 20.00     0.009 C 
HETATM    5  C6  UNL     1     -42.740  14.231   8.033  1.00 20.00     0.013 C 
HETATM    6  C7  UNL     1     -42.946  12.954   7.152  1.00 20.00     0.014 C 
HETATM    7  C8  UNL     1     -41.702  15.162   7.345  1.00 20.00     0.031 C 
HETATM    8  C9  UNL     1     -42.038  13.049   5.894  1.00 20.00     0.045 C 
ENDROOT
BRANCH   4   9
HETATM    9  C5  UNL     1     -39.550  12.283   6.148  1.00 20.00     0.248 C 
HETATM   10  O10 UNL     1     -38.850  11.868   7.085  1.00 20.00    -0.274 OA
HETATM   11 CL11 UNL     1     -39.320  11.787   4.480  1.00 20.00    -0.039 Cl
ENDBRANCH   4   9
TORSDOF 1
ENDMDL
MODEL 6
REMARK VINA RESULT:      -3.9     15.650     16.804
REMARK  1 active torsions:
REMARK  status: ('A' for Active; 'I' for Inactive)
REMARK    1  A    between atoms: C4_4  and  C5_5 
ROOT
HETATM    1  C1  UNL     1     -32.635  19.112  -2.329  1.00 20.00    -0.022 C 
HETATM    2  C2  UNL     1     -32.889  19.105  -3.654  1.00 20.00    -0.021 C 
HETATM    3  C3  UNL     1     -33.399  16.769  -2.162  1.00 20.00    -0.006 C 
HETATM    4  C4  UNL     1     -33.656  16.773  -3.483  1.00 20.00     0.009 C 
HETATM    5  C6  UNL     1     -34.973  18.617  -1.765  1.00 20.00     0.013 C 
HETATM    6  C7  UNL     1     -35.267  18.610  -3.303  1.00 20.00     0.014 C 
HETATM    7  C8  UNL     1     -33.508  18.154  -1.525  1.00 20.00     0.031 C 
HETATM    8  C9  UNL     1     -33.997  18.137  -4.064  1.00 20.00     0.045 C 
ENDROOT
BRANCH   4   9
HETATM    9  C5  UNL     1     -33.620  15.558  -4.282  1.00 20.00     0.248 C 
HETATM   10  O10 UNL     1     -32.627  14.816  -4.217  1.00 20.00    -0.274 OA
HETATM   11 CL11 UNL     1     -35.010  15.221  -5.300  1.00 20.00    -0.039 Cl
ENDBRANCH   4   9
TORSDOF 1
ENDMDL
MODEL 7
REMARK VINA RESULT:      -3.8     16.821     18.680
REMARK  1 active torsions:
REMARK  status: ('A' for Active; 'I' for Inactive)
REMARK    1  A    between atoms: C4_4  and  C5_5 
ROOT
HETATM    1  C1  UNL     1     -36.028  14.906  -5.525  1.00 20.00    -0.022 C 
HETATM    2  C2  UNL     1     -36.354  16.205  -5.367  1.00 20.00    -0.021 C 
HETATM    3  C3  UNL     1     -33.786  15.348  -4.587  1.00 20.00    -0.006 C 
HETATM    4  C4  UNL     1     -34.119  16.644  -4.438  1.00 20.00     0.009 C 
HETATM    5  C6  UNL     1     -34.153  15.445  -7.016  1.00 20.00     0.013 C 
HETATM    6  C7  UNL     1     -34.534  16.952  -6.833  1.00 20.00     0.014 C 
HETATM    7  C8  UNL     1     -34.536  14.663  -5.728  1.00 20.00     0.031 C 
HETATM    8  C9  UNL     1     -35.159  17.153  -5.424  1.00 20.00     0.045 C 
ENDROOT
BRANCH   4   9
HETATM    9  C5  UNL     1     -33.514  17.487  -3.419  1.00 20.00     0.248 C 
HETATM   10  O10 UNL     1     -32.993  18.563  -3.750  1.00 20.00    -0.274 OA
HETATM   11 CL11 UNL     1     -33.566  16.911  -1.762  1.00 20.00    -0.039 Cl
ENDBRANCH   4   9
TORSDOF 1
ENDMDL
MODEL 8
REMARK VINA RESULT:      -3.7     15.281     16.235
REMARK  1 active torsions:
REMARK  status: ('A' for Active; 'I' for Inactive)
REMARK    1  A    between atoms: C4_4  and  C5_5 
ROOT
HETATM    1  C1  UNL     1     -35.570   5.764   5.704  1.00 20.00    -0.022 C 
HETATM    2  C2  UNL     1     -35.542   5.982   4.373  1.00 20.00    -0.021 C 
HETATM    3  C3  UNL     1     -33.357   6.836   5.934  1.00 20.00    -0.006 C 
HETATM    4  C4  UNL     1     -33.334   7.043   4.604  1.00 20.00     0.009 C 
HETATM    5  C6  UNL     1     -33.530   4.401   5.636  1.00 20.00     0.013 C 
HETATM    6  C7  UNL     1     -33.498   4.653   4.092  1.00 20.00     0.014 C 
HETATM    7  C8  UNL     1     -34.191   5.621   6.338  1.00 20.00     0.031 C 
HETATM    8  C9  UNL     1     -34.133   6.039   3.787  1.00 20.00     0.045 C 
ENDROOT
BRANCH   4   9
HETATM    9  C5  UNL     1     -32.589   8.139   4.004  1.00 20.00     0.248 C 
HETATM   10  O10 UNL     1     -32.297   9.127   4.696  1.00 20.00    -0.274 OA
HETATM   11 CL11 UNL     1     -32.146   7.981   2.313  1.00 20.00    -0.039 Cl
ENDBRANCH   4   9
TORSDOF 1
ENDMDL
MODEL 9
REMARK VINA RESULT:      -3.7     17.712     19.611
REMARK  1 active torsions:
REMARK  status: ('A' for Active; 'I' for Inactive)
REMARK    1  A    between atoms: C4_4  and  C5_5 
ROOT
HETATM    1  C1  UNL     1     -34.408  17.261  -7.750  1.00 20.00    -0.022 C 
HETATM    2  C2  UNL     1     -33.931  16.000  -7.761  1.00 20.00    -0.021 C 
HETATM    3  C3  UNL     1     -34.759  17.115  -5.310  1.00 20.00    -0.006 C 
HETATM    4  C4  UNL     1     -34.288  15.854  -5.331  1.00 20.00     0.009 C 
HETATM    5  C6  UNL     1     -36.583  16.550  -6.860  1.00 20.00     0.013 C 
HETATM    6  C7  UNL     1     -36.030  15.086  -6.875  1.00 20.00     0.014 C 
HETATM    7  C8  UNL     1     -35.404  17.537  -6.628  1.00 20.00     0.031 C 
HETATM    8  C9  UNL     1     -34.492  15.119  -6.647  1.00 20.00     0.045 C 
ENDROOT
BRANCH   4   9
HETATM    9  C5  UNL     1     -33.648  15.246  -4.175  1.00 20.00     0.248 C 
HETATM   10  O10 UNL     1     -33.312  14.053  -4.223  1.00 20.00    -0.274 OA
HETATM   11 CL11 UNL     1     -33.390  16.265  -2.769  1.00 20.00    -0.039 Cl
ENDBRANCH   4   9
TORSDOF 1
ENDMDL
