MODEL 1
REMARK VINA RESULT:      -4.4      0.000      0.000
REMARK  3 active torsions:
REMARK  status: ('A' for Active; 'I' for Inactive)
REMARK    1  A    between atoms: C3_3  and  C7_7 
REMARK    2  A    between atoms: C4_4  and  O11_11 
REMARK    3  A    between atoms: C7_7  and  C8_8 
ROOT
HETATM    1  C1  UNL     1     -32.648  19.258  -1.946  1.00 20.00     0.180 C 
HETATM    2  C2  UNL     1     -33.826  18.453   0.099  1.00 20.00     0.180 C 
HETATM    3  C3  UNL     1     -33.749  18.331  -1.425  1.00 20.00     0.034 C 
HETATM    4  C4  UNL     1     -31.576  19.152   0.151  1.00 20.00     0.412 C 
HETATM    5  O9  UNL     1     -31.418  19.013  -1.264  1.00 20.00    -0.339 OA
HETATM    6  O10 UNL     1     -32.542  18.245   0.689  1.00 20.00    -0.339 OA
ENDROOT
BRANCH   3   7
HETATM    7  C7  UNL     1     -33.467  16.881  -1.833  1.00 20.00     0.008 C 
BRANCH   7   8
HETATM    8  C8  UNL     1     -33.270  16.755  -3.342  1.00 20.00    -0.004 C 
HETATM    9  C5  UNL     1     -33.583  15.349  -3.828  1.00 20.00     0.005 C 
ENDBRANCH   7   8
ENDBRANCH   3   7
BRANCH   4  10
HETATM   10  O11 UNL     1     -30.319  18.949   0.796  1.00 20.00    -0.344 OA
HETATM   11  C6  UNL     1     -30.490  18.568   2.152  1.00 20.00     0.207 C 
ENDBRANCH   4  10
TORSDOF 3
ENDMDL
MODEL 2
REMARK VINA RESULT:      -4.2     11.854     13.026
REMARK  3 active torsions:
REMARK  status: ('A' for Active; 'I' for Inactive)
REMARK    1  A    between atoms: C3_3  and  C7_7 
REMARK    2  A    between atoms: C4_4  and  O11_11 
REMARK    3  A    between atoms: C7_7  and  C8_8 
ROOT
HETATM    1  C1  UNL     1     -40.418  14.281   6.963  1.00 20.00     0.180 C 
HETATM    2  C2  UNL     1     -42.548  13.029   6.624  1.00 20.00     0.180 C 
HETATM    3  C3  UNL     1     -41.137  13.262   6.076  1.00 20.00     0.034 C 
HETATM    4  C4  UNL     1     -41.819  13.692   8.765  1.00 20.00     0.412 C 
HETATM    5  O9  UNL     1     -40.468  13.883   8.333  1.00 20.00    -0.339 OA
HETATM    6  O10 UNL     1     -42.502  12.688   8.010  1.00 20.00    -0.339 OA
ENDROOT
BRANCH   3   7
HETATM    7  C7  UNL     1     -40.356  11.944   6.032  1.00 20.00     0.008 C 
BRANCH   7   8
HETATM    8  C8  UNL     1     -38.974  12.137   5.412  1.00 20.00    -0.004 C 
HETATM    9  C5  UNL     1     -38.943  11.669   3.966  1.00 20.00     0.005 C 
ENDBRANCH   7   8
ENDBRANCH   3   7
BRANCH   4  10
HETATM   10  O11 UNL     1     -41.834  13.343  10.150  1.00 20.00    -0.344 OA
HETATM   11  C6  UNL     1     -40.978  14.186  10.904  1.00 20.00     0.207 C 
ENDBRANCH   4  10
TORSDOF 3
ENDMDL
MODEL 3
REMARK VINA RESULT:      -3.8      4.010      6.319
REMARK  3 active torsions:
REMARK  status: ('A' for Active; 'I' for Inactive)
REMARK    1  A    between atoms: C3_3  and  C7_7 
REMARK    2  A    between atoms: C4_4  and  O11_11 
REMARK    3  A    between atoms: C7_7  and  C8_8 
ROOT
HETATM    1  C1  UNL     1     -34.137  17.162  -4.830  1.00 20.00     0.180 C 
HETATM    2  C2  UNL     1     -33.471  14.780  -4.513  1.00 20.00     0.180 C 
HETATM    3  C3  UNL     1     -33.281  16.208  -3.994  1.00 20.00     0.034 C 
HETATM    4  C4  UNL     1     -35.581  15.380  -5.374  1.00 20.00     0.412 C 
HETATM    5  O9  UNL     1     -35.493  16.718  -4.874  1.00 20.00    -0.339 OA
HETATM    6  O10 UNL     1     -34.857  14.443  -4.572  1.00 20.00    -0.339 OA
ENDROOT
BRANCH   3   7
HETATM    7  C7  UNL     1     -33.670  16.295  -2.514  1.00 20.00     0.008 C 
BRANCH   7   8
HETATM    8  C8  UNL     1     -33.005  17.489  -1.833  1.00 20.00    -0.004 C 
HETATM    9  C5  UNL     1     -33.717  17.860  -0.542  1.00 20.00     0.005 C 
ENDBRANCH   7   8
ENDBRANCH   3   7
BRANCH   4  10
HETATM   10  O11 UNL     1     -36.951  14.987  -5.450  1.00 20.00    -0.344 OA
HETATM   11  C6  UNL     1     -37.817  16.101  -5.302  1.00 20.00     0.207 C 
ENDBRANCH   4  10
TORSDOF 3
ENDMDL
MODEL 4
REMARK VINA RESULT:      -3.8      2.019      4.814
REMARK  3 active torsions:
REMARK  status: ('A' for Active; 'I' for Inactive)
REMARK    1  A    between atoms: C3_3  and  C7_7 
REMARK    2  A    between atoms: C4_4  and  O11_11 
REMARK    3  A    between atoms: C7_7  and  C8_8 
ROOT
HETATM    1  C1  UNL     1     -33.882  17.833  -0.765  1.00 20.00     0.180 C 
HETATM    2  C2  UNL     1     -32.905  19.138  -2.652  1.00 20.00     0.180 C 
HETATM    3  C3  UNL     1     -32.871  18.921  -1.137  1.00 20.00     0.034 C 
HETATM    4  C4  UNL     1     -33.719  16.945  -2.942  1.00 20.00     0.412 C 
HETATM    5  O9  UNL     1     -33.667  16.656  -1.542  1.00 20.00    -0.339 OA
HETATM    6  O10 UNL     1     -32.734  17.901  -3.345  1.00 20.00    -0.339 OA
ENDROOT
BRANCH   3   7
HETATM    7  C7  UNL     1     -31.463  18.521  -0.685  1.00 20.00     0.008 C 
BRANCH   7   8
HETATM    8  C8  UNL     1     -31.098  19.175   0.645  1.00 20.00    -0.004 C 
HETATM    9  C5  UNL     1     -30.668  18.142   1.674  1.00 20.00     0.005 C 
ENDBRANCH   7   8
ENDBRANCH   3   7
BRANCH   4  10
HETATM   10  O11 UNL     1     -33.549  15.740  -3.688  1.00 20.00    -0.344 OA
HETATM   11  C6  UNL     1     -34.255  15.789  -4.917  1.00 20.00     0.207 C 
ENDBRANCH   4  10
TORSDOF 3
ENDMDL
MODEL 5
REMARK VINA RESULT:      -3.7      4.650      6.939
REMARK  3 active torsions:
REMARK  status: ('A' for Active; 'I' for Inactive)
REMARK    1  A    between atoms: C3_3  and  C7_7 
REMARK    2  A    between atoms: C4_4  and  O11_11 
REMARK    3  A    between atoms: C7_7  and  C8_8 
ROOT
HETATM    1  C1  UNL     1     -34.713  16.656  -5.877  1.00 20.00     0.180 C 
HETATM    2  C2  UNL     1     -35.806  14.420  -6.025  1.00 20.00     0.180 C 
HETATM    3  C3  UNL     1     -34.520  15.156  -5.641  1.00 20.00     0.034 C 
HETATM    4  C4  UNL     1     -37.043  16.388  -5.634  1.00 20.00     0.412 C 
HETATM    5  O9  UNL     1     -35.889  17.124  -5.217  1.00 20.00    -0.339 OA
HETATM    6  O10 UNL     1     -36.933  14.989  -5.358  1.00 20.00    -0.339 OA
ENDROOT
BRANCH   3   7
HETATM    7  C7  UNL     1     -34.165  14.885  -4.175  1.00 20.00     0.008 C 
BRANCH   7   8
HETATM    8  C8  UNL     1     -33.069  15.828  -3.685  1.00 20.00    -0.004 C 
HETATM    9  C5  UNL     1     -33.485  16.550  -2.413  1.00 20.00     0.005 C 
ENDBRANCH   7   8
ENDBRANCH   3   7
BRANCH   4  10
HETATM   10  O11 UNL     1     -38.204  16.913  -4.993  1.00 20.00    -0.344 OA
HETATM   11  C6  UNL     1     -39.074  15.875  -4.570  1.00 20.00     0.207 C 
ENDBRANCH   4  10
TORSDOF 3
ENDMDL
MODEL 6
REMARK VINA RESULT:      -3.6      3.368      5.763
REMARK  3 active torsions:
REMARK  status: ('A' for Active; 'I' for Inactive)
REMARK    1  A    between atoms: C3_3  and  C7_7 
REMARK    2  A    between atoms: C4_4  and  O11_11 
REMARK    3  A    between atoms: C7_7  and  C8_8 
ROOT
HETATM    1  C1  UNL     1     -33.775  18.113  -3.926  1.00 20.00     0.180 C 
HETATM    2  C2  UNL     1     -32.892  15.791  -3.714  1.00 20.00     0.180 C 
HETATM    3  C3  UNL     1     -33.009  17.149  -3.017  1.00 20.00     0.034 C 
HETATM    4  C4  UNL     1     -34.820  16.281  -4.978  1.00 20.00     0.412 C 
HETATM    5  O9  UNL     1     -35.019  17.542  -4.334  1.00 20.00    -0.339 OA
HETATM    6  O10 UNL     1     -34.176  15.325  -4.132  1.00 20.00    -0.339 OA
ENDROOT
BRANCH   3   7
HETATM    7  C7  UNL     1     -33.723  17.000  -1.670  1.00 20.00     0.008 C 
BRANCH   7   8
HETATM    8  C8  UNL     1     -33.309  18.100  -0.695  1.00 20.00    -0.004 C 
HETATM    9  C5  UNL     1     -31.810  18.349  -0.742  1.00 20.00     0.005 C 
ENDBRANCH   7   8
ENDBRANCH   3   7
BRANCH   4  10
HETATM   10  O11 UNL     1     -36.076  15.763  -5.416  1.00 20.00    -0.344 OA
HETATM   11  C6  UNL     1     -35.905  14.618  -6.237  1.00 20.00     0.207 C 
ENDBRANCH   4  10
TORSDOF 3
ENDMDL
MODEL 7
REMARK VINA RESULT:      -3.6     10.864     11.717
REMARK  3 active torsions:
REMARK  status: ('A' for Active; 'I' for Inactive)
REMARK    1  A    between atoms: C3_3  and  C7_7 
REMARK    2  A    between atoms: C4_4  and  O11_11 
REMARK    3  A    between atoms: C7_7  and  C8_8 
ROOT
HETATM    1  C1  UNL     1     -32.400   6.943   3.330  1.00 20.00     0.180 C 
HETATM    2  C2  UNL     1     -32.150   8.982   4.743  1.00 20.00     0.180 C 
HETATM    3  C3  UNL     1     -32.191   8.459   3.305  1.00 20.00     0.034 C 
HETATM    4  C4  UNL     1     -33.418   7.125   5.449  1.00 20.00     0.412 C 
HETATM    5  O9  UNL     1     -33.538   6.603   4.122  1.00 20.00    -0.339 OA
HETATM    6  O10 UNL     1     -33.300   8.550   5.471  1.00 20.00    -0.339 OA
ENDROOT
BRANCH   3   7
HETATM    7  C7  UNL     1     -33.314   9.142   2.518  1.00 20.00     0.008 C 
BRANCH   7   8
HETATM    8  C8  UNL     1     -32.777   9.833   1.267  1.00 20.00    -0.004 C 
HETATM    9  C5  UNL     1     -32.638   8.857   0.109  1.00 20.00     0.005 C 
ENDBRANCH   7   8
ENDBRANCH   3   7
BRANCH   4  10
HETATM   10  O11 UNL     1     -34.547   6.726   6.225  1.00 20.00    -0.344 OA
HETATM   11  C6  UNL     1     -34.756   5.324   6.150  1.00 20.00     0.207 C 
ENDBRANCH   4  10
TORSDOF 3
ENDMDL
MODEL 8
REMARK VINA RESULT:      -3.5     11.090     12.036
REMARK  3 active torsions:
REMARK  status: ('A' for Active; 'I' for Inactive)
REMARK    1  A    between atoms: C3_3  and  C7_7 
REMARK    2  A    between atoms: C4_4  and  O11_11 
REMARK    3  A    between atoms: C7_7  and  C8_8 
ROOT
HETATM    1  C1  UNL     1     -32.346   8.471   4.287  1.00 20.00     0.180 C 
HETATM    2  C2  UNL     1     -32.482   6.135   3.425  1.00 20.00     0.180 C 
HETATM    3  C3  UNL     1     -32.974   7.093   4.512  1.00 20.00     0.034 C 
HETATM    4  C4  UNL     1     -32.080   7.968   1.999  1.00 20.00     0.412 C 
HETATM    5  O9  UNL     1     -32.572   8.917   2.950  1.00 20.00    -0.339 OA
HETATM    6  O10 UNL     1     -32.703   6.687   2.126  1.00 20.00    -0.339 OA
ENDROOT
BRANCH   3   7
HETATM    7  C7  UNL     1     -34.503   7.192   4.487  1.00 20.00     0.008 C 
BRANCH   7   8
HETATM    8  C8  UNL     1     -35.153   5.869   4.887  1.00 20.00    -0.004 C 
HETATM    9  C5  UNL     1     -34.658   5.395   6.244  1.00 20.00     0.005 C 
ENDBRANCH   7   8
ENDBRANCH   3   7
BRANCH   4  10
HETATM   10  O11 UNL     1     -32.278   8.467   0.677  1.00 20.00    -0.344 OA
HETATM   11  C6  UNL     1     -32.908   9.739   0.694  1.00 20.00     0.207 C 
ENDBRANCH   4  10
TORSDOF 3
ENDMDL
MODEL 9
REMARK VINA RESULT:      -3.4     10.967     12.052
REMARK  3 active torsions:
REMARK  status: ('A' for Active; 'I' for Inactive)
REMARK    1  A    between atoms: C3_3  and  C7_7 
REMARK    2  A    between atoms: C4_4  and  O11_11 
REMARK    3  A    between atoms: C7_7  and  C8_8 
ROOT
HETATM    1  C1  UNL     1     -42.691  13.865   6.555  1.00 20.00     0.180 C 
HETATM    2  C2  UNL     1     -40.464  13.999   7.668  1.00 20.00     0.180 C 
HETATM    3  C3  UNL     1     -41.344  13.162   6.737  1.00 20.00     0.034 C 
HETATM    4  C4  UNL     1     -41.675  15.930   7.068  1.00 20.00     0.412 C 
HETATM    5  O9  UNL     1     -42.503  15.219   6.143  1.00 20.00    -0.339 OA
HETATM    6  O10 UNL     1     -40.376  15.347   7.206  1.00 20.00    -0.339 OA
ENDROOT
BRANCH   3   7
HETATM    7  C7  UNL     1     -40.654  12.966   5.382  1.00 20.00     0.008 C 
BRANCH   7   8
HETATM    8  C8  UNL     1     -39.490  11.983   5.486  1.00 20.00    -0.004 C 
HETATM    9  C5  UNL     1     -38.947  11.617   4.115  1.00 20.00     0.005 C 
ENDBRANCH   7   8
ENDBRANCH   3   7
BRANCH   4  10
HETATM   10  O11 UNL     1     -41.548  17.289   6.652  1.00 20.00    -0.344 OA
HETATM   11  C6  UNL     1     -40.628  17.995   7.469  1.00 20.00     0.207 C 
ENDBRANCH   4  10
TORSDOF 3
ENDMDL
