MODEL 1
REMARK VINA RESULT:      -3.8      0.000      0.000
REMARK  1 active torsions:
REMARK  status: ('A' for Active; 'I' for Inactive)
REMARK    1  A    between atoms: C2_2  and  C7_7 
ROOT
HETATM    1  C1  UNL     1     -34.601  16.965  -7.242  1.00 20.00     0.132 C 
HETATM    2  C3  UNL     1     -35.141  15.652  -7.773  1.00 20.00     0.084 C 
HETATM    3  C4  UNL     1     -35.912  16.948  -5.207  1.00 20.00     0.013 C 
HETATM    4  C5  UNL     1     -36.513  15.602  -5.662  1.00 20.00     0.007 C 
HETATM    5  C6  UNL     1     -34.472  16.873  -5.732  1.00 20.00     0.068 C 
HETATM    6  C7  UNL     1     -34.118  15.388  -5.631  1.00 20.00     0.088 C 
HETATM    7  C8  UNL     1     -35.348  14.927  -6.422  1.00 20.00     0.006 C 
HETATM    8  O9  UNL     1     -34.345  17.949  -7.918  1.00 20.00    -0.298 OA
ENDROOT
BRANCH   6   9
HETATM    9  C2  UNL     1     -34.038  14.858  -4.233  1.00 20.00     0.224 C 
HETATM   10  O10 UNL     1     -34.397  13.718  -3.955  1.00 20.00    -0.279 OA
HETATM   11 CL11 UNL     1     -33.396  16.031  -3.125  1.00 20.00    -0.043 Cl
ENDBRANCH   6   9
TORSDOF 1
ENDMDL
MODEL 2
REMARK VINA RESULT:      -3.8      1.630      2.319
REMARK  1 active torsions:
REMARK  status: ('A' for Active; 'I' for Inactive)
REMARK    1  A    between atoms: C2_2  and  C7_7 
ROOT
HETATM    1  C1  UNL     1     -35.831  14.949  -6.714  1.00 20.00     0.132 C 
HETATM    2  C3  UNL     1     -36.647  15.858  -5.817  1.00 20.00     0.084 C 
HETATM    3  C4  UNL     1     -33.872  16.370  -6.765  1.00 20.00     0.013 C 
HETATM    4  C5  UNL     1     -34.622  17.355  -5.844  1.00 20.00     0.007 C 
HETATM    5  C6  UNL     1     -34.376  15.003  -6.283  1.00 20.00     0.068 C 
HETATM    6  C7  UNL     1     -34.597  15.198  -4.783  1.00 20.00     0.088 C 
HETATM    7  C8  UNL     1     -35.492  16.430  -4.961  1.00 20.00     0.006 C 
HETATM    8  O9  UNL     1     -36.269  14.304  -7.654  1.00 20.00    -0.298 OA
ENDROOT
BRANCH   6   9
HETATM    9  C2  UNL     1     -33.349  15.439  -3.992  1.00 20.00     0.224 C 
HETATM   10  O10 UNL     1     -32.291  14.883  -4.271  1.00 20.00    -0.279 OA
HETATM   11 CL11 UNL     1     -33.606  16.560  -2.691  1.00 20.00    -0.043 Cl
ENDBRANCH   6   9
TORSDOF 1
ENDMDL
MODEL 3
REMARK VINA RESULT:      -3.6     13.043     14.146
REMARK  1 active torsions:
REMARK  status: ('A' for Active; 'I' for Inactive)
REMARK    1  A    between atoms: C2_2  and  C7_7 
ROOT
HETATM    1  C1  UNL     1     -41.512  13.952   4.628  1.00 20.00     0.132 C 
HETATM    2  C3  UNL     1     -40.622  12.759   4.914  1.00 20.00     0.084 C 
HETATM    3  C4  UNL     1     -43.012  13.574   6.490  1.00 20.00     0.013 C 
HETATM    4  C5  UNL     1     -42.160  12.344   6.865  1.00 20.00     0.007 C 
HETATM    5  C6  UNL     1     -41.968  14.557   5.943  1.00 20.00     0.068 C 
HETATM    6  C7  UNL     1     -40.714  14.262   6.768  1.00 20.00     0.088 C 
HETATM    7  C8  UNL     1     -40.727  12.760   6.458  1.00 20.00     0.006 C 
HETATM    8  O9  UNL     1     -41.838  14.340   3.517  1.00 20.00    -0.298 OA
ENDROOT
BRANCH   6   9
HETATM    9  C2  UNL     1     -40.826  14.602   8.221  1.00 20.00     0.224 C 
HETATM   10  O10 UNL     1     -40.348  13.880   9.091  1.00 20.00    -0.279 OA
HETATM   11 CL11 UNL     1     -41.688  16.088   8.481  1.00 20.00    -0.043 Cl
ENDBRANCH   6   9
TORSDOF 1
ENDMDL
MODEL 4
REMARK VINA RESULT:      -3.6     13.521     14.096
REMARK  1 active torsions:
REMARK  status: ('A' for Active; 'I' for Inactive)
REMARK    1  A    between atoms: C2_2  and  C7_7 
ROOT
HETATM    1  C1  UNL     1     -41.674  15.448   6.827  1.00 20.00     0.132 C 
HETATM    2  C3  UNL     1     -42.259  15.030   5.492  1.00 20.00     0.084 C 
HETATM    3  C4  UNL     1     -41.924  13.283   7.879  1.00 20.00     0.013 C 
HETATM    4  C5  UNL     1     -42.525  12.763   6.556  1.00 20.00     0.007 C 
HETATM    5  C6  UNL     1     -40.873  14.294   7.401  1.00 20.00     0.068 C 
HETATM    6  C7  UNL     1     -40.363  13.703   6.086  1.00 20.00     0.088 C 
HETATM    7  C8  UNL     1     -41.763  13.564   5.475  1.00 20.00     0.006 C 
HETATM    8  O9  UNL     1     -41.850  16.529   7.368  1.00 20.00    -0.298 OA
ENDROOT
BRANCH   6   9
HETATM    9  C2  UNL     1     -39.611  12.417   6.227  1.00 20.00     0.224 C 
HETATM   10  O10 UNL     1     -39.075  12.096   7.283  1.00 20.00    -0.279 OA
HETATM   11 CL11 UNL     1     -39.606  11.497   4.754  1.00 20.00    -0.043 Cl
ENDBRANCH   6   9
TORSDOF 1
ENDMDL
MODEL 5
REMARK VINA RESULT:      -3.5     12.715     13.850
REMARK  1 active torsions:
REMARK  status: ('A' for Active; 'I' for Inactive)
REMARK    1  A    between atoms: C2_2  and  C7_7 
ROOT
HETATM    1  C1  UNL     1     -41.017   7.762   0.274  1.00 20.00     0.132 C 
HETATM    2  C3  UNL     1     -40.708   6.637  -0.693  1.00 20.00     0.084 C 
HETATM    3  C4  UNL     1     -43.414   7.428   0.263  1.00 20.00     0.013 C 
HETATM    4  C5  UNL     1     -43.198   6.259  -0.720  1.00 20.00     0.007 C 
HETATM    5  C6  UNL     1     -42.174   7.348   1.164  1.00 20.00     0.068 C 
HETATM    6  C7  UNL     1     -41.869   5.852   1.242  1.00 20.00     0.088 C 
HETATM    7  C8  UNL     1     -41.840   5.665  -0.281  1.00 20.00     0.006 C 
HETATM    8  O9  UNL     1     -40.447   8.842   0.306  1.00 20.00    -0.298 OA
ENDROOT
BRANCH   6   9
HETATM    9  C2  UNL     1     -42.905   5.038   1.952  1.00 20.00     0.224 C 
HETATM   10  O10 UNL     1     -43.417   5.419   3.000  1.00 20.00    -0.279 OA
HETATM   11 CL11 UNL     1     -43.253   3.553   1.121  1.00 20.00    -0.043 Cl
ENDBRANCH   6   9
TORSDOF 1
ENDMDL
MODEL 6
REMARK VINA RESULT:      -3.5      1.548      3.364
REMARK  1 active torsions:
REMARK  status: ('A' for Active; 'I' for Inactive)
REMARK    1  A    between atoms: C2_2  and  C7_7 
ROOT
HETATM    1  C1  UNL     1     -35.503  13.962  -4.701  1.00 20.00     0.132 C 
HETATM    2  C3  UNL     1     -36.056  14.658  -5.928  1.00 20.00     0.084 C 
HETATM    3  C4  UNL     1     -33.201  14.601  -5.089  1.00 20.00     0.013 C 
HETATM    4  C5  UNL     1     -33.672  15.346  -6.356  1.00 20.00     0.007 C 
HETATM    5  C6  UNL     1     -34.376  14.799  -4.123  1.00 20.00     0.068 C 
HETATM    6  C7  UNL     1     -34.922  16.182  -4.480  1.00 20.00     0.088 C 
HETATM    7  C8  UNL     1     -35.079  15.857  -5.971  1.00 20.00     0.006 C 
HETATM    8  O9  UNL     1     -35.881  12.884  -4.268  1.00 20.00    -0.298 OA
ENDROOT
BRANCH   6   9
HETATM    9  C2  UNL     1     -33.994  17.318  -4.182  1.00 20.00     0.224 C 
HETATM   10  O10 UNL     1     -33.898  18.285  -4.931  1.00 20.00    -0.279 OA
HETATM   11 CL11 UNL     1     -33.120  17.076  -2.701  1.00 20.00    -0.043 Cl
ENDBRANCH   6   9
TORSDOF 1
ENDMDL
MODEL 7
REMARK VINA RESULT:      -3.3     12.596     14.090
REMARK  1 active torsions:
REMARK  status: ('A' for Active; 'I' for Inactive)
REMARK    1  A    between atoms: C2_2  and  C7_7 
ROOT
HETATM    1  C1  UNL     1     -41.910   4.735   1.467  1.00 20.00     0.132 C 
HETATM    2  C3  UNL     1     -43.362   4.603   1.051  1.00 20.00     0.084 C 
HETATM    3  C4  UNL     1     -41.119   5.501  -0.688  1.00 20.00     0.013 C 
HETATM    4  C5  UNL     1     -42.572   5.406  -1.201  1.00 20.00     0.007 C 
HETATM    5  C6  UNL     1     -41.303   5.939   0.772  1.00 20.00     0.068 C 
HETATM    6  C7  UNL     1     -42.547   6.827   0.739  1.00 20.00     0.088 C 
HETATM    7  C8  UNL     1     -43.417   5.774   0.041  1.00 20.00     0.006 C 
HETATM    8  O9  UNL     1     -41.318   3.973   2.215  1.00 20.00    -0.298 OA
ENDROOT
BRANCH   6   9
HETATM    9  C2  UNL     1     -42.384   8.106  -0.020  1.00 20.00     0.224 C 
HETATM   10  O10 UNL     1     -43.329   8.644  -0.589  1.00 20.00    -0.279 OA
HETATM   11 CL11 UNL     1     -40.747   8.686   0.019  1.00 20.00    -0.043 Cl
ENDBRANCH   6   9
TORSDOF 1
ENDMDL
MODEL 8
REMARK VINA RESULT:      -3.3     13.130     14.527
REMARK  1 active torsions:
REMARK  status: ('A' for Active; 'I' for Inactive)
REMARK    1  A    between atoms: C2_2  and  C7_7 
ROOT
HETATM    1  C1  UNL     1     -34.487   5.659   6.223  1.00 20.00     0.132 C 
HETATM    2  C3  UNL     1     -33.853   7.022   6.416  1.00 20.00     0.084 C 
HETATM    3  C4  UNL     1     -35.545   6.190   4.112  1.00 20.00     0.013 C 
HETATM    4  C5  UNL     1     -34.935   7.604   4.217  1.00 20.00     0.007 C 
HETATM    5  C6  UNL     1     -34.464   5.305   4.747  1.00 20.00     0.068 C 
HETATM    6  C7  UNL     1     -33.153   5.998   4.374  1.00 20.00     0.088 C 
HETATM    7  C8  UNL     1     -33.585   7.361   4.930  1.00 20.00     0.006 C 
HETATM    8  O9  UNL     1     -34.969   4.972   7.110  1.00 20.00    -0.298 OA
ENDROOT
BRANCH   6   9
HETATM    9  C2  UNL     1     -32.834   5.991   2.912  1.00 20.00     0.224 C 
HETATM   10  O10 UNL     1     -33.030   5.000   2.214  1.00 20.00    -0.279 OA
HETATM   11 CL11 UNL     1     -32.180   7.508   2.377  1.00 20.00    -0.043 Cl
ENDBRANCH   6   9
TORSDOF 1
ENDMDL
MODEL 9
REMARK VINA RESULT:      -3.3     25.046     25.935
REMARK  1 active torsions:
REMARK  status: ('A' for Active; 'I' for Inactive)
REMARK    1  A    between atoms: C2_2  and  C7_7 
ROOT
HETATM    1  C1  UNL     1     -27.073  -0.823  11.600  1.00 20.00     0.132 C 
HETATM    2  C3  UNL     1     -26.498  -2.020  12.331  1.00 20.00     0.084 C 
HETATM    3  C4  UNL     1     -28.089  -2.106   9.817  1.00 20.00     0.013 C 
HETATM    4  C5  UNL     1     -27.549  -3.384  10.494  1.00 20.00     0.007 C 
HETATM    5  C6  UNL     1     -28.420  -1.202  11.012  1.00 20.00     0.068 C 
HETATM    6  C7  UNL     1     -28.870  -2.178  12.100  1.00 20.00     0.088 C 
HETATM    7  C8  UNL     1     -27.609  -3.045  12.001  1.00 20.00     0.006 C 
HETATM    8  O9  UNL     1     -26.524   0.260  11.477  1.00 20.00    -0.298 OA
ENDROOT
BRANCH   6   9
HETATM    9  C2  UNL     1     -30.149  -2.897  11.807  1.00 20.00     0.224 C 
HETATM   10  O10 UNL     1     -31.093  -2.337  11.257  1.00 20.00    -0.279 OA
HETATM   11 CL11 UNL     1     -30.104  -4.552  12.332  1.00 20.00    -0.043 Cl
ENDBRANCH   6   9
TORSDOF 1
ENDMDL
