MODEL 1
REMARK VINA RESULT:      -4.6      0.000      0.000
REMARK  2 active torsions:
REMARK  status: ('A' for Active; 'I' for Inactive)
REMARK    1  A    between atoms: C2_2  and  C5_5 
REMARK    2  A    between atoms: C2_2  and  C9_9 
ROOT
HETATM    1  C1  UNL     1     -32.782   6.754   3.285  1.00 20.00     0.225 C 
HETATM    2  C2  UNL     1     -33.367   6.662   4.449  1.00 20.00    -0.014 C 
HETATM    3  O10 UNL     1     -32.257   6.836   2.236  1.00 20.00    -0.284 OA
ENDROOT
BRANCH   2   4
HETATM    4  C5  UNL     1     -32.997   7.712   5.426  1.00 20.00     0.019 A 
HETATM    5  C3  UNL     1     -32.353   8.955   4.912  1.00 20.00     0.010 A 
HETATM    6  C4  UNL     1     -33.767   8.990   5.409  1.00 20.00     0.010 A 
ENDBRANCH   2   4
BRANCH   2   7
HETATM    7  C9  UNL     1     -34.410   5.603   4.823  1.00 20.00    -0.024 C 
HETATM    8  C6  UNL     1     -33.983   4.240   4.247  1.00 20.00     0.019 C 
HETATM    9  C7  UNL     1     -35.800   5.976   4.267  1.00 20.00     0.019 C 
HETATM   10  C8  UNL     1     -34.551   5.457   6.355  1.00 20.00     0.019 C 
ENDBRANCH   2   7
TORSDOF 2
ENDMDL
MODEL 2
REMARK VINA RESULT:      -4.6      0.033      1.364
REMARK  2 active torsions:
REMARK  status: ('A' for Active; 'I' for Inactive)
REMARK    1  A    between atoms: C2_2  and  C5_5 
REMARK    2  A    between atoms: C2_2  and  C9_9 
ROOT
HETATM    1  C1  UNL     1     -32.784   6.770   3.284  1.00 20.00     0.225 C 
HETATM    2  C2  UNL     1     -33.362   6.679   4.452  1.00 20.00    -0.014 C 
HETATM    3  O10 UNL     1     -32.266   6.850   2.232  1.00 20.00    -0.284 OA
ENDROOT
BRANCH   2   4
HETATM    4  C5  UNL     1     -32.994   7.735   5.422  1.00 20.00     0.019 A 
HETATM    5  C3  UNL     1     -32.345   8.973   4.901  1.00 20.00     0.010 A 
HETATM    6  C4  UNL     1     -33.760   9.015   5.392  1.00 20.00     0.010 A 
ENDBRANCH   2   4
BRANCH   2   7
HETATM    7  C9  UNL     1     -34.396   5.614   4.836  1.00 20.00    -0.024 C 
HETATM    8  C6  UNL     1     -35.765   5.995   4.243  1.00 20.00     0.019 C 
HETATM    9  C7  UNL     1     -34.522   5.493   6.368  1.00 20.00     0.019 C 
HETATM   10  C8  UNL     1     -34.006   4.219   4.295  1.00 20.00     0.019 C 
ENDBRANCH   2   7
TORSDOF 2
ENDMDL
MODEL 3
REMARK VINA RESULT:      -4.2      1.606      2.583
REMARK  2 active torsions:
REMARK  status: ('A' for Active; 'I' for Inactive)
REMARK    1  A    between atoms: C2_2  and  C5_5 
REMARK    2  A    between atoms: C2_2  and  C9_9 
ROOT
HETATM    1  C1  UNL     1     -33.674   8.068   5.177  1.00 20.00     0.225 C 
HETATM    2  C2  UNL     1     -33.618   6.937   4.526  1.00 20.00    -0.014 C 
HETATM    3  O10 UNL     1     -33.726   9.085   5.765  1.00 20.00    -0.284 OA
ENDROOT
BRANCH   2   4
HETATM    4  C5  UNL     1     -32.583   6.869   3.469  1.00 20.00     0.019 A 
HETATM    5  C3  UNL     1     -32.556   7.948   2.439  1.00 20.00     0.010 A 
HETATM    6  C4  UNL     1     -31.489   7.882   3.489  1.00 20.00     0.010 A 
ENDBRANCH   2   4
BRANCH   2   7
HETATM    7  C9  UNL     1     -34.492   5.713   4.821  1.00 20.00    -0.024 C 
HETATM    8  C6  UNL     1     -35.903   5.944   4.251  1.00 20.00     0.019 C 
HETATM    9  C7  UNL     1     -34.593   5.460   6.340  1.00 20.00     0.019 C 
HETATM   10  C8  UNL     1     -33.914   4.431   4.179  1.00 20.00     0.019 C 
ENDBRANCH   2   7
TORSDOF 2
ENDMDL
MODEL 4
REMARK VINA RESULT:      -3.9      1.389      3.457
REMARK  2 active torsions:
REMARK  status: ('A' for Active; 'I' for Inactive)
REMARK    1  A    between atoms: C2_2  and  C5_5 
REMARK    2  A    between atoms: C2_2  and  C9_9 
ROOT
HETATM    1  C1  UNL     1     -33.182   5.746   3.226  1.00 20.00     0.225 C 
HETATM    2  C2  UNL     1     -33.413   6.792   3.973  1.00 20.00    -0.014 C 
HETATM    3  O10 UNL     1     -32.973   4.804   2.552  1.00 20.00    -0.284 OA
ENDROOT
BRANCH   2   4
HETATM    4  C5  UNL     1     -34.514   6.638   4.951  1.00 20.00     0.019 A 
HETATM    5  C3  UNL     1     -35.161   5.300   5.078  1.00 20.00     0.010 A 
HETATM    6  C4  UNL     1     -34.265   5.809   6.166  1.00 20.00     0.010 A 
ENDBRANCH   2   4
BRANCH   2   7
HETATM    7  C9  UNL     1     -32.603   8.093   3.931  1.00 20.00    -0.024 C 
HETATM    8  C6  UNL     1     -31.116   7.762   3.710  1.00 20.00     0.019 C 
HETATM    9  C7  UNL     1     -32.758   8.883   5.246  1.00 20.00     0.019 C 
HETATM   10  C8  UNL     1     -33.069   9.016   2.781  1.00 20.00     0.019 C 
ENDBRANCH   2   7
TORSDOF 2
ENDMDL
MODEL 5
REMARK VINA RESULT:      -3.8      8.959     10.362
REMARK  2 active torsions:
REMARK  status: ('A' for Active; 'I' for Inactive)
REMARK    1  A    between atoms: C2_2  and  C5_5 
REMARK    2  A    between atoms: C2_2  and  C9_9 
ROOT
HETATM    1  C1  UNL     1     -41.358  13.683   4.625  1.00 20.00     0.225 C 
HETATM    2  C2  UNL     1     -41.105  13.248   5.830  1.00 20.00    -0.014 C 
HETATM    3  O10 UNL     1     -41.588  14.076   3.540  1.00 20.00    -0.284 OA
ENDROOT
BRANCH   2   4
HETATM    4  C5  UNL     1     -40.223  12.060   5.899  1.00 20.00     0.019 A 
HETATM    5  C3  UNL     1     -39.549  11.610   4.646  1.00 20.00     0.010 A 
HETATM    6  C4  UNL     1     -38.754  12.264   5.736  1.00 20.00     0.010 A 
ENDBRANCH   2   4
BRANCH   2   7
HETATM    7  C9  UNL     1     -41.605  13.905   7.121  1.00 20.00    -0.024 C 
HETATM    8  C6  UNL     1     -42.648  12.991   7.788  1.00 20.00     0.019 C 
HETATM    9  C7  UNL     1     -42.245  15.278   6.829  1.00 20.00     0.019 C 
HETATM   10  C8  UNL     1     -40.453  14.138   8.125  1.00 20.00     0.019 C 
ENDBRANCH   2   7
TORSDOF 2
ENDMDL
MODEL 6
REMARK VINA RESULT:      -3.6      9.292     10.730
REMARK  2 active torsions:
REMARK  status: ('A' for Active; 'I' for Inactive)
REMARK    1  A    between atoms: C2_2  and  C5_5 
REMARK    2  A    between atoms: C2_2  and  C9_9 
ROOT
HETATM    1  C1  UNL     1     -40.524  13.718   7.336  1.00 20.00     0.225 C 
HETATM    2  C2  UNL     1     -40.911  13.661   6.090  1.00 20.00    -0.014 C 
HETATM    3  O10 UNL     1     -40.177  13.771   8.459  1.00 20.00    -0.284 OA
ENDROOT
BRANCH   2   4
HETATM    4  C5  UNL     1     -40.090  12.795   5.214  1.00 20.00     0.019 A 
HETATM    5  C3  UNL     1     -38.803  12.267   5.752  1.00 20.00     0.010 A 
HETATM    6  C4  UNL     1     -39.973  11.349   5.563  1.00 20.00     0.010 A 
ENDBRANCH   2   4
BRANCH   2   7
HETATM    7  C9  UNL     1     -42.148  14.368   5.525  1.00 20.00    -0.024 C 
HETATM    8  C6  UNL     1     -43.412  13.587   5.930  1.00 20.00     0.019 C 
HETATM    9  C7  UNL     1     -42.078  14.459   3.987  1.00 20.00     0.019 C 
HETATM   10  C8  UNL     1     -42.277  15.810   6.067  1.00 20.00     0.019 C 
ENDBRANCH   2   7
TORSDOF 2
ENDMDL
MODEL 7
REMARK VINA RESULT:      -3.5     12.155     13.526
REMARK  2 active torsions:
REMARK  status: ('A' for Active; 'I' for Inactive)
REMARK    1  A    between atoms: C2_2  and  C5_5 
REMARK    2  A    between atoms: C2_2  and  C9_9 
ROOT
HETATM    1  C1  UNL     1     -34.362  17.167  -4.953  1.00 20.00     0.225 C 
HETATM    2  C2  UNL     1     -34.016  16.950  -3.713  1.00 20.00    -0.014 C 
HETATM    3  O10 UNL     1     -34.673  17.364  -6.070  1.00 20.00    -0.284 OA
ENDROOT
BRANCH   2   4
HETATM    4  C5  UNL     1     -33.609  15.560  -3.405  1.00 20.00     0.019 A 
HETATM    5  C3  UNL     1     -34.229  14.455  -4.192  1.00 20.00     0.010 A 
HETATM    6  C4  UNL     1     -32.794  14.825  -4.416  1.00 20.00     0.010 A 
ENDBRANCH   2   4
BRANCH   2   7
HETATM    7  C9  UNL     1     -33.959  18.023  -2.620  1.00 20.00    -0.024 C 
HETATM    8  C6  UNL     1     -32.889  19.069  -2.986  1.00 20.00     0.019 C 
HETATM    9  C7  UNL     1     -33.613  17.401  -1.252  1.00 20.00     0.019 C 
HETATM   10  C8  UNL     1     -35.314  18.752  -2.465  1.00 20.00     0.019 C 
ENDBRANCH   2   7
TORSDOF 2
ENDMDL
MODEL 8
REMARK VINA RESULT:      -3.5      1.998      3.967
REMARK  2 active torsions:
REMARK  status: ('A' for Active; 'I' for Inactive)
REMARK    1  A    between atoms: C2_2  and  C5_5 
REMARK    2  A    between atoms: C2_2  and  C9_9 
ROOT
HETATM    1  C1  UNL     1     -33.998   7.302   5.976  1.00 20.00     0.225 C 
HETATM    2  C2  UNL     1     -33.645   7.143   4.729  1.00 20.00    -0.014 C 
HETATM    3  O10 UNL     1     -34.316   7.448   7.100  1.00 20.00    -0.284 OA
ENDROOT
BRANCH   2   4
HETATM    4  C5  UNL     1     -34.238   5.968   4.051  1.00 20.00     0.019 A 
HETATM    5  C3  UNL     1     -34.387   4.706   4.831  1.00 20.00     0.010 A 
HETATM    6  C4  UNL     1     -35.595   5.520   4.478  1.00 20.00     0.010 A 
ENDBRANCH   2   4
BRANCH   2   7
HETATM    7  C9  UNL     1     -32.732   8.096   3.950  1.00 20.00    -0.024 C 
HETATM    8  C6  UNL     1     -31.844   7.283   2.991  1.00 20.00     0.019 C 
HETATM    9  C7  UNL     1     -31.835   8.908   4.907  1.00 20.00     0.019 C 
HETATM   10  C8  UNL     1     -33.547   9.109   3.113  1.00 20.00     0.019 C 
ENDBRANCH   2   7
TORSDOF 2
ENDMDL
MODEL 9
REMARK VINA RESULT:      -3.4     12.463     13.562
REMARK  2 active torsions:
REMARK  status: ('A' for Active; 'I' for Inactive)
REMARK    1  A    between atoms: C2_2  and  C5_5 
REMARK    2  A    between atoms: C2_2  and  C9_9 
ROOT
HETATM    1  C1  UNL     1     -35.543  14.110  -4.811  1.00 20.00     0.225 C 
HETATM    2  C2  UNL     1     -35.193  15.270  -5.297  1.00 20.00    -0.014 C 
HETATM    3  O10 UNL     1     -35.860  13.064  -4.374  1.00 20.00    -0.284 OA
ENDROOT
BRANCH   2   4
HETATM    4  C5  UNL     1     -33.877  15.774  -4.842  1.00 20.00     0.019 A 
HETATM    5  C3  UNL     1     -33.606  15.809  -3.375  1.00 20.00     0.010 A 
HETATM    6  C4  UNL     1     -32.920  14.799  -4.244  1.00 20.00     0.010 A 
ENDBRANCH   2   4
BRANCH   2   7
HETATM    7  C9  UNL     1     -36.012  16.077  -6.311  1.00 20.00    -0.024 C 
HETATM    8  C6  UNL     1     -36.048  15.323  -7.653  1.00 20.00     0.019 C 
HETATM    9  C7  UNL     1     -35.398  17.475  -6.530  1.00 20.00     0.019 C 
HETATM   10  C8  UNL     1     -37.468  16.283  -5.833  1.00 20.00     0.019 C 
ENDBRANCH   2   7
TORSDOF 2
ENDMDL
