MODEL 1
REMARK VINA RESULT:      -6.3      0.000      0.000
REMARK  1 active torsions:
REMARK  status: ('A' for Active; 'I' for Inactive)
REMARK    1  A    between atoms: C8_8  and  O11_11 
ROOT
HETATM    1  C1  UNL     1     -32.135   7.935   3.113  1.00 20.00     0.005 C 
HETATM    2  C2  UNL     1     -32.432   6.862   2.358  1.00 20.00     0.005 C 
HETATM    3  C3  UNL     1     -32.684   8.144   4.450  1.00 20.00    -0.063 C 
HETATM    4  C4  UNL     1     -32.242   9.137   5.236  1.00 20.00     0.019 C 
HETATM    5  C5  UNL     1     -34.815   5.572   6.327  1.00 20.00     0.001 C 
HETATM    6  C6  UNL     1     -34.082   6.922   6.319  1.00 20.00     0.010 C 
HETATM    7  C7  UNL     1     -34.558   4.925   4.960  1.00 20.00     0.008 C 
HETATM    8  C8  UNL     1     -33.316   5.733   2.830  1.00 20.00     0.145 C 
HETATM    9  C9  UNL     1     -33.780   7.181   4.842  1.00 20.00     0.024 C 
HETATM   10  C10 UNL     1     -33.444   5.770   4.352  1.00 20.00     0.026 C 
ENDROOT
BRANCH   8  11
HETATM   11  O11 UNL     1     -32.729   4.499   2.433  1.00 20.00    -0.391 OA
HETATM   12  H25 UNL     1     -31.802   4.688   2.219  1.00 20.00     0.210 HD
ENDBRANCH   8  11
TORSDOF 1
ENDMDL
MODEL 2
REMARK VINA RESULT:      -5.8      1.789      3.664
REMARK  1 active torsions:
REMARK  status: ('A' for Active; 'I' for Inactive)
REMARK    1  A    between atoms: C8_8  and  O11_11 
ROOT
HETATM    1  C1  UNL     1     -34.229   7.387   6.446  1.00 20.00     0.005 C 
HETATM    2  C2  UNL     1     -33.667   8.432   5.811  1.00 20.00     0.005 C 
HETATM    3  C3  UNL     1     -34.379   6.070   5.833  1.00 20.00    -0.063 C 
HETATM    4  C4  UNL     1     -34.793   5.013   6.548  1.00 20.00     0.019 C 
HETATM    5  C5  UNL     1     -32.918   5.104   2.425  1.00 20.00     0.001 C 
HETATM    6  C6  UNL     1     -33.658   4.692   3.706  1.00 20.00     0.010 C 
HETATM    7  C7  UNL     1     -32.564   6.589   2.582  1.00 20.00     0.008 C 
HETATM    8  C8  UNL     1     -33.080   8.342   4.423  1.00 20.00     0.145 C 
HETATM    9  C9  UNL     1     -34.056   6.017   4.359  1.00 20.00     0.024 C 
HETATM   10  C10 UNL     1     -32.828   6.881   4.054  1.00 20.00     0.026 C 
ENDROOT
BRANCH   8  11
HETATM   11  O11 UNL     1     -31.849   9.055   4.403  1.00 20.00    -0.391 OA
HETATM   12  H25 UNL     1     -31.155   8.406   4.208  1.00 20.00     0.210 HD
ENDBRANCH   8  11
TORSDOF 1
ENDMDL
MODEL 3
REMARK VINA RESULT:      -5.7      1.744      3.001
REMARK  1 active torsions:
REMARK  status: ('A' for Active; 'I' for Inactive)
REMARK    1  A    between atoms: C8_8  and  O11_11 
ROOT
HETATM    1  C1  UNL     1     -32.168   6.998   2.637  1.00 20.00     0.005 C 
HETATM    2  C2  UNL     1     -31.970   8.011   3.500  1.00 20.00     0.005 C 
HETATM    3  C3  UNL     1     -32.950   5.811   2.971  1.00 20.00    -0.063 C 
HETATM    4  C4  UNL     1     -33.263   4.899   2.037  1.00 20.00     0.019 C 
HETATM    5  C5  UNL     1     -34.943   5.387   6.216  1.00 20.00     0.001 C 
HETATM    6  C6  UNL     1     -34.548   4.850   4.832  1.00 20.00     0.010 C 
HETATM    7  C7  UNL     1     -34.242   6.743   6.375  1.00 20.00     0.008 C 
HETATM    8  C8  UNL     1     -32.579   8.058   4.880  1.00 20.00     0.145 C 
HETATM    9  C9  UNL     1     -33.342   5.698   4.425  1.00 20.00     0.024 C 
HETATM   10  C10 UNL     1     -33.741   7.071   4.974  1.00 20.00     0.026 C 
ENDROOT
BRANCH   8  11
HETATM   11  O11 UNL     1     -33.058   9.377   5.122  1.00 20.00    -0.391 OA
HETATM   12  H25 UNL     1     -32.299   9.972   5.015  1.00 20.00     0.210 HD
ENDBRANCH   8  11
TORSDOF 1
ENDMDL
MODEL 4
REMARK VINA RESULT:      -5.7      1.872      3.976
REMARK  1 active torsions:
REMARK  status: ('A' for Active; 'I' for Inactive)
REMARK    1  A    between atoms: C8_8  and  O11_11 
ROOT
HETATM    1  C1  UNL     1     -34.290   4.652   4.358  1.00 20.00     0.005 C 
HETATM    2  C2  UNL     1     -34.851   5.253   5.422  1.00 20.00     0.005 C 
HETATM    3  C3  UNL     1     -33.421   5.351   3.415  1.00 20.00    -0.063 C 
HETATM    4  C4  UNL     1     -32.751   4.687   2.462  1.00 20.00     0.019 C 
HETATM    5  C5  UNL     1     -32.202   8.954   3.878  1.00 20.00     0.001 C 
HETATM    6  C6  UNL     1     -32.166   7.644   3.078  1.00 20.00     0.010 C 
HETATM    7  C7  UNL     1     -33.136   8.714   5.071  1.00 20.00     0.008 C 
HETATM    8  C8  UNL     1     -34.598   6.695   5.791  1.00 20.00     0.145 C 
HETATM    9  C9  UNL     1     -33.368   6.850   3.595  1.00 20.00     0.024 C 
HETATM   10  C10 UNL     1     -33.343   7.204   5.085  1.00 20.00     0.026 C 
ENDROOT
BRANCH   8  11
HETATM   11  O11 UNL     1     -34.416   6.780   7.200  1.00 20.00    -0.391 OA
HETATM   12  H25 UNL     1     -35.249   6.492   7.606  1.00 20.00     0.210 HD
ENDBRANCH   8  11
TORSDOF 1
ENDMDL
MODEL 5
REMARK VINA RESULT:      -5.5      1.370      3.092
REMARK  1 active torsions:
REMARK  status: ('A' for Active; 'I' for Inactive)
REMARK    1  A    between atoms: C8_8  and  O11_11 
ROOT
HETATM    1  C1  UNL     1     -33.856   7.500   6.325  1.00 20.00     0.005 C 
HETATM    2  C2  UNL     1     -34.410   6.275   6.364  1.00 20.00     0.005 C 
HETATM    3  C3  UNL     1     -33.034   7.967   5.211  1.00 20.00    -0.063 C 
HETATM    4  C4  UNL     1     -32.634   9.245   5.129  1.00 20.00     0.019 C 
HETATM    5  C5  UNL     1     -32.516   6.015   1.955  1.00 20.00     0.001 C 
HETATM    6  C6  UNL     1     -32.292   7.295   2.774  1.00 20.00     0.010 C 
HETATM    7  C7  UNL     1     -33.373   5.084   2.822  1.00 20.00     0.008 C 
HETATM    8  C8  UNL     1     -34.293   5.274   5.240  1.00 20.00     0.145 C 
HETATM    9  C9  UNL     1     -32.670   6.902   4.203  1.00 20.00     0.024 C 
HETATM   10  C10 UNL     1     -33.866   5.978   3.954  1.00 20.00     0.026 C 
ENDROOT
BRANCH   8  11
HETATM   11  O11 UNL     1     -35.561   4.658   5.045  1.00 20.00    -0.391 OA
HETATM   12  H25 UNL     1     -36.142   5.334   4.662  1.00 20.00     0.210 HD
ENDBRANCH   8  11
TORSDOF 1
ENDMDL
MODEL 6
REMARK VINA RESULT:      -5.2      1.279      3.046
REMARK  1 active torsions:
REMARK  status: ('A' for Active; 'I' for Inactive)
REMARK    1  A    between atoms: C8_8  and  O11_11 
ROOT
HETATM    1  C1  UNL     1     -33.733   5.012   3.336  1.00 20.00     0.005 C 
HETATM    2  C2  UNL     1     -32.808   5.586   2.546  1.00 20.00     0.005 C 
HETATM    3  C3  UNL     1     -34.173   5.595   4.601  1.00 20.00    -0.063 C 
HETATM    4  C4  UNL     1     -35.209   5.081   5.280  1.00 20.00     0.019 C 
HETATM    5  C5  UNL     1     -33.116   9.056   5.857  1.00 20.00     0.001 C 
HETATM    6  C6  UNL     1     -33.971   7.793   6.038  1.00 20.00     0.010 C 
HETATM    7  C7  UNL     1     -32.336   8.874   4.548  1.00 20.00     0.008 C 
HETATM    8  C8  UNL     1     -32.169   6.920   2.850  1.00 20.00     0.145 C 
HETATM    9  C9  UNL     1     -33.362   6.779   5.068  1.00 20.00     0.024 C 
HETATM   10  C10 UNL     1     -33.004   7.678   3.880  1.00 20.00     0.026 C 
ENDROOT
BRANCH   8  11
HETATM   11  O11 UNL     1     -32.100   7.677   1.646  1.00 20.00    -0.391 OA
HETATM   12  H25 UNL     1     -32.941   7.539   1.182  1.00 20.00     0.210 HD
ENDBRANCH   8  11
TORSDOF 1
ENDMDL
MODEL 7
REMARK VINA RESULT:      -5.0      1.884      3.048
REMARK  1 active torsions:
REMARK  status: ('A' for Active; 'I' for Inactive)
REMARK    1  A    between atoms: C8_8  and  O11_11 
ROOT
HETATM    1  C1  UNL     1     -32.376   8.752   3.950  1.00 20.00     0.005 C 
HETATM    2  C2  UNL     1     -32.787   8.590   5.220  1.00 20.00     0.005 C 
HETATM    3  C3  UNL     1     -32.387   7.673   2.965  1.00 20.00    -0.063 C 
HETATM    4  C4  UNL     1     -32.126   7.909   1.671  1.00 20.00     0.019 C 
HETATM    5  C5  UNL     1     -33.903   4.209   3.588  1.00 20.00     0.001 C 
HETATM    6  C6  UNL     1     -33.244   5.205   2.622  1.00 20.00     0.010 C 
HETATM    7  C7  UNL     1     -34.065   4.940   4.927  1.00 20.00     0.008 C 
HETATM    8  C8  UNL     1     -33.357   7.296   5.750  1.00 20.00     0.145 C 
HETATM    9  C9  UNL     1     -32.689   6.305   3.529  1.00 20.00     0.024 C 
HETATM   10  C10 UNL     1     -33.789   6.401   4.591  1.00 20.00     0.026 C 
ENDROOT
BRANCH   8  11
HETATM   11  O11 UNL     1     -34.485   7.596   6.564  1.00 20.00    -0.391 OA
HETATM   12  H25 UNL     1     -34.171   8.182   7.270  1.00 20.00     0.210 HD
ENDBRANCH   8  11
TORSDOF 1
ENDMDL
MODEL 8
REMARK VINA RESULT:      -4.9      0.914      3.072
REMARK  1 active torsions:
REMARK  status: ('A' for Active; 'I' for Inactive)
REMARK    1  A    between atoms: C8_8  and  O11_11 
ROOT
HETATM    1  C1  UNL     1     -34.510   4.746   5.168  1.00 20.00     0.005 C 
HETATM    2  C2  UNL     1     -33.928   4.395   4.007  1.00 20.00     0.005 C 
HETATM    3  C3  UNL     1     -34.290   6.039   5.810  1.00 20.00    -0.063 C 
HETATM    4  C4  UNL     1     -35.010   6.417   6.877  1.00 20.00     0.019 C 
HETATM    5  C5  UNL     1     -32.309   8.915   4.233  1.00 20.00     0.001 C 
HETATM    6  C6  UNL     1     -33.185   8.392   5.382  1.00 20.00     0.010 C 
HETATM    7  C7  UNL     1     -32.185   7.769   3.220  1.00 20.00     0.008 C 
HETATM    8  C8  UNL     1     -33.033   5.317   3.215  1.00 20.00     0.145 C 
HETATM    9  C9  UNL     1     -33.194   6.874   5.193  1.00 20.00     0.024 C 
HETATM   10  C10 UNL     1     -33.239   6.762   3.666  1.00 20.00     0.026 C 
ENDROOT
BRANCH   8  11
HETATM   11  O11 UNL     1     -33.364   5.199   1.836  1.00 20.00    -0.391 OA
HETATM   12  H25 UNL     1     -34.285   5.488   1.745  1.00 20.00     0.210 HD
ENDBRANCH   8  11
TORSDOF 1
ENDMDL
MODEL 9
REMARK VINA RESULT:      -4.5     12.158     13.651
REMARK  1 active torsions:
REMARK  status: ('A' for Active; 'I' for Inactive)
REMARK    1  A    between atoms: C8_8  and  O11_11 
ROOT
HETATM    1  C1  UNL     1     -34.855  16.166  -6.675  1.00 20.00     0.005 C 
HETATM    2  C2  UNL     1     -34.667  14.981  -6.066  1.00 20.00     0.005 C 
HETATM    3  C3  UNL     1     -34.684  17.447  -5.993  1.00 20.00    -0.063 C 
HETATM    4  C4  UNL     1     -34.720  18.604  -6.670  1.00 20.00     0.019 C 
HETATM    5  C5  UNL     1     -33.321  17.825  -2.433  1.00 20.00     0.001 C 
HETATM    6  C6  UNL     1     -33.800  18.480  -3.737  1.00 20.00     0.010 C 
HETATM    7  C7  UNL     1     -33.384  16.308  -2.655  1.00 20.00     0.008 C 
HETATM    8  C8  UNL     1     -34.204  14.846  -4.636  1.00 20.00     0.145 C 
HETATM    9  C9  UNL     1     -34.492  17.348  -4.499  1.00 20.00     0.024 C 
HETATM   10  C10 UNL     1     -33.588  16.160  -4.158  1.00 20.00     0.026 C 
ENDROOT
BRANCH   8  11
HETATM   11  O11 UNL     1     -33.228  13.813  -4.568  1.00 20.00    -0.391 OA
HETATM   12  H25 UNL     1     -33.619  13.095  -4.044  1.00 20.00     0.210 HD
ENDBRANCH   8  11
TORSDOF 1
ENDMDL
