MODEL 1
REMARK VINA RESULT:      -4.7      0.000      0.000
REMARK  1 active torsions:
REMARK  status: ('A' for Active; 'I' for Inactive)
REMARK    1  A    between atoms: C3_3  and  C8_8 
ROOT
HETATM    1  C1  UNL     1     -23.439  16.835   9.995  1.00 20.00    -0.024 C 
HETATM    2  C2  UNL     1     -24.534  16.856  10.771  1.00 20.00    -0.021 C 
HETATM    3  C4  UNL     1     -22.266  18.467  11.406  1.00 20.00     0.010 C 
HETATM    4  C5  UNL     1     -23.529  18.517  12.300  1.00 20.00     0.014 C 
HETATM    5  C6  UNL     1     -24.911  19.260  10.341  1.00 20.00     0.026 C 
HETATM    6  C7  UNL     1     -22.668  18.140   9.951  1.00 20.00     0.019 C 
HETATM    7  C8  UNL     1     -23.625  19.262   9.474  1.00 20.00     0.063 C 
HETATM    8  C9  UNL     1     -24.795  18.186  11.461  1.00 20.00    -0.026 C 
HETATM    9  C11 UNL     1     -26.048  18.151  12.332  1.00 20.00     0.019 C 
ENDROOT
BRANCH   7  10
HETATM   10  C3  UNL     1     -23.967  19.126   8.020  1.00 20.00     0.128 C 
HETATM   11  C10 UNL     1     -25.420  19.263   7.651  1.00 20.00     0.091 C 
HETATM   12  O12 UNL     1     -23.103  18.914   7.170  1.00 20.00    -0.298 OA
ENDBRANCH   7  10
TORSDOF 1
ENDMDL
MODEL 2
REMARK VINA RESULT:      -3.8     17.365     18.651
REMARK  1 active torsions:
REMARK  status: ('A' for Active; 'I' for Inactive)
REMARK    1  A    between atoms: C3_3  and  C8_8 
ROOT
HETATM    1  C1  UNL     1     -40.604  14.689   7.041  1.00 20.00    -0.024 C 
HETATM    2  C2  UNL     1     -41.370  14.294   8.071  1.00 20.00    -0.021 C 
HETATM    3  C4  UNL     1     -42.519  14.792   5.506  1.00 20.00     0.010 C 
HETATM    4  C5  UNL     1     -43.412  14.319   6.679  1.00 20.00     0.014 C 
HETATM    5  C6  UNL     1     -42.046  12.226   6.902  1.00 20.00     0.026 C 
HETATM    6  C7  UNL     1     -41.090  14.232   5.679  1.00 20.00     0.019 C 
HETATM    7  C8  UNL     1     -41.199  12.686   5.687  1.00 20.00     0.063 C 
HETATM    8  C9  UNL     1     -42.581  13.464   7.677  1.00 20.00    -0.026 C 
HETATM    9  C11 UNL     1     -43.416  13.048   8.885  1.00 20.00     0.019 C 
ENDROOT
BRANCH   7  10
HETATM   10  C3  UNL     1     -39.849  12.030   5.704  1.00 20.00     0.128 C 
HETATM   11  C10 UNL     1     -39.226  11.733   4.367  1.00 20.00     0.091 C 
HETATM   12  O12 UNL     1     -39.280  11.751   6.757  1.00 20.00    -0.298 OA
ENDBRANCH   7  10
TORSDOF 1
ENDMDL
MODEL 3
REMARK VINA RESULT:      -3.8     19.820     21.342
REMARK  1 active torsions:
REMARK  status: ('A' for Active; 'I' for Inactive)
REMARK    1  A    between atoms: C3_3  and  C8_8 
ROOT
HETATM    1  C1  UNL     1     -27.510  -1.637   9.912  1.00 20.00    -0.024 C 
HETATM    2  C2  UNL     1     -26.503  -2.479  10.187  1.00 20.00    -0.021 C 
HETATM    3  C4  UNL     1     -27.064  -0.269  11.903  1.00 20.00     0.010 C 
HETATM    4  C5  UNL     1     -25.911  -1.243  12.244  1.00 20.00     0.014 C 
HETATM    5  C6  UNL     1     -27.528  -3.161  12.329  1.00 20.00     0.026 C 
HETATM    6  C7  UNL     1     -28.172  -1.019  11.129  1.00 20.00     0.019 C 
HETATM    7  C8  UNL     1     -28.680  -2.161  12.046  1.00 20.00     0.063 C 
HETATM    8  C9  UNL     1     -26.212  -2.656  11.669  1.00 20.00    -0.026 C 
HETATM    9  C11 UNL     1     -25.057  -3.620  11.923  1.00 20.00     0.019 C 
ENDROOT
BRANCH   7  10
HETATM   10  C3  UNL     1     -29.862  -2.870  11.453  1.00 20.00     0.128 C 
HETATM   11  C10 UNL     1     -29.682  -4.328  11.126  1.00 20.00     0.091 C 
HETATM   12  O12 UNL     1     -30.926  -2.289  11.245  1.00 20.00    -0.298 OA
ENDBRANCH   7  10
TORSDOF 1
ENDMDL
MODEL 4
REMARK VINA RESULT:      -3.8     17.291     18.689
REMARK  1 active torsions:
REMARK  status: ('A' for Active; 'I' for Inactive)
REMARK    1  A    between atoms: C3_3  and  C8_8 
ROOT
HETATM    1  C1  UNL     1     -42.963  13.079   7.229  1.00 20.00    -0.024 C 
HETATM    2  C2  UNL     1     -42.073  12.268   6.635  1.00 20.00    -0.021 C 
HETATM    3  C4  UNL     1     -42.650  14.843   5.550  1.00 20.00     0.010 C 
HETATM    4  C5  UNL     1     -41.608  13.927   4.864  1.00 20.00     0.014 C 
HETATM    5  C6  UNL     1     -40.235  13.884   6.965  1.00 20.00     0.026 C 
HETATM    6  C7  UNL     1     -42.678  14.559   7.068  1.00 20.00     0.019 C 
HETATM    7  C8  UNL     1     -41.258  14.850   7.617  1.00 20.00     0.063 C 
HETATM    8  C9  UNL     1     -40.946  12.987   5.912  1.00 20.00    -0.026 C 
HETATM    9  C11 UNL     1     -39.969  12.018   5.253  1.00 20.00     0.019 C 
ENDROOT
BRANCH   7  10
HETATM   10  C3  UNL     1     -41.205  14.747   9.113  1.00 20.00     0.128 C 
HETATM   11  C10 UNL     1     -41.994  15.766   9.890  1.00 20.00     0.091 C 
HETATM   12  O12 UNL     1     -40.550  13.872   9.677  1.00 20.00    -0.298 OA
ENDBRANCH   7  10
TORSDOF 1
ENDMDL
MODEL 5
REMARK VINA RESULT:      -3.8     17.208     18.592
REMARK  1 active torsions:
REMARK  status: ('A' for Active; 'I' for Inactive)
REMARK    1  A    between atoms: C3_3  and  C8_8 
ROOT
HETATM    1  C1  UNL     1     -42.195  12.884   7.380  1.00 20.00    -0.024 C 
HETATM    2  C2  UNL     1     -42.978  13.101   6.312  1.00 20.00    -0.021 C 
HETATM    3  C4  UNL     1     -41.477  15.231   7.476  1.00 20.00     0.010 C 
HETATM    4  C5  UNL     1     -42.361  15.493   6.232  1.00 20.00     0.014 C 
HETATM    5  C6  UNL     1     -41.057  13.794   4.923  1.00 20.00     0.026 C 
HETATM    6  C7  UNL     1     -40.969  13.772   7.458  1.00 20.00     0.019 C 
HETATM    7  C8  UNL     1     -40.144  13.588   6.159  1.00 20.00     0.063 C 
HETATM    8  C9  UNL     1     -42.488  14.198   5.380  1.00 20.00    -0.026 C 
HETATM    9  C11 UNL     1     -43.417  14.404   4.188  1.00 20.00     0.019 C 
ENDROOT
BRANCH   7  10
HETATM   10  C3  UNL     1     -39.476  12.245   6.106  1.00 20.00     0.128 C 
HETATM   11  C10 UNL     1     -39.528  11.516   4.790  1.00 20.00     0.091 C 
HETATM   12  O12 UNL     1     -38.914  11.764   7.088  1.00 20.00    -0.298 OA
ENDBRANCH   7  10
TORSDOF 1
ENDMDL
MODEL 6
REMARK VINA RESULT:      -3.7     13.898     16.474
REMARK  1 active torsions:
REMARK  status: ('A' for Active; 'I' for Inactive)
REMARK    1  A    between atoms: C3_3  and  C8_8 
ROOT
HETATM    1  C1  UNL     1     -33.572  19.169  -3.866  1.00 20.00    -0.024 C 
HETATM    2  C2  UNL     1     -32.588  19.181  -2.952  1.00 20.00    -0.021 C 
HETATM    3  C4  UNL     1     -35.322  19.001  -2.150  1.00 20.00     0.010 C 
HETATM    4  C5  UNL     1     -34.198  18.994  -1.086  1.00 20.00     0.014 C 
HETATM    5  C6  UNL     1     -33.201  16.937  -2.121  1.00 20.00     0.026 C 
HETATM    6  C7  UNL     1     -34.801  18.377  -3.465  1.00 20.00     0.019 C 
HETATM    7  C8  UNL     1     -34.368  16.924  -3.144  1.00 20.00     0.063 C 
HETATM    8  C9  UNL     1     -32.893  18.398  -1.685  1.00 20.00    -0.026 C 
HETATM    9  C11 UNL     1     -31.745  18.449  -0.681  1.00 20.00     0.019 C 
ENDROOT
BRANCH   7  10
HETATM   10  C3  UNL     1     -33.978  16.170  -4.382  1.00 20.00     0.128 C 
HETATM   11  C10 UNL     1     -32.911  15.122  -4.227  1.00 20.00     0.091 C 
HETATM   12  O12 UNL     1     -34.507  16.397  -5.469  1.00 20.00    -0.298 OA
ENDBRANCH   7  10
TORSDOF 1
ENDMDL
MODEL 7
REMARK VINA RESULT:      -3.6     16.792     18.229
REMARK  1 active torsions:
REMARK  status: ('A' for Active; 'I' for Inactive)
REMARK    1  A    between atoms: C3_3  and  C8_8 
ROOT
HETATM    1  C1  UNL     1     -42.101  14.793   5.822  1.00 20.00    -0.024 C 
HETATM    2  C2  UNL     1     -41.475  15.501   6.775  1.00 20.00    -0.021 C 
HETATM    3  C4  UNL     1     -43.086  13.246   7.456  1.00 20.00     0.010 C 
HETATM    4  C5  UNL     1     -42.354  14.042   8.565  1.00 20.00     0.014 C 
HETATM    5  C6  UNL     1     -40.142  13.547   7.487  1.00 20.00     0.026 C 
HETATM    6  C7  UNL     1     -42.280  13.321   6.140  1.00 20.00     0.019 C 
HETATM    7  C8  UNL     1     -40.886  12.704   6.418  1.00 20.00     0.063 C 
HETATM    8  C9  UNL     1     -41.062  14.694   7.995  1.00 20.00    -0.026 C 
HETATM    9  C11 UNL     1     -40.360  15.548   9.046  1.00 20.00     0.019 C 
ENDROOT
BRANCH   7  10
HETATM   10  C3  UNL     1     -40.065  12.591   5.167  1.00 20.00     0.128 C 
HETATM   11  C10 UNL     1     -38.674  12.037   5.320  1.00 20.00     0.091 C 
HETATM   12  O12 UNL     1     -40.507  12.932   4.072  1.00 20.00    -0.298 OA
ENDBRANCH   7  10
TORSDOF 1
ENDMDL
MODEL 8
REMARK VINA RESULT:      -3.5      1.534      2.576
REMARK  1 active torsions:
REMARK  status: ('A' for Active; 'I' for Inactive)
REMARK    1  A    between atoms: C3_3  and  C8_8 
ROOT
HETATM    1  C1  UNL     1     -22.659  18.737  11.610  1.00 20.00    -0.024 C 
HETATM    2  C2  UNL     1     -23.067  17.621  12.235  1.00 20.00    -0.021 C 
HETATM    3  C4  UNL     1     -24.922  19.256  10.810  1.00 20.00     0.010 C 
HETATM    4  C5  UNL     1     -25.405  17.962  11.509  1.00 20.00     0.014 C 
HETATM    5  C6  UNL     1     -23.824  16.597  10.118  1.00 20.00     0.026 C 
HETATM    6  C7  UNL     1     -23.451  19.094  10.367  1.00 20.00     0.019 C 
HETATM    7  C8  UNL     1     -23.395  17.895   9.386  1.00 20.00     0.063 C 
HETATM    8  C9  UNL     1     -24.248  16.924  11.579  1.00 20.00    -0.026 C 
HETATM    9  C11 UNL     1     -24.672  15.667  12.331  1.00 20.00     0.019 C 
ENDROOT
BRANCH   7  10
HETATM   10  C3  UNL     1     -22.033  17.735   8.777  1.00 20.00     0.128 C 
HETATM   11  C10 UNL     1     -21.312  18.998   8.391  1.00 20.00     0.091 C 
HETATM   12  O12 UNL     1     -21.531  16.626   8.602  1.00 20.00    -0.298 OA
ENDBRANCH   7  10
TORSDOF 1
ENDMDL
MODEL 9
REMARK VINA RESULT:      -3.3     17.022     19.817
REMARK  1 active torsions:
REMARK  status: ('A' for Active; 'I' for Inactive)
REMARK    1  A    between atoms: C3_3  and  C8_8 
ROOT
HETATM    1  C1  UNL     1     -34.038  15.549  -7.350  1.00 20.00    -0.024 C 
HETATM    2  C2  UNL     1     -33.981  16.882  -7.493  1.00 20.00    -0.021 C 
HETATM    3  C4  UNL     1     -36.488  15.556  -7.179  1.00 20.00     0.010 C 
HETATM    4  C5  UNL     1     -36.437  17.097  -7.324  1.00 20.00     0.014 C 
HETATM    5  C6  UNL     1     -34.997  17.261  -5.274  1.00 20.00     0.026 C 
HETATM    6  C7  UNL     1     -35.194  15.051  -6.504  1.00 20.00     0.019 C 
HETATM    7  C8  UNL     1     -35.109  15.723  -5.110  1.00 20.00     0.063 C 
HETATM    8  C9  UNL     1     -35.087  17.643  -6.780  1.00 20.00    -0.026 C 
HETATM    9  C11 UNL     1     -34.975  19.152  -6.980  1.00 20.00     0.019 C 
ENDROOT
BRANCH   7  10
HETATM   10  C3  UNL     1     -33.961  15.193  -4.302  1.00 20.00     0.128 C 
HETATM   11  C10 UNL     1     -33.182  16.196  -3.495  1.00 20.00     0.091 C 
HETATM   12  O12 UNL     1     -33.672  13.997  -4.298  1.00 20.00    -0.298 OA
ENDBRANCH   7  10
TORSDOF 1
ENDMDL
