MODEL 1
REMARK VINA RESULT:      -5.0      0.000      0.000
REMARK  1 active torsions:
REMARK  status: ('A' for Active; 'I' for Inactive)
REMARK    1  A    between atoms: C6_6  and  C7_7 
ROOT
HETATM    1  C1  UNL     1     -33.206   4.981   3.103  1.00 20.00    -0.003 C 
HETATM    2  C2  UNL     1     -32.923   6.104   2.213  1.00 20.00     0.015 C 
HETATM    3  C3  UNL     1     -32.614   7.757   3.972  1.00 20.00     0.011 C 
HETATM    4  C4  UNL     1     -34.009   4.861   4.179  1.00 20.00    -0.026 C 
HETATM    5  C5  UNL     1     -33.845   7.970   4.468  1.00 20.00    -0.021 C 
HETATM    6  C6  UNL     1     -32.583   7.355   2.583  1.00 20.00     0.009 C 
HETATM    7  C8  UNL     1     -34.977   5.829   4.831  1.00 20.00     0.035 C 
HETATM    8  C9  UNL     1     -34.399   7.079   5.552  1.00 20.00     0.007 C 
HETATM    9  C11 UNL     1     -33.447   6.714   6.691  1.00 20.00     0.014 C 
ENDROOT
BRANCH   6  10
HETATM   10  C7  UNL     1     -32.246   8.327   1.540  1.00 20.00     0.155 C 
HETATM   11  C10 UNL     1     -32.903   9.680   1.596  1.00 20.00     0.096 C 
HETATM   12  O12 UNL     1     -31.452   8.033   0.645  1.00 20.00    -0.293 OA
ENDBRANCH   6  10
TORSDOF 1
ENDMDL
MODEL 2
REMARK VINA RESULT:      -4.4     10.296     11.504
REMARK  1 active torsions:
REMARK  status: ('A' for Active; 'I' for Inactive)
REMARK    1  A    between atoms: C6_6  and  C7_7 
ROOT
HETATM    1  C1  UNL     1     -42.540  14.514   5.062  1.00 20.00    -0.003 C 
HETATM    2  C2  UNL     1     -41.375  13.634   5.087  1.00 20.00     0.015 C 
HETATM    3  C3  UNL     1     -40.951  13.835   7.475  1.00 20.00     0.011 C 
HETATM    4  C4  UNL     1     -42.770  15.725   5.606  1.00 20.00    -0.026 C 
HETATM    5  C5  UNL     1     -40.483  15.084   7.640  1.00 20.00    -0.021 C 
HETATM    6  C6  UNL     1     -40.679  13.255   6.178  1.00 20.00     0.009 C 
HETATM    7  C8  UNL     1     -41.878  16.665   6.394  1.00 20.00     0.035 C 
HETATM    8  C9  UNL     1     -41.435  16.241   7.822  1.00 20.00     0.007 C 
HETATM    9  C11 UNL     1     -42.619  16.011   8.761  1.00 20.00     0.014 C 
ENDROOT
BRANCH   6  10
HETATM   10  C7  UNL     1     -39.591  12.289   6.014  1.00 20.00     0.155 C 
HETATM   11  C10 UNL     1     -39.292  11.789   4.625  1.00 20.00     0.096 C 
HETATM   12  O12 UNL     1     -38.949  11.899   6.990  1.00 20.00    -0.293 OA
ENDBRANCH   6  10
TORSDOF 1
ENDMDL
MODEL 3
REMARK VINA RESULT:      -4.4     11.415     13.053
REMARK  1 active torsions:
REMARK  status: ('A' for Active; 'I' for Inactive)
REMARK    1  A    between atoms: C6_6  and  C7_7 
ROOT
HETATM    1  C1  UNL     1     -33.805  14.951  -4.075  1.00 20.00    -0.003 C 
HETATM    2  C2  UNL     1     -33.175  16.059  -3.363  1.00 20.00     0.015 C 
HETATM    3  C3  UNL     1     -34.827  17.736  -3.980  1.00 20.00     0.011 C 
HETATM    4  C4  UNL     1     -34.318  14.850  -5.317  1.00 20.00    -0.026 C 
HETATM    5  C5  UNL     1     -34.620  17.962  -5.289  1.00 20.00    -0.021 C 
HETATM    6  C6  UNL     1     -33.655  17.314  -3.246  1.00 20.00     0.009 C 
HETATM    7  C8  UNL     1     -34.372  15.832  -6.472  1.00 20.00     0.035 C 
HETATM    8  C9  UNL     1     -35.275  17.090  -6.331  1.00 20.00     0.007 C 
HETATM    9  C11 UNL     1     -36.745  16.736  -6.101  1.00 20.00     0.014 C 
ENDROOT
BRANCH   6  10
HETATM   10  C7  UNL     1     -32.923  18.269  -2.411  1.00 20.00     0.155 C 
HETATM   11  C10 UNL     1     -32.884  18.024  -0.926  1.00 20.00     0.096 C 
HETATM   12  O12 UNL     1     -32.365  19.243  -2.918  1.00 20.00    -0.293 OA
ENDBRANCH   6  10
TORSDOF 1
ENDMDL
MODEL 4
REMARK VINA RESULT:      -4.2     11.506     13.149
REMARK  1 active torsions:
REMARK  status: ('A' for Active; 'I' for Inactive)
REMARK    1  A    between atoms: C6_6  and  C7_7 
ROOT
HETATM    1  C1  UNL     1     -33.349  15.285  -4.003  1.00 20.00    -0.003 C 
HETATM    2  C2  UNL     1     -34.426  15.029  -4.955  1.00 20.00     0.015 C 
HETATM    3  C3  UNL     1     -34.613  17.320  -5.754  1.00 20.00     0.011 C 
HETATM    4  C4  UNL     1     -33.168  16.253  -3.082  1.00 20.00    -0.026 C 
HETATM    5  C5  UNL     1     -35.165  18.000  -4.735  1.00 20.00    -0.021 C 
HETATM    6  C6  UNL     1     -34.968  15.919  -5.811  1.00 20.00     0.009 C 
HETATM    7  C8  UNL     1     -34.049  17.404  -2.638  1.00 20.00     0.035 C 
HETATM    8  C9  UNL     1     -34.302  18.569  -3.636  1.00 20.00     0.007 C 
HETATM    9  C11 UNL     1     -33.010  19.262  -4.071  1.00 20.00     0.014 C 
ENDROOT
BRANCH   6  10
HETATM   10  C7  UNL     1     -35.982  15.452  -6.758  1.00 20.00     0.155 C 
HETATM   11  C10 UNL     1     -36.986  16.451  -7.270  1.00 20.00     0.096 C 
HETATM   12  O12 UNL     1     -36.008  14.272  -7.114  1.00 20.00    -0.293 OA
ENDBRANCH   6  10
TORSDOF 1
ENDMDL
MODEL 5
REMARK VINA RESULT:      -4.2     11.156     12.460
REMARK  1 active torsions:
REMARK  status: ('A' for Active; 'I' for Inactive)
REMARK    1  A    between atoms: C6_6  and  C7_7 
ROOT
HETATM    1  C1  UNL     1     -35.343  18.282  -3.900  1.00 20.00    -0.003 C 
HETATM    2  C2  UNL     1     -34.797  17.137  -4.625  1.00 20.00     0.015 C 
HETATM    3  C3  UNL     1     -33.696  16.119  -2.708  1.00 20.00     0.011 C 
HETATM    4  C4  UNL     1     -34.794  19.132  -3.009  1.00 20.00    -0.026 C 
HETATM    5  C5  UNL     1     -32.655  16.925  -2.437  1.00 20.00    -0.021 C 
HETATM    6  C6  UNL     1     -34.108  16.107  -4.094  1.00 20.00     0.009 C 
HETATM    7  C8  UNL     1     -33.381  19.263  -2.474  1.00 20.00     0.035 C 
HETATM    8  C9  UNL     1     -32.831  18.136  -1.556  1.00 20.00     0.007 C 
HETATM    9  C11 UNL     1     -33.670  17.946  -0.292  1.00 20.00     0.014 C 
ENDROOT
BRANCH   6  10
HETATM   10  C7  UNL     1     -33.719  14.999  -4.970  1.00 20.00     0.155 C 
HETATM   11  C10 UNL     1     -34.007  15.128  -6.443  1.00 20.00     0.096 C 
HETATM   12  O12 UNL     1     -33.180  13.994  -4.505  1.00 20.00    -0.293 OA
ENDBRANCH   6  10
TORSDOF 1
ENDMDL
MODEL 6
REMARK VINA RESULT:      -4.1     10.214     11.416
REMARK  1 active torsions:
REMARK  status: ('A' for Active; 'I' for Inactive)
REMARK    1  A    between atoms: C6_6  and  C7_7 
ROOT
HETATM    1  C1  UNL     1     -42.979  12.901   8.005  1.00 20.00    -0.003 C 
HETATM    2  C2  UNL     1     -42.328  12.799   6.701  1.00 20.00     0.015 C 
HETATM    3  C3  UNL     1     -40.210  13.778   7.393  1.00 20.00     0.011 C 
HETATM    4  C4  UNL     1     -43.053  13.905   8.901  1.00 20.00    -0.026 C 
HETATM    5  C5  UNL     1     -40.476  15.082   7.581  1.00 20.00    -0.021 C 
HETATM    6  C6  UNL     1     -41.051  13.124   6.415  1.00 20.00     0.009 C 
HETATM    7  C8  UNL     1     -42.546  15.333   8.865  1.00 20.00     0.035 C 
HETATM    8  C9  UNL     1     -41.010  15.573   8.903  1.00 20.00     0.007 C 
HETATM    9  C11 UNL     1     -40.357  15.000  10.161  1.00 20.00     0.014 C 
ENDROOT
BRANCH   6  10
HETATM   10  C7  UNL     1     -40.549  12.865   5.064  1.00 20.00     0.155 C 
HETATM   11  C10 UNL     1     -39.415  11.886   4.907  1.00 20.00     0.096 C 
HETATM   12  O12 UNL     1     -41.041  13.442   4.093  1.00 20.00    -0.293 OA
ENDBRANCH   6  10
TORSDOF 1
ENDMDL
MODEL 7
REMARK VINA RESULT:      -4.0     11.330     12.726
REMARK  1 active torsions:
REMARK  status: ('A' for Active; 'I' for Inactive)
REMARK    1  A    between atoms: C6_6  and  C7_7 
ROOT
HETATM    1  C1  UNL     1     -35.624  18.104  -4.568  1.00 20.00    -0.003 C 
HETATM    2  C2  UNL     1     -34.997  18.139  -3.250  1.00 20.00     0.015 C 
HETATM    3  C3  UNL     1     -33.274  16.491  -3.741  1.00 20.00     0.011 C 
HETATM    4  C4  UNL     1     -35.990  17.083  -5.368  1.00 20.00    -0.026 C 
HETATM    5  C5  UNL     1     -33.927  15.319  -3.816  1.00 20.00    -0.021 C 
HETATM    6  C6  UNL     1     -33.889  17.471  -2.871  1.00 20.00     0.009 C 
HETATM    7  C8  UNL     1     -35.950  15.580  -5.171  1.00 20.00     0.035 C 
HETATM    8  C9  UNL     1     -34.564  14.878  -5.111  1.00 20.00     0.007 C 
HETATM    9  C11 UNL     1     -33.743  15.087  -6.383  1.00 20.00     0.014 C 
ENDROOT
BRANCH   6  10
HETATM   10  C7  UNL     1     -33.354  17.704  -1.528  1.00 20.00     0.155 C 
HETATM   11  C10 UNL     1     -32.088  18.511  -1.401  1.00 20.00     0.096 C 
HETATM   12  O12 UNL     1     -33.927  17.245  -0.539  1.00 20.00    -0.293 OA
ENDBRANCH   6  10
TORSDOF 1
ENDMDL
MODEL 8
REMARK VINA RESULT:      -3.6     13.799     15.203
REMARK  1 active torsions:
REMARK  status: ('A' for Active; 'I' for Inactive)
REMARK    1  A    between atoms: C6_6  and  C7_7 
ROOT
HETATM    1  C1  UNL     1     -24.907  -0.990  12.038  1.00 20.00    -0.003 C 
HETATM    2  C2  UNL     1     -23.908  -1.999  11.699  1.00 20.00     0.015 C 
HETATM    3  C3  UNL     1     -25.229  -3.105   9.980  1.00 20.00     0.011 C 
HETATM    4  C4  UNL     1     -26.233  -1.073  12.269  1.00 20.00    -0.026 C 
HETATM    5  C5  UNL     1     -26.201  -3.748  10.650  1.00 20.00    -0.021 C 
HETATM    6  C6  UNL     1     -24.000  -2.925  10.723  1.00 20.00     0.009 C 
HETATM    7  C8  UNL     1     -27.176  -2.259  12.332  1.00 20.00     0.035 C 
HETATM    8  C9  UNL     1     -27.478  -3.034  11.019  1.00 20.00     0.007 C 
HETATM    9  C11 UNL     1     -28.101  -2.147   9.942  1.00 20.00     0.014 C 
ENDROOT
BRANCH   6  10
HETATM   10  C7  UNL     1     -22.851  -3.797  10.473  1.00 20.00     0.155 C 
HETATM   11  C10 UNL     1     -22.699  -4.388   9.096  1.00 20.00     0.096 C 
HETATM   12  O12 UNL     1     -22.042  -4.038  11.370  1.00 20.00    -0.293 OA
ENDBRANCH   6  10
TORSDOF 1
ENDMDL
MODEL 9
REMARK VINA RESULT:      -3.6     13.218     14.826
REMARK  1 active torsions:
REMARK  status: ('A' for Active; 'I' for Inactive)
REMARK    1  A    between atoms: C6_6  and  C7_7 
ROOT
HETATM    1  C1  UNL     1     -25.354  -1.037  12.165  1.00 20.00    -0.003 C 
HETATM    2  C2  UNL     1     -26.630  -1.233  11.482  1.00 20.00     0.015 C 
HETATM    3  C3  UNL     1     -26.491  -3.660  11.368  1.00 20.00     0.011 C 
HETATM    4  C4  UNL     1     -24.127  -1.553  11.952  1.00 20.00    -0.026 C 
HETATM    5  C5  UNL     1     -25.535  -3.911  10.458  1.00 20.00    -0.021 C 
HETATM    6  C6  UNL     1     -27.201  -2.415  11.173  1.00 20.00     0.009 C 
HETATM    7  C8  UNL     1     -23.592  -2.481  10.879  1.00 20.00     0.035 C 
HETATM    8  C9  UNL     1     -24.083  -3.956  10.864  1.00 20.00     0.007 C 
HETATM    9  C11 UNL     1     -23.758  -4.696  12.162  1.00 20.00     0.014 C 
ENDROOT
BRANCH   6  10
HETATM   10  C7  UNL     1     -28.534  -2.412  10.567  1.00 20.00     0.155 C 
HETATM   11  C10 UNL     1     -29.093  -3.723  10.081  1.00 20.00     0.096 C 
HETATM   12  O12 UNL     1     -29.168  -1.361  10.457  1.00 20.00    -0.293 OA
ENDBRANCH   6  10
TORSDOF 1
ENDMDL
