MODEL 1
REMARK VINA RESULT:      -5.6      0.000      0.000
REMARK  1 active torsions:
REMARK  status: ('A' for Active; 'I' for Inactive)
REMARK    1  A    between atoms: C2_2  and  C3_3 
ROOT
HETATM    1  C1  UNL     1     -33.597   8.108   4.825  1.00 20.00    -0.015 C 
HETATM    2  C2  UNL     1     -33.726   6.821   4.491  1.00 20.00    -0.012 C 
HETATM    3  C4  UNL     1     -32.355   8.693   4.238  1.00 20.00     0.032 C 
HETATM    4  C5  UNL     1     -32.596   6.333   3.636  1.00 20.00     0.022 C 
HETATM    5  C6  UNL     1     -31.969   7.669   3.151  1.00 20.00    -0.007 C 
HETATM    6  C8  UNL     1     -32.997   5.366   2.526  1.00 20.00     0.015 C 
HETATM    7  C9  UNL     1     -32.453   8.147   1.776  1.00 20.00     0.011 C 
ENDROOT
BRANCH   2   8
HETATM    8  C3  UNL     1     -34.827   6.010   4.983  1.00 20.00     0.151 C 
HETATM    9  C7  UNL     1     -34.663   5.300   6.309  1.00 20.00     0.096 C 
HETATM   10  O10 UNL     1     -35.875   5.892   4.333  1.00 20.00    -0.293 OA
ENDBRANCH   2   8
TORSDOF 1
ENDMDL
MODEL 2
REMARK VINA RESULT:      -4.9      1.903      3.634
REMARK  1 active torsions:
REMARK  status: ('A' for Active; 'I' for Inactive)
REMARK    1  A    between atoms: C2_2  and  C3_3 
ROOT
HETATM    1  C1  UNL     1     -33.957   7.083   5.992  1.00 20.00    -0.015 C 
HETATM    2  C2  UNL     1     -33.528   7.214   4.734  1.00 20.00    -0.012 C 
HETATM    3  C4  UNL     1     -34.849   5.894   6.134  1.00 20.00     0.032 C 
HETATM    4  C5  UNL     1     -34.062   6.145   3.829  1.00 20.00     0.022 C 
HETATM    5  C6  UNL     1     -34.555   5.086   4.853  1.00 20.00    -0.007 C 
HETATM    6  C8  UNL     1     -33.076   5.629   2.787  1.00 20.00     0.015 C 
HETATM    7  C9  UNL     1     -33.554   3.963   5.151  1.00 20.00     0.011 C 
ENDROOT
BRANCH   2   8
HETATM    8  C3  UNL     1     -32.689   8.328   4.324  1.00 20.00     0.151 C 
HETATM    9  C7  UNL     1     -32.640   8.693   2.857  1.00 20.00     0.096 C 
HETATM   10  O10 UNL     1     -32.020   8.963   5.152  1.00 20.00    -0.293 OA
ENDBRANCH   2   8
TORSDOF 1
ENDMDL
MODEL 3
REMARK VINA RESULT:      -4.6      1.834      3.672
REMARK  1 active torsions:
REMARK  status: ('A' for Active; 'I' for Inactive)
REMARK    1  A    between atoms: C2_2  and  C3_3 
ROOT
HETATM    1  C1  UNL     1     -33.257   7.931   5.651  1.00 20.00    -0.015 C 
HETATM    2  C2  UNL     1     -33.331   7.346   4.453  1.00 20.00    -0.012 C 
HETATM    3  C4  UNL     1     -34.252   7.344   6.597  1.00 20.00     0.032 C 
HETATM    4  C5  UNL     1     -34.384   6.282   4.395  1.00 20.00     0.022 C 
HETATM    5  C6  UNL     1     -34.654   6.026   5.904  1.00 20.00    -0.007 C 
HETATM    6  C8  UNL     1     -34.011   5.045   3.585  1.00 20.00     0.015 C 
HETATM    7  C9  UNL     1     -33.875   4.850   6.507  1.00 20.00     0.011 C 
ENDROOT
BRANCH   2   8
HETATM    8  C3  UNL     1     -32.502   7.777   3.339  1.00 20.00     0.151 C 
HETATM    9  C7  UNL     1     -32.712   9.166   2.778  1.00 20.00     0.096 C 
HETATM   10  O10 UNL     1     -31.645   7.026   2.852  1.00 20.00    -0.293 OA
ENDBRANCH   2   8
TORSDOF 1
ENDMDL
MODEL 4
REMARK VINA RESULT:      -4.2      1.152      2.374
REMARK  1 active torsions:
REMARK  status: ('A' for Active; 'I' for Inactive)
REMARK    1  A    between atoms: C2_2  and  C3_3 
ROOT
HETATM    1  C1  UNL     1     -32.794   6.195   3.144  1.00 20.00    -0.015 C 
HETATM    2  C2  UNL     1     -33.633   6.242   4.183  1.00 20.00    -0.012 C 
HETATM    3  C4  UNL     1     -32.433   7.569   2.684  1.00 20.00     0.032 C 
HETATM    4  C5  UNL     1     -33.976   7.645   4.583  1.00 20.00     0.022 C 
HETATM    5  C6  UNL     1     -32.858   8.456   3.872  1.00 20.00    -0.007 C 
HETATM    6  C8  UNL     1     -34.089   7.879   6.086  1.00 20.00     0.015 C 
HETATM    7  C9  UNL     1     -31.643   8.785   4.749  1.00 20.00     0.011 C 
ENDROOT
BRANCH   2   8
HETATM    8  C3  UNL     1     -34.177   5.034   4.782  1.00 20.00     0.151 C 
HETATM    9  C7  UNL     1     -34.857   5.140   6.129  1.00 20.00     0.096 C 
HETATM   10  O10 UNL     1     -34.083   3.938   4.210  1.00 20.00    -0.293 OA
ENDBRANCH   2   8
TORSDOF 1
ENDMDL
MODEL 5
REMARK VINA RESULT:      -4.1      1.576      3.543
REMARK  1 active torsions:
REMARK  status: ('A' for Active; 'I' for Inactive)
REMARK    1  A    between atoms: C2_2  and  C3_3 
ROOT
HETATM    1  C1  UNL     1     -32.881   7.894   4.834  1.00 20.00    -0.015 C 
HETATM    2  C2  UNL     1     -33.289   6.909   4.028  1.00 20.00    -0.012 C 
HETATM    3  C4  UNL     1     -33.724   7.965   6.064  1.00 20.00     0.032 C 
HETATM    4  C5  UNL     1     -34.469   6.167   4.579  1.00 20.00     0.022 C 
HETATM    5  C6  UNL     1     -34.444   6.601   6.070  1.00 20.00    -0.007 C 
HETATM    6  C8  UNL     1     -34.453   4.660   4.342  1.00 20.00     0.015 C 
HETATM    7  C9  UNL     1     -33.727   5.627   7.014  1.00 20.00     0.011 C 
ENDROOT
BRANCH   2   8
HETATM    8  C3  UNL     1     -32.664   6.667   2.738  1.00 20.00     0.151 C 
HETATM    9  C7  UNL     1     -32.141   7.852   1.957  1.00 20.00     0.096 C 
HETATM   10  O10 UNL     1     -32.565   5.519   2.281  1.00 20.00    -0.293 OA
ENDBRANCH   2   8
TORSDOF 1
ENDMDL
MODEL 6
REMARK VINA RESULT:      -4.0      1.957      3.980
REMARK  1 active torsions:
REMARK  status: ('A' for Active; 'I' for Inactive)
REMARK    1  A    between atoms: C2_2  and  C3_3 
ROOT
HETATM    1  C1  UNL     1     -32.993   6.383   3.015  1.00 20.00    -0.015 C 
HETATM    2  C2  UNL     1     -32.964   7.215   4.060  1.00 20.00    -0.012 C 
HETATM    3  C4  UNL     1     -33.479   5.030   3.421  1.00 20.00     0.032 C 
HETATM    4  C5  UNL     1     -33.416   6.562   5.330  1.00 20.00     0.022 C 
HETATM    5  C6  UNL     1     -34.135   5.294   4.792  1.00 20.00    -0.007 C 
HETATM    6  C8  UNL     1     -34.257   7.443   6.248  1.00 20.00     0.015 C 
HETATM    7  C9  UNL     1     -35.655   5.433   4.635  1.00 20.00     0.011 C 
ENDROOT
BRANCH   2   8
HETATM    8  C3  UNL     1     -32.476   8.579   3.937  1.00 20.00     0.151 C 
HETATM    9  C7  UNL     1     -32.637   9.286   2.609  1.00 20.00     0.096 C 
HETATM   10  O10 UNL     1     -31.933   9.153   4.892  1.00 20.00    -0.293 OA
ENDBRANCH   2   8
TORSDOF 1
ENDMDL
MODEL 7
REMARK VINA RESULT:      -3.9     11.743     13.040
REMARK  1 active torsions:
REMARK  status: ('A' for Active; 'I' for Inactive)
REMARK    1  A    between atoms: C2_2  and  C3_3 
ROOT
HETATM    1  C1  UNL     1     -34.094  14.611  -4.717  1.00 20.00    -0.015 C 
HETATM    2  C2  UNL     1     -34.901  15.618  -5.060  1.00 20.00    -0.012 C 
HETATM    3  C4  UNL     1     -32.846  15.119  -4.073  1.00 20.00     0.032 C 
HETATM    4  C5  UNL     1     -34.330  16.959  -4.710  1.00 20.00     0.022 C 
HETATM    5  C6  UNL     1     -33.213  16.570  -3.702  1.00 20.00    -0.007 C 
HETATM    6  C8  UNL     1     -35.341  17.978  -4.195  1.00 20.00     0.015 C 
HETATM    7  C9  UNL     1     -33.620  16.654  -2.226  1.00 20.00     0.011 C 
ENDROOT
BRANCH   2   8
HETATM    8  C3  UNL     1     -36.158  15.388  -5.753  1.00 20.00     0.151 C 
HETATM    9  C7  UNL     1     -36.319  15.936  -7.154  1.00 20.00     0.096 C 
HETATM   10  O10 UNL     1     -37.083  14.765  -5.212  1.00 20.00    -0.293 OA
ENDBRANCH   2   8
TORSDOF 1
ENDMDL
MODEL 8
REMARK VINA RESULT:      -3.8     11.981     13.246
REMARK  1 active torsions:
REMARK  status: ('A' for Active; 'I' for Inactive)
REMARK    1  A    between atoms: C2_2  and  C3_3 
ROOT
HETATM    1  C1  UNL     1     -33.634  15.671  -3.500  1.00 20.00    -0.015 C 
HETATM    2  C2  UNL     1     -34.150  16.071  -4.666  1.00 20.00    -0.012 C 
HETATM    3  C4  UNL     1     -33.177  16.837  -2.687  1.00 20.00     0.032 C 
HETATM    4  C5  UNL     1     -34.120  17.561  -4.828  1.00 20.00     0.022 C 
HETATM    5  C6  UNL     1     -33.881  18.030  -3.366  1.00 20.00    -0.007 C 
HETATM    6  C8  UNL     1     -35.345  18.162  -5.509  1.00 20.00     0.015 C 
HETATM    7  C9  UNL     1     -35.152  18.406  -2.594  1.00 20.00     0.011 C 
ENDROOT
BRANCH   2   8
HETATM    8  C3  UNL     1     -34.617  15.121  -5.661  1.00 20.00     0.151 C 
HETATM    9  C7  UNL     1     -35.930  14.410  -5.419  1.00 20.00     0.096 C 
HETATM   10  O10 UNL     1     -33.956  14.889  -6.684  1.00 20.00    -0.293 OA
ENDBRANCH   2   8
TORSDOF 1
ENDMDL
MODEL 9
REMARK VINA RESULT:      -3.7      1.288      2.759
REMARK  1 active torsions:
REMARK  status: ('A' for Active; 'I' for Inactive)
REMARK    1  A    between atoms: C2_2  and  C3_3 
ROOT
HETATM    1  C1  UNL     1     -32.618   7.174   2.870  1.00 20.00    -0.015 C 
HETATM    2  C2  UNL     1     -33.369   6.502   3.748  1.00 20.00    -0.012 C 
HETATM    3  C4  UNL     1     -32.641   8.639   3.156  1.00 20.00     0.032 C 
HETATM    4  C5  UNL     1     -34.019   7.400   4.756  1.00 20.00     0.022 C 
HETATM    5  C6  UNL     1     -33.188   8.703   4.597  1.00 20.00    -0.007 C 
HETATM    6  C8  UNL     1     -34.083   6.841   6.173  1.00 20.00     0.015 C 
HETATM    7  C9  UNL     1     -32.035   8.858   5.596  1.00 20.00     0.011 C 
ENDROOT
BRANCH   2   8
HETATM    8  C3  UNL     1     -33.554   5.063   3.652  1.00 20.00     0.151 C 
HETATM    9  C7  UNL     1     -32.857   4.319   2.534  1.00 20.00     0.096 C 
HETATM   10  O10 UNL     1     -34.271   4.455   4.460  1.00 20.00    -0.293 OA
ENDBRANCH   2   8
TORSDOF 1
ENDMDL
