MODEL 1
REMARK VINA RESULT:      -4.4      0.000      0.000
REMARK  1 active torsions:
REMARK  status: ('A' for Active; 'I' for Inactive)
REMARK    1  A    between atoms: C2_2  and  C3_3 
ROOT
HETATM    1  C1  UNL     1     -41.342  13.639   4.749  1.00 20.00    -0.015 C 
HETATM    2  C2  UNL     1     -40.932  12.959   5.835  1.00 20.00    -0.012 C 
HETATM    3  C4  UNL     1     -42.598  14.485   4.813  1.00 20.00     0.033 C 
HETATM    4  C5  UNL     1     -43.302  12.882   6.662  1.00 20.00     0.016 C 
HETATM    5  C6  UNL     1     -41.790  13.063   7.059  1.00 20.00     0.030 C 
HETATM    6  C7  UNL     1     -43.214  14.384   6.228  1.00 20.00    -0.002 C 
HETATM    7  C8  UNL     1     -42.191  14.561   7.436  1.00 20.00    -0.036 C 
HETATM    8  C10 UNL     1     -42.840  14.728   8.824  1.00 20.00     0.016 C 
HETATM    9  C11 UNL     1     -41.120  15.652   7.298  1.00 20.00     0.016 C 
ENDROOT
BRANCH   2  10
HETATM   10  C3  UNL     1     -39.714  12.156   5.788  1.00 20.00     0.151 C 
HETATM   11  C9  UNL     1     -39.213  11.696   4.439  1.00 20.00     0.096 C 
HETATM   12  O12 UNL     1     -39.112  11.857   6.825  1.00 20.00    -0.293 OA
ENDBRANCH   2  10
TORSDOF 1
ENDMDL
MODEL 2
REMARK VINA RESULT:      -4.2      0.968      2.113
REMARK  1 active torsions:
REMARK  status: ('A' for Active; 'I' for Inactive)
REMARK    1  A    between atoms: C2_2  and  C3_3 
ROOT
HETATM    1  C1  UNL     1     -42.135  12.273   6.671  1.00 20.00    -0.015 C 
HETATM    2  C2  UNL     1     -40.999  12.962   6.458  1.00 20.00    -0.012 C 
HETATM    3  C4  UNL     1     -43.417  13.009   7.005  1.00 20.00     0.033 C 
HETATM    4  C5  UNL     1     -41.869  14.815   7.912  1.00 20.00     0.016 C 
HETATM    5  C6  UNL     1     -41.077  14.451   6.602  1.00 20.00     0.030 C 
HETATM    6  C7  UNL     1     -43.141  14.529   7.045  1.00 20.00    -0.002 C 
HETATM    7  C8  UNL     1     -42.304  15.108   5.820  1.00 20.00    -0.036 C 
HETATM    8  C10 UNL     1     -42.262  16.646   5.724  1.00 20.00     0.016 C 
HETATM    9  C11 UNL     1     -42.640  14.571   4.422  1.00 20.00     0.016 C 
ENDROOT
BRANCH   2  10
HETATM   10  C3  UNL     1     -39.764  12.263   6.117  1.00 20.00     0.151 C 
HETATM   11  C9  UNL     1     -39.505  11.935   4.665  1.00 20.00     0.096 C 
HETATM   12  O12 UNL     1     -38.955  11.943   6.995  1.00 20.00    -0.293 OA
ENDBRANCH   2  10
TORSDOF 1
ENDMDL
MODEL 3
REMARK VINA RESULT:      -4.1      1.542      2.498
REMARK  1 active torsions:
REMARK  status: ('A' for Active; 'I' for Inactive)
REMARK    1  A    between atoms: C2_2  and  C3_3 
ROOT
HETATM    1  C1  UNL     1     -42.200  12.969   6.968  1.00 20.00    -0.015 C 
HETATM    2  C2  UNL     1     -41.042  13.432   6.464  1.00 20.00    -0.012 C 
HETATM    3  C4  UNL     1     -42.820  13.634   8.180  1.00 20.00     0.033 C 
HETATM    4  C5  UNL     1     -40.433  14.328   8.730  1.00 20.00     0.016 C 
HETATM    5  C6  UNL     1     -40.411  14.589   7.178  1.00 20.00     0.030 C 
HETATM    6  C7  UNL     1     -41.921  14.805   8.639  1.00 20.00    -0.002 C 
HETATM    7  C8  UNL     1     -41.424  15.783   7.484  1.00 20.00    -0.036 C 
HETATM    8  C10 UNL     1     -40.761  17.087   7.971  1.00 20.00     0.016 C 
HETATM    9  C11 UNL     1     -42.440  16.165   6.399  1.00 20.00     0.016 C 
ENDROOT
BRANCH   2  10
HETATM   10  C3  UNL     1     -40.447  12.809   5.286  1.00 20.00     0.151 C 
HETATM   11  C9  UNL     1     -39.451  11.692   5.494  1.00 20.00     0.096 C 
HETATM   12  O12 UNL     1     -40.745  13.190   4.149  1.00 20.00    -0.293 OA
ENDBRANCH   2  10
TORSDOF 1
ENDMDL
MODEL 4
REMARK VINA RESULT:      -3.8     12.752     14.327
REMARK  1 active torsions:
REMARK  status: ('A' for Active; 'I' for Inactive)
REMARK    1  A    between atoms: C2_2  and  C3_3 
ROOT
HETATM    1  C1  UNL     1     -35.098  14.681  -5.140  1.00 20.00    -0.015 C 
HETATM    2  C2  UNL     1     -34.349  15.760  -4.849  1.00 20.00    -0.012 C 
HETATM    3  C4  UNL     1     -36.212  14.784  -6.162  1.00 20.00     0.033 C 
HETATM    4  C5  UNL     1     -36.259  17.247  -5.518  1.00 20.00     0.016 C 
HETATM    5  C6  UNL     1     -34.700  17.035  -5.554  1.00 20.00     0.030 C 
HETATM    6  C7  UNL     1     -36.276  16.229  -6.707  1.00 20.00    -0.002 C 
HETATM    7  C8  UNL     1     -34.879  16.866  -7.131  1.00 20.00    -0.036 C 
HETATM    8  C10 UNL     1     -34.974  18.188  -7.918  1.00 20.00     0.016 C 
HETATM    9  C11 UNL     1     -33.890  15.961  -7.878  1.00 20.00     0.016 C 
ENDROOT
BRANCH   2  10
HETATM   10  C3  UNL     1     -33.262  15.666  -3.879  1.00 20.00     0.151 C 
HETATM   11  C9  UNL     1     -33.341  16.515  -2.632  1.00 20.00     0.096 C 
HETATM   12  O12 UNL     1     -32.300  14.916  -4.076  1.00 20.00    -0.293 OA
ENDBRANCH   2  10
TORSDOF 1
ENDMDL
MODEL 5
REMARK VINA RESULT:      -3.7     12.972     14.068
REMARK  1 active torsions:
REMARK  status: ('A' for Active; 'I' for Inactive)
REMARK    1  A    between atoms: C2_2  and  C3_3 
ROOT
HETATM    1  C1  UNL     1     -34.492  15.140  -6.554  1.00 20.00    -0.015 C 
HETATM    2  C2  UNL     1     -34.615  15.658  -5.318  1.00 20.00    -0.012 C 
HETATM    3  C4  UNL     1     -35.395  15.622  -7.672  1.00 20.00     0.033 C 
HETATM    4  C5  UNL     1     -37.021  16.192  -5.798  1.00 20.00     0.016 C 
HETATM    5  C6  UNL     1     -35.689  16.685  -5.121  1.00 20.00     0.030 C 
HETATM    6  C7  UNL     1     -36.361  16.697  -7.124  1.00 20.00    -0.002 C 
HETATM    7  C8  UNL     1     -35.690  17.832  -6.230  1.00 20.00    -0.036 C 
HETATM    8  C10 UNL     1     -36.597  19.038  -5.914  1.00 20.00     0.016 C 
HETATM    9  C11 UNL     1     -34.337  18.387  -6.697  1.00 20.00     0.016 C 
ENDROOT
BRANCH   2  10
HETATM   10  C3  UNL     1     -33.738  15.213  -4.239  1.00 20.00     0.151 C 
HETATM   11  C9  UNL     1     -33.340  16.216  -3.182  1.00 20.00     0.096 C 
HETATM   12  O12 UNL     1     -33.327  14.049  -4.197  1.00 20.00    -0.293 OA
ENDBRANCH   2  10
TORSDOF 1
ENDMDL
MODEL 6
REMARK VINA RESULT:      -3.6     12.673     14.010
REMARK  1 active torsions:
REMARK  status: ('A' for Active; 'I' for Inactive)
REMARK    1  A    between atoms: C2_2  and  C3_3 
ROOT
HETATM    1  C1  UNL     1     -34.153  15.043  -4.012  1.00 20.00    -0.015 C 
HETATM    2  C2  UNL     1     -34.262  16.352  -4.302  1.00 20.00    -0.012 C 
HETATM    3  C4  UNL     1     -34.969  14.025  -4.783  1.00 20.00     0.033 C 
HETATM    4  C5  UNL     1     -36.589  15.953  -5.158  1.00 20.00     0.016 C 
HETATM    5  C6  UNL     1     -35.236  16.726  -5.378  1.00 20.00     0.030 C 
HETATM    6  C7  UNL     1     -35.842  14.753  -5.831  1.00 20.00    -0.002 C 
HETATM    7  C8  UNL     1     -35.091  15.853  -6.706  1.00 20.00    -0.036 C 
HETATM    8  C10 UNL     1     -35.885  16.379  -7.918  1.00 20.00     0.016 C 
HETATM    9  C11 UNL     1     -33.677  15.515  -7.197  1.00 20.00     0.016 C 
ENDROOT
BRANCH   2  10
HETATM   10  C3  UNL     1     -33.467  17.339  -3.578  1.00 20.00     0.151 C 
HETATM   11  C9  UNL     1     -33.260  17.140  -2.095  1.00 20.00     0.096 C 
HETATM   12  O12 UNL     1     -32.982  18.314  -4.162  1.00 20.00    -0.293 OA
ENDBRANCH   2  10
TORSDOF 1
ENDMDL
MODEL 7
REMARK VINA RESULT:      -3.6     17.982     19.221
REMARK  1 active torsions:
REMARK  status: ('A' for Active; 'I' for Inactive)
REMARK    1  A    between atoms: C2_2  and  C3_3 
ROOT
HETATM    1  C1  UNL     1     -21.961  18.400  11.011  1.00 20.00    -0.015 C 
HETATM    2  C2  UNL     1     -22.767  17.915  10.049  1.00 20.00    -0.012 C 
HETATM    3  C4  UNL     1     -22.547  18.858  12.332  1.00 20.00     0.033 C 
HETATM    4  C5  UNL     1     -24.669  19.263  10.983  1.00 20.00     0.016 C 
HETATM    5  C6  UNL     1     -24.235  17.890  10.348  1.00 20.00     0.030 C 
HETATM    6  C7  UNL     1     -24.081  18.667  12.307  1.00 20.00    -0.002 C 
HETATM    7  C8  UNL     1     -24.589  17.257  11.769  1.00 20.00    -0.036 C 
HETATM    8  C10 UNL     1     -26.087  16.970  11.997  1.00 20.00     0.016 C 
HETATM    9  C11 UNL     1     -23.813  16.011  12.219  1.00 20.00     0.016 C 
ENDROOT
BRANCH   2  10
HETATM   10  C3  UNL     1     -22.210  17.454   8.781  1.00 20.00     0.151 C 
HETATM   11  C9  UNL     1     -21.394  18.428   7.964  1.00 20.00     0.096 C 
HETATM   12  O12 UNL     1     -22.407  16.301   8.384  1.00 20.00    -0.293 OA
ENDBRANCH   2  10
TORSDOF 1
ENDMDL
MODEL 8
REMARK VINA RESULT:      -3.6      1.921      3.423
REMARK  1 active torsions:
REMARK  status: ('A' for Active; 'I' for Inactive)
REMARK    1  A    between atoms: C2_2  and  C3_3 
ROOT
HETATM    1  C1  UNL     1     -40.794  13.266   5.028  1.00 20.00    -0.015 C 
HETATM    2  C2  UNL     1     -41.742  14.202   5.218  1.00 20.00    -0.012 C 
HETATM    3  C4  UNL     1     -40.092  12.645   6.219  1.00 20.00     0.033 C 
HETATM    4  C5  UNL     1     -40.667  14.827   7.400  1.00 20.00     0.016 C 
HETATM    5  C6  UNL     1     -42.024  14.600   6.635  1.00 20.00     0.030 C 
HETATM    6  C7  UNL     1     -40.645  13.266   7.522  1.00 20.00    -0.002 C 
HETATM    7  C8  UNL     1     -42.233  13.360   7.619  1.00 20.00    -0.036 C 
HETATM    8  C10 UNL     1     -42.783  13.724   9.012  1.00 20.00     0.016 C 
HETATM    9  C11 UNL     1     -43.041  12.160   7.107  1.00 20.00     0.016 C 
ENDROOT
BRANCH   2  10
HETATM   10  C3  UNL     1     -42.436  14.793   4.078  1.00 20.00     0.151 C 
HETATM   11  C9  UNL     1     -43.417  15.911   4.340  1.00 20.00     0.096 C 
HETATM   12  O12 UNL     1     -42.231  14.383   2.930  1.00 20.00    -0.293 OA
ENDBRANCH   2  10
TORSDOF 1
ENDMDL
MODEL 9
REMARK VINA RESULT:      -3.5     11.528     12.843
REMARK  1 active torsions:
REMARK  status: ('A' for Active; 'I' for Inactive)
REMARK    1  A    between atoms: C2_2  and  C3_3 
ROOT
HETATM    1  C1  UNL     1     -35.094  17.274  -3.601  1.00 20.00    -0.015 C 
HETATM    2  C2  UNL     1     -33.976  16.574  -3.340  1.00 20.00    -0.012 C 
HETATM    3  C4  UNL     1     -35.427  18.505  -2.782  1.00 20.00     0.033 C 
HETATM    4  C5  UNL     1     -34.042  17.384  -0.964  1.00 20.00     0.016 C 
HETATM    5  C6  UNL     1     -33.128  17.057  -2.202  1.00 20.00     0.030 C 
HETATM    6  C7  UNL     1     -34.329  18.726  -1.717  1.00 20.00    -0.002 C 
HETATM    7  C8  UNL     1     -32.830  18.624  -2.245  1.00 20.00    -0.036 C 
HETATM    8  C10 UNL     1     -31.752  19.106  -1.254  1.00 20.00     0.016 C 
HETATM    9  C11 UNL     1     -32.518  19.263  -3.605  1.00 20.00     0.016 C 
ENDROOT
BRANCH   2  10
HETATM   10  C3  UNL     1     -33.637  15.398  -4.135  1.00 20.00     0.151 C 
HETATM   11  C9  UNL     1     -34.740  14.719  -4.912  1.00 20.00     0.096 C 
HETATM   12  O12 UNL     1     -32.479  14.966  -4.166  1.00 20.00    -0.293 OA
ENDBRANCH   2  10
TORSDOF 1
ENDMDL
