MODEL 1
REMARK VINA RESULT:      -3.6      0.000      0.000
REMARK  2 active torsions:
REMARK  status: ('A' for Active; 'I' for Inactive)
REMARK    1  A    between atoms: C3_3  and  C5_5 
REMARK    2  A    between atoms: C4_4  and  C9_9 
ROOT
HETATM    1  C1  UNL     1     -42.863  13.987   7.882  1.00 20.00     0.005 C 
HETATM    2  C2  UNL     1     -43.091  12.680   7.886  1.00 20.00     0.132 C 
HETATM    3  C4  UNL     1     -41.755  14.277   6.934  1.00 20.00     0.050 C 
HETATM    4  C5  UNL     1     -41.621  12.903   6.249  1.00 20.00     0.204 C 
HETATM    5  O11 UNL     1     -42.308  11.919   7.045  1.00 20.00    -0.350 OA
ENDROOT
BRANCH   3   6
HETATM    6  C9  UNL     1     -40.520  14.786   7.668  1.00 20.00    -0.012 C 
HETATM    7  C7  UNL     1     -40.354  16.294   7.467  1.00 20.00     0.010 C 
HETATM    8  C8  UNL     1     -40.598  14.454   9.159  1.00 20.00     0.010 C 
ENDBRANCH   3   6
BRANCH   4   9
HETATM    9  C3  UNL     1     -40.221  12.409   6.071  1.00 20.00     0.152 C 
HETATM   10  C6  UNL     1     -39.695  12.359   4.662  1.00 20.00     0.093 C 
HETATM   11  O10 UNL     1     -39.531  12.062   7.029  1.00 20.00    -0.296 OA
ENDBRANCH   4   9
TORSDOF 2
ENDMDL
MODEL 2
REMARK VINA RESULT:      -3.6      9.774     11.082
REMARK  2 active torsions:
REMARK  status: ('A' for Active; 'I' for Inactive)
REMARK    1  A    between atoms: C3_3  and  C5_5 
REMARK    2  A    between atoms: C4_4  and  C9_9 
ROOT
HETATM    1  C1  UNL     1     -32.179   6.437   2.561  1.00 20.00     0.005 C 
HETATM    2  C2  UNL     1     -32.948   5.419   2.195  1.00 20.00     0.132 C 
HETATM    3  C4  UNL     1     -32.525   6.822   3.954  1.00 20.00     0.050 C 
HETATM    4  C5  UNL     1     -33.443   5.645   4.339  1.00 20.00     0.204 C 
HETATM    5  O11 UNL     1     -33.839   4.955   3.138  1.00 20.00    -0.350 OA
ENDROOT
BRANCH   3   6
HETATM    6  C9  UNL     1     -33.154   8.209   4.003  1.00 20.00    -0.012 C 
HETATM    7  C7  UNL     1     -32.620   9.005   5.195  1.00 20.00     0.010 C 
HETATM    8  C8  UNL     1     -32.899   8.967   2.700  1.00 20.00     0.010 C 
ENDBRANCH   3   6
BRANCH   4   9
HETATM    9  C3  UNL     1     -34.701   6.019   5.053  1.00 20.00     0.152 C 
HETATM   10  C6  UNL     1     -34.590   6.273   6.532  1.00 20.00     0.093 C 
HETATM   11  O10 UNL     1     -35.776   6.117   4.461  1.00 20.00    -0.296 OA
ENDBRANCH   4   9
TORSDOF 2
ENDMDL
MODEL 3
REMARK VINA RESULT:      -3.6     12.549     13.923
REMARK  2 active torsions:
REMARK  status: ('A' for Active; 'I' for Inactive)
REMARK    1  A    between atoms: C3_3  and  C5_5 
REMARK    2  A    between atoms: C4_4  and  C9_9 
ROOT
HETATM    1  C1  UNL     1     -33.190  16.384  -2.908  1.00 20.00     0.005 C 
HETATM    2  C2  UNL     1     -33.754  17.192  -2.019  1.00 20.00     0.132 C 
HETATM    3  C4  UNL     1     -33.669  16.757  -4.265  1.00 20.00     0.050 C 
HETATM    4  C5  UNL     1     -34.390  18.080  -3.942  1.00 20.00     0.204 C 
HETATM    5  O11 UNL     1     -34.600  18.158  -2.519  1.00 20.00    -0.350 OA
ENDROOT
BRANCH   3   6
HETATM    6  C9  UNL     1     -34.528  15.653  -4.869  1.00 20.00    -0.012 C 
HETATM    7  C7  UNL     1     -34.217  15.477  -6.356  1.00 20.00     0.010 C 
HETATM    8  C8  UNL     1     -34.322  14.334  -4.123  1.00 20.00     0.010 C 
ENDBRANCH   3   6
BRANCH   4   9
HETATM    9  C3  UNL     1     -35.730  18.254  -4.583  1.00 20.00     0.152 C 
HETATM   10  C6  UNL     1     -35.746  18.838  -5.969  1.00 20.00     0.093 C 
HETATM   11  O10 UNL     1     -36.768  17.934  -4.006  1.00 20.00    -0.296 OA
ENDBRANCH   4   9
TORSDOF 2
ENDMDL
MODEL 4
REMARK VINA RESULT:      -3.6     13.685     14.758
REMARK  2 active torsions:
REMARK  status: ('A' for Active; 'I' for Inactive)
REMARK    1  A    between atoms: C3_3  and  C5_5 
REMARK    2  A    between atoms: C4_4  and  C9_9 
ROOT
HETATM    1  C1  UNL     1     -33.720  16.617  -3.606  1.00 20.00     0.005 C 
HETATM    2  C2  UNL     1     -33.024  15.502  -3.790  1.00 20.00     0.132 C 
HETATM    3  C4  UNL     1     -34.766  16.707  -4.658  1.00 20.00     0.050 C 
HETATM    4  C5  UNL     1     -34.653  15.298  -5.272  1.00 20.00     0.204 C 
HETATM    5  O11 UNL     1     -33.411  14.705  -4.845  1.00 20.00    -0.350 OA
ENDROOT
BRANCH   3   6
HETATM    6  C9  UNL     1     -34.501  17.875  -5.600  1.00 20.00    -0.012 C 
HETATM    7  C7  UNL     1     -35.804  18.598  -5.947  1.00 20.00     0.010 C 
HETATM    8  C8  UNL     1     -33.498  18.852  -4.985  1.00 20.00     0.010 C 
ENDBRANCH   3   6
BRANCH   4   9
HETATM    9  C3  UNL     1     -34.661  15.247  -6.767  1.00 20.00     0.152 C 
HETATM   10  C6  UNL     1     -36.005  15.320  -7.439  1.00 20.00     0.093 C 
HETATM   11  O10 UNL     1     -33.619  15.153  -7.415  1.00 20.00    -0.296 OA
ENDBRANCH   4   9
TORSDOF 2
ENDMDL
MODEL 5
REMARK VINA RESULT:      -3.6      9.177     10.796
REMARK  2 active torsions:
REMARK  status: ('A' for Active; 'I' for Inactive)
REMARK    1  A    between atoms: C3_3  and  C5_5 
REMARK    2  A    between atoms: C4_4  and  C9_9 
ROOT
HETATM    1  C1  UNL     1     -34.074   7.234   6.181  1.00 20.00     0.005 C 
HETATM    2  C2  UNL     1     -33.923   8.543   6.024  1.00 20.00     0.132 C 
HETATM    3  C4  UNL     1     -33.289   6.533   5.132  1.00 20.00     0.050 C 
HETATM    4  C5  UNL     1     -32.490   7.718   4.556  1.00 20.00     0.204 C 
HETATM    5  O11 UNL     1     -33.103   8.946   4.993  1.00 20.00    -0.350 OA
ENDROOT
BRANCH   3   6
HETATM    6  C9  UNL     1     -34.202   5.800   4.157  1.00 20.00    -0.012 C 
HETATM    7  C7  UNL     1     -33.887   4.303   4.140  1.00 20.00     0.010 C 
HETATM    8  C8  UNL     1     -35.672   6.030   4.512  1.00 20.00     0.010 C 
ENDBRANCH   3   6
BRANCH   4   9
HETATM    9  C3  UNL     1     -32.421   7.781   3.064  1.00 20.00     0.152 C 
HETATM   10  C6  UNL     1     -32.780   9.094   2.424  1.00 20.00     0.093 C 
HETATM   11  O10 UNL     1     -32.085   6.807   2.391  1.00 20.00    -0.296 OA
ENDBRANCH   4   9
TORSDOF 2
ENDMDL
MODEL 6
REMARK VINA RESULT:      -3.5     13.220     14.430
REMARK  2 active torsions:
REMARK  status: ('A' for Active; 'I' for Inactive)
REMARK    1  A    between atoms: C3_3  and  C5_5 
REMARK    2  A    between atoms: C4_4  and  C9_9 
ROOT
HETATM    1  C1  UNL     1     -35.731  16.629  -7.310  1.00 20.00     0.005 C 
HETATM    2  C2  UNL     1     -35.280  15.437  -7.679  1.00 20.00     0.132 C 
HETATM    3  C4  UNL     1     -35.159  16.967  -5.980  1.00 20.00     0.050 C 
HETATM    4  C5  UNL     1     -34.118  15.839  -5.841  1.00 20.00     0.204 C 
HETATM    5  O11 UNL     1     -34.415  14.813  -6.807  1.00 20.00    -0.350 OA
ENDROOT
BRANCH   3   6
HETATM    6  C9  UNL     1     -36.243  17.018  -4.910  1.00 20.00    -0.012 C 
HETATM    7  C7  UNL     1     -36.162  18.325  -4.119  1.00 20.00     0.010 C 
HETATM    8  C8  UNL     1     -37.630  16.859  -5.534  1.00 20.00     0.010 C 
ENDBRANCH   3   6
BRANCH   4   9
HETATM    9  C3  UNL     1     -34.074  15.169  -4.505  1.00 20.00     0.152 C 
HETATM   10  C6  UNL     1     -33.389  15.918  -3.394  1.00 20.00     0.093 C 
HETATM   11  O10 UNL     1     -34.574  14.060  -4.321  1.00 20.00    -0.296 OA
ENDBRANCH   4   9
TORSDOF 2
ENDMDL
MODEL 7
REMARK VINA RESULT:      -3.5     13.031     14.117
REMARK  2 active torsions:
REMARK  status: ('A' for Active; 'I' for Inactive)
REMARK    1  A    between atoms: C3_3  and  C5_5 
REMARK    2  A    between atoms: C4_4  and  C9_9 
ROOT
HETATM    1  C1  UNL     1     -34.580  18.374  -4.061  1.00 20.00     0.005 C 
HETATM    2  C2  UNL     1     -35.791  18.581  -4.562  1.00 20.00     0.132 C 
HETATM    3  C4  UNL     1     -33.983  17.186  -4.726  1.00 20.00     0.050 C 
HETATM    4  C5  UNL     1     -35.009  16.966  -5.855  1.00 20.00     0.204 C 
HETATM    5  O11 UNL     1     -36.203  17.710  -5.547  1.00 20.00    -0.350 OA
ENDROOT
BRANCH   3   6
HETATM    6  C9  UNL     1     -33.806  16.035  -3.743  1.00 20.00    -0.012 C 
HETATM    7  C7  UNL     1     -32.673  15.110  -4.190  1.00 20.00     0.010 C 
HETATM    8  C8  UNL     1     -33.538  16.561  -2.333  1.00 20.00     0.010 C 
ENDBRANCH   3   6
BRANCH   4   9
HETATM    9  C3  UNL     1     -35.431  15.548  -6.070  1.00 20.00     0.152 C 
HETATM   10  C6  UNL     1     -36.664  15.090  -5.339  1.00 20.00     0.093 C 
HETATM   11  O10 UNL     1     -34.803  14.792  -6.811  1.00 20.00    -0.296 OA
ENDBRANCH   4   9
TORSDOF 2
ENDMDL
MODEL 8
REMARK VINA RESULT:      -3.5      9.450     10.709
REMARK  2 active torsions:
REMARK  status: ('A' for Active; 'I' for Inactive)
REMARK    1  A    between atoms: C3_3  and  C5_5 
REMARK    2  A    between atoms: C4_4  and  C9_9 
ROOT
HETATM    1  C1  UNL     1     -34.098   7.934   5.902  1.00 20.00     0.005 C 
HETATM    2  C2  UNL     1     -34.385   6.836   6.590  1.00 20.00     0.132 C 
HETATM    3  C4  UNL     1     -33.985   7.580   4.462  1.00 20.00     0.050 C 
HETATM    4  C5  UNL     1     -34.523   6.137   4.497  1.00 20.00     0.204 C 
HETATM    5  O11 UNL     1     -34.526   5.675   5.861  1.00 20.00    -0.350 OA
ENDROOT
BRANCH   3   6
HETATM    6  C9  UNL     1     -32.556   7.754   3.962  1.00 20.00    -0.012 C 
HETATM    7  C7  UNL     1     -32.544   8.292   2.530  1.00 20.00     0.010 C 
HETATM    8  C8  UNL     1     -31.766   8.683   4.886  1.00 20.00     0.010 C 
ENDBRANCH   3   6
BRANCH   4   9
HETATM    9  C3  UNL     1     -33.736   5.140   3.708  1.00 20.00     0.152 C 
HETATM   10  C6  UNL     1     -33.423   3.834   4.388  1.00 20.00     0.093 C 
HETATM   11  O10 UNL     1     -33.363   5.374   2.559  1.00 20.00    -0.296 OA
ENDBRANCH   4   9
TORSDOF 2
ENDMDL
MODEL 9
REMARK VINA RESULT:      -3.5     13.108     14.913
REMARK  2 active torsions:
REMARK  status: ('A' for Active; 'I' for Inactive)
REMARK    1  A    between atoms: C3_3  and  C5_5 
REMARK    2  A    between atoms: C4_4  and  C9_9 
ROOT
HETATM    1  C1  UNL     1     -34.085  15.507  -7.206  1.00 20.00     0.005 C 
HETATM    2  C2  UNL     1     -34.345  16.724  -7.669  1.00 20.00     0.132 C 
HETATM    3  C4  UNL     1     -35.307  14.974  -6.548  1.00 20.00     0.050 C 
HETATM    4  C5  UNL     1     -36.333  16.039  -6.982  1.00 20.00     0.204 C 
HETATM    5  O11 UNL     1     -35.624  17.195  -7.467  1.00 20.00    -0.350 OA
ENDROOT
BRANCH   3   6
HETATM    6  C9  UNL     1     -35.099  14.813  -5.047  1.00 20.00    -0.012 C 
HETATM    7  C7  UNL     1     -35.791  13.548  -4.537  1.00 20.00     0.010 C 
HETATM    8  C8  UNL     1     -33.609  14.779  -4.705  1.00 20.00     0.010 C 
ENDBRANCH   3   6
BRANCH   4   9
HETATM    9  C3  UNL     1     -37.253  16.520  -5.906  1.00 20.00     0.152 C 
HETATM   10  C6  UNL     1     -36.889  17.814  -5.232  1.00 20.00     0.093 C 
HETATM   11  O10 UNL     1     -38.261  15.889  -5.589  1.00 20.00    -0.296 OA
ENDBRANCH   4   9
TORSDOF 2
ENDMDL
