MODEL 1
REMARK VINA RESULT:      -3.9      0.000      0.000
REMARK  0 active torsions:
REMARK  status: ('A' for Active; 'I' for Inactive)
ROOT
HETATM    1  C1  UNL     1     -27.827  18.795   3.725  1.00 20.00     0.017 C 
HETATM    2  C2  UNL     1     -28.925  18.844   3.247  1.00 20.00    -0.082 C 
HETATM    3  C3  UNL     1     -30.234  18.904   2.680  1.00 20.00     0.000 C 
HETATM    4  C4  UNL     1     -31.329  19.082   3.446  1.00 20.00    -0.041 C 
HETATM    5  C5  UNL     1     -30.357  18.782   1.180  1.00 20.00     0.083 C 
HETATM    6  C6  UNL     1     -32.711  19.126   2.825  1.00 20.00     0.307 C 
HETATM    7  C7  UNL     1     -31.715  19.256   0.621  1.00 20.00     0.223 C 
HETATM    8  C8  UNL     1     -31.318  19.263   4.942  1.00 20.00     0.046 C 
HETATM    9  C9  UNL     1     -31.782  18.892  -0.868  1.00 20.00     0.043 C 
HETATM   10  C10 UNL     1     -34.130  18.904   0.902  1.00 20.00     0.310 C 
HETATM   11  N11 UNL     1     -32.788  18.650   1.431  1.00 20.00     0.092 N 
ENDROOT
TORSDOF 0
ENDMDL
MODEL 2
REMARK VINA RESULT:      -3.7     11.536     12.507
REMARK  0 active torsions:
REMARK  status: ('A' for Active; 'I' for Inactive)
ROOT
HETATM    1  C1  UNL     1     -39.372  11.779   4.831  1.00 20.00     0.017 C 
HETATM    2  C2  UNL     1     -39.942  12.592   5.503  1.00 20.00    -0.082 C 
HETATM    3  C3  UNL     1     -40.622  13.560   6.302  1.00 20.00     0.000 C 
HETATM    4  C4  UNL     1     -41.608  14.328   5.796  1.00 20.00    -0.041 C 
HETATM    5  C5  UNL     1     -40.216  13.687   7.751  1.00 20.00     0.083 C 
HETATM    6  C6  UNL     1     -42.306  15.360   6.657  1.00 20.00     0.307 C 
HETATM    7  C7  UNL     1     -41.243  14.435   8.627  1.00 20.00     0.223 C 
HETATM    8  C8  UNL     1     -42.124  14.251   4.382  1.00 20.00     0.046 C 
HETATM    9  C9  UNL     1     -40.622  14.669  10.010  1.00 20.00     0.043 C 
HETATM   10  C10 UNL     1     -42.488  16.550   8.734  1.00 20.00     0.310 C 
HETATM   11  N11 UNL     1     -41.631  15.675   7.931  1.00 20.00     0.092 N 
ENDROOT
TORSDOF 0
ENDMDL
MODEL 3
REMARK VINA RESULT:      -3.6     12.615     13.099
REMARK  0 active torsions:
REMARK  status: ('A' for Active; 'I' for Inactive)
ROOT
HETATM    1  C1  UNL     1     -31.820   8.305   0.933  1.00 20.00     0.017 C 
HETATM    2  C2  UNL     1     -32.308   7.768   1.887  1.00 20.00    -0.082 C 
HETATM    3  C3  UNL     1     -32.889   7.127   3.022  1.00 20.00     0.000 C 
HETATM    4  C4  UNL     1     -33.163   5.806   3.025  1.00 20.00    -0.041 C 
HETATM    5  C5  UNL     1     -33.171   7.973   4.241  1.00 20.00     0.083 C 
HETATM    6  C6  UNL     1     -33.794   5.149   4.236  1.00 20.00     0.307 C 
HETATM    7  C7  UNL     1     -33.404   7.158   5.530  1.00 20.00     0.223 C 
HETATM    8  C8  UNL     1     -32.878   4.862   1.886  1.00 20.00     0.046 C 
HETATM    9  C9  UNL     1     -33.875   8.116   6.632  1.00 20.00     0.043 C 
HETATM   10  C10 UNL     1     -34.783   5.327   6.416  1.00 20.00     0.310 C 
HETATM   11  N11 UNL     1     -34.362   6.078   5.231  1.00 20.00     0.092 N 
ENDROOT
TORSDOF 0
ENDMDL
MODEL 4
REMARK VINA RESULT:      -3.6      6.248      8.669
REMARK  0 active torsions:
REMARK  status: ('A' for Active; 'I' for Inactive)
ROOT
HETATM    1  C1  UNL     1     -33.183  17.369  -1.717  1.00 20.00     0.017 C 
HETATM    2  C2  UNL     1     -33.678  17.075  -2.769  1.00 20.00    -0.082 C 
HETATM    3  C3  UNL     1     -34.268  16.723  -4.021  1.00 20.00     0.000 C 
HETATM    4  C4  UNL     1     -33.878  15.626  -4.702  1.00 20.00    -0.041 C 
HETATM    5  C5  UNL     1     -35.365  17.611  -4.556  1.00 20.00     0.083 C 
HETATM    6  C6  UNL     1     -34.506  15.279  -6.037  1.00 20.00     0.307 C 
HETATM    7  C7  UNL     1     -36.211  16.959  -5.671  1.00 20.00     0.223 C 
HETATM    8  C8  UNL     1     -32.830  14.647  -4.238  1.00 20.00     0.046 C 
HETATM    9  C9  UNL     1     -37.144  18.026  -6.258  1.00 20.00     0.043 C 
HETATM   10  C10 UNL     1     -35.979  15.842  -7.846  1.00 20.00     0.310 C 
HETATM   11  N11 UNL     1     -35.296  16.359  -6.658  1.00 20.00     0.092 N 
ENDROOT
TORSDOF 0
ENDMDL
MODEL 5
REMARK VINA RESULT:      -3.6      5.335      7.562
REMARK  0 active torsions:
REMARK  status: ('A' for Active; 'I' for Inactive)
ROOT
HETATM    1  C1  UNL     1     -32.538  17.935  -1.160  1.00 20.00     0.017 C 
HETATM    2  C2  UNL     1     -33.254  17.696  -2.093  1.00 20.00    -0.082 C 
HETATM    3  C3  UNL     1     -34.105  17.414  -3.203  1.00 20.00     0.000 C 
HETATM    4  C4  UNL     1     -35.236  18.115  -3.422  1.00 20.00    -0.041 C 
HETATM    5  C5  UNL     1     -33.689  16.312  -4.147  1.00 20.00     0.083 C 
HETATM    6  C6  UNL     1     -36.135  17.788  -4.598  1.00 20.00     0.307 C 
HETATM    7  C7  UNL     1     -34.419  16.341  -5.507  1.00 20.00     0.223 C 
HETATM    8  C8  UNL     1     -35.720  19.263  -2.574  1.00 20.00     0.046 C 
HETATM    9  C9  UNL     1     -34.057  15.067  -6.280  1.00 20.00     0.043 C 
HETATM   10  C10 UNL     1     -36.680  16.383  -6.466  1.00 20.00     0.310 C 
HETATM   11  N11 UNL     1     -35.863  16.496  -5.256  1.00 20.00     0.092 N 
ENDROOT
TORSDOF 0
ENDMDL
MODEL 6
REMARK VINA RESULT:      -3.6     11.638     12.998
REMARK  0 active torsions:
REMARK  status: ('A' for Active; 'I' for Inactive)
ROOT
HETATM    1  C1  UNL     1     -39.790  11.585   5.557  1.00 20.00     0.017 C 
HETATM    2  C2  UNL     1     -40.421  12.421   6.140  1.00 20.00    -0.082 C 
HETATM    3  C3  UNL     1     -41.173  13.415   6.836  1.00 20.00     0.000 C 
HETATM    4  C4  UNL     1     -42.408  13.160   7.315  1.00 20.00    -0.041 C 
HETATM    5  C5  UNL     1     -40.533  14.766   7.042  1.00 20.00     0.083 C 
HETATM    6  C6  UNL     1     -43.196  14.234   8.036  1.00 20.00     0.307 C 
HETATM    7  C7  UNL     1     -41.216  15.626   8.127  1.00 20.00     0.223 C 
HETATM    8  C8  UNL     1     -43.121  11.836   7.209  1.00 20.00     0.046 C 
HETATM    9  C9  UNL     1     -40.602  17.031   8.091  1.00 20.00     0.043 C 
HETATM   10  C10 UNL     1     -43.417  16.511   8.764  1.00 20.00     0.310 C 
HETATM   11  N11 UNL     1     -42.671  15.605   7.889  1.00 20.00     0.092 N 
ENDROOT
TORSDOF 0
ENDMDL
MODEL 7
REMARK VINA RESULT:      -3.5      5.579      7.976
REMARK  0 active torsions:
REMARK  status: ('A' for Active; 'I' for Inactive)
ROOT
HETATM    1  C1  UNL     1     -32.625  17.766  -1.381  1.00 20.00     0.017 C 
HETATM    2  C2  UNL     1     -33.330  17.570  -2.331  1.00 20.00    -0.082 C 
HETATM    3  C3  UNL     1     -34.168  17.334  -3.462  1.00 20.00     0.000 C 
HETATM    4  C4  UNL     1     -33.998  16.258  -4.256  1.00 20.00    -0.041 C 
HETATM    5  C5  UNL     1     -35.276  18.324  -3.735  1.00 20.00     0.083 C 
HETATM    6  C6  UNL     1     -34.889  16.035  -5.461  1.00 20.00     0.307 C 
HETATM    7  C7  UNL     1     -36.363  17.798  -4.697  1.00 20.00     0.223 C 
HETATM    8  C8  UNL     1     -32.960  15.185  -4.049  1.00 20.00     0.046 C 
HETATM    9  C9  UNL     1     -37.305  18.958  -5.045  1.00 20.00     0.043 C 
HETATM   10  C10 UNL     1     -36.628  16.803  -6.927  1.00 20.00     0.310 C 
HETATM   11  N11 UNL     1     -35.698  17.200  -5.869  1.00 20.00     0.092 N 
ENDROOT
TORSDOF 0
ENDMDL
MODEL 8
REMARK VINA RESULT:      -3.2     11.214     12.120
REMARK  0 active torsions:
REMARK  status: ('A' for Active; 'I' for Inactive)
ROOT
HETATM    1  C1  UNL     1     -38.918  11.532   3.491  1.00 20.00     0.017 C 
HETATM    2  C2  UNL     1     -39.581  12.154   4.273  1.00 20.00    -0.082 C 
HETATM    3  C3  UNL     1     -40.369  12.894   5.205  1.00 20.00     0.000 C 
HETATM    4  C4  UNL     1     -40.084  12.901   6.523  1.00 20.00    -0.041 C 
HETATM    5  C5  UNL     1     -41.530  13.694   4.665  1.00 20.00     0.083 C 
HETATM    6  C6  UNL     1     -40.943  13.681   7.497  1.00 20.00     0.307 C 
HETATM    7  C7  UNL     1     -42.064  14.763   5.643  1.00 20.00     0.223 C 
HETATM    8  C8  UNL     1     -38.924  12.180   7.161  1.00 20.00     0.046 C 
HETATM    9  C9  UNL     1     -43.354  15.355   5.059  1.00 20.00     0.043 C 
HETATM   10  C10 UNL     1     -42.891  15.012   7.943  1.00 20.00     0.310 C 
HETATM   11  N11 UNL     1     -42.242  14.136   6.966  1.00 20.00     0.092 N 
ENDROOT
TORSDOF 0
ENDMDL
MODEL 9
REMARK VINA RESULT:      -3.2     11.888     12.117
REMARK  0 active torsions:
REMARK  status: ('A' for Active; 'I' for Inactive)
ROOT
HETATM    1  C1  UNL     1     -39.665  11.393   5.785  1.00 20.00     0.017 C 
HETATM    2  C2  UNL     1     -40.288  12.413   5.878  1.00 20.00    -0.082 C 
HETATM    3  C3  UNL     1     -41.029  13.628   5.990  1.00 20.00     0.000 C 
HETATM    4  C4  UNL     1     -40.964  14.396   7.096  1.00 20.00    -0.041 C 
HETATM    5  C5  UNL     1     -41.881  14.043   4.814  1.00 20.00     0.083 C 
HETATM    6  C6  UNL     1     -41.771  15.674   7.201  1.00 20.00     0.307 C 
HETATM    7  C7  UNL     1     -42.311  15.526   4.845  1.00 20.00     0.223 C 
HETATM    8  C8  UNL     1     -40.112  14.102   8.304  1.00 20.00     0.046 C 
HETATM    9  C9  UNL     1     -43.325  15.760   3.717  1.00 20.00     0.043 C 
HETATM   10  C10 UNL     1     -43.417  17.169   6.297  1.00 20.00     0.310 C 
HETATM   11  N11 UNL     1     -42.834  15.831   6.189  1.00 20.00     0.092 N 
ENDROOT
TORSDOF 0
ENDMDL
