MODEL 1
REMARK VINA RESULT:      -5.1      0.000      0.000
REMARK  2 active torsions:
REMARK  status: ('A' for Active; 'I' for Inactive)
REMARK    1  A    between atoms: C3_3  and  C9_9 
REMARK    2  A    between atoms: C9_9  and  N10_10 
ROOT
HETATM    1  C1  UNL     1     -33.343   6.488   3.950  1.00 20.00     0.040 C 
HETATM    2  C4  UNL     1     -33.051   7.600   4.930  1.00 20.00     0.057 C 
HETATM    3  C5  UNL     1     -34.233   7.769   5.875  1.00 20.00     0.006 C 
HETATM    4  C6  UNL     1     -34.553   6.486   6.648  1.00 20.00     0.004 C 
HETATM    5  C7  UNL     1     -34.205   5.206   5.885  1.00 20.00     0.043 C 
HETATM    6  C8  UNL     1     -34.279   5.383   4.376  1.00 20.00     0.217 C 
HETATM    7  N10 UNL     1     -32.813   6.466   2.771  1.00 20.00    -0.292 NA
HETATM    8  F11 UNL     1     -33.945   4.202   3.787  1.00 20.00    -0.243 F 
ENDROOT
BRANCH   7   9
HETATM    9  C9  UNL     1     -31.930   7.589   2.491  1.00 20.00     0.175 C 
BRANCH   9  10
HETATM   10  C3  UNL     1     -32.188   8.096   1.108  1.00 20.00    -0.015 C 
HETATM   11  C2  UNL     1     -32.688   9.307   0.839  1.00 20.00     0.008 C 
ENDBRANCH   9  10
ENDBRANCH   7   9
TORSDOF 2
ENDMDL
MODEL 2
REMARK VINA RESULT:      -4.9      1.682      2.252
REMARK  2 active torsions:
REMARK  status: ('A' for Active; 'I' for Inactive)
REMARK    1  A    between atoms: C3_3  and  C9_9 
REMARK    2  A    between atoms: C9_9  and  N10_10 
ROOT
HETATM    1  C1  UNL     1     -33.054   7.032   4.058  1.00 20.00     0.040 C 
HETATM    2  C4  UNL     1     -33.753   5.796   3.543  1.00 20.00     0.057 C 
HETATM    3  C5  UNL     1     -33.919   4.795   4.678  1.00 20.00     0.006 C 
HETATM    4  C6  UNL     1     -34.712   5.370   5.855  1.00 20.00     0.004 C 
HETATM    5  C7  UNL     1     -34.551   6.882   6.024  1.00 20.00     0.043 C 
HETATM    6  C8  UNL     1     -33.210   7.390   5.515  1.00 20.00     0.217 C 
HETATM    7  N10 UNL     1     -32.335   7.777   3.283  1.00 20.00    -0.292 NA
HETATM    8  F11 UNL     1     -33.164   8.738   5.698  1.00 20.00    -0.243 F 
ENDROOT
BRANCH   7   9
HETATM    9  C9  UNL     1     -32.271   7.319   1.903  1.00 20.00     0.175 C 
BRANCH   9  10
HETATM   10  C3  UNL     1     -32.208   8.498   0.986  1.00 20.00    -0.015 C 
HETATM   11  C2  UNL     1     -32.884   9.635   1.185  1.00 20.00     0.008 C 
ENDBRANCH   9  10
ENDBRANCH   7   9
TORSDOF 2
ENDMDL
MODEL 3
REMARK VINA RESULT:      -4.0     11.878     12.996
REMARK  2 active torsions:
REMARK  status: ('A' for Active; 'I' for Inactive)
REMARK    1  A    between atoms: C3_3  and  C9_9 
REMARK    2  A    between atoms: C9_9  and  N10_10 
ROOT
HETATM    1  C1  UNL     1     -34.019  16.104  -4.303  1.00 20.00     0.040 C 
HETATM    2  C4  UNL     1     -34.539  17.266  -5.116  1.00 20.00     0.057 C 
HETATM    3  C5  UNL     1     -34.647  16.857  -6.578  1.00 20.00     0.006 C 
HETATM    4  C6  UNL     1     -35.565  15.648  -6.782  1.00 20.00     0.004 C 
HETATM    5  C7  UNL     1     -35.592  14.690  -5.589  1.00 20.00     0.043 C 
HETATM    6  C8  UNL     1     -34.295  14.704  -4.794  1.00 20.00     0.217 C 
HETATM    7  N10 UNL     1     -33.353  16.285  -3.210  1.00 20.00    -0.292 NA
HETATM    8  F11 UNL     1     -34.417  13.833  -3.756  1.00 20.00    -0.243 F 
ENDROOT
BRANCH   7   9
HETATM    9  C9  UNL     1     -33.160  17.682  -2.850  1.00 20.00     0.175 C 
BRANCH   9  10
HETATM   10  C3  UNL     1     -32.890  17.789  -1.384  1.00 20.00    -0.015 C 
HETATM   11  C2  UNL     1     -31.867  18.474  -0.861  1.00 20.00     0.008 C 
ENDBRANCH   9  10
ENDBRANCH   7   9
TORSDOF 2
ENDMDL
MODEL 4
REMARK VINA RESULT:      -4.0     12.285     13.335
REMARK  2 active torsions:
REMARK  status: ('A' for Active; 'I' for Inactive)
REMARK    1  A    between atoms: C3_3  and  C9_9 
REMARK    2  A    between atoms: C9_9  and  N10_10 
ROOT
HETATM    1  C1  UNL     1     -34.169  16.944  -3.644  1.00 20.00     0.040 C 
HETATM    2  C4  UNL     1     -33.275  15.727  -3.668  1.00 20.00     0.057 C 
HETATM    3  C5  UNL     1     -33.920  14.639  -4.515  1.00 20.00     0.006 C 
HETATM    4  C6  UNL     1     -34.187  15.097  -5.952  1.00 20.00     0.004 C 
HETATM    5  C7  UNL     1     -34.462  16.597  -6.077  1.00 20.00     0.043 C 
HETATM    6  C8  UNL     1     -35.082  17.188  -4.820  1.00 20.00     0.217 C 
HETATM    7  N10 UNL     1     -34.164  17.769  -2.649  1.00 20.00    -0.292 NA
HETATM    8  F11 UNL     1     -35.279  18.519  -5.023  1.00 20.00    -0.243 F 
ENDROOT
BRANCH   7   9
HETATM    9  C9  UNL     1     -33.236  17.418  -1.583  1.00 20.00     0.175 C 
BRANCH   9  10
HETATM   10  C3  UNL     1     -32.282  18.546  -1.358  1.00 20.00    -0.015 C 
HETATM   11  C2  UNL     1     -31.354  18.558  -0.395  1.00 20.00     0.008 C 
ENDBRANCH   9  10
ENDBRANCH   7   9
TORSDOF 2
ENDMDL
MODEL 5
REMARK VINA RESULT:      -4.0     10.227     11.446
REMARK  2 active torsions:
REMARK  status: ('A' for Active; 'I' for Inactive)
REMARK    1  A    between atoms: C3_3  and  C9_9 
REMARK    2  A    between atoms: C9_9  and  N10_10 
ROOT
HETATM    1  C1  UNL     1     -40.990  14.217   7.143  1.00 20.00     0.040 C 
HETATM    2  C4  UNL     1     -41.714  14.657   5.893  1.00 20.00     0.057 C 
HETATM    3  C5  UNL     1     -42.747  15.718   6.249  1.00 20.00     0.006 C 
HETATM    4  C6  UNL     1     -42.120  16.940   6.925  1.00 20.00     0.004 C 
HETATM    5  C7  UNL     1     -40.865  16.617   7.739  1.00 20.00     0.043 C 
HETATM    6  C8  UNL     1     -40.869  15.197   8.285  1.00 20.00     0.217 C 
HETATM    7  N10 UNL     1     -40.479  13.035   7.250  1.00 20.00    -0.292 NA
HETATM    8  F11 UNL     1     -39.716  15.000   8.981  1.00 20.00    -0.243 F 
ENDROOT
BRANCH   7   9
HETATM    9  C9  UNL     1     -40.665  12.193   6.077  1.00 20.00     0.175 C 
BRANCH   9  10
HETATM   10  C3  UNL     1     -39.333  11.823   5.509  1.00 20.00    -0.015 C 
HETATM   11  C2  UNL     1     -39.085  11.705   4.201  1.00 20.00     0.008 C 
ENDBRANCH   9  10
ENDBRANCH   7   9
TORSDOF 2
ENDMDL
MODEL 6
REMARK VINA RESULT:      -3.7     12.415     13.454
REMARK  2 active torsions:
REMARK  status: ('A' for Active; 'I' for Inactive)
REMARK    1  A    between atoms: C3_3  and  C9_9 
REMARK    2  A    between atoms: C9_9  and  N10_10 
ROOT
HETATM    1  C1  UNL     1     -26.263  -2.148  10.596  1.00 20.00     0.040 C 
HETATM    2  C4  UNL     1     -25.784  -1.606  11.923  1.00 20.00     0.057 C 
HETATM    3  C5  UNL     1     -26.507  -0.302  12.231  1.00 20.00     0.006 C 
HETATM    4  C6  UNL     1     -28.028  -0.473  12.276  1.00 20.00     0.004 C 
HETATM    5  C7  UNL     1     -28.550  -1.580  11.356  1.00 20.00     0.043 C 
HETATM    6  C8  UNL     1     -27.660  -1.802  10.142  1.00 20.00     0.217 C 
HETATM    7  N10 UNL     1     -25.509  -2.892   9.856  1.00 20.00    -0.292 NA
HETATM    8  F11 UNL     1     -28.197  -2.805   9.394  1.00 20.00    -0.243 F 
ENDROOT
BRANCH   7   9
HETATM    9  C9  UNL     1     -24.189  -3.149  10.412  1.00 20.00     0.175 C 
BRANCH   9  10
HETATM   10  C3  UNL     1     -23.147  -2.887   9.373  1.00 20.00    -0.015 C 
HETATM   11  C2  UNL     1     -23.278  -3.219   8.084  1.00 20.00     0.008 C 
ENDBRANCH   9  10
ENDBRANCH   7   9
TORSDOF 2
ENDMDL
MODEL 7
REMARK VINA RESULT:      -3.7     12.060     12.950
REMARK  2 active torsions:
REMARK  status: ('A' for Active; 'I' for Inactive)
REMARK    1  A    between atoms: C3_3  and  C9_9 
REMARK    2  A    between atoms: C9_9  and  N10_10 
ROOT
HETATM    1  C1  UNL     1     -33.967  17.518  -3.032  1.00 20.00     0.040 C 
HETATM    2  C4  UNL     1     -33.540  16.976  -1.688  1.00 20.00     0.057 C 
HETATM    3  C5  UNL     1     -33.240  18.133  -0.745  1.00 20.00     0.006 C 
HETATM    4  C6  UNL     1     -34.443  19.061  -0.555  1.00 20.00     0.004 C 
HETATM    5  C7  UNL     1     -35.365  19.129  -1.774  1.00 20.00     0.043 C 
HETATM    6  C8  UNL     1     -34.630  18.873  -3.082  1.00 20.00     0.217 C 
HETATM    7  N10 UNL     1     -33.779  16.851  -4.123  1.00 20.00    -0.292 NA
HETATM    8  F11 UNL     1     -35.529  18.944  -4.101  1.00 20.00    -0.243 F 
ENDROOT
BRANCH   7   9
HETATM    9  C9  UNL     1     -33.133  15.561  -3.933  1.00 20.00     0.175 C 
BRANCH   9  10
HETATM   10  C3  UNL     1     -34.080  14.466  -4.306  1.00 20.00    -0.015 C 
HETATM   11  C2  UNL     1     -35.116  14.626  -5.136  1.00 20.00     0.008 C 
ENDBRANCH   9  10
ENDBRANCH   7   9
TORSDOF 2
ENDMDL
MODEL 8
REMARK VINA RESULT:      -3.7     10.143     11.279
REMARK  2 active torsions:
REMARK  status: ('A' for Active; 'I' for Inactive)
REMARK    1  A    between atoms: C3_3  and  C9_9 
REMARK    2  A    between atoms: C9_9  and  N10_10 
ROOT
HETATM    1  C1  UNL     1     -41.217  14.159   6.467  1.00 20.00     0.040 C 
HETATM    2  C4  UNL     1     -40.578  14.066   7.832  1.00 20.00     0.057 C 
HETATM    3  C5  UNL     1     -40.302  15.467   8.361  1.00 20.00     0.006 C 
HETATM    4  C6  UNL     1     -41.572  16.317   8.455  1.00 20.00     0.004 C 
HETATM    5  C7  UNL     1     -42.632  15.957   7.412  1.00 20.00     0.043 C 
HETATM    6  C8  UNL     1     -42.030  15.386   6.137  1.00 20.00     0.217 C 
HETATM    7  N10 UNL     1     -41.084  13.218   5.590  1.00 20.00    -0.292 NA
HETATM    8  F11 UNL     1     -43.044  15.089   5.279  1.00 20.00    -0.243 F 
ENDROOT
BRANCH   7   9
HETATM    9  C9  UNL     1     -40.278  12.091   6.038  1.00 20.00     0.175 C 
BRANCH   9  10
HETATM   10  C3  UNL     1     -39.015  12.030   5.240  1.00 20.00    -0.015 C 
HETATM   11  C2  UNL     1     -38.958  11.646   3.961  1.00 20.00     0.008 C 
ENDBRANCH   9  10
ENDBRANCH   7   9
TORSDOF 2
ENDMDL
MODEL 9
REMARK VINA RESULT:      -3.6     10.291     11.458
REMARK  2 active torsions:
REMARK  status: ('A' for Active; 'I' for Inactive)
REMARK    1  A    between atoms: C3_3  and  C9_9 
REMARK    2  A    between atoms: C9_9  and  N10_10 
ROOT
HETATM    1  C1  UNL     1     -41.344  13.938   8.088  1.00 20.00     0.040 C 
HETATM    2  C4  UNL     1     -40.275  14.992   8.257  1.00 20.00     0.057 C 
HETATM    3  C5  UNL     1     -40.874  16.221   8.928  1.00 20.00     0.006 C 
HETATM    4  C6  UNL     1     -41.488  15.901  10.294  1.00 20.00     0.004 C 
HETATM    5  C7  UNL     1     -42.036  14.477  10.403  1.00 20.00     0.043 C 
HETATM    6  C8  UNL     1     -42.495  13.920   9.064  1.00 20.00     0.217 C 
HETATM    7  N10 UNL     1     -41.290  13.064   7.137  1.00 20.00    -0.292 NA
HETATM    8  F11 UNL     1     -42.954  12.653   9.259  1.00 20.00    -0.243 F 
ENDROOT
BRANCH   7   9
HETATM    9  C9  UNL     1     -40.128  13.193   6.270  1.00 20.00     0.175 C 
BRANCH   9  10
HETATM   10  C3  UNL     1     -39.777  11.856   5.699  1.00 20.00    -0.015 C 
HETATM   11  C2  UNL     1     -39.254  11.678   4.482  1.00 20.00     0.008 C 
ENDBRANCH   9  10
ENDBRANCH   7   9
TORSDOF 2
ENDMDL
