MODEL 1
REMARK VINA RESULT:      -4.8      0.000      0.000
REMARK  2 active torsions:
REMARK  status: ('A' for Active; 'I' for Inactive)
REMARK    1  A    between atoms: C1_1  and  C5_5 
REMARK    2  A    between atoms: C3_3  and  C6_6 
ROOT
HETATM    1  C1  UNL     1     -32.652   8.616   2.472  1.00 20.00    -0.053 C 
HETATM    2  C2  UNL     1     -32.667   9.197   1.422  1.00 20.00     0.106 C 
HETATM    3  F9  UNL     1     -32.684   9.845   0.252  1.00 20.00    -0.144 F 
ENDROOT
BRANCH   1   4
HETATM    4  C5  UNL     1     -32.636   7.933   3.706  1.00 20.00     0.114 A 
HETATM    5  C6  UNL     1     -33.615   8.013   4.740  1.00 20.00     0.108 A 
HETATM    6  C7  UNL     1     -32.281   8.507   4.853  1.00 20.00     0.186 A 
HETATM    7  F10 UNL     1     -31.981   9.818   4.895  1.00 20.00    -0.235 F 
BRANCH   5   8
HETATM    8  C3  UNL     1     -34.018   6.969   5.394  1.00 20.00    -0.080 C 
HETATM    9  C4  UNL     1     -34.391   6.001   5.999  1.00 20.00     0.272 C 
HETATM   10  O8  UNL     1     -34.755   5.054   6.593  1.00 20.00    -0.274 OA
ENDBRANCH   5   8
ENDBRANCH   1   4
TORSDOF 2
ENDMDL
MODEL 2
REMARK VINA RESULT:      -4.3      3.184      4.849
REMARK  2 active torsions:
REMARK  status: ('A' for Active; 'I' for Inactive)
REMARK    1  A    between atoms: C1_1  and  C5_5 
REMARK    2  A    between atoms: C3_3  and  C6_6 
ROOT
HETATM    1  C1  UNL     1     -34.000   6.963   5.194  1.00 20.00    -0.053 C 
HETATM    2  C2  UNL     1     -34.420   6.179   5.999  1.00 20.00     0.106 C 
HETATM    3  F9  UNL     1     -34.887   5.305   6.897  1.00 20.00    -0.144 F 
ENDROOT
BRANCH   1   4
HETATM    4  C5  UNL     1     -33.507   7.884   4.246  1.00 20.00     0.114 A 
HETATM    5  C6  UNL     1     -32.351   7.730   3.425  1.00 20.00     0.108 A 
HETATM    6  C7  UNL     1     -32.471   8.686   4.477  1.00 20.00     0.186 A 
HETATM    7  F10 UNL     1     -31.788   8.600   5.634  1.00 20.00    -0.235 F 
BRANCH   5   8
HETATM    8  C3  UNL     1     -32.335   8.081   2.178  1.00 20.00    -0.080 C 
HETATM    9  C4  UNL     1     -32.320   8.406   1.022  1.00 20.00     0.272 C 
HETATM   10  O8  UNL     1     -32.307   8.724  -0.110  1.00 20.00    -0.274 OA
ENDBRANCH   5   8
ENDBRANCH   1   4
TORSDOF 2
ENDMDL
MODEL 3
REMARK VINA RESULT:      -4.2     11.518     11.877
REMARK  2 active torsions:
REMARK  status: ('A' for Active; 'I' for Inactive)
REMARK    1  A    between atoms: C1_1  and  C5_5 
REMARK    2  A    between atoms: C3_3  and  C6_6 
ROOT
HETATM    1  C1  UNL     1     -30.680  18.864   1.095  1.00 20.00    -0.053 C 
HETATM    2  C2  UNL     1     -31.298  18.531   0.122  1.00 20.00     0.106 C 
HETATM    3  F9  UNL     1     -31.987  18.160  -0.962  1.00 20.00    -0.144 F 
ENDROOT
BRANCH   1   4
HETATM    4  C5  UNL     1     -29.954  19.256   2.240  1.00 20.00     0.114 A 
HETATM    5  C6  UNL     1     -29.366  18.398   3.214  1.00 20.00     0.108 A 
HETATM    6  C7  UNL     1     -30.472  19.263   3.465  1.00 20.00     0.186 A 
HETATM    7  F10 UNL     1     -31.724  18.816   3.678  1.00 20.00    -0.235 F 
BRANCH   5   8
HETATM    8  C3  UNL     1     -28.192  18.622   3.716  1.00 20.00    -0.080 C 
HETATM    9  C4  UNL     1     -27.105  18.830   4.182  1.00 20.00     0.272 C 
HETATM   10  O8  UNL     1     -26.040  19.033   4.636  1.00 20.00    -0.274 OA
ENDBRANCH   5   8
ENDBRANCH   1   4
TORSDOF 2
ENDMDL
MODEL 4
REMARK VINA RESULT:      -4.2     11.136     11.673
REMARK  2 active torsions:
REMARK  status: ('A' for Active; 'I' for Inactive)
REMARK    1  A    between atoms: C1_1  and  C5_5 
REMARK    2  A    between atoms: C3_3  and  C6_6 
ROOT
HETATM    1  C1  UNL     1     -33.343  16.147  -3.258  1.00 20.00    -0.053 C 
HETATM    2  C2  UNL     1     -33.699  15.144  -3.812  1.00 20.00     0.106 C 
HETATM    3  F9  UNL     1     -34.097  14.026  -4.429  1.00 20.00    -0.144 F 
ENDROOT
BRANCH   1   4
HETATM    4  C5  UNL     1     -32.923  17.326  -2.608  1.00 20.00     0.114 A 
HETATM    5  C6  UNL     1     -33.042  17.626  -1.219  1.00 20.00     0.108 A 
HETATM    6  C7  UNL     1     -33.757  18.301  -2.254  1.00 20.00     0.186 A 
HETATM    7  F10 UNL     1     -35.082  18.165  -2.443  1.00 20.00    -0.235 F 
BRANCH   5   8
HETATM    8  C3  UNL     1     -32.093  18.204  -0.552  1.00 20.00    -0.080 C 
HETATM    9  C4  UNL     1     -31.214  18.740   0.067  1.00 20.00     0.272 C 
HETATM   10  O8  UNL     1     -30.353  19.263   0.672  1.00 20.00    -0.274 OA
ENDBRANCH   5   8
ENDBRANCH   1   4
TORSDOF 2
ENDMDL
MODEL 5
REMARK VINA RESULT:      -3.9     11.255     11.946
REMARK  2 active torsions:
REMARK  status: ('A' for Active; 'I' for Inactive)
REMARK    1  A    between atoms: C1_1  and  C5_5 
REMARK    2  A    between atoms: C3_3  and  C6_6 
ROOT
HETATM    1  C1  UNL     1     -33.587  16.635  -2.790  1.00 20.00    -0.053 C 
HETATM    2  C2  UNL     1     -33.499  17.060  -1.671  1.00 20.00     0.106 C 
HETATM    3  F9  UNL     1     -33.402  17.533  -0.424  1.00 20.00    -0.144 F 
ENDROOT
BRANCH   1   4
HETATM    4  C5  UNL     1     -33.691  16.137  -4.105  1.00 20.00     0.114 A 
HETATM    5  C6  UNL     1     -34.239  14.882  -4.504  1.00 20.00     0.108 A 
HETATM    6  C7  UNL     1     -32.859  15.230  -4.610  1.00 20.00     0.186 A 
HETATM    7  F10 UNL     1     -31.900  14.683  -3.841  1.00 20.00    -0.235 F 
BRANCH   5   8
HETATM    8  C3  UNL     1     -34.997  14.758  -5.548  1.00 20.00    -0.080 C 
HETATM    9  C4  UNL     1     -35.699  14.644  -6.515  1.00 20.00     0.272 C 
HETATM   10  O8  UNL     1     -36.386  14.532  -7.462  1.00 20.00    -0.274 OA
ENDBRANCH   5   8
ENDBRANCH   1   4
TORSDOF 2
ENDMDL
MODEL 6
REMARK VINA RESULT:      -3.9     11.014     11.710
REMARK  2 active torsions:
REMARK  status: ('A' for Active; 'I' for Inactive)
REMARK    1  A    between atoms: C1_1  and  C5_5 
REMARK    2  A    between atoms: C3_3  and  C6_6 
ROOT
HETATM    1  C1  UNL     1     -33.461  18.045  -0.459  1.00 20.00    -0.053 C 
HETATM    2  C2  UNL     1     -33.163  18.431   0.638  1.00 20.00     0.106 C 
HETATM    3  F9  UNL     1     -32.831  18.862   1.860  1.00 20.00    -0.144 F 
ENDROOT
BRANCH   1   4
HETATM    4  C5  UNL     1     -33.813  17.592  -1.747  1.00 20.00     0.114 A 
HETATM    5  C6  UNL     1     -32.996  16.842  -2.643  1.00 20.00     0.108 A 
HETATM    6  C7  UNL     1     -33.410  18.189  -2.866  1.00 20.00     0.186 A 
HETATM    7  F10 UNL     1     -32.569  19.238  -2.813  1.00 20.00    -0.235 F 
BRANCH   5   8
HETATM    8  C3  UNL     1     -33.461  15.856  -3.344  1.00 20.00    -0.080 C 
HETATM    9  C4  UNL     1     -33.891  14.942  -3.993  1.00 20.00     0.272 C 
HETATM   10  O8  UNL     1     -34.314  14.048  -4.629  1.00 20.00    -0.274 OA
ENDBRANCH   5   8
ENDBRANCH   1   4
TORSDOF 2
ENDMDL
MODEL 7
REMARK VINA RESULT:      -3.7     10.916     11.730
REMARK  2 active torsions:
REMARK  status: ('A' for Active; 'I' for Inactive)
REMARK    1  A    between atoms: C1_1  and  C5_5 
REMARK    2  A    between atoms: C3_3  and  C6_6 
ROOT
HETATM    1  C1  UNL     1     -32.320  18.060  -1.025  1.00 20.00    -0.053 C 
HETATM    2  C2  UNL     1     -31.496  18.628  -0.364  1.00 20.00     0.106 C 
HETATM    3  F9  UNL     1     -30.576  19.261   0.372  1.00 20.00    -0.144 F 
ENDROOT
BRANCH   1   4
HETATM    4  C5  UNL     1     -33.290  17.391  -1.801  1.00 20.00     0.114 A 
HETATM    5  C6  UNL     1     -33.132  16.901  -3.131  1.00 20.00     0.108 A 
HETATM    6  C7  UNL     1     -33.988  17.983  -2.767  1.00 20.00     0.186 A 
HETATM    7  F10 UNL     1     -33.739  19.263  -3.100  1.00 20.00    -0.235 F 
BRANCH   5   8
HETATM    8  C3  UNL     1     -33.601  15.752  -3.505  1.00 20.00    -0.080 C 
HETATM    9  C4  UNL     1     -34.034  14.687  -3.852  1.00 20.00     0.272 C 
HETATM   10  O8  UNL     1     -34.460  13.645  -4.191  1.00 20.00    -0.274 OA
ENDBRANCH   5   8
ENDBRANCH   1   4
TORSDOF 2
ENDMDL
MODEL 8
REMARK VINA RESULT:      -3.5     11.629     12.947
REMARK  2 active torsions:
REMARK  status: ('A' for Active; 'I' for Inactive)
REMARK    1  A    between atoms: C1_1  and  C5_5 
REMARK    2  A    between atoms: C3_3  and  C6_6 
ROOT
HETATM    1  C1  UNL     1     -33.580  17.163  -2.251  1.00 20.00    -0.053 C 
HETATM    2  C2  UNL     1     -33.666  17.380  -1.074  1.00 20.00     0.106 C 
HETATM    3  F9  UNL     1     -33.761  17.622   0.238  1.00 20.00    -0.144 F 
ENDROOT
BRANCH   1   4
HETATM    4  C5  UNL     1     -33.481  16.908  -3.635  1.00 20.00     0.114 A 
HETATM    5  C6  UNL     1     -34.559  16.724  -4.550  1.00 20.00     0.108 A 
HETATM    6  C7  UNL     1     -33.642  15.700  -4.168  1.00 20.00     0.186 A 
HETATM    7  F10 UNL     1     -33.986  14.654  -3.394  1.00 20.00    -0.235 F 
BRANCH   5   8
HETATM    8  C3  UNL     1     -34.554  17.241  -5.738  1.00 20.00    -0.080 C 
HETATM    9  C4  UNL     1     -34.550  17.719  -6.839  1.00 20.00     0.272 C 
HETATM   10  O8  UNL     1     -34.546  18.189  -7.917  1.00 20.00    -0.274 OA
ENDBRANCH   5   8
ENDBRANCH   1   4
TORSDOF 2
ENDMDL
MODEL 9
REMARK VINA RESULT:      -3.5     10.008     10.490
REMARK  2 active torsions:
REMARK  status: ('A' for Active; 'I' for Inactive)
REMARK    1  A    between atoms: C1_1  and  C5_5 
REMARK    2  A    between atoms: C3_3  and  C6_6 
ROOT
HETATM    1  C1  UNL     1     -40.230  12.671   5.291  1.00 20.00    -0.053 C 
HETATM    2  C2  UNL     1     -39.633  11.850   4.650  1.00 20.00     0.106 C 
HETATM    3  F9  UNL     1     -38.968  10.936   3.935  1.00 20.00    -0.144 F 
ENDROOT
BRANCH   1   4
HETATM    4  C5  UNL     1     -40.932  13.635   6.043  1.00 20.00     0.114 A 
HETATM    5  C6  UNL     1     -40.765  13.927   7.429  1.00 20.00     0.108 A 
HETATM    6  C7  UNL     1     -41.934  13.333   6.865  1.00 20.00     0.186 A 
HETATM    7  F10 UNL     1     -42.281  12.049   7.071  1.00 20.00    -0.235 F 
BRANCH   5   8
HETATM    8  C3  UNL     1     -40.765  15.140   7.886  1.00 20.00    -0.080 C 
HETATM    9  C4  UNL     1     -40.764  16.263   8.309  1.00 20.00     0.272 C 
HETATM   10  O8  UNL     1     -40.765  17.364   8.724  1.00 20.00    -0.274 OA
ENDBRANCH   5   8
ENDBRANCH   1   4
TORSDOF 2
ENDMDL
