MODEL 1
REMARK VINA RESULT:      -6.1      0.000      0.000
REMARK  0 active torsions:
REMARK  status: ('A' for Active; 'I' for Inactive)
ROOT
HETATM    1  C1  UNL     1     -32.318   8.928   4.416  1.00 20.00     0.003 A 
HETATM    2  C2  UNL     1     -33.010   8.674   5.538  1.00 20.00     0.013 A 
HETATM    3  C3  UNL     1     -32.409   7.790   3.515  1.00 20.00     0.030 A 
HETATM    4  C4  UNL     1     -34.385   6.678   6.185  1.00 20.00    -0.011 C 
HETATM    5  C5  UNL     1     -33.570   7.355   5.370  1.00 20.00    -0.013 A 
HETATM    6  C6  UNL     1     -33.152   6.822   4.081  1.00 20.00     0.039 A 
HETATM    7  C7  UNL     1     -34.903   5.322   5.788  1.00 20.00     0.048 C 
HETATM    8  C8  UNL     1     -34.078   4.620   4.692  1.00 20.00     0.126 C 
HETATM    9  C9  UNL     1     -33.131   4.976   2.420  1.00 20.00     0.149 C 
HETATM   10  N10 UNL     1     -33.540   5.558   3.693  1.00 20.00    -0.384 N 
ENDROOT
TORSDOF 0
ENDMDL
MODEL 2
REMARK VINA RESULT:      -6.0      0.647      2.909
REMARK  0 active torsions:
REMARK  status: ('A' for Active; 'I' for Inactive)
ROOT
HETATM    1  C1  UNL     1     -34.930   5.514   6.290  1.00 20.00     0.003 A 
HETATM    2  C2  UNL     1     -34.488   6.755   6.552  1.00 20.00     0.013 A 
HETATM    3  C3  UNL     1     -34.405   5.067   5.009  1.00 20.00     0.030 A 
HETATM    4  C4  UNL     1     -32.941   8.240   5.252  1.00 20.00    -0.011 C 
HETATM    5  C5  UNL     1     -33.656   7.126   5.434  1.00 20.00    -0.013 A 
HETATM    6  C6  UNL     1     -33.642   6.035   4.470  1.00 20.00     0.039 A 
HETATM    7  C7  UNL     1     -32.086   8.403   4.024  1.00 20.00     0.048 C 
HETATM    8  C8  UNL     1     -32.472   7.482   2.851  1.00 20.00     0.126 C 
HETATM    9  C9  UNL     1     -32.903   5.097   2.292  1.00 20.00     0.149 C 
HETATM   10  N10 UNL     1     -32.931   6.155   3.295  1.00 20.00    -0.384 N 
ENDROOT
TORSDOF 0
ENDMDL
MODEL 3
REMARK VINA RESULT:      -5.9      1.112      3.515
REMARK  0 active torsions:
REMARK  status: ('A' for Active; 'I' for Inactive)
ROOT
HETATM    1  C1  UNL     1     -34.801   5.857   6.531  1.00 20.00     0.003 A 
HETATM    2  C2  UNL     1     -34.699   5.012   5.493  1.00 20.00     0.013 A 
HETATM    3  C3  UNL     1     -34.078   7.084   6.238  1.00 20.00     0.030 A 
HETATM    4  C4  UNL     1     -33.572   5.294   3.270  1.00 20.00    -0.011 C 
HETATM    5  C5  UNL     1     -33.904   5.695   4.501  1.00 20.00    -0.013 A 
HETATM    6  C6  UNL     1     -33.517   6.999   5.019  1.00 20.00     0.039 A 
HETATM    7  C7  UNL     1     -32.774   6.195   2.367  1.00 20.00     0.048 C 
HETATM    8  C8  UNL     1     -32.000   7.308   3.099  1.00 20.00     0.126 C 
HETATM    9  C9  UNL     1     -32.300   9.147   4.747  1.00 20.00     0.149 C 
HETATM   10  N10 UNL     1     -32.728   7.840   4.263  1.00 20.00    -0.384 N 
ENDROOT
TORSDOF 0
ENDMDL
MODEL 4
REMARK VINA RESULT:      -5.3      1.120      3.033
REMARK  0 active torsions:
REMARK  status: ('A' for Active; 'I' for Inactive)
ROOT
HETATM    1  C1  UNL     1     -32.912   5.280   2.329  1.00 20.00     0.003 A 
HETATM    2  C2  UNL     1     -33.759   4.662   3.168  1.00 20.00     0.013 A 
HETATM    3  C3  UNL     1     -32.495   6.551   2.900  1.00 20.00     0.030 A 
HETATM    4  C4  UNL     1     -34.582   5.338   5.439  1.00 20.00    -0.011 C 
HETATM    5  C5  UNL     1     -33.895   5.534   4.309  1.00 20.00    -0.013 A 
HETATM    6  C6  UNL     1     -33.091   6.728   4.093  1.00 20.00     0.039 A 
HETATM    7  C7  UNL     1     -34.544   6.363   6.540  1.00 20.00     0.048 C 
HETATM    8  C8  UNL     1     -34.103   7.768   6.087  1.00 20.00     0.126 C 
HETATM    9  C9  UNL     1     -32.296   8.954   4.856  1.00 20.00     0.149 C 
HETATM   10  N10 UNL     1     -33.071   7.733   5.037  1.00 20.00    -0.384 N 
ENDROOT
TORSDOF 0
ENDMDL
MODEL 5
REMARK VINA RESULT:      -5.3      0.885      2.504
REMARK  0 active torsions:
REMARK  status: ('A' for Active; 'I' for Inactive)
ROOT
HETATM    1  C1  UNL     1     -32.559   9.180   4.883  1.00 20.00     0.003 A 
HETATM    2  C2  UNL     1     -32.181   8.693   3.689  1.00 20.00     0.013 A 
HETATM    3  C3  UNL     1     -33.315   8.170   5.607  1.00 20.00     0.030 A 
HETATM    4  C4  UNL     1     -32.524   6.426   2.674  1.00 20.00    -0.011 C 
HETATM    5  C5  UNL     1     -32.688   7.344   3.631  1.00 20.00    -0.013 A 
HETATM    6  C6  UNL     1     -33.414   7.056   4.860  1.00 20.00     0.039 A 
HETATM    7  C7  UNL     1     -33.096   5.044   2.840  1.00 20.00     0.048 C 
HETATM    8  C8  UNL     1     -34.227   4.943   3.882  1.00 20.00     0.126 C 
HETATM    9  C9  UNL     1     -34.772   5.503   6.243  1.00 20.00     0.149 C 
HETATM   10  N10 UNL     1     -34.019   5.830   5.039  1.00 20.00    -0.384 N 
ENDROOT
TORSDOF 0
ENDMDL
MODEL 6
REMARK VINA RESULT:      -4.8      1.112      3.222
REMARK  0 active torsions:
REMARK  status: ('A' for Active; 'I' for Inactive)
ROOT
HETATM    1  C1  UNL     1     -32.847   5.278   2.357  1.00 20.00     0.003 A 
HETATM    2  C2  UNL     1     -32.373   6.532   2.432  1.00 20.00     0.013 A 
HETATM    3  C3  UNL     1     -33.640   4.982   3.540  1.00 20.00     0.030 A 
HETATM    4  C4  UNL     1     -32.718   8.301   4.176  1.00 20.00    -0.011 C 
HETATM    5  C5  UNL     1     -32.866   7.070   3.676  1.00 20.00    -0.013 A 
HETATM    6  C6  UNL     1     -33.652   6.051   4.356  1.00 20.00     0.039 A 
HETATM    7  C7  UNL     1     -33.370   8.676   5.480  1.00 20.00     0.048 C 
HETATM    8  C8  UNL     1     -33.759   7.477   6.366  1.00 20.00     0.126 C 
HETATM    9  C9  UNL     1     -34.996   5.319   6.313  1.00 20.00     0.149 C 
HETATM   10  N10 UNL     1     -34.217   6.314   5.586  1.00 20.00    -0.384 N 
ENDROOT
TORSDOF 0
ENDMDL
MODEL 7
REMARK VINA RESULT:      -4.0     15.528     16.678
REMARK  0 active torsions:
REMARK  status: ('A' for Active; 'I' for Inactive)
ROOT
HETATM    1  C1  UNL     1     -24.698  18.493  12.332  1.00 20.00     0.003 A 
HETATM    2  C2  UNL     1     -23.375  18.274  12.251  1.00 20.00     0.013 A 
HETATM    3  C3  UNL     1     -25.233  18.762  11.007  1.00 20.00     0.030 A 
HETATM    4  C4  UNL     1     -21.858  18.204  10.255  1.00 20.00    -0.011 C 
HETATM    5  C5  UNL     1     -23.038  18.393  10.853  1.00 20.00    -0.013 A 
HETATM    6  C6  UNL     1     -24.241  18.719  10.100  1.00 20.00     0.039 A 
HETATM    7  C7  UNL     1     -21.735  18.324   8.760  1.00 20.00     0.048 C 
HETATM    8  C8  UNL     1     -22.871  19.121   8.089  1.00 20.00     0.126 C 
HETATM    9  C9  UNL     1     -25.350  19.254   7.943  1.00 20.00     0.149 C 
HETATM   10  N10 UNL     1     -24.177  18.909   8.736  1.00 20.00    -0.384 N 
ENDROOT
TORSDOF 0
ENDMDL
MODEL 8
REMARK VINA RESULT:      -4.0     12.402     13.692
REMARK  0 active torsions:
REMARK  status: ('A' for Active; 'I' for Inactive)
ROOT
HETATM    1  C1  UNL     1     -33.871  15.026  -5.379  1.00 20.00     0.003 A 
HETATM    2  C2  UNL     1     -33.292  14.974  -4.169  1.00 20.00     0.013 A 
HETATM    3  C3  UNL     1     -34.626  16.262  -5.510  1.00 20.00     0.030 A 
HETATM    4  C4  UNL     1     -33.293  16.638  -2.292  1.00 20.00    -0.011 C 
HETATM    5  C5  UNL     1     -33.665  16.194  -3.497  1.00 20.00    -0.013 A 
HETATM    6  C6  UNL     1     -34.524  16.976  -4.374  1.00 20.00     0.039 A 
HETATM    7  C7  UNL     1     -33.757  17.981  -1.799  1.00 20.00     0.048 C 
HETATM    8  C8  UNL     1     -35.006  18.527  -2.518  1.00 20.00     0.126 C 
HETATM    9  C9  UNL     1     -35.915  18.993  -4.786  1.00 20.00     0.149 C 
HETATM   10  N10 UNL     1     -35.036  18.184  -3.950  1.00 20.00    -0.384 N 
ENDROOT
TORSDOF 0
ENDMDL
MODEL 9
REMARK VINA RESULT:      -3.9     12.464     13.608
REMARK  0 active torsions:
REMARK  status: ('A' for Active; 'I' for Inactive)
ROOT
HETATM    1  C1  UNL     1     -33.918  17.954  -1.946  1.00 20.00     0.003 A 
HETATM    2  C2  UNL     1     -33.226  16.823  -2.157  1.00 20.00     0.013 A 
HETATM    3  C3  UNL     1     -34.773  18.227  -3.090  1.00 20.00     0.030 A 
HETATM    4  C4  UNL     1     -33.278  15.220  -4.086  1.00 20.00    -0.011 C 
HETATM    5  C5  UNL     1     -33.637  16.342  -3.454  1.00 20.00    -0.013 A 
HETATM    6  C6  UNL     1     -34.607  17.269  -4.019  1.00 20.00     0.039 A 
HETATM    7  C7  UNL     1     -33.875  14.876  -5.424  1.00 20.00     0.048 C 
HETATM    8  C8  UNL     1     -34.491  16.073  -6.173  1.00 20.00     0.126 C 
HETATM    9  C9  UNL     1     -36.097  17.951  -5.885  1.00 20.00     0.149 C 
HETATM   10  N10 UNL     1     -35.137  17.042  -5.271  1.00 20.00    -0.384 N 
ENDROOT
TORSDOF 0
ENDMDL
