MODEL 1
REMARK VINA RESULT:      -4.2      0.000      0.000
REMARK  0 active torsions:
REMARK  status: ('A' for Active; 'I' for Inactive)
ROOT
HETATM    1  C1  UNL     1     -27.056  18.490  12.332  1.00 20.00     0.012 C 
HETATM    2  C2  UNL     1     -25.923  18.670  11.977  1.00 20.00    -0.111 C 
HETATM    3  C3  UNL     1     -22.693  18.565  10.198  1.00 20.00     0.132 C 
HETATM    4  C4  UNL     1     -22.175  18.542  11.621  1.00 20.00     0.084 C 
HETATM    5  C5  UNL     1     -24.241  16.727  10.488  1.00 20.00     0.014 C 
HETATM    6  C6  UNL     1     -23.784  16.634  11.957  1.00 20.00     0.007 C 
HETATM    7  C7  UNL     1     -24.541  18.892  11.544  1.00 20.00     0.080 C 
HETATM    8  C8  UNL     1     -24.176  18.236  10.206  1.00 20.00     0.071 C 
HETATM    9  C9  UNL     1     -23.481  18.105  12.332  1.00 20.00     0.009 C 
HETATM   10  O10 UNL     1     -22.019  18.781   9.203  1.00 20.00    -0.298 OA
ENDROOT
TORSDOF 0
ENDMDL
MODEL 2
REMARK VINA RESULT:      -4.1      2.003      3.573
REMARK  0 active torsions:
REMARK  status: ('A' for Active; 'I' for Inactive)
ROOT
HETATM    1  C1  UNL     1     -21.907  17.468   8.730  1.00 20.00     0.012 C 
HETATM    2  C2  UNL     1     -22.907  17.514   9.393  1.00 20.00    -0.111 C 
HETATM    3  C3  UNL     1     -25.539  18.453  11.801  1.00 20.00     0.132 C 
HETATM    4  C4  UNL     1     -25.520  16.958  12.050  1.00 20.00     0.084 C 
HETATM    5  C5  UNL     1     -23.154  18.761  12.077  1.00 20.00     0.014 C 
HETATM    6  C6  UNL     1     -23.034  17.245  12.332  1.00 20.00     0.007 C 
HETATM    7  C7  UNL     1     -24.128  17.569  10.201  1.00 20.00     0.080 C 
HETATM    8  C8  UNL     1     -24.284  18.844  11.040  1.00 20.00     0.071 C 
HETATM    9  C9  UNL     1     -24.136  16.642  11.428  1.00 20.00     0.009 C 
HETATM   10  O10 UNL     1     -26.407  19.222  12.182  1.00 20.00    -0.298 OA
ENDROOT
TORSDOF 0
ENDMDL
MODEL 3
REMARK VINA RESULT:      -3.7      2.257      3.885
REMARK  0 active torsions:
REMARK  status: ('A' for Active; 'I' for Inactive)
ROOT
HETATM    1  C1  UNL     1     -21.405  17.660   7.104  1.00 20.00     0.012 C 
HETATM    2  C2  UNL     1     -21.685  17.609   8.270  1.00 20.00    -0.111 C 
HETATM    3  C3  UNL     1     -23.419  17.164  11.496  1.00 20.00     0.132 C 
HETATM    4  C4  UNL     1     -22.717  18.474  11.789  1.00 20.00     0.084 C 
HETATM    5  C5  UNL     1     -24.412  17.897   9.414  1.00 20.00     0.014 C 
HETATM    6  C6  UNL     1     -23.726  19.263   9.621  1.00 20.00     0.007 C 
HETATM    7  C7  UNL     1     -22.027  17.546   9.694  1.00 20.00     0.080 C 
HETATM    8  C8  UNL     1     -23.390  16.912   9.999  1.00 20.00     0.071 C 
HETATM    9  C9  UNL     1     -22.401  18.894  10.332  1.00 20.00     0.009 C 
HETATM   10  O10 UNL     1     -23.952  16.446  12.327  1.00 20.00    -0.298 OA
ENDROOT
TORSDOF 0
ENDMDL
MODEL 4
REMARK VINA RESULT:      -3.6     18.072     19.001
REMARK  0 active torsions:
REMARK  status: ('A' for Active; 'I' for Inactive)
ROOT
HETATM    1  C1  UNL     1     -39.460  11.872   4.533  1.00 20.00     0.012 C 
HETATM    2  C2  UNL     1     -40.000  12.252   5.536  1.00 20.00    -0.111 C 
HETATM    3  C3  UNL     1     -42.468  13.291   8.073  1.00 20.00     0.132 C 
HETATM    4  C4  UNL     1     -41.440  14.382   8.290  1.00 20.00     0.084 C 
HETATM    5  C5  UNL     1     -42.638  13.610   5.679  1.00 20.00     0.014 C 
HETATM    6  C6  UNL     1     -41.585  14.730   5.800  1.00 20.00     0.007 C 
HETATM    7  C7  UNL     1     -40.658  12.716   6.761  1.00 20.00     0.080 C 
HETATM    8  C8  UNL     1     -42.187  12.603   6.748  1.00 20.00     0.071 C 
HETATM    9  C9  UNL     1     -40.673  14.241   6.951  1.00 20.00     0.009 C 
HETATM   10  O10 UNL     1     -43.394  13.031   8.825  1.00 20.00    -0.298 OA
ENDROOT
TORSDOF 0
ENDMDL
MODEL 5
REMARK VINA RESULT:      -3.6     15.187     16.149
REMARK  0 active torsions:
REMARK  status: ('A' for Active; 'I' for Inactive)
ROOT
HETATM    1  C1  UNL     1     -31.069  18.910   0.630  1.00 20.00     0.012 C 
HETATM    2  C2  UNL     1     -31.539  18.538  -0.410  1.00 20.00    -0.111 C 
HETATM    3  C3  UNL     1     -33.488  18.236  -3.528  1.00 20.00     0.132 C 
HETATM    4  C4  UNL     1     -33.619  16.810  -3.033  1.00 20.00     0.084 C 
HETATM    5  C5  UNL     1     -34.221  19.263  -1.462  1.00 20.00     0.014 C 
HETATM    6  C6  UNL     1     -34.374  17.848  -0.867  1.00 20.00     0.007 C 
HETATM    7  C7  UNL     1     -32.111  18.084  -1.681  1.00 20.00     0.080 C 
HETATM    8  C8  UNL     1     -33.003  19.113  -2.386  1.00 20.00     0.071 C 
HETATM    9  C9  UNL     1     -33.239  17.048  -1.550  1.00 20.00     0.009 C 
HETATM   10  O10 UNL     1     -33.761  18.623  -4.653  1.00 20.00    -0.298 OA
ENDROOT
TORSDOF 0
ENDMDL
MODEL 6
REMARK VINA RESULT:      -3.5     19.536     20.920
REMARK  0 active torsions:
REMARK  status: ('A' for Active; 'I' for Inactive)
ROOT
HETATM    1  C1  UNL     1     -24.552  -3.014   9.753  1.00 20.00     0.012 C 
HETATM    2  C2  UNL     1     -25.658  -2.987  10.220  1.00 20.00    -0.111 C 
HETATM    3  C3  UNL     1     -29.210  -2.273  10.914  1.00 20.00     0.132 C 
HETATM    4  C4  UNL     1     -28.680  -2.214  12.332  1.00 20.00     0.084 C 
HETATM    5  C5  UNL     1     -27.582  -0.735   9.996  1.00 20.00     0.014 C 
HETATM    6  C6  UNL     1     -26.966  -0.619  11.405  1.00 20.00     0.007 C 
HETATM    7  C7  UNL     1     -27.008  -2.956  10.790  1.00 20.00     0.080 C 
HETATM    8  C8  UNL     1     -28.042  -2.200   9.946  1.00 20.00     0.071 C 
HETATM    9  C9  UNL     1     -27.177  -2.030  12.006  1.00 20.00     0.009 C 
HETATM   10  O10 UNL     1     -30.388  -2.336  10.601  1.00 20.00    -0.298 OA
ENDROOT
TORSDOF 0
ENDMDL
MODEL 7
REMARK VINA RESULT:      -3.5     17.231     18.584
REMARK  0 active torsions:
REMARK  status: ('A' for Active; 'I' for Inactive)
ROOT
HETATM    1  C1  UNL     1     -40.461  15.098   9.282  1.00 20.00     0.012 C 
HETATM    2  C2  UNL     1     -40.481  14.754   8.132  1.00 20.00    -0.111 C 
HETATM    3  C3  UNL     1     -41.492  13.950   4.676  1.00 20.00     0.132 C 
HETATM    4  C4  UNL     1     -40.638  12.731   4.958  1.00 20.00     0.084 C 
HETATM    5  C5  UNL     1     -42.855  13.738   6.665  1.00 20.00     0.014 C 
HETATM    6  C6  UNL     1     -42.032  12.489   7.041  1.00 20.00     0.007 C 
HETATM    7  C7  UNL     1     -40.504  14.336   6.728  1.00 20.00     0.080 C 
HETATM    8  C8  UNL     1     -41.814  14.642   5.990  1.00 20.00     0.071 C 
HETATM    9  C9  UNL     1     -40.618  12.819   6.505  1.00 20.00     0.009 C 
HETATM   10  O10 UNL     1     -41.886  14.299   3.575  1.00 20.00    -0.298 OA
ENDROOT
TORSDOF 0
ENDMDL
MODEL 8
REMARK VINA RESULT:      -3.5     15.505     16.479
REMARK  0 active torsions:
REMARK  status: ('A' for Active; 'I' for Inactive)
ROOT
HETATM    1  C1  UNL     1     -30.865  18.554   0.041  1.00 20.00     0.012 C 
HETATM    2  C2  UNL     1     -31.825  18.828  -0.626  1.00 20.00    -0.111 C 
HETATM    3  C3  UNL     1     -35.120  18.835  -2.285  1.00 20.00     0.132 C 
HETATM    4  C4  UNL     1     -34.264  19.239  -3.468  1.00 20.00     0.084 C 
HETATM    5  C5  UNL     1     -33.802  16.890  -1.702  1.00 20.00     0.014 C 
HETATM    6  C6  UNL     1     -32.866  17.229  -2.880  1.00 20.00     0.007 C 
HETATM    7  C7  UNL     1     -32.997  19.165  -1.439  1.00 20.00     0.080 C 
HETATM    8  C8  UNL     1     -34.223  18.276  -1.193  1.00 20.00     0.071 C 
HETATM    9  C9  UNL     1     -32.890  18.776  -2.923  1.00 20.00     0.009 C 
HETATM   10  O10 UNL     1     -36.337  18.914  -2.232  1.00 20.00    -0.298 OA
ENDROOT
TORSDOF 0
ENDMDL
MODEL 9
REMARK VINA RESULT:      -3.4     16.047     17.029
REMARK  0 active torsions:
REMARK  status: ('A' for Active; 'I' for Inactive)
ROOT
HETATM    1  C1  UNL     1     -34.238  14.673  -4.101  1.00 20.00     0.012 C 
HETATM    2  C2  UNL     1     -33.647  15.671  -3.789  1.00 20.00    -0.111 C 
HETATM    3  C3  UNL     1     -32.238  18.545  -1.956  1.00 20.00     0.132 C 
HETATM    4  C4  UNL     1     -32.630  19.256  -3.235  1.00 20.00     0.084 C 
HETATM    5  C5  UNL     1     -34.400  17.520  -1.591  1.00 20.00     0.014 C 
HETATM    6  C6  UNL     1     -34.888  18.195  -2.889  1.00 20.00     0.007 C 
HETATM    7  C7  UNL     1     -32.923  16.887  -3.410  1.00 20.00     0.080 C 
HETATM    8  C8  UNL     1     -32.933  17.195  -1.907  1.00 20.00     0.071 C 
HETATM    9  C9  UNL     1     -33.625  18.203  -3.785  1.00 20.00     0.009 C 
HETATM   10  O10 UNL     1     -31.508  19.000  -1.089  1.00 20.00    -0.298 OA
ENDROOT
TORSDOF 0
ENDMDL
