MODEL 1
REMARK VINA RESULT:      -4.4      0.000      0.000
REMARK  0 active torsions:
REMARK  status: ('A' for Active; 'I' for Inactive)
ROOT
HETATM    1  C1  UNL     1     -32.193   7.829   2.187  1.00 20.00     0.095 C 
HETATM    2  C2  UNL     1     -33.204   8.672   5.785  1.00 20.00     0.005 C 
HETATM    3  C3  UNL     1     -34.198   4.323   4.009  1.00 20.00     0.032 C 
HETATM    4  C4  UNL     1     -32.927   8.861   4.291  1.00 20.00     0.051 C 
HETATM    5  C5  UNL     1     -33.499   7.220   6.150  1.00 20.00     0.036 C 
HETATM    6  C6  UNL     1     -34.477   5.021   5.326  1.00 20.00     0.037 C 
HETATM    7  C7  UNL     1     -33.103   5.182   3.408  1.00 20.00     0.275 C 
HETATM    8  C8  UNL     1     -32.492   7.555   3.605  1.00 20.00     0.329 C 
HETATM    9  C9  UNL     1     -34.244   6.503   5.022  1.00 20.00     0.224 C 
HETATM   10  N10 UNL     1     -31.957   8.044   1.072  1.00 20.00    -0.195 NA
HETATM   11  N11 UNL     1     -33.549   6.543   3.722  1.00 20.00     0.111 N 
ENDROOT
TORSDOF 0
ENDMDL
MODEL 2
REMARK VINA RESULT:      -4.4      1.396      3.242
REMARK  0 active torsions:
REMARK  status: ('A' for Active; 'I' for Inactive)
ROOT
HETATM    1  C1  UNL     1     -33.267   5.050   2.736  1.00 20.00     0.095 C 
HETATM    2  C2  UNL     1     -34.767   5.382   6.245  1.00 20.00     0.005 C 
HETATM    3  C3  UNL     1     -32.317   9.059   4.366  1.00 20.00     0.032 C 
HETATM    4  C4  UNL     1     -34.106   4.740   5.023  1.00 20.00     0.051 C 
HETATM    5  C5  UNL     1     -34.558   6.893   6.302  1.00 20.00     0.036 C 
HETATM    6  C6  UNL     1     -32.992   8.804   5.701  1.00 20.00     0.037 C 
HETATM    7  C7  UNL     1     -32.930   7.993   3.480  1.00 20.00     0.275 C 
HETATM    8  C8  UNL     1     -33.853   5.752   3.893  1.00 20.00     0.329 C 
HETATM    9  C9  UNL     1     -33.194   7.287   5.735  1.00 20.00     0.224 C 
HETATM   10  N10 UNL     1     -32.806   4.498   1.825  1.00 20.00    -0.195 NA
HETATM   11  N11 UNL     1     -32.957   6.818   4.356  1.00 20.00     0.111 N 
ENDROOT
TORSDOF 0
ENDMDL
MODEL 3
REMARK VINA RESULT:      -4.2      1.484      2.237
REMARK  0 active torsions:
REMARK  status: ('A' for Active; 'I' for Inactive)
ROOT
HETATM    1  C1  UNL     1     -32.906   5.135   2.372  1.00 20.00     0.095 C 
HETATM    2  C2  UNL     1     -32.203   8.620   3.798  1.00 20.00     0.005 C 
HETATM    3  C3  UNL     1     -34.844   5.518   6.338  1.00 20.00     0.032 C 
HETATM    4  C4  UNL     1     -32.489   7.522   2.771  1.00 20.00     0.051 C 
HETATM    5  C5  UNL     1     -32.680   8.254   5.200  1.00 20.00     0.036 C 
HETATM    6  C6  UNL     1     -34.409   6.957   6.541  1.00 20.00     0.037 C 
HETATM    7  C7  UNL     1     -33.892   5.037   5.260  1.00 20.00     0.275 C 
HETATM    8  C8  UNL     1     -32.689   6.145   3.425  1.00 20.00     0.329 C 
HETATM    9  C9  UNL     1     -33.955   7.411   5.151  1.00 20.00     0.224 C 
HETATM   10  N10 UNL     1     -33.075   4.341   1.544  1.00 20.00    -0.195 NA
HETATM   11  N11 UNL     1     -33.832   6.181   4.346  1.00 20.00     0.111 N 
ENDROOT
TORSDOF 0
ENDMDL
MODEL 4
REMARK VINA RESULT:      -4.1     12.172     13.603
REMARK  0 active torsions:
REMARK  status: ('A' for Active; 'I' for Inactive)
ROOT
HETATM    1  C1  UNL     1     -35.712  14.869  -6.511  1.00 20.00     0.095 C 
HETATM    2  C2  UNL     1     -32.953  15.304  -3.889  1.00 20.00     0.005 C 
HETATM    3  C3  UNL     1     -36.157  18.817  -4.550  1.00 20.00     0.032 C 
HETATM    4  C4  UNL     1     -33.646  14.870  -5.183  1.00 20.00     0.051 C 
HETATM    5  C5  UNL     1     -33.619  16.514  -3.241  1.00 20.00     0.036 C 
HETATM    6  C6  UNL     1     -34.932  18.649  -3.672  1.00 20.00     0.037 C 
HETATM    7  C7  UNL     1     -36.464  17.391  -4.962  1.00 20.00     0.275 C 
HETATM    8  C8  UNL     1     -35.098  15.370  -5.267  1.00 20.00     0.329 C 
HETATM    9  C9  UNL     1     -34.184  17.468  -4.295  1.00 20.00     0.224 C 
HETATM   10  N10 UNL     1     -36.195  14.475  -7.489  1.00 20.00    -0.195 NA
HETATM   11  N11 UNL     1     -35.133  16.837  -5.230  1.00 20.00     0.111 N 
ENDROOT
TORSDOF 0
ENDMDL
MODEL 5
REMARK VINA RESULT:      -4.1      1.360      1.850
REMARK  0 active torsions:
REMARK  status: ('A' for Active; 'I' for Inactive)
ROOT
HETATM    1  C1  UNL     1     -32.652   8.838   4.050  1.00 20.00     0.095 C 
HETATM    2  C2  UNL     1     -34.423   6.788   6.758  1.00 20.00     0.005 C 
HETATM    3  C3  UNL     1     -33.264   4.699   2.593  1.00 20.00     0.032 C 
HETATM    4  C4  UNL     1     -34.039   7.988   5.889  1.00 20.00     0.051 C 
HETATM    5  C5  UNL     1     -34.139   5.453   6.076  1.00 20.00     0.036 C 
HETATM    6  C6  UNL     1     -33.992   4.242   3.843  1.00 20.00     0.037 C 
HETATM    7  C7  UNL     1     -32.549   5.949   3.067  1.00 20.00     0.275 C 
HETATM    8  C8  UNL     1     -33.010   7.624   4.807  1.00 20.00     0.329 C 
HETATM    9  C9  UNL     1     -34.351   5.545   4.564  1.00 20.00     0.224 C 
HETATM   10  N10 UNL     1     -32.369   9.793   3.455  1.00 20.00    -0.195 NA
HETATM   11  N11 UNL     1     -33.558   6.601   3.908  1.00 20.00     0.111 N 
ENDROOT
TORSDOF 0
ENDMDL
MODEL 6
REMARK VINA RESULT:      -3.8     12.116     14.033
REMARK  0 active torsions:
REMARK  status: ('A' for Active; 'I' for Inactive)
ROOT
HETATM    1  C1  UNL     1     -35.368  15.352  -6.501  1.00 20.00     0.095 C 
HETATM    2  C2  UNL     1     -34.716  19.125  -6.407  1.00 20.00     0.005 C 
HETATM    3  C3  UNL     1     -33.361  16.401  -2.693  1.00 20.00     0.032 C 
HETATM    4  C4  UNL     1     -35.418  17.799  -6.706  1.00 20.00     0.051 C 
HETATM    5  C5  UNL     1     -33.767  19.035  -5.215  1.00 20.00     0.036 C 
HETATM    6  C6  UNL     1     -33.321  17.888  -2.989  1.00 20.00     0.037 C 
HETATM    7  C7  UNL     1     -33.579  15.798  -4.067  1.00 20.00     0.275 C 
HETATM    8  C8  UNL     1     -34.662  16.591  -6.127  1.00 20.00     0.329 C 
HETATM    9  C9  UNL     1     -34.294  18.064  -4.158  1.00 20.00     0.224 C 
HETATM   10  N10 UNL     1     -35.924  14.377  -6.796  1.00 20.00    -0.195 NA
HETATM   11  N11 UNL     1     -34.562  16.706  -4.667  1.00 20.00     0.111 N 
ENDROOT
TORSDOF 0
ENDMDL
MODEL 7
REMARK VINA RESULT:      -3.8     11.980     13.658
REMARK  0 active torsions:
REMARK  status: ('A' for Active; 'I' for Inactive)
ROOT
HETATM    1  C1  UNL     1     -35.672  18.200  -6.057  1.00 20.00     0.095 C 
HETATM    2  C2  UNL     1     -33.907  14.867  -5.386  1.00 20.00     0.005 C 
HETATM    3  C3  UNL     1     -34.017  18.216  -1.947  1.00 20.00     0.032 C 
HETATM    4  C4  UNL     1     -34.407  16.096  -6.147  1.00 20.00     0.051 C 
HETATM    5  C5  UNL     1     -33.809  15.105  -3.882  1.00 20.00     0.036 C 
HETATM    6  C6  UNL     1     -33.391  16.839  -2.069  1.00 20.00     0.037 C 
HETATM    7  C7  UNL     1     -35.035  18.214  -3.071  1.00 20.00     0.275 C 
HETATM    8  C8  UNL     1     -35.178  17.073  -5.243  1.00 20.00     0.329 C 
HETATM    9  C9  UNL     1     -33.413  16.549  -3.572  1.00 20.00     0.224 C 
HETATM   10  N10 UNL     1     -36.061  19.086  -6.697  1.00 20.00    -0.195 NA
HETATM   11  N11 UNL     1     -34.310  17.559  -4.164  1.00 20.00     0.111 N 
ENDROOT
TORSDOF 0
ENDMDL
MODEL 8
REMARK VINA RESULT:      -3.7      1.688      2.892
REMARK  0 active torsions:
REMARK  status: ('A' for Active; 'I' for Inactive)
ROOT
HETATM    1  C1  UNL     1     -32.307   8.964   4.762  1.00 20.00     0.095 C 
HETATM    2  C2  UNL     1     -32.693   6.044   2.312  1.00 20.00     0.005 C 
HETATM    3  C3  UNL     1     -34.778   5.796   6.629  1.00 20.00     0.032 C 
HETATM    4  C4  UNL     1     -32.052   7.222   3.049  1.00 20.00     0.051 C 
HETATM    5  C5  UNL     1     -33.813   5.387   3.113  1.00 20.00     0.036 C 
HETATM    6  C6  UNL     1     -34.667   4.851   5.448  1.00 20.00     0.037 C 
HETATM    7  C7  UNL     1     -34.402   7.131   6.017  1.00 20.00     0.275 C 
HETATM    8  C8  UNL     1     -32.971   7.805   4.136  1.00 20.00     0.329 C 
HETATM    9  C9  UNL     1     -33.520   5.427   4.614  1.00 20.00     0.224 C 
HETATM   10  N10 UNL     1     -31.786   9.876   5.254  1.00 20.00    -0.195 NA
HETATM   11  N11 UNL     1     -33.278   6.782   5.143  1.00 20.00     0.111 N 
ENDROOT
TORSDOF 0
ENDMDL
MODEL 9
REMARK VINA RESULT:      -3.7     15.101     16.175
REMARK  0 active torsions:
REMARK  status: ('A' for Active; 'I' for Inactive)
ROOT
HETATM    1  C1  UNL     1     -25.687  19.211   8.220  1.00 20.00     0.095 C 
HETATM    2  C2  UNL     1     -24.276  18.642  11.735  1.00 20.00     0.005 C 
HETATM    3  C3  UNL     1     -21.481  17.854   7.912  1.00 20.00     0.032 C 
HETATM    4  C4  UNL     1     -25.283  18.683  10.584  1.00 20.00     0.051 C 
HETATM    5  C5  UNL     1     -22.831  18.552  11.251  1.00 20.00     0.036 C 
HETATM    6  C6  UNL     1     -21.300  17.696   9.410  1.00 20.00     0.037 C 
HETATM    7  C7  UNL     1     -22.694  18.759   7.822  1.00 20.00     0.275 C 
HETATM    8  C8  UNL     1     -24.647  19.146   9.263  1.00 20.00     0.329 C 
HETATM    9  C9  UNL     1     -22.726  17.731   9.965  1.00 20.00     0.224 C 
HETATM   10  N10 UNL     1     -26.506  19.262   7.399  1.00 20.00    -0.195 NA
HETATM   11  N11 UNL     1     -23.575  18.226   8.865  1.00 20.00     0.111 N 
ENDROOT
TORSDOF 0
ENDMDL
