MODEL 1
REMARK VINA RESULT:      -4.7      0.000      0.000
REMARK  1 active torsions:
REMARK  status: ('A' for Active; 'I' for Inactive)
REMARK    1  A    between atoms: C3_3  and  C7_7 
ROOT
HETATM    1  C1  UNL     1     -34.088   6.921   5.732  1.00 20.00    -0.070 C 
HETATM    2  C2  UNL     1     -33.716   7.637   6.798  1.00 20.00     0.015 C 
HETATM    3  C4  UNL     1     -33.763   4.520   5.296  1.00 20.00     0.009 C 
HETATM    4  C5  UNL     1     -33.617   4.831   3.795  1.00 20.00     0.006 C 
HETATM    5  C6  UNL     1     -35.689   5.702   4.544  1.00 20.00     0.014 C 
HETATM    6  C7  UNL     1     -33.972   7.322   4.285  1.00 20.00     0.119 C 
HETATM    7  C8  UNL     1     -34.778   5.574   5.767  1.00 20.00     0.015 C 
HETATM    8  C9  UNL     1     -34.534   6.059   3.598  1.00 20.00     0.004 C 
ENDROOT
BRANCH   6   9
HETATM    9  C3  UNL     1     -32.556   7.644   3.881  1.00 20.00     0.181 C 
HETATM   10  O10 UNL     1     -31.922   8.387   4.680  1.00 20.00    -0.647 OA
HETATM   11  O11 UNL     1     -32.187   7.125   2.790  1.00 20.00    -0.647 OA
ENDBRANCH   6   9
TORSDOF 1
ENDMDL
MODEL 2
REMARK VINA RESULT:      -4.4      1.740      2.867
REMARK  1 active torsions:
REMARK  status: ('A' for Active; 'I' for Inactive)
REMARK    1  A    between atoms: C3_3  and  C7_7 
ROOT
HETATM    1  C1  UNL     1     -32.987   7.243   4.020  1.00 20.00    -0.070 C 
HETATM    2  C2  UNL     1     -31.876   7.506   3.324  1.00 20.00     0.015 C 
HETATM    3  C4  UNL     1     -33.250   6.939   6.450  1.00 20.00     0.009 C 
HETATM    4  C5  UNL     1     -34.366   5.912   6.182  1.00 20.00     0.006 C 
HETATM    5  C6  UNL     1     -34.938   7.940   5.100  1.00 20.00     0.014 C 
HETATM    6  C7  UNL     1     -34.073   6.263   3.659  1.00 20.00     0.119 C 
HETATM    7  C8  UNL     1     -33.420   7.938   5.294  1.00 20.00     0.015 C 
HETATM    8  C9  UNL     1     -35.011   6.424   4.875  1.00 20.00     0.004 C 
ENDROOT
BRANCH   6   9
HETATM    9  C3  UNL     1     -33.555   4.858   3.484  1.00 20.00     0.181 C 
HETATM   10  O10 UNL     1     -34.015   4.008   4.295  1.00 20.00    -0.647 OA
HETATM   11  O11 UNL     1     -32.724   4.715   2.542  1.00 20.00    -0.647 OA
ENDBRANCH   6   9
TORSDOF 1
ENDMDL
MODEL 3
REMARK VINA RESULT:      -4.1      8.782     10.042
REMARK  1 active torsions:
REMARK  status: ('A' for Active; 'I' for Inactive)
REMARK    1  A    between atoms: C3_3  and  C7_7 
ROOT
HETATM    1  C1  UNL     1     -42.286   5.803   1.130  1.00 20.00    -0.070 C 
HETATM    2  C2  UNL     1     -42.935   4.845   1.799  1.00 20.00     0.015 C 
HETATM    3  C4  UNL     1     -43.071   8.051   0.503  1.00 20.00     0.009 C 
HETATM    4  C5  UNL     1     -42.234   7.964  -0.786  1.00 20.00     0.006 C 
HETATM    5  C6  UNL     1     -40.800   7.605   1.065  1.00 20.00     0.014 C 
HETATM    6  C7  UNL     1     -41.427   5.631  -0.095  1.00 20.00     0.119 C 
HETATM    7  C8  UNL     1     -42.223   7.266   1.516  1.00 20.00     0.015 C 
HETATM    8  C9  UNL     1     -41.027   7.097  -0.365  1.00 20.00     0.004 C 
ENDROOT
BRANCH   6   9
HETATM    9  C3  UNL     1     -42.169   4.991  -1.241  1.00 20.00     0.181 C 
HETATM   10  O10 UNL     1     -43.417   5.172  -1.244  1.00 20.00    -0.647 OA
HETATM   11  O11 UNL     1     -41.439   4.355  -2.054  1.00 20.00    -0.647 OA
ENDBRANCH   6   9
TORSDOF 1
ENDMDL
MODEL 4
REMARK VINA RESULT:      -4.1      2.025      3.568
REMARK  1 active torsions:
REMARK  status: ('A' for Active; 'I' for Inactive)
REMARK    1  A    between atoms: C3_3  and  C7_7 
ROOT
HETATM    1  C1  UNL     1     -33.250   6.419   3.289  1.00 20.00    -0.070 C 
HETATM    2  C2  UNL     1     -32.917   5.335   2.582  1.00 20.00     0.015 C 
HETATM    3  C4  UNL     1     -31.790   7.940   4.562  1.00 20.00     0.009 C 
HETATM    4  C5  UNL     1     -32.926   8.146   5.582  1.00 20.00     0.006 C 
HETATM    5  C6  UNL     1     -33.742   8.700   3.428  1.00 20.00     0.014 C 
HETATM    6  C7  UNL     1     -34.422   6.568   4.224  1.00 20.00     0.119 C 
HETATM    7  C8  UNL     1     -32.549   7.760   3.238  1.00 20.00     0.015 C 
HETATM    8  C9  UNL     1     -34.202   8.013   4.721  1.00 20.00     0.004 C 
ENDROOT
BRANCH   6   9
HETATM    9  C3  UNL     1     -34.418   5.546   5.331  1.00 20.00     0.181 C 
HETATM   10  O10 UNL     1     -34.417   6.018   6.501  1.00 20.00    -0.647 OA
HETATM   11  O11 UNL     1     -34.415   4.344   4.941  1.00 20.00    -0.647 OA
ENDBRANCH   6   9
TORSDOF 1
ENDMDL
MODEL 5
REMARK VINA RESULT:      -4.1      0.936      2.621
REMARK  1 active torsions:
REMARK  status: ('A' for Active; 'I' for Inactive)
REMARK    1  A    between atoms: C3_3  and  C7_7 
ROOT
HETATM    1  C1  UNL     1     -33.342   5.568   3.711  1.00 20.00    -0.070 C 
HETATM    2  C2  UNL     1     -32.892   5.000   2.588  1.00 20.00     0.015 C 
HETATM    3  C4  UNL     1     -35.635   6.266   4.276  1.00 20.00     0.009 C 
HETATM    4  C5  UNL     1     -35.057   7.437   5.093  1.00 20.00     0.006 C 
HETATM    5  C6  UNL     1     -34.122   5.418   5.909  1.00 20.00     0.014 C 
HETATM    6  C7  UNL     1     -32.684   6.673   4.496  1.00 20.00     0.119 C 
HETATM    7  C8  UNL     1     -34.585   5.161   4.473  1.00 20.00     0.015 C 
HETATM    8  C9  UNL     1     -33.720   6.872   5.623  1.00 20.00     0.004 C 
ENDROOT
BRANCH   6   9
HETATM    9  C3  UNL     1     -32.449   7.913   3.672  1.00 20.00     0.181 C 
HETATM   10  O10 UNL     1     -32.410   7.731   2.423  1.00 20.00    -0.647 OA
HETATM   11  O11 UNL     1     -32.324   8.977   4.341  1.00 20.00    -0.647 OA
ENDBRANCH   6   9
TORSDOF 1
ENDMDL
MODEL 6
REMARK VINA RESULT:      -4.0     13.122     14.525
REMARK  1 active torsions:
REMARK  status: ('A' for Active; 'I' for Inactive)
REMARK    1  A    between atoms: C3_3  and  C7_7 
ROOT
HETATM    1  C1  UNL     1     -34.273  16.168  -4.820  1.00 20.00    -0.070 C 
HETATM    2  C2  UNL     1     -33.663  15.362  -3.946  1.00 20.00     0.015 C 
HETATM    3  C4  UNL     1     -36.074  17.799  -4.419  1.00 20.00     0.009 C 
HETATM    4  C5  UNL     1     -36.637  17.494  -5.819  1.00 20.00     0.006 C 
HETATM    5  C6  UNL     1     -34.373  18.153  -6.048  1.00 20.00     0.014 C 
HETATM    6  C7  UNL     1     -34.741  15.813  -6.207  1.00 20.00     0.119 C 
HETATM    7  C8  UNL     1     -34.558  17.641  -4.618  1.00 20.00     0.015 C 
HETATM    8  C9  UNL     1     -35.374  17.152  -6.641  1.00 20.00     0.004 C 
ENDROOT
BRANCH   6   9
HETATM    9  C3  UNL     1     -35.712  14.660  -6.217  1.00 20.00     0.181 C 
HETATM   10  O10 UNL     1     -36.057  14.235  -5.080  1.00 20.00    -0.647 OA
HETATM   11  O11 UNL     1     -36.056  14.269  -7.368  1.00 20.00    -0.647 OA
ENDBRANCH   6   9
TORSDOF 1
ENDMDL
MODEL 7
REMARK VINA RESULT:      -4.0      8.709     10.191
REMARK  1 active torsions:
REMARK  status: ('A' for Active; 'I' for Inactive)
REMARK    1  A    between atoms: C3_3  and  C7_7 
ROOT
HETATM    1  C1  UNL     1     -42.555   5.952  -0.591  1.00 20.00    -0.070 C 
HETATM    2  C2  UNL     1     -42.687   4.836  -1.315  1.00 20.00     0.015 C 
HETATM    3  C4  UNL     1     -40.525   7.270  -0.142  1.00 20.00     0.009 C 
HETATM    4  C5  UNL     1     -41.080   7.616   1.252  1.00 20.00     0.006 C 
HETATM    5  C6  UNL     1     -42.672   8.275  -0.374  1.00 20.00     0.014 C 
HETATM    6  C7  UNL     1     -43.186   6.245   0.745  1.00 20.00     0.119 C 
HETATM    7  C8  UNL     1     -41.793   7.193  -1.006  1.00 20.00     0.015 C 
HETATM    8  C9  UNL     1     -42.608   7.649   1.026  1.00 20.00     0.004 C 
ENDROOT
BRANCH   6   9
HETATM    9  C3  UNL     1     -42.825   5.227   1.796  1.00 20.00     0.181 C 
HETATM   10  O10 UNL     1     -41.980   4.360   1.440  1.00 20.00    -0.647 OA
HETATM   11  O11 UNL     1     -43.417   5.376   2.902  1.00 20.00    -0.647 OA
ENDBRANCH   6   9
TORSDOF 1
ENDMDL
MODEL 8
REMARK VINA RESULT:      -3.9     10.198     10.966
REMARK  1 active torsions:
REMARK  status: ('A' for Active; 'I' for Inactive)
REMARK    1  A    between atoms: C3_3  and  C7_7 
ROOT
HETATM    1  C1  UNL     1     -41.221  14.635   7.411  1.00 20.00    -0.070 C 
HETATM    2  C2  UNL     1     -40.186  15.232   8.010  1.00 20.00     0.015 C 
HETATM    3  C4  UNL     1     -42.929  13.156   8.390  1.00 20.00     0.009 C 
HETATM    4  C5  UNL     1     -42.990  12.377   7.063  1.00 20.00     0.006 C 
HETATM    5  C6  UNL     1     -43.417  14.664   6.612  1.00 20.00     0.014 C 
HETATM    6  C7  UNL     1     -41.220  13.945   6.072  1.00 20.00     0.119 C 
HETATM    7  C8  UNL     1     -42.643  14.594   7.931  1.00 20.00     0.015 C 
HETATM    8  C9  UNL     1     -42.684  13.461   6.004  1.00 20.00     0.004 C 
ENDROOT
BRANCH   6   9
HETATM    9  C3  UNL     1     -40.214  12.826   5.995  1.00 20.00     0.181 C 
HETATM   10  O10 UNL     1     -39.676  12.507   7.091  1.00 20.00    -0.647 OA
HETATM   11  O11 UNL     1     -40.040  12.350   4.837  1.00 20.00    -0.647 OA
ENDBRANCH   6   9
TORSDOF 1
ENDMDL
MODEL 9
REMARK VINA RESULT:      -3.8     11.421     12.770
REMARK  1 active torsions:
REMARK  status: ('A' for Active; 'I' for Inactive)
REMARK    1  A    between atoms: C3_3  and  C7_7 
ROOT
HETATM    1  C1  UNL     1     -26.617  -2.411  10.303  1.00 20.00    -0.070 C 
HETATM    2  C2  UNL     1     -25.567  -3.210  10.094  1.00 20.00     0.015 C 
HETATM    3  C4  UNL     1     -27.220  -1.152  12.332  1.00 20.00     0.009 C 
HETATM    4  C5  UNL     1     -28.708  -1.368  12.002  1.00 20.00     0.006 C 
HETATM    5  C6  UNL     1     -27.670  -0.331  10.142  1.00 20.00     0.014 C 
HETATM    6  C7  UNL     1     -28.044  -2.662   9.891  1.00 20.00     0.119 C 
HETATM    7  C8  UNL     1     -26.574  -1.039  10.942  1.00 20.00     0.015 C 
HETATM    8  C9  UNL     1     -28.727  -1.399  10.457  1.00 20.00     0.004 C 
ENDROOT
BRANCH   6   9
HETATM    9  C3  UNL     1     -28.596  -3.946  10.456  1.00 20.00     0.181 C 
HETATM   10  O10 UNL     1     -27.878  -4.503  11.332  1.00 20.00    -0.647 OA
HETATM   11  O11 UNL     1     -29.712  -4.297   9.978  1.00 20.00    -0.647 OA
ENDBRANCH   6   9
TORSDOF 1
ENDMDL
