MODEL 1
REMARK VINA RESULT:      -3.8      0.000      0.000
REMARK  3 active torsions:
REMARK  status: ('A' for Active; 'I' for Inactive)
REMARK    1  A    between atoms: C1_1  and  C2_2 
REMARK    2  A    between atoms: C4_4  and  C8_8 
REMARK    3  A    between atoms: C8_8  and  N9_9 
ROOT
HETATM    1  C1  UNL     1     -33.276  17.346  -1.561  1.00 20.00    -0.015 C 
HETATM    2  C3  UNL     1     -33.172  18.091  -0.626  1.00 20.00    -0.097 C 
HETATM    3  C5  UNL     1     -33.047  18.999   0.514  1.00 20.00     0.113 C 
ENDROOT
BRANCH   1   4
HETATM    4  C2  UNL     1     -33.395  16.493  -2.630  1.00 20.00    -0.013 C 
HETATM    5  C4  UNL     1     -33.497  15.746  -3.564  1.00 20.00    -0.062 C 
BRANCH   5   6
HETATM    6  C8  UNL     1     -33.629  14.836  -4.705  1.00 20.00     0.365 C 
BRANCH   6   7
HETATM    7  N9  UNL     1     -34.631  15.322  -5.646  1.00 20.00     0.090 N 
HETATM    8  C6  UNL     1     -35.832  14.487  -5.597  1.00 20.00     0.310 C 
HETATM    9  C7  UNL     1     -34.089  15.352  -7.006  1.00 20.00     0.310 C 
ENDBRANCH   6   7
ENDBRANCH   5   6
ENDBRANCH   1   4
TORSDOF 3
ENDMDL
MODEL 2
REMARK VINA RESULT:      -3.7      0.724      1.265
REMARK  3 active torsions:
REMARK  status: ('A' for Active; 'I' for Inactive)
REMARK    1  A    between atoms: C1_1  and  C2_2 
REMARK    2  A    between atoms: C4_4  and  C8_8 
REMARK    3  A    between atoms: C8_8  and  N9_9 
ROOT
HETATM    1  C1  UNL     1     -33.568  16.965  -1.835  1.00 20.00    -0.015 C 
HETATM    2  C3  UNL     1     -33.584  17.617  -0.827  1.00 20.00    -0.097 C 
HETATM    3  C5  UNL     1     -33.604  18.410   0.402  1.00 20.00     0.113 C 
ENDROOT
BRANCH   1   4
HETATM    4  C2  UNL     1     -33.548  16.219  -2.987  1.00 20.00    -0.013 C 
HETATM    5  C4  UNL     1     -33.531  15.569  -3.996  1.00 20.00    -0.062 C 
BRANCH   5   6
HETATM    6  C8  UNL     1     -33.509  14.768  -5.223  1.00 20.00     0.365 C 
BRANCH   6   7
HETATM    7  N9  UNL     1     -34.696  15.023  -6.031  1.00 20.00     0.090 N 
HETATM    8  C6  UNL     1     -34.840  16.455  -6.299  1.00 20.00     0.310 C 
HETATM    9  C7  UNL     1     -35.894  14.509  -5.363  1.00 20.00     0.310 C 
ENDBRANCH   6   7
ENDBRANCH   5   6
ENDBRANCH   1   4
TORSDOF 3
ENDMDL
MODEL 3
REMARK VINA RESULT:      -3.5      1.280      1.794
REMARK  3 active torsions:
REMARK  status: ('A' for Active; 'I' for Inactive)
REMARK    1  A    between atoms: C1_1  and  C2_2 
REMARK    2  A    between atoms: C4_4  and  C8_8 
REMARK    3  A    between atoms: C8_8  and  N9_9 
ROOT
HETATM    1  C1  UNL     1     -32.356  18.034  -1.335  1.00 20.00    -0.015 C 
HETATM    2  C3  UNL     1     -31.728  18.423  -0.388  1.00 20.00    -0.097 C 
HETATM    3  C5  UNL     1     -30.964  18.899   0.764  1.00 20.00     0.113 C 
ENDROOT
BRANCH   1   4
HETATM    4  C2  UNL     1     -33.074  17.589  -2.416  1.00 20.00    -0.013 C 
HETATM    5  C4  UNL     1     -33.702  17.201  -3.363  1.00 20.00    -0.062 C 
BRANCH   5   6
HETATM    6  C8  UNL     1     -34.470  16.721  -4.516  1.00 20.00     0.365 C 
BRANCH   6   7
HETATM    7  N9  UNL     1     -33.874  15.512  -5.070  1.00 20.00     0.090 N 
HETATM    8  C6  UNL     1     -34.417  15.232  -6.401  1.00 20.00     0.310 C 
HETATM    9  C7  UNL     1     -34.099  14.370  -4.180  1.00 20.00     0.310 C 
ENDBRANCH   6   7
ENDBRANCH   5   6
ENDBRANCH   1   4
TORSDOF 3
ENDMDL
MODEL 4
REMARK VINA RESULT:      -3.5      2.321      3.441
REMARK  3 active torsions:
REMARK  status: ('A' for Active; 'I' for Inactive)
REMARK    1  A    between atoms: C1_1  and  C2_2 
REMARK    2  A    between atoms: C4_4  and  C8_8 
REMARK    3  A    between atoms: C8_8  and  N9_9 
ROOT
HETATM    1  C1  UNL     1     -31.243  18.591   0.332  1.00 20.00    -0.015 C 
HETATM    2  C3  UNL     1     -30.675  18.619   1.390  1.00 20.00    -0.097 C 
HETATM    3  C5  UNL     1     -29.984  18.655   2.678  1.00 20.00     0.113 C 
ENDROOT
BRANCH   1   4
HETATM    4  C2  UNL     1     -31.893  18.559  -0.876  1.00 20.00    -0.013 C 
HETATM    5  C4  UNL     1     -32.462  18.529  -1.933  1.00 20.00    -0.062 C 
BRANCH   5   6
HETATM    6  C8  UNL     1     -33.155  18.500  -3.224  1.00 20.00     0.365 C 
BRANCH   6   7
HETATM    7  N9  UNL     1     -34.059  17.359  -3.303  1.00 20.00     0.090 N 
HETATM    8  C6  UNL     1     -33.303  16.106  -3.367  1.00 20.00     0.310 C 
HETATM    9  C7  UNL     1     -34.940  17.478  -4.467  1.00 20.00     0.310 C 
ENDBRANCH   6   7
ENDBRANCH   5   6
ENDBRANCH   1   4
TORSDOF 3
ENDMDL
MODEL 5
REMARK VINA RESULT:      -3.2     12.732     16.069
REMARK  3 active torsions:
REMARK  status: ('A' for Active; 'I' for Inactive)
REMARK    1  A    between atoms: C1_1  and  C2_2 
REMARK    2  A    between atoms: C4_4  and  C8_8 
REMARK    3  A    between atoms: C8_8  and  N9_9 
ROOT
HETATM    1  C1  UNL     1     -26.126  19.261   6.805  1.00 20.00    -0.015 C 
HETATM    2  C3  UNL     1     -26.978  19.261   5.960  1.00 20.00    -0.097 C 
HETATM    3  C5  UNL     1     -28.015  19.261   4.928  1.00 20.00     0.113 C 
ENDROOT
BRANCH   1   4
HETATM    4  C2  UNL     1     -25.152  19.259   7.772  1.00 20.00    -0.013 C 
HETATM    5  C4  UNL     1     -24.299  19.259   8.616  1.00 20.00    -0.062 C 
BRANCH   5   6
HETATM    6  C8  UNL     1     -23.262  19.256   9.653  1.00 20.00     0.365 C 
BRANCH   6   7
HETATM    7  N9  UNL     1     -23.715  18.540  10.839  1.00 20.00     0.090 N 
HETATM    8  C6  UNL     1     -22.712  18.621  11.904  1.00 20.00     0.310 C 
HETATM    9  C7  UNL     1     -24.001  17.140  10.518  1.00 20.00     0.310 C 
ENDBRANCH   6   7
ENDBRANCH   5   6
ENDBRANCH   1   4
TORSDOF 3
ENDMDL
MODEL 6
REMARK VINA RESULT:      -3.1     16.882     17.878
REMARK  3 active torsions:
REMARK  status: ('A' for Active; 'I' for Inactive)
REMARK    1  A    between atoms: C1_1  and  C2_2 
REMARK    2  A    between atoms: C4_4  and  C8_8 
REMARK    3  A    between atoms: C8_8  and  N9_9 
ROOT
HETATM    1  C1  UNL     1     -27.387  18.789  12.309  1.00 20.00    -0.015 C 
HETATM    2  C3  UNL     1     -28.584  18.879  12.303  1.00 20.00    -0.097 C 
HETATM    3  C5  UNL     1     -30.042  18.990  12.294  1.00 20.00     0.113 C 
ENDROOT
BRANCH   1   4
HETATM    4  C2  UNL     1     -26.018  18.687  12.316  1.00 20.00    -0.013 C 
HETATM    5  C4  UNL     1     -24.821  18.597  12.320  1.00 20.00    -0.062 C 
BRANCH   5   6
HETATM    6  C8  UNL     1     -23.359  18.488  12.332  1.00 20.00     0.365 C 
BRANCH   6   7
HETATM    7  N9  UNL     1     -22.874  17.868  11.105  1.00 20.00     0.090 N 
HETATM    8  C6  UNL     1     -22.553  18.887  10.104  1.00 20.00     0.310 C 
HETATM    9  C7  UNL     1     -23.866  16.930  10.573  1.00 20.00     0.310 C 
ENDBRANCH   6   7
ENDBRANCH   5   6
ENDBRANCH   1   4
TORSDOF 3
ENDMDL
MODEL 7
REMARK VINA RESULT:      -3.0     16.512     17.589
REMARK  3 active torsions:
REMARK  status: ('A' for Active; 'I' for Inactive)
REMARK    1  A    between atoms: C1_1  and  C2_2 
REMARK    2  A    between atoms: C4_4  and  C8_8 
REMARK    3  A    between atoms: C8_8  and  N9_9 
ROOT
HETATM    1  C1  UNL     1     -28.885  18.464  12.330  1.00 20.00    -0.015 C 
HETATM    2  C3  UNL     1     -30.084  18.397  12.330  1.00 20.00    -0.097 C 
HETATM    3  C5  UNL     1     -31.544  18.315  12.328  1.00 20.00     0.113 C 
ENDROOT
BRANCH   1   4
HETATM    4  C2  UNL     1     -27.514  18.541  12.329  1.00 20.00    -0.013 C 
HETATM    5  C4  UNL     1     -26.316  18.607  12.327  1.00 20.00    -0.062 C 
BRANCH   5   6
HETATM    6  C8  UNL     1     -24.853  18.690  12.332  1.00 20.00     0.365 C 
BRANCH   6   7
HETATM    7  N9  UNL     1     -24.280  17.835  11.300  1.00 20.00     0.090 N 
HETATM    8  C6  UNL     1     -24.331  16.429  11.707  1.00 20.00     0.310 C 
HETATM    9  C7  UNL     1     -22.899  18.229  11.010  1.00 20.00     0.310 C 
ENDBRANCH   6   7
ENDBRANCH   5   6
ENDBRANCH   1   4
TORSDOF 3
ENDMDL
MODEL 8
REMARK VINA RESULT:      -3.0     12.698     14.629
REMARK  3 active torsions:
REMARK  status: ('A' for Active; 'I' for Inactive)
REMARK    1  A    between atoms: C1_1  and  C2_2 
REMARK    2  A    between atoms: C4_4  and  C8_8 
REMARK    3  A    between atoms: C8_8  and  N9_9 
ROOT
HETATM    1  C1  UNL     1     -39.901  12.864   6.072  1.00 20.00    -0.015 C 
HETATM    2  C3  UNL     1     -39.502  12.266   5.110  1.00 20.00    -0.097 C 
HETATM    3  C5  UNL     1     -39.017  11.539   3.937  1.00 20.00     0.113 C 
ENDROOT
BRANCH   1   4
HETATM    4  C2  UNL     1     -40.356  13.548   7.171  1.00 20.00    -0.013 C 
HETATM    5  C4  UNL     1     -40.754  14.147   8.132  1.00 20.00    -0.062 C 
BRANCH   5   6
HETATM    6  C8  UNL     1     -41.240  14.873   9.309  1.00 20.00     0.365 C 
BRANCH   6   7
HETATM    7  N9  UNL     1     -40.718  14.283  10.535  1.00 20.00     0.090 N 
HETATM    8  C6  UNL     1     -41.791  13.631  11.290  1.00 20.00     0.310 C 
HETATM    9  C7  UNL     1     -40.065  15.301  11.361  1.00 20.00     0.310 C 
ENDBRANCH   6   7
ENDBRANCH   5   6
ENDBRANCH   1   4
TORSDOF 3
ENDMDL
MODEL 9
REMARK VINA RESULT:      -3.0     12.902     14.443
REMARK  3 active torsions:
REMARK  status: ('A' for Active; 'I' for Inactive)
REMARK    1  A    between atoms: C1_1  and  C2_2 
REMARK    2  A    between atoms: C4_4  and  C8_8 
REMARK    3  A    between atoms: C8_8  and  N9_9 
ROOT
HETATM    1  C1  UNL     1     -40.670  12.399   5.737  1.00 20.00    -0.015 C 
HETATM    2  C3  UNL     1     -39.854  12.029   4.938  1.00 20.00    -0.097 C 
HETATM    3  C5  UNL     1     -38.858  11.578   3.967  1.00 20.00     0.113 C 
ENDROOT
BRANCH   1   4
HETATM    4  C2  UNL     1     -41.604  12.822   6.650  1.00 20.00    -0.013 C 
HETATM    5  C4  UNL     1     -42.419  13.190   7.450  1.00 20.00    -0.062 C 
BRANCH   5   6
HETATM    6  C8  UNL     1     -43.417  13.646   8.422  1.00 20.00     0.365 C 
BRANCH   6   7
HETATM    7  N9  UNL     1     -42.857  14.662   9.304  1.00 20.00     0.090 N 
HETATM    8  C6  UNL     1     -42.440  15.838   8.537  1.00 20.00     0.310 C 
HETATM    9  C7  UNL     1     -41.725  14.122  10.060  1.00 20.00     0.310 C 
ENDBRANCH   6   7
ENDBRANCH   5   6
ENDBRANCH   1   4
TORSDOF 3
ENDMDL
