MODEL 1
REMARK VINA RESULT:      -5.7      0.000      0.000
REMARK  0 active torsions:
REMARK  status: ('A' for Active; 'I' for Inactive)
ROOT
HETATM    1  C1  UNL     1     -34.752   5.617   6.394  1.00 20.00     0.004 A 
HETATM    2  C2  UNL     1     -34.181   6.835   6.412  1.00 20.00     0.031 A 
HETATM    3  C3  UNL     1     -34.677   4.792   5.208  1.00 20.00     0.017 A 
HETATM    4  C4  UNL     1     -32.043   7.628   2.080  1.00 20.00     0.044 A 
HETATM    5  C5  UNL     1     -32.918   8.582   5.255  1.00 20.00     0.146 A 
HETATM    6  C6  UNL     1     -34.028   5.262   4.131  1.00 20.00     0.093 A 
HETATM    7  C7  UNL     1     -33.475   7.348   5.238  1.00 20.00     0.053 A 
HETATM    8  C8  UNL     1     -32.783   6.904   2.918  1.00 20.00     0.136 A 
HETATM    9  C9  UNL     1     -32.229   8.288   3.248  1.00 20.00     0.069 A 
HETATM   10  N10 UNL     1     -32.233   9.106   4.178  1.00 20.00    -0.260 NA
HETATM   11  N11 UNL     1     -33.405   6.511   4.078  1.00 20.00    -0.333 N 
ENDROOT
TORSDOF 0
ENDMDL
MODEL 2
REMARK VINA RESULT:      -5.5      1.013      4.182
REMARK  0 active torsions:
REMARK  status: ('A' for Active; 'I' for Inactive)
ROOT
HETATM    1  C1  UNL     1     -32.057   8.316   2.893  1.00 20.00     0.004 A 
HETATM    2  C2  UNL     1     -32.450   7.046   2.696  1.00 20.00     0.031 A 
HETATM    3  C3  UNL     1     -32.382   9.000   4.125  1.00 20.00     0.017 A 
HETATM    4  C4  UNL     1     -34.870   5.522   6.670  1.00 20.00     0.044 A 
HETATM    5  C5  UNL     1     -33.621   5.057   3.511  1.00 20.00     0.146 A 
HETATM    6  C6  UNL     1     -33.079   8.345   5.066  1.00 20.00     0.093 A 
HETATM    7  C7  UNL     1     -33.212   6.331   3.721  1.00 20.00     0.053 A 
HETATM    8  C8  UNL     1     -34.240   6.452   5.954  1.00 20.00     0.136 A 
HETATM    9  C9  UNL     1     -34.517   5.035   5.456  1.00 20.00     0.069 A 
HETATM   10  N10 UNL     1     -34.331   4.338   4.449  1.00 20.00    -0.260 NA
HETATM   11  N11 UNL     1     -33.514   7.024   4.937  1.00 20.00    -0.333 N 
ENDROOT
TORSDOF 0
ENDMDL
MODEL 3
REMARK VINA RESULT:      -5.4      1.031      2.217
REMARK  0 active torsions:
REMARK  status: ('A' for Active; 'I' for Inactive)
ROOT
HETATM    1  C1  UNL     1     -34.843   4.767   5.523  1.00 20.00     0.004 A 
HETATM    2  C2  UNL     1     -34.224   4.960   4.344  1.00 20.00     0.031 A 
HETATM    3  C3  UNL     1     -34.789   5.782   6.552  1.00 20.00     0.017 A 
HETATM    4  C4  UNL     1     -32.096   9.370   4.398  1.00 20.00     0.044 A 
HETATM    5  C5  UNL     1     -32.851   6.379   2.899  1.00 20.00     0.146 A 
HETATM    6  C6  UNL     1     -34.116   6.916   6.309  1.00 20.00     0.093 A 
HETATM    7  C7  UNL     1     -33.488   6.197   4.080  1.00 20.00     0.053 A 
HETATM    8  C8  UNL     1     -32.778   8.379   4.971  1.00 20.00     0.136 A 
HETATM    9  C9  UNL     1     -32.211   8.315   3.555  1.00 20.00     0.069 A 
HETATM   10  N10 UNL     1     -32.153   7.531   2.598  1.00 20.00    -0.260 NA
HETATM   11  N11 UNL     1     -33.456   7.192   5.109  1.00 20.00    -0.333 N 
ENDROOT
TORSDOF 0
ENDMDL
MODEL 4
REMARK VINA RESULT:      -4.8      1.217      3.215
REMARK  0 active torsions:
REMARK  status: ('A' for Active; 'I' for Inactive)
ROOT
HETATM    1  C1  UNL     1     -33.387   8.880   5.913  1.00 20.00     0.004 A 
HETATM    2  C2  UNL     1     -34.037   7.717   6.101  1.00 20.00     0.031 A 
HETATM    3  C3  UNL     1     -32.537   9.064   4.758  1.00 20.00     0.017 A 
HETATM    4  C4  UNL     1     -32.986   4.717   2.377  1.00 20.00     0.044 A 
HETATM    5  C5  UNL     1     -34.541   5.445   5.345  1.00 20.00     0.146 A 
HETATM    6  C6  UNL     1     -32.411   8.059   3.879  1.00 20.00     0.093 A 
HETATM    7  C7  UNL     1     -33.899   6.620   5.142  1.00 20.00     0.053 A 
HETATM    8  C8  UNL     1     -32.846   5.857   3.053  1.00 20.00     0.136 A 
HETATM    9  C9  UNL     1     -33.713   4.690   3.519  1.00 20.00     0.069 A 
HETATM   10  N10 UNL     1     -34.451   4.385   4.466  1.00 20.00    -0.260 NA
HETATM   11  N11 UNL     1     -33.060   6.828   4.001  1.00 20.00    -0.333 N 
ENDROOT
TORSDOF 0
ENDMDL
MODEL 5
REMARK VINA RESULT:      -4.7      1.215      3.502
REMARK  0 active torsions:
REMARK  status: ('A' for Active; 'I' for Inactive)
ROOT
HETATM    1  C1  UNL     1     -32.126   7.598   2.273  1.00 20.00     0.004 A 
HETATM    2  C2  UNL     1     -32.444   8.189   3.438  1.00 20.00     0.031 A 
HETATM    3  C3  UNL     1     -32.518   6.230   2.015  1.00 20.00     0.017 A 
HETATM    4  C4  UNL     1     -34.963   5.002   6.172  1.00 20.00     0.044 A 
HETATM    5  C5  UNL     1     -33.496   8.056   5.643  1.00 20.00     0.146 A 
HETATM    6  C6  UNL     1     -33.206   5.564   2.955  1.00 20.00     0.093 A 
HETATM    7  C7  UNL     1     -33.193   7.463   4.465  1.00 20.00     0.053 A 
HETATM    8  C8  UNL     1     -34.268   5.337   5.086  1.00 20.00     0.136 A 
HETATM    9  C9  UNL     1     -34.496   6.270   6.273  1.00 20.00     0.069 A 
HETATM   10  N10 UNL     1     -34.209   7.418   6.638  1.00 20.00    -0.260 NA
HETATM   11  N11 UNL     1     -33.580   6.113   4.184  1.00 20.00    -0.333 N 
ENDROOT
TORSDOF 0
ENDMDL
MODEL 6
REMARK VINA RESULT:      -4.6      0.995      3.542
REMARK  0 active torsions:
REMARK  status: ('A' for Active; 'I' for Inactive)
ROOT
HETATM    1  C1  UNL     1     -32.194   9.174   4.015  1.00 20.00     0.004 A 
HETATM    2  C2  UNL     1     -32.851   8.805   5.129  1.00 20.00     0.031 A 
HETATM    3  C3  UNL     1     -32.059   8.255   2.906  1.00 20.00     0.017 A 
HETATM    4  C4  UNL     1     -34.487   4.228   4.536  1.00 20.00     0.044 A 
HETATM    5  C5  UNL     1     -34.087   7.097   6.371  1.00 20.00     0.146 A 
HETATM    6  C6  UNL     1     -32.603   7.033   3.008  1.00 20.00     0.093 A 
HETATM    7  C7  UNL     1     -33.442   7.471   5.241  1.00 20.00     0.053 A 
HETATM    8  C8  UNL     1     -33.805   5.301   4.137  1.00 20.00     0.136 A 
HETATM    9  C9  UNL     1     -34.497   5.187   5.493  1.00 20.00     0.069 A 
HETATM   10  N10 UNL     1     -34.669   5.855   6.521  1.00 20.00    -0.260 NA
HETATM   11  N11 UNL     1     -33.305   6.581   4.128  1.00 20.00    -0.333 N 
ENDROOT
TORSDOF 0
ENDMDL
MODEL 7
REMARK VINA RESULT:      -4.1      1.295      2.492
REMARK  0 active torsions:
REMARK  status: ('A' for Active; 'I' for Inactive)
ROOT
HETATM    1  C1  UNL     1     -33.908   4.225   3.456  1.00 20.00     0.004 A 
HETATM    2  C2  UNL     1     -34.314   4.836   4.583  1.00 20.00     0.031 A 
HETATM    3  C3  UNL     1     -33.025   4.904   2.533  1.00 20.00     0.017 A 
HETATM    4  C4  UNL     1     -32.286   9.289   4.767  1.00 20.00     0.044 A 
HETATM    5  C5  UNL     1     -34.298   6.814   6.025  1.00 20.00     0.146 A 
HETATM    6  C6  UNL     1     -32.618   6.150   2.822  1.00 20.00     0.093 A 
HETATM    7  C7  UNL     1     -33.872   6.196   4.898  1.00 20.00     0.053 A 
HETATM    8  C8  UNL     1     -32.532   8.126   4.166  1.00 20.00     0.136 A 
HETATM    9  C9  UNL     1     -33.135   8.536   5.508  1.00 20.00     0.069 A 
HETATM   10  N10 UNL     1     -33.902   8.089   6.371  1.00 20.00    -0.260 NA
HETATM   11  N11 UNL     1     -32.991   6.845   3.975  1.00 20.00    -0.333 N 
ENDROOT
TORSDOF 0
ENDMDL
MODEL 8
REMARK VINA RESULT:      -4.1     12.440     13.743
REMARK  0 active torsions:
REMARK  status: ('A' for Active; 'I' for Inactive)
ROOT
HETATM    1  C1  UNL     1     -33.343  16.860  -2.542  1.00 20.00     0.004 A 
HETATM    2  C2  UNL     1     -33.259  15.892  -3.471  1.00 20.00     0.031 A 
HETATM    3  C3  UNL     1     -34.287  17.945  -2.699  1.00 20.00     0.017 A 
HETATM    4  C4  UNL     1     -36.538  16.811  -6.990  1.00 20.00     0.044 A 
HETATM    5  C5  UNL     1     -34.020  14.948  -5.597  1.00 20.00     0.146 A 
HETATM    6  C6  UNL     1     -35.077  17.966  -3.783  1.00 20.00     0.093 A 
HETATM    7  C7  UNL     1     -34.120  15.915  -4.655  1.00 20.00     0.053 A 
HETATM    8  C8  UNL     1     -35.893  17.119  -5.865  1.00 20.00     0.136 A 
HETATM    9  C9  UNL     1     -35.586  15.888  -6.715  1.00 20.00     0.069 A 
HETATM   10  N10 UNL     1     -34.814  14.919  -6.724  1.00 20.00    -0.260 NA
HETATM   11  N11 UNL     1     -35.054  16.992  -4.785  1.00 20.00    -0.333 N 
ENDROOT
TORSDOF 0
ENDMDL
MODEL 9
REMARK VINA RESULT:      -4.0     12.070     13.353
REMARK  0 active torsions:
REMARK  status: ('A' for Active; 'I' for Inactive)
ROOT
HETATM    1  C1  UNL     1     -33.696  17.786  -1.685  1.00 20.00     0.004 A 
HETATM    2  C2  UNL     1     -33.293  16.638  -2.256  1.00 20.00     0.031 A 
HETATM    3  C3  UNL     1     -34.556  18.700  -2.405  1.00 20.00     0.017 A 
HETATM    4  C4  UNL     1     -35.243  16.351  -6.738  1.00 20.00     0.044 A 
HETATM    5  C5  UNL     1     -33.291  15.141  -4.192  1.00 20.00     0.146 A 
HETATM    6  C6  UNL     1     -34.944  18.380  -3.649  1.00 20.00     0.093 A 
HETATM    7  C7  UNL     1     -33.714  16.290  -3.614  1.00 20.00     0.053 A 
HETATM    8  C8  UNL     1     -35.011  16.982  -5.588  1.00 20.00     0.136 A 
HETATM    9  C9  UNL     1     -34.417  15.622  -5.949  1.00 20.00     0.069 A 
HETATM   10  N10 UNL     1     -33.668  14.763  -5.464  1.00 20.00    -0.260 NA
HETATM   11  N11 UNL     1     -34.573  17.203  -4.305  1.00 20.00    -0.333 N 
ENDROOT
TORSDOF 0
ENDMDL
