MODEL 1
REMARK VINA RESULT:      -4.1      0.000      0.000
REMARK  2 active torsions:
REMARK  status: ('A' for Active; 'I' for Inactive)
REMARK    1  A    between atoms: C1_1  and  C2_2 
REMARK    2  A    between atoms: N7_7  and  O8_8 
ROOT
HETATM    1  C2  UNL     1     -42.673   5.853  -0.724  1.00 20.00     0.115 A 
HETATM    2  C3  UNL     1     -42.237   6.029   0.731  1.00 20.00     0.033 A 
HETATM    3  C4  UNL     1     -41.269   6.223  -0.389  1.00 20.00     0.260 A 
HETATM    4  C5  UNL     1     -42.061   4.819   1.611  1.00 20.00     0.022 C 
HETATM    5  C6  UNL     1     -42.733   7.250   1.458  1.00 20.00     0.022 C 
HETATM    6  F9  UNL     1     -40.792   7.477  -0.703  1.00 20.00    -0.205 F 
HETATM    7  F10 UNL     1     -40.236   5.336  -0.598  1.00 20.00    -0.205 F 
ENDROOT
BRANCH   1   8
HETATM    8  C1  UNL     1     -42.967   4.520  -1.264  1.00 20.00     0.130 C 
HETATM    9  N7  UNL     1     -42.625   4.205  -2.468  1.00 20.00    -0.152 NA
BRANCH   9  10
HETATM   10  O8  UNL     1     -43.024   2.889  -2.712  1.00 20.00    -0.267 OA
HETATM   11  H19 UNL     1     -43.042   2.521  -1.813  1.00 20.00     0.247 HD
ENDBRANCH   9  10
ENDBRANCH   1   8
TORSDOF 2
ENDMDL
MODEL 2
REMARK VINA RESULT:      -4.1     13.734     14.554
REMARK  2 active torsions:
REMARK  status: ('A' for Active; 'I' for Inactive)
REMARK    1  A    between atoms: C1_1  and  C2_2 
REMARK    2  A    between atoms: N7_7  and  O8_8 
ROOT
HETATM    1  C2  UNL     1     -33.017  16.703  -3.255  1.00 20.00     0.115 A 
HETATM    2  C3  UNL     1     -33.640  18.090  -3.100  1.00 20.00     0.033 A 
HETATM    3  C4  UNL     1     -33.105  17.352  -1.917  1.00 20.00     0.260 A 
HETATM    4  C5  UNL     1     -35.133  18.256  -3.208  1.00 20.00     0.022 C 
HETATM    5  C6  UNL     1     -32.852  19.263  -3.618  1.00 20.00     0.022 C 
HETATM    6  F9  UNL     1     -31.959  17.775  -1.278  1.00 20.00    -0.205 F 
HETATM    7  F10 UNL     1     -33.948  16.858  -0.946  1.00 20.00    -0.205 F 
ENDROOT
BRANCH   1   8
HETATM    8  C1  UNL     1     -33.853  15.534  -3.554  1.00 20.00     0.130 C 
HETATM    9  N7  UNL     1     -33.417  14.588  -4.318  1.00 20.00    -0.152 NA
BRANCH   9  10
HETATM   10  O8  UNL     1     -34.412  13.613  -4.427  1.00 20.00    -0.267 OA
HETATM   11  H19 UNL     1     -34.552  13.373  -3.495  1.00 20.00     0.247 HD
ENDBRANCH   9  10
ENDBRANCH   1   8
TORSDOF 2
ENDMDL
MODEL 3
REMARK VINA RESULT:      -4.1     14.311     15.049
REMARK  2 active torsions:
REMARK  status: ('A' for Active; 'I' for Inactive)
REMARK    1  A    between atoms: C1_1  and  C2_2 
REMARK    2  A    between atoms: N7_7  and  O8_8 
ROOT
HETATM    1  C2  UNL     1     -33.106  16.819  -2.168  1.00 20.00     0.115 A 
HETATM    2  C3  UNL     1     -32.711  18.270  -1.892  1.00 20.00     0.033 A 
HETATM    3  C4  UNL     1     -34.046  17.745  -1.477  1.00 20.00     0.260 A 
HETATM    4  C5  UNL     1     -32.667  19.263  -3.023  1.00 20.00     0.022 C 
HETATM    5  C6  UNL     1     -31.683  18.514  -0.820  1.00 20.00     0.022 C 
HETATM    6  F9  UNL     1     -34.350  17.554  -0.147  1.00 20.00    -0.205 F 
HETATM    7  F10 UNL     1     -35.201  18.170  -2.096  1.00 20.00    -0.205 F 
ENDROOT
BRANCH   1   8
HETATM    8  C1  UNL     1     -33.399  16.369  -3.535  1.00 20.00     0.130 C 
HETATM    9  N7  UNL     1     -32.847  15.303  -4.011  1.00 20.00    -0.152 NA
BRANCH   9  10
HETATM   10  O8  UNL     1     -33.303  15.115  -5.318  1.00 20.00    -0.267 OA
HETATM   11  H19 UNL     1     -33.175  16.000  -5.698  1.00 20.00     0.247 HD
ENDBRANCH   9  10
ENDBRANCH   1   8
TORSDOF 2
ENDMDL
MODEL 4
REMARK VINA RESULT:      -3.9     12.656     13.481
REMARK  2 active torsions:
REMARK  status: ('A' for Active; 'I' for Inactive)
REMARK    1  A    between atoms: C1_1  and  C2_2 
REMARK    2  A    between atoms: N7_7  and  O8_8 
ROOT
HETATM    1  C2  UNL     1     -35.502  15.281  -6.359  1.00 20.00     0.115 A 
HETATM    2  C3  UNL     1     -34.658  16.511  -6.025  1.00 20.00     0.033 A 
HETATM    3  C4  UNL     1     -34.016  15.195  -6.319  1.00 20.00     0.260 A 
HETATM    4  C5  UNL     1     -34.603  17.019  -4.608  1.00 20.00     0.022 C 
HETATM    5  C6  UNL     1     -34.568  17.591  -7.068  1.00 20.00     0.022 C 
HETATM    6  F9  UNL     1     -33.304  15.000  -7.483  1.00 20.00    -0.205 F 
HETATM    7  F10 UNL     1     -33.376  14.480  -5.331  1.00 20.00    -0.205 F 
ENDROOT
BRANCH   1   8
HETATM    8  C1  UNL     1     -36.299  14.613  -5.322  1.00 20.00     0.130 C 
HETATM    9  N7  UNL     1     -37.548  14.901  -5.161  1.00 20.00    -0.152 NA
BRANCH   9  10
HETATM   10  O8  UNL     1     -38.050  14.122  -4.116  1.00 20.00    -0.267 OA
HETATM   11  H19 UNL     1     -38.717  14.717  -3.733  1.00 20.00     0.247 HD
ENDBRANCH   9  10
ENDBRANCH   1   8
TORSDOF 2
ENDMDL
MODEL 5
REMARK VINA RESULT:      -3.9     10.152     10.730
REMARK  2 active torsions:
REMARK  status: ('A' for Active; 'I' for Inactive)
REMARK    1  A    between atoms: C1_1  and  C2_2 
REMARK    2  A    between atoms: N7_7  and  O8_8 
ROOT
HETATM    1  C2  UNL     1     -34.351   7.032   5.606  1.00 20.00     0.115 A 
HETATM    2  C3  UNL     1     -34.692   5.861   4.684  1.00 20.00     0.033 A 
HETATM    3  C4  UNL     1     -34.500   5.653   6.151  1.00 20.00     0.260 A 
HETATM    4  C5  UNL     1     -33.643   5.311   3.754  1.00 20.00     0.022 C 
HETATM    5  C6  UNL     1     -36.093   5.796   4.138  1.00 20.00     0.022 C 
HETATM    6  F9  UNL     1     -35.567   5.345   6.967  1.00 20.00    -0.205 F 
HETATM    7  F10 UNL     1     -33.410   4.963   6.634  1.00 20.00    -0.205 F 
ENDROOT
BRANCH   1   8
HETATM    8  C1  UNL     1     -33.025   7.659   5.563  1.00 20.00     0.130 C 
HETATM    9  N7  UNL     1     -32.853   8.800   4.984  1.00 20.00    -0.152 NA
BRANCH   9  10
HETATM   10  O8  UNL     1     -31.506   9.154   5.095  1.00 20.00    -0.267 OA
HETATM   11  H19 UNL     1     -31.486   9.999   4.616  1.00 20.00     0.247 HD
ENDBRANCH   9  10
ENDBRANCH   1   8
TORSDOF 2
ENDMDL
MODEL 6
REMARK VINA RESULT:      -3.5     19.282     20.123
REMARK  2 active torsions:
REMARK  status: ('A' for Active; 'I' for Inactive)
REMARK    1  A    between atoms: C1_1  and  C2_2 
REMARK    2  A    between atoms: N7_7  and  O8_8 
ROOT
HETATM    1  C2  UNL     1     -27.541  -1.541  12.063  1.00 20.00     0.115 A 
HETATM    2  C3  UNL     1     -26.211  -1.775  11.347  1.00 20.00     0.033 A 
HETATM    3  C4  UNL     1     -26.979  -0.510  11.145  1.00 20.00     0.260 A 
HETATM    4  C5  UNL     1     -26.140  -2.745  10.197  1.00 20.00     0.022 C 
HETATM    5  C6  UNL     1     -24.958  -1.716  12.180  1.00 20.00     0.022 C 
HETATM    6  F9  UNL     1     -26.518   0.686  11.650  1.00 20.00    -0.205 F 
HETATM    7  F10 UNL     1     -27.585  -0.232   9.940  1.00 20.00    -0.205 F 
ENDROOT
BRANCH   1   8
HETATM    8  C1  UNL     1     -28.744  -2.286  11.672  1.00 20.00     0.130 C 
HETATM    9  N7  UNL     1     -29.908  -1.729  11.715  1.00 20.00    -0.152 NA
BRANCH   9  10
HETATM   10  O8  UNL     1     -30.860  -2.661  11.293  1.00 20.00    -0.267 OA
HETATM   11  H19 UNL     1     -31.479  -2.661  12.042  1.00 20.00     0.247 HD
ENDBRANCH   9  10
ENDBRANCH   1   8
TORSDOF 2
ENDMDL
MODEL 7
REMARK VINA RESULT:      -3.4     10.281     10.782
REMARK  2 active torsions:
REMARK  status: ('A' for Active; 'I' for Inactive)
REMARK    1  A    between atoms: C1_1  and  C2_2 
REMARK    2  A    between atoms: N7_7  and  O8_8 
ROOT
HETATM    1  C2  UNL     1     -42.609  14.068   5.578  1.00 20.00     0.115 A 
HETATM    2  C3  UNL     1     -42.028  12.969   6.467  1.00 20.00     0.033 A 
HETATM    3  C4  UNL     1     -41.934  14.406   6.862  1.00 20.00     0.260 A 
HETATM    4  C5  UNL     1     -40.759  12.268   6.059  1.00 20.00     0.022 C 
HETATM    5  C6  UNL     1     -43.002  12.093   7.209  1.00 20.00     0.022 C 
HETATM    6  F9  UNL     1     -42.668  14.899   7.919  1.00 20.00    -0.205 F 
HETATM    7  F10 UNL     1     -40.723  15.063   6.872  1.00 20.00    -0.205 F 
ENDROOT
BRANCH   1   8
HETATM    8  C1  UNL     1     -41.969  14.418   4.304  1.00 20.00     0.130 C 
HETATM    9  N7  UNL     1     -42.663  14.508   3.219  1.00 20.00    -0.152 NA
BRANCH   9  10
HETATM   10  O8  UNL     1     -41.805  14.853   2.172  1.00 20.00    -0.267 OA
HETATM   11  H19 UNL     1     -42.436  15.048   1.459  1.00 20.00     0.247 HD
ENDBRANCH   9  10
ENDBRANCH   1   8
TORSDOF 2
ENDMDL
MODEL 8
REMARK VINA RESULT:      -3.4      9.885     10.591
REMARK  2 active torsions:
REMARK  status: ('A' for Active; 'I' for Inactive)
REMARK    1  A    between atoms: C1_1  and  C2_2 
REMARK    2  A    between atoms: N7_7  and  O8_8 
ROOT
HETATM    1  C2  UNL     1     -41.141  12.650   6.380  1.00 20.00     0.115 A 
HETATM    2  C3  UNL     1     -41.504  13.884   7.206  1.00 20.00     0.033 A 
HETATM    3  C4  UNL     1     -42.070  13.682   5.839  1.00 20.00     0.260 A 
HETATM    4  C5  UNL     1     -40.492  14.984   7.392  1.00 20.00     0.022 C 
HETATM    5  C6  UNL     1     -42.416  13.682   8.386  1.00 20.00     0.022 C 
HETATM    6  F9  UNL     1     -43.404  13.385   5.662  1.00 20.00    -0.205 F 
HETATM    7  F10 UNL     1     -41.694  14.488   4.788  1.00 20.00    -0.205 F 
ENDROOT
BRANCH   1   8
HETATM    8  C1  UNL     1     -39.800  12.502   5.802  1.00 20.00     0.130 C 
HETATM    9  N7  UNL     1     -39.637  11.960   4.641  1.00 20.00    -0.152 NA
BRANCH   9  10
HETATM   10  O8  UNL     1     -38.272  11.950   4.345  1.00 20.00    -0.267 OA
HETATM   11  H19 UNL     1     -38.277  11.684   3.410  1.00 20.00     0.247 HD
ENDBRANCH   9  10
ENDBRANCH   1   8
TORSDOF 2
ENDMDL
MODEL 9
REMARK VINA RESULT:      -3.4      9.515     10.064
REMARK  2 active torsions:
REMARK  status: ('A' for Active; 'I' for Inactive)
REMARK    1  A    between atoms: C1_1  and  C2_2 
REMARK    2  A    between atoms: N7_7  and  O8_8 
ROOT
HETATM    1  C2  UNL     1     -33.425   5.983   4.232  1.00 20.00     0.115 A 
HETATM    2  C3  UNL     1     -33.967   6.799   5.406  1.00 20.00     0.033 A 
HETATM    3  C4  UNL     1     -34.837   5.827   4.680  1.00 20.00     0.260 A 
HETATM    4  C5  UNL     1     -34.253   8.267   5.229  1.00 20.00     0.022 C 
HETATM    5  C6  UNL     1     -33.490   6.428   6.784  1.00 20.00     0.022 C 
HETATM    6  F9  UNL     1     -35.245   4.656   5.280  1.00 20.00    -0.205 F 
HETATM    7  F10 UNL     1     -35.880   6.258   3.889  1.00 20.00    -0.205 F 
ENDROOT
BRANCH   1   8
HETATM    8  C1  UNL     1     -33.135   6.624   2.943  1.00 20.00     0.130 C 
HETATM    9  N7  UNL     1     -32.072   7.340   2.787  1.00 20.00    -0.152 NA
BRANCH   9  10
HETATM   10  O8  UNL     1     -32.052   7.820   1.475  1.00 20.00    -0.267 OA
HETATM   11  H19 UNL     1     -32.274   7.020   0.970  1.00 20.00     0.247 HD
ENDBRANCH   9  10
ENDBRANCH   1   8
TORSDOF 2
ENDMDL
