MODEL 1
REMARK VINA RESULT:      -5.5      0.000      0.000
REMARK  2 active torsions:
REMARK  status: ('A' for Active; 'I' for Inactive)
REMARK    1  A    between atoms: C4_4  and  O11_11 
REMARK    2  A    between atoms: C10_10  and  O11_11 
ROOT
HETATM    1  C1  UNL     1     -32.569   9.139   0.330  1.00 20.00     0.014 C 
HETATM    2  C2  UNL     1     -32.681   9.121   1.526  1.00 20.00    -0.091 C 
HETATM    3  C10 UNL     1     -32.820   9.102   2.982  1.00 20.00     0.268 C 
ENDROOT
BRANCH   3   4
HETATM    4  O11 UNL     1     -32.244   7.935   3.516  1.00 20.00    -0.344 OA
BRANCH   4   5
HETATM    5  C4  UNL     1     -33.113   7.243   4.336  1.00 20.00     0.047 C 
HETATM    6  C3  UNL     1     -33.217   7.505   5.649  1.00 20.00     0.006 C 
HETATM    7  C5  UNL     1     -34.160   6.785   6.565  1.00 20.00     0.029 C 
HETATM    8  C6  UNL     1     -34.786   5.537   5.940  1.00 20.00     0.004 C 
HETATM    9  C7  UNL     1     -35.166   5.776   4.480  1.00 20.00     0.011 C 
HETATM   10  C8  UNL     1     -33.955   6.207   3.630  1.00 20.00     0.038 C 
HETATM   11  C9  UNL     1     -33.095   5.001   3.238  1.00 20.00     0.017 C 
ENDBRANCH   4   5
ENDBRANCH   3   4
TORSDOF 2
ENDMDL
MODEL 2
REMARK VINA RESULT:      -5.1      0.884      2.172
REMARK  2 active torsions:
REMARK  status: ('A' for Active; 'I' for Inactive)
REMARK    1  A    between atoms: C4_4  and  O11_11 
REMARK    2  A    between atoms: C10_10  and  O11_11 
ROOT
HETATM    1  C1  UNL     1     -32.758   9.501   0.465  1.00 20.00     0.014 C 
HETATM    2  C2  UNL     1     -32.463   8.563   1.153  1.00 20.00    -0.091 C 
HETATM    3  C10 UNL     1     -32.103   7.417   1.989  1.00 20.00     0.268 C 
ENDROOT
BRANCH   3   4
HETATM    4  O11 UNL     1     -32.096   7.783   3.347  1.00 20.00    -0.344 OA
BRANCH   4   5
HETATM    5  C4  UNL     1     -32.966   7.025   4.105  1.00 20.00     0.047 C 
HETATM    6  C3  UNL     1     -33.507   5.885   3.643  1.00 20.00     0.006 C 
HETATM    7  C5  UNL     1     -34.443   5.029   4.443  1.00 20.00     0.029 C 
HETATM    8  C6  UNL     1     -34.951   5.704   5.718  1.00 20.00     0.004 C 
HETATM    9  C7  UNL     1     -33.841   6.487   6.415  1.00 20.00     0.011 C 
HETATM   10  C8  UNL     1     -33.221   7.557   5.495  1.00 20.00     0.038 C 
HETATM   11  C9  UNL     1     -34.101   8.810   5.430  1.00 20.00     0.017 C 
ENDBRANCH   4   5
ENDBRANCH   3   4
TORSDOF 2
ENDMDL
MODEL 3
REMARK VINA RESULT:      -4.1      9.953     10.602
REMARK  2 active torsions:
REMARK  status: ('A' for Active; 'I' for Inactive)
REMARK    1  A    between atoms: C4_4  and  O11_11 
REMARK    2  A    between atoms: C10_10  and  O11_11 
ROOT
HETATM    1  C1  UNL     1     -38.943  11.715   3.665  1.00 20.00     0.014 C 
HETATM    2  C2  UNL     1     -39.042  11.893   4.848  1.00 20.00    -0.091 C 
HETATM    3  C10 UNL     1     -39.159  12.110   6.291  1.00 20.00     0.268 C 
ENDROOT
BRANCH   3   4
HETATM    4  O11 UNL     1     -40.511  12.213   6.664  1.00 20.00    -0.344 OA
BRANCH   4   5
HETATM    5  C4  UNL     1     -40.947  13.522   6.719  1.00 20.00     0.047 C 
HETATM    6  C3  UNL     1     -40.298  14.461   7.427  1.00 20.00     0.006 C 
HETATM    7  C5  UNL     1     -40.733  15.894   7.496  1.00 20.00     0.029 C 
HETATM    8  C6  UNL     1     -42.132  16.137   6.927  1.00 20.00     0.004 C 
HETATM    9  C7  UNL     1     -42.364  15.325   5.655  1.00 20.00     0.011 C 
HETATM   10  C8  UNL     1     -42.176  13.813   5.891  1.00 20.00     0.038 C 
HETATM   11  C9  UNL     1     -43.416  13.195   6.546  1.00 20.00     0.017 C 
ENDBRANCH   4   5
ENDBRANCH   3   4
TORSDOF 2
ENDMDL
MODEL 4
REMARK VINA RESULT:      -4.1     11.531     12.776
REMARK  2 active torsions:
REMARK  status: ('A' for Active; 'I' for Inactive)
REMARK    1  A    between atoms: C4_4  and  O11_11 
REMARK    2  A    between atoms: C10_10  and  O11_11 
ROOT
HETATM    1  C1  UNL     1     -31.368  18.622  -0.445  1.00 20.00     0.014 C 
HETATM    2  C2  UNL     1     -32.366  18.119  -0.884  1.00 20.00    -0.091 C 
HETATM    3  C10 UNL     1     -33.583  17.506  -1.417  1.00 20.00     0.268 C 
ENDROOT
BRANCH   3   4
HETATM    4  O11 UNL     1     -33.855  17.993  -2.708  1.00 20.00    -0.344 OA
BRANCH   4   5
HETATM    5  C4  UNL     1     -34.005  16.980  -3.635  1.00 20.00     0.047 C 
HETATM    6  C3  UNL     1     -33.371  15.802  -3.514  1.00 20.00     0.006 C 
HETATM    7  C5  UNL     1     -33.524  14.676  -4.492  1.00 20.00     0.029 C 
HETATM    8  C6  UNL     1     -34.236  15.080  -5.784  1.00 20.00     0.004 C 
HETATM    9  C7  UNL     1     -35.408  16.018  -5.505  1.00 20.00     0.011 C 
HETATM   10  C8  UNL     1     -34.965  17.291  -4.759  1.00 20.00     0.038 C 
HETATM   11  C9  UNL     1     -34.344  18.310  -5.721  1.00 20.00     0.017 C 
ENDBRANCH   4   5
ENDBRANCH   3   4
TORSDOF 2
ENDMDL
MODEL 5
REMARK VINA RESULT:      -4.0      1.137      4.402
REMARK  2 active torsions:
REMARK  status: ('A' for Active; 'I' for Inactive)
REMARK    1  A    between atoms: C4_4  and  O11_11 
REMARK    2  A    between atoms: C10_10  and  O11_11 
ROOT
HETATM    1  C1  UNL     1     -34.500   5.663   6.335  1.00 20.00     0.014 C 
HETATM    2  C2  UNL     1     -34.129   6.741   5.960  1.00 20.00    -0.091 C 
HETATM    3  C10 UNL     1     -33.677   8.056   5.504  1.00 20.00     0.268 C 
ENDROOT
BRANCH   3   4
HETATM    4  O11 UNL     1     -32.427   7.954   4.869  1.00 20.00    -0.344 OA
BRANCH   4   5
HETATM    5  C4  UNL     1     -32.485   8.286   3.529  1.00 20.00     0.047 C 
HETATM    6  C3  UNL     1     -32.922   9.485   3.110  1.00 20.00     0.006 C 
HETATM    7  C5  UNL     1     -32.984   9.885   1.666  1.00 20.00     0.029 C 
HETATM    8  C6  UNL     1     -32.778   8.718   0.699  1.00 20.00     0.004 C 
HETATM    9  C7  UNL     1     -31.680   7.776   1.188  1.00 20.00     0.011 C 
HETATM   10  C8  UNL     1     -31.982   7.215   2.591  1.00 20.00     0.038 C 
HETATM   11  C9  UNL     1     -32.984   6.057   2.522  1.00 20.00     0.017 C 
ENDBRANCH   4   5
ENDBRANCH   3   4
TORSDOF 2
ENDMDL
MODEL 6
REMARK VINA RESULT:      -3.9     10.913     12.680
REMARK  2 active torsions:
REMARK  status: ('A' for Active; 'I' for Inactive)
REMARK    1  A    between atoms: C4_4  and  O11_11 
REMARK    2  A    between atoms: C10_10  and  O11_11 
ROOT
HETATM    1  C1  UNL     1     -31.634  18.580  -0.728  1.00 20.00     0.014 C 
HETATM    2  C2  UNL     1     -32.541  17.988  -1.246  1.00 20.00    -0.091 C 
HETATM    3  C10 UNL     1     -33.649  17.270  -1.878  1.00 20.00     0.268 C 
ENDROOT
BRANCH   3   4
HETATM    4  O11 UNL     1     -33.160  16.257  -2.723  1.00 20.00    -0.344 OA
BRANCH   4   5
HETATM    5  C4  UNL     1     -33.701  16.320  -3.992  1.00 20.00     0.047 C 
HETATM    6  C3  UNL     1     -34.161  17.468  -4.516  1.00 20.00     0.006 C 
HETATM    7  C5  UNL     1     -34.739  17.576  -5.895  1.00 20.00     0.029 C 
HETATM    8  C6  UNL     1     -35.022  16.222  -6.547  1.00 20.00     0.004 C 
HETATM    9  C7  UNL     1     -33.905  15.220  -6.259  1.00 20.00     0.011 C 
HETATM   10  C8  UNL     1     -33.691  15.012  -4.747  1.00 20.00     0.038 C 
HETATM   11  C9  UNL     1     -34.737  14.055  -4.165  1.00 20.00     0.017 C 
ENDBRANCH   4   5
ENDBRANCH   3   4
TORSDOF 2
ENDMDL
MODEL 7
REMARK VINA RESULT:      -3.9     13.020     14.249
REMARK  2 active torsions:
REMARK  status: ('A' for Active; 'I' for Inactive)
REMARK    1  A    between atoms: C4_4  and  O11_11 
REMARK    2  A    between atoms: C10_10  and  O11_11 
ROOT
HETATM    1  C1  UNL     1     -23.162  -3.219   7.824  1.00 20.00     0.014 C 
HETATM    2  C2  UNL     1     -23.230  -3.022   9.006  1.00 20.00    -0.091 C 
HETATM    3  C10 UNL     1     -23.310  -2.780  10.447  1.00 20.00     0.268 C 
ENDROOT
BRANCH   3   4
HETATM    4  O11 UNL     1     -24.488  -3.337  10.974  1.00 20.00    -0.344 OA
BRANCH   4   5
HETATM    5  C4  UNL     1     -25.513  -2.416  11.072  1.00 20.00     0.047 C 
HETATM    6  C3  UNL     1     -25.408  -1.310  11.827  1.00 20.00     0.006 C 
HETATM    7  C5  UNL     1     -26.492  -0.281  11.943  1.00 20.00     0.029 C 
HETATM    8  C6  UNL     1     -27.831  -0.735  11.360  1.00 20.00     0.004 C 
HETATM    9  C7  UNL     1     -27.639  -1.502  10.054  1.00 20.00     0.011 C 
HETATM   10  C8  UNL     1     -26.729  -2.733  10.235  1.00 20.00     0.038 C 
HETATM   11  C9  UNL     1     -27.500  -3.909  10.844  1.00 20.00     0.017 C 
ENDBRANCH   4   5
ENDBRANCH   3   4
TORSDOF 2
ENDMDL
MODEL 8
REMARK VINA RESULT:      -3.8      9.823     10.668
REMARK  2 active torsions:
REMARK  status: ('A' for Active; 'I' for Inactive)
REMARK    1  A    between atoms: C4_4  and  O11_11 
REMARK    2  A    between atoms: C10_10  and  O11_11 
ROOT
HETATM    1  C1  UNL     1     -38.886  11.589   3.610  1.00 20.00     0.014 C 
HETATM    2  C2  UNL     1     -39.187  11.848   4.743  1.00 20.00    -0.091 C 
HETATM    3  C10 UNL     1     -39.551  12.161   6.125  1.00 20.00     0.268 C 
ENDROOT
BRANCH   3   4
HETATM    4  O11 UNL     1     -40.005  13.489   6.225  1.00 20.00    -0.344 OA
BRANCH   4   5
HETATM    5  C4  UNL     1     -40.947  13.653   7.221  1.00 20.00     0.047 C 
HETATM    6  C3  UNL     1     -42.150  13.057   7.171  1.00 20.00     0.006 C 
HETATM    7  C5  UNL     1     -43.190  13.200   8.241  1.00 20.00     0.029 C 
HETATM    8  C6  UNL     1     -42.879  14.304   9.253  1.00 20.00     0.004 C 
HETATM    9  C7  UNL     1     -41.396  14.325   9.616  1.00 20.00     0.011 C 
HETATM   10  C8  UNL     1     -40.499  14.515   8.378  1.00 20.00     0.038 C 
HETATM   11  C9  UNL     1     -40.444  15.986   7.952  1.00 20.00     0.017 C 
ENDBRANCH   4   5
ENDBRANCH   3   4
TORSDOF 2
ENDMDL
MODEL 9
REMARK VINA RESULT:      -3.8     11.329     12.531
REMARK  2 active torsions:
REMARK  status: ('A' for Active; 'I' for Inactive)
REMARK    1  A    between atoms: C4_4  and  O11_11 
REMARK    2  A    between atoms: C10_10  and  O11_11 
ROOT
HETATM    1  C1  UNL     1     -35.988  14.001  -4.876  1.00 20.00     0.014 C 
HETATM    2  C2  UNL     1     -34.866  14.315  -4.589  1.00 20.00    -0.091 C 
HETATM    3  C10 UNL     1     -33.497  14.694  -4.238  1.00 20.00     0.268 C 
ENDROOT
BRANCH   3   4
HETATM    4  O11 UNL     1     -33.260  16.041  -4.569  1.00 20.00    -0.344 OA
BRANCH   4   5
HETATM    5  C4  UNL     1     -33.622  16.907  -3.556  1.00 20.00     0.047 C 
HETATM    6  C3  UNL     1     -33.363  16.642  -2.264  1.00 20.00     0.006 C 
HETATM    7  C5  UNL     1     -33.727  17.566  -1.141  1.00 20.00     0.029 C 
HETATM    8  C6  UNL     1     -34.668  18.697  -1.559  1.00 20.00     0.004 C 
HETATM    9  C7  UNL     1     -34.285  19.263  -2.925  1.00 20.00     0.011 C 
HETATM   10  C8  UNL     1     -34.287  18.180  -4.021  1.00 20.00     0.038 C 
HETATM   11  C9  UNL     1     -35.710  17.887  -4.510  1.00 20.00     0.017 C 
ENDBRANCH   4   5
ENDBRANCH   3   4
TORSDOF 2
ENDMDL
