MODEL 1
REMARK VINA RESULT:      -4.0      0.000      0.000
REMARK  1 active torsions:
REMARK  status: ('A' for Active; 'I' for Inactive)
REMARK    1  A    between atoms: C1_1  and  C2_2 
ROOT
HETATM    1  C2  UNL     1     -32.947   6.728   4.367  1.00 20.00     0.084 A 
HETATM    2  C3  UNL     1     -33.781   7.938   4.713  1.00 20.00     0.018 A 
HETATM    3  C4  UNL     1     -34.292   6.547   5.048  1.00 20.00     0.048 A 
HETATM    4  C6  UNL     1     -33.320   8.895   5.757  1.00 20.00     0.012 C 
HETATM    5  C7  UNL     1     -34.320   6.056   6.466  1.00 20.00     0.034 C 
HETATM    6 CL9  UNL     1     -35.676   5.983   4.075  1.00 20.00    -0.118 Cl
ENDROOT
BRANCH   1   7
HETATM    7  C1  UNL     1     -32.755   6.370   2.955  1.00 20.00     0.129 C 
HETATM    8  C5  UNL     1     -32.316   7.474   2.031  1.00 20.00     0.091 C 
HETATM    9  O8  UNL     1     -32.943   5.225   2.549  1.00 20.00    -0.298 OA
ENDBRANCH   1   7
TORSDOF 1
ENDMDL
MODEL 2
REMARK VINA RESULT:      -4.0      1.804      3.197
REMARK  1 active torsions:
REMARK  status: ('A' for Active; 'I' for Inactive)
REMARK    1  A    between atoms: C1_1  and  C2_2 
ROOT
HETATM    1  C2  UNL     1     -33.984   7.659   4.474  1.00 20.00     0.084 A 
HETATM    2  C3  UNL     1     -32.532   7.874   4.829  1.00 20.00     0.018 A 
HETATM    3  C4  UNL     1     -32.918   7.524   3.402  1.00 20.00     0.048 A 
HETATM    4  C6  UNL     1     -32.047   9.228   5.217  1.00 20.00     0.012 C 
HETATM    5  C7  UNL     1     -32.860   8.553   2.312  1.00 20.00     0.034 C 
HETATM    6 CL9  UNL     1     -32.449   5.890   2.861  1.00 20.00    -0.118 Cl
ENDROOT
BRANCH   1   7
HETATM    7  C1  UNL     1     -34.683   6.480   5.004  1.00 20.00     0.129 C 
HETATM    8  C5  UNL     1     -34.311   6.041   6.395  1.00 20.00     0.091 C 
HETATM    9  O8  UNL     1     -35.532   5.883   4.345  1.00 20.00    -0.298 OA
ENDBRANCH   1   7
TORSDOF 1
ENDMDL
MODEL 3
REMARK VINA RESULT:      -3.8      9.420     10.216
REMARK  1 active torsions:
REMARK  status: ('A' for Active; 'I' for Inactive)
REMARK    1  A    between atoms: C1_1  and  C2_2 
ROOT
HETATM    1  C2  UNL     1     -41.103  12.586   5.814  1.00 20.00     0.084 A 
HETATM    2  C3  UNL     1     -41.945  12.683   7.063  1.00 20.00     0.018 A 
HETATM    3  C4  UNL     1     -41.518  13.949   6.340  1.00 20.00     0.048 A 
HETATM    4  C6  UNL     1     -43.353  12.195   7.059  1.00 20.00     0.012 C 
HETATM    5  C7  UNL     1     -42.505  14.755   5.548  1.00 20.00     0.034 C 
HETATM    6 CL9  UNL     1     -40.307  14.945   7.190  1.00 20.00    -0.118 Cl
ENDROOT
BRANCH   1   7
HETATM    7  C1  UNL     1     -39.713  12.121   5.922  1.00 20.00     0.129 C 
HETATM    8  C5  UNL     1     -38.976  11.886   4.631  1.00 20.00     0.091 C 
HETATM    9  O8  UNL     1     -39.178  11.936   7.013  1.00 20.00    -0.298 OA
ENDBRANCH   1   7
TORSDOF 1
ENDMDL
MODEL 4
REMARK VINA RESULT:      -3.6     11.822     13.050
REMARK  1 active torsions:
REMARK  status: ('A' for Active; 'I' for Inactive)
REMARK    1  A    between atoms: C1_1  and  C2_2 
ROOT
HETATM    1  C2  UNL     1     -34.245  16.017  -5.127  1.00 20.00     0.084 A 
HETATM    2  C3  UNL     1     -34.261  15.177  -6.382  1.00 20.00     0.018 A 
HETATM    3  C4  UNL     1     -35.462  15.168  -5.451  1.00 20.00     0.048 A 
HETATM    4  C6  UNL     1     -34.292  15.830  -7.721  1.00 20.00     0.012 C 
HETATM    5  C7  UNL     1     -36.739  15.857  -5.832  1.00 20.00     0.034 C 
HETATM    6 CL9  UNL     1     -35.716  13.654  -4.544  1.00 20.00    -0.118 Cl
ENDROOT
BRANCH   1   7
HETATM    7  C1  UNL     1     -33.334  15.654  -4.034  1.00 20.00     0.129 C 
HETATM    8  C5  UNL     1     -33.500  16.400  -2.737  1.00 20.00     0.091 C 
HETATM    9  O8  UNL     1     -32.478  14.781  -4.171  1.00 20.00    -0.298 OA
ENDBRANCH   1   7
TORSDOF 1
ENDMDL
MODEL 5
REMARK VINA RESULT:      -3.6      2.264      3.118
REMARK  1 active torsions:
REMARK  status: ('A' for Active; 'I' for Inactive)
REMARK    1  A    between atoms: C1_1  and  C2_2 
ROOT
HETATM    1  C2  UNL     1     -33.933   7.374   4.221  1.00 20.00     0.084 A 
HETATM    2  C3  UNL     1     -33.171   6.086   4.022  1.00 20.00     0.018 A 
HETATM    3  C4  UNL     1     -34.441   6.091   4.855  1.00 20.00     0.048 A 
HETATM    4  C6  UNL     1     -33.101   5.455   2.674  1.00 20.00     0.012 C 
HETATM    5  C7  UNL     1     -35.710   5.484   4.333  1.00 20.00     0.034 C 
HETATM    6 CL9  UNL     1     -34.208   5.852   6.607  1.00 20.00    -0.118 Cl
ENDROOT
BRANCH   1   7
HETATM    7  C1  UNL     1     -33.335   8.441   5.036  1.00 20.00     0.129 C 
HETATM    8  C5  UNL     1     -31.927   8.846   4.693  1.00 20.00     0.091 C 
HETATM    9  O8  UNL     1     -33.957   8.977   5.951  1.00 20.00    -0.298 OA
ENDBRANCH   1   7
TORSDOF 1
ENDMDL
MODEL 6
REMARK VINA RESULT:      -3.6      9.818     10.954
REMARK  1 active torsions:
REMARK  status: ('A' for Active; 'I' for Inactive)
REMARK    1  A    between atoms: C1_1  and  C2_2 
ROOT
HETATM    1  C2  UNL     1     -40.402  14.088   6.670  1.00 20.00     0.084 A 
HETATM    2  C3  UNL     1     -40.527  12.640   6.264  1.00 20.00     0.018 A 
HETATM    3  C4  UNL     1     -41.662  13.606   5.973  1.00 20.00     0.048 A 
HETATM    4  C6  UNL     1     -39.654  12.083   5.191  1.00 20.00     0.012 C 
HETATM    5  C7  UNL     1     -41.935  14.077   4.575  1.00 20.00     0.034 C 
HETATM    6 CL9  UNL     1     -43.140  13.366   6.942  1.00 20.00    -0.118 Cl
ENDROOT
BRANCH   1   7
HETATM    7  C1  UNL     1     -40.409  14.434   8.098  1.00 20.00     0.129 C 
HETATM    8  C5  UNL     1     -40.537  15.895   8.440  1.00 20.00     0.091 C 
HETATM    9  O8  UNL     1     -40.316  13.573   8.971  1.00 20.00    -0.298 OA
ENDBRANCH   1   7
TORSDOF 1
ENDMDL
MODEL 7
REMARK VINA RESULT:      -3.6     12.234     12.747
REMARK  1 active torsions:
REMARK  status: ('A' for Active; 'I' for Inactive)
REMARK    1  A    between atoms: C1_1  and  C2_2 
ROOT
HETATM    1  C2  UNL     1     -32.961  17.326  -1.756  1.00 20.00     0.084 A 
HETATM    2  C3  UNL     1     -32.349  18.640  -1.335  1.00 20.00     0.018 A 
HETATM    3  C4  UNL     1     -33.775  18.308  -0.931  1.00 20.00     0.048 A 
HETATM    4  C6  UNL     1     -31.225  18.666  -0.357  1.00 20.00     0.012 C 
HETATM    5  C7  UNL     1     -34.112  17.949   0.486  1.00 20.00     0.034 C 
HETATM    6 CL9  UNL     1     -35.044  19.263  -1.743  1.00 20.00    -0.118 Cl
ENDROOT
BRANCH   1   7
HETATM    7  C1  UNL     1     -33.259  17.097  -3.177  1.00 20.00     0.129 C 
HETATM    8  C5  UNL     1     -33.630  15.693  -3.573  1.00 20.00     0.091 C 
HETATM    9  O8  UNL     1     -33.208  18.009  -4.001  1.00 20.00    -0.298 OA
ENDBRANCH   1   7
TORSDOF 1
ENDMDL
MODEL 8
REMARK VINA RESULT:      -3.5      9.562     10.348
REMARK  1 active torsions:
REMARK  status: ('A' for Active; 'I' for Inactive)
REMARK    1  A    between atoms: C1_1  and  C2_2 
ROOT
HETATM    1  C2  UNL     1     -40.733  13.650   5.935  1.00 20.00     0.084 A 
HETATM    2  C3  UNL     1     -41.893  13.636   4.970  1.00 20.00     0.018 A 
HETATM    3  C4  UNL     1     -42.154  13.561   6.464  1.00 20.00     0.048 A 
HETATM    4  C6  UNL     1     -42.211  14.847   4.162  1.00 20.00     0.012 C 
HETATM    5  C7  UNL     1     -42.719  14.734   7.210  1.00 20.00     0.034 C 
HETATM    6 CL9  UNL     1     -42.749  11.988   7.059  1.00 20.00    -0.118 Cl
ENDROOT
BRANCH   1   7
HETATM    7  C1  UNL     1     -39.829  12.493   5.985  1.00 20.00     0.129 C 
HETATM    8  C5  UNL     1     -39.533  11.809   4.677  1.00 20.00     0.091 C 
HETATM    9  O8  UNL     1     -39.337  12.104   7.043  1.00 20.00    -0.298 OA
ENDBRANCH   1   7
TORSDOF 1
ENDMDL
MODEL 9
REMARK VINA RESULT:      -3.3     12.320     13.202
REMARK  1 active torsions:
REMARK  status: ('A' for Active; 'I' for Inactive)
REMARK    1  A    between atoms: C1_1  and  C2_2 
ROOT
HETATM    1  C2  UNL     1     -32.650  17.885  -1.849  1.00 20.00     0.084 A 
HETATM    2  C3  UNL     1     -33.669  16.922  -2.409  1.00 20.00     0.018 A 
HETATM    3  C4  UNL     1     -33.770  18.403  -2.733  1.00 20.00     0.048 A 
HETATM    4  C6  UNL     1     -33.266  15.907  -3.421  1.00 20.00     0.012 C 
HETATM    5  C7  UNL     1     -33.427  18.919  -4.100  1.00 20.00     0.034 C 
HETATM    6 CL9  UNL     1     -35.134  19.263  -1.972  1.00 20.00    -0.118 Cl
ENDROOT
BRANCH   1   7
HETATM    7  C1  UNL     1     -32.636  18.152  -0.404  1.00 20.00     0.129 C 
HETATM    8  C5  UNL     1     -31.426  18.862   0.142  1.00 20.00     0.091 C 
HETATM    9  O8  UNL     1     -33.568  17.814   0.323  1.00 20.00    -0.298 OA
ENDBRANCH   1   7
TORSDOF 1
ENDMDL
