MODEL 1
REMARK VINA RESULT:      -3.4      0.000      0.000
REMARK  1 active torsions:
REMARK  status: ('A' for Active; 'I' for Inactive)
REMARK    1  A    between atoms: C1_1  and  C5_5 
ROOT
HETATM    1  C2  UNL     1     -33.710  16.990  -4.013  1.00 20.00     0.002 C 
HETATM    2  C3  UNL     1     -34.045  15.555  -4.423  1.00 20.00     0.017 C 
HETATM    3  C4  UNL     1     -34.251  17.896  -5.115  1.00 20.00     0.010 C 
HETATM    4  C5  UNL     1     -34.691  15.637  -5.821  1.00 20.00     0.023 C 
HETATM    5  C6  UNL     1     -35.327  17.063  -5.839  1.00 20.00    -0.034 C 
HETATM    6  C8  UNL     1     -33.622  15.403  -6.902  1.00 20.00     0.024 C 
HETATM    7  C9  UNL     1     -36.647  17.139  -5.037  1.00 20.00     0.016 C 
HETATM    8  C10 UNL     1     -35.592  17.625  -7.242  1.00 20.00     0.016 C 
ENDROOT
BRANCH   4   9
HETATM    9  C1  UNL     1     -35.713  14.545  -5.991  1.00 20.00     0.132 C 
HETATM   10  C7  UNL     1     -36.088  13.771  -4.755  1.00 20.00     0.091 C 
HETATM   11  O11 UNL     1     -36.218  14.298  -7.084  1.00 20.00    -0.298 OA
ENDBRANCH   4   9
TORSDOF 1
ENDMDL
MODEL 2
REMARK VINA RESULT:      -3.4     13.134     14.492
REMARK  1 active torsions:
REMARK  status: ('A' for Active; 'I' for Inactive)
REMARK    1  A    between atoms: C1_1  and  C5_5 
ROOT
HETATM    1  C2  UNL     1     -43.082  15.307   5.819  1.00 20.00     0.002 C 
HETATM    2  C3  UNL     1     -42.280  14.092   5.350  1.00 20.00     0.017 C 
HETATM    3  C4  UNL     1     -42.922  15.375   7.335  1.00 20.00     0.010 C 
HETATM    4  C5  UNL     1     -41.743  13.403   6.620  1.00 20.00     0.023 C 
HETATM    5  C6  UNL     1     -41.645  14.572   7.649  1.00 20.00    -0.034 C 
HETATM    6  C8  UNL     1     -42.693  12.267   7.036  1.00 20.00     0.024 C 
HETATM    7  C9  UNL     1     -40.411  15.476   7.411  1.00 20.00     0.016 C 
HETATM    8  C10 UNL     1     -41.632  14.130   9.118  1.00 20.00     0.016 C 
ENDROOT
BRANCH   4   9
HETATM    9  C1  UNL     1     -40.409  12.761   6.344  1.00 20.00     0.132 C 
HETATM   10  C7  UNL     1     -40.069  12.503   4.900  1.00 20.00     0.091 C 
HETATM   11  O11 UNL     1     -39.635  12.464   7.252  1.00 20.00    -0.298 OA
ENDBRANCH   4   9
TORSDOF 1
ENDMDL
MODEL 3
REMARK VINA RESULT:      -3.3     13.734     15.051
REMARK  1 active torsions:
REMARK  status: ('A' for Active; 'I' for Inactive)
REMARK    1  A    between atoms: C1_1  and  C5_5 
ROOT
HETATM    1  C2  UNL     1     -42.955  15.061   5.513  1.00 20.00     0.002 C 
HETATM    2  C3  UNL     1     -42.820  15.375   7.004  1.00 20.00     0.017 C 
HETATM    3  C4  UNL     1     -41.861  14.050   5.180  1.00 20.00     0.010 C 
HETATM    4  C5  UNL     1     -41.574  14.616   7.502  1.00 20.00     0.023 C 
HETATM    5  C6  UNL     1     -41.479  13.402   6.525  1.00 20.00    -0.034 C 
HETATM    6  C8  UNL     1     -40.352  15.549   7.478  1.00 20.00     0.024 C 
HETATM    7  C9  UNL     1     -42.501  12.288   6.854  1.00 20.00     0.016 C 
HETATM    8  C10 UNL     1     -40.089  12.759   6.440  1.00 20.00     0.016 C 
ENDROOT
BRANCH   4   9
HETATM    9  C1  UNL     1     -41.758  14.192   8.936  1.00 20.00     0.132 C 
HETATM   10  C7  UNL     1     -43.116  14.426   9.541  1.00 20.00     0.091 C 
HETATM   11  O11 UNL     1     -40.844  13.679   9.579  1.00 20.00    -0.298 OA
ENDBRANCH   4   9
TORSDOF 1
ENDMDL
MODEL 4
REMARK VINA RESULT:      -3.0     13.829     15.230
REMARK  1 active torsions:
REMARK  status: ('A' for Active; 'I' for Inactive)
REMARK    1  A    between atoms: C1_1  and  C5_5 
ROOT
HETATM    1  C2  UNL     1     -43.417  12.484   8.131  1.00 20.00     0.002 C 
HETATM    2  C3  UNL     1     -42.638  13.611   8.810  1.00 20.00     0.017 C 
HETATM    3  C4  UNL     1     -43.321  12.731   6.628  1.00 20.00     0.010 C 
HETATM    4  C5  UNL     1     -42.180  14.566   7.689  1.00 20.00     0.023 C 
HETATM    5  C6  UNL     1     -42.087  13.634   6.440  1.00 20.00    -0.034 C 
HETATM    6  C8  UNL     1     -43.185  15.721   7.548  1.00 20.00     0.024 C 
HETATM    7  C9  UNL     1     -40.814  12.754   6.444  1.00 20.00     0.016 C 
HETATM    8  C10 UNL     1     -42.153  14.365   5.093  1.00 20.00     0.016 C 
ENDROOT
BRANCH   4   9
HETATM    9  C1  UNL     1     -40.858  15.194   8.043  1.00 20.00     0.132 C 
HETATM   10  C7  UNL     1     -40.213  14.736   9.324  1.00 20.00     0.091 C 
HETATM   11  O11 UNL     1     -40.331  16.038   7.321  1.00 20.00    -0.298 OA
ENDBRANCH   4   9
TORSDOF 1
ENDMDL
MODEL 5
REMARK VINA RESULT:      -2.9      1.250      3.240
REMARK  1 active torsions:
REMARK  status: ('A' for Active; 'I' for Inactive)
REMARK    1  A    between atoms: C1_1  and  C5_5 
ROOT
HETATM    1  C2  UNL     1     -33.350  16.252  -3.729  1.00 20.00     0.002 C 
HETATM    2  C3  UNL     1     -33.873  17.456  -4.515  1.00 20.00     0.017 C 
HETATM    3  C4  UNL     1     -34.194  15.054  -4.154  1.00 20.00     0.010 C 
HETATM    4  C5  UNL     1     -35.092  16.960  -5.318  1.00 20.00     0.023 C 
HETATM    5  C6  UNL     1     -34.795  15.441  -5.519  1.00 20.00    -0.034 C 
HETATM    6  C8  UNL     1     -36.384  17.259  -4.539  1.00 20.00     0.024 C 
HETATM    7  C9  UNL     1     -33.745  15.178  -6.624  1.00 20.00     0.016 C 
HETATM    8  C10 UNL     1     -36.031  14.585  -5.827  1.00 20.00     0.016 C 
ENDROOT
BRANCH   4   9
HETATM    9  C1  UNL     1     -35.199  17.707  -6.621  1.00 20.00     0.132 C 
HETATM   10  C7  UNL     1     -34.101  18.689  -6.931  1.00 20.00     0.091 C 
HETATM   11  O11 UNL     1     -36.137  17.523  -7.395  1.00 20.00    -0.298 OA
ENDBRANCH   4   9
TORSDOF 1
ENDMDL
MODEL 6
REMARK VINA RESULT:      -2.9      1.322      2.148
REMARK  1 active torsions:
REMARK  status: ('A' for Active; 'I' for Inactive)
REMARK    1  A    between atoms: C1_1  and  C5_5 
ROOT
HETATM    1  C2  UNL     1     -36.103  18.149  -4.301  1.00 20.00     0.002 C 
HETATM    2  C3  UNL     1     -34.805  17.406  -4.624  1.00 20.00     0.017 C 
HETATM    3  C4  UNL     1     -37.053  17.896  -5.468  1.00 20.00     0.010 C 
HETATM    4  C5  UNL     1     -34.982  16.809  -6.035  1.00 20.00     0.023 C 
HETATM    5  C6  UNL     1     -36.526  16.621  -6.155  1.00 20.00    -0.034 C 
HETATM    6  C8  UNL     1     -34.373  17.758  -7.081  1.00 20.00     0.024 C 
HETATM    7  C9  UNL     1     -37.039  15.383  -5.381  1.00 20.00     0.016 C 
HETATM    8  C10 UNL     1     -37.047  16.529  -7.595  1.00 20.00     0.016 C 
ENDROOT
BRANCH   4   9
HETATM    9  C1  UNL     1     -34.228  15.510  -6.151  1.00 20.00     0.132 C 
HETATM   10  C7  UNL     1     -33.669  14.936  -4.877  1.00 20.00     0.091 C 
HETATM   11  O11 UNL     1     -34.080  14.946  -7.234  1.00 20.00    -0.298 OA
ENDBRANCH   4   9
TORSDOF 1
ENDMDL
MODEL 7
REMARK VINA RESULT:      -2.8     13.474     14.776
REMARK  1 active torsions:
REMARK  status: ('A' for Active; 'I' for Inactive)
REMARK    1  A    between atoms: C1_1  and  C5_5 
ROOT
HETATM    1  C2  UNL     1     -40.469  12.910   5.219  1.00 20.00     0.002 C 
HETATM    2  C3  UNL     1     -40.691  12.514   6.681  1.00 20.00     0.017 C 
HETATM    3  C4  UNL     1     -41.554  13.925   4.873  1.00 20.00     0.010 C 
HETATM    4  C5  UNL     1     -41.975  13.233   7.140  1.00 20.00     0.023 C 
HETATM    5  C6  UNL     1     -42.027  14.497   6.224  1.00 20.00    -0.034 C 
HETATM    6  C8  UNL     1     -43.181  12.290   6.991  1.00 20.00     0.024 C 
HETATM    7  C9  UNL     1     -41.042  15.602   6.675  1.00 20.00     0.016 C 
HETATM    8  C10 UNL     1     -43.417  15.129   6.087  1.00 20.00     0.016 C 
ENDROOT
BRANCH   4   9
HETATM    9  C1  UNL     1     -41.886  13.581   8.602  1.00 20.00     0.132 C 
HETATM   10  C7  UNL     1     -43.184  13.857   9.312  1.00 20.00     0.091 C 
HETATM   11  O11 UNL     1     -40.806  13.635   9.188  1.00 20.00    -0.298 OA
ENDBRANCH   4   9
TORSDOF 1
ENDMDL
MODEL 8
REMARK VINA RESULT:      -2.8     14.171     15.171
REMARK  1 active torsions:
REMARK  status: ('A' for Active; 'I' for Inactive)
REMARK    1  A    between atoms: C1_1  and  C5_5 
ROOT
HETATM    1  C2  UNL     1     -40.165  15.746   9.127  1.00 20.00     0.002 C 
HETATM    2  C3  UNL     1     -40.641  14.293   9.077  1.00 20.00     0.017 C 
HETATM    3  C4  UNL     1     -40.767  16.444   7.910  1.00 20.00     0.010 C 
HETATM    4  C5  UNL     1     -41.437  14.137   7.765  1.00 20.00     0.023 C 
HETATM    5  C6  UNL     1     -41.972  15.578   7.496  1.00 20.00    -0.034 C 
HETATM    6  C8  UNL     1     -40.519  13.583   6.663  1.00 20.00     0.024 C 
HETATM    7  C9  UNL     1     -43.183  15.942   8.388  1.00 20.00     0.016 C 
HETATM    8  C10 UNL     1     -42.359  15.852   6.037  1.00 20.00     0.016 C 
ENDROOT
BRANCH   4   9
HETATM    9  C1  UNL     1     -42.544  13.131   7.941  1.00 20.00     0.132 C 
HETATM   10  C7  UNL     1     -43.224  12.648   6.688  1.00 20.00     0.091 C 
HETATM   11  O11 UNL     1     -42.874  12.723   9.053  1.00 20.00    -0.298 OA
ENDBRANCH   4   9
TORSDOF 1
ENDMDL
MODEL 9
REMARK VINA RESULT:      -2.8      1.594      3.365
REMARK  1 active torsions:
REMARK  status: ('A' for Active; 'I' for Inactive)
REMARK    1  A    between atoms: C1_1  and  C5_5 
ROOT
HETATM    1  C2  UNL     1     -34.576  15.667  -7.918  1.00 20.00     0.002 C 
HETATM    2  C3  UNL     1     -35.577  16.739  -7.482  1.00 20.00     0.017 C 
HETATM    3  C4  UNL     1     -33.846  15.213  -6.657  1.00 20.00     0.010 C 
HETATM    4  C5  UNL     1     -35.343  16.971  -5.976  1.00 20.00     0.023 C 
HETATM    5  C6  UNL     1     -34.770  15.604  -5.486  1.00 20.00    -0.034 C 
HETATM    6  C8  UNL     1     -34.398  18.166  -5.774  1.00 20.00     0.024 C 
HETATM    7  C9  UNL     1     -35.863  14.520  -5.325  1.00 20.00     0.016 C 
HETATM    8  C10 UNL     1     -33.978  15.677  -4.175  1.00 20.00     0.016 C 
ENDROOT
BRANCH   4   9
HETATM    9  C1  UNL     1     -36.637  17.333  -5.295  1.00 20.00     0.132 C 
HETATM   10  C7  UNL     1     -37.901  17.115  -6.084  1.00 20.00     0.091 C 
HETATM   11  O11 UNL     1     -36.660  17.782  -4.151  1.00 20.00    -0.298 OA
ENDBRANCH   4   9
TORSDOF 1
ENDMDL
