MODEL 1
REMARK VINA RESULT:      -4.4      0.000      0.000
REMARK  1 active torsions:
REMARK  status: ('A' for Active; 'I' for Inactive)
REMARK    1  A    between atoms: C3_3  and  C9_9 
ROOT
HETATM    1  C1  UNL     1     -34.187   5.035   6.171  1.00 20.00    -0.030 C 
HETATM    2  C2  UNL     1     -35.073   5.064   5.154  1.00 20.00    -0.029 C 
HETATM    3  C4  UNL     1     -33.311   6.208   6.567  1.00 20.00     0.032 C 
HETATM    4  C5  UNL     1     -35.282   6.259   4.240  1.00 20.00     0.044 C 
HETATM    5  C6  UNL     1     -33.174   8.752   5.470  1.00 20.00     0.007 C 
HETATM    6  C7  UNL     1     -34.109   8.724   4.217  1.00 20.00     0.018 C 
HETATM    7  C8  UNL     1     -33.874   7.433   5.871  1.00 20.00     0.005 C 
HETATM    8  C9  UNL     1     -34.045   7.160   4.336  1.00 20.00     0.027 C 
ENDROOT
BRANCH   8   9
HETATM    9  C3  UNL     1     -32.844   6.547   3.523  1.00 20.00     0.132 C 
HETATM   10  C10 UNL     1     -33.097   5.238   2.827  1.00 20.00     0.091 C 
HETATM   11  O11 UNL     1     -31.753   7.112   3.458  1.00 20.00    -0.298 OA
ENDBRANCH   8   9
TORSDOF 1
ENDMDL
MODEL 2
REMARK VINA RESULT:      -3.8     12.467     14.252
REMARK  1 active torsions:
REMARK  status: ('A' for Active; 'I' for Inactive)
REMARK    1  A    between atoms: C3_3  and  C9_9 
ROOT
HETATM    1  C1  UNL     1     -33.720  15.650  -3.482  1.00 20.00    -0.030 C 
HETATM    2  C2  UNL     1     -33.884  16.986  -3.570  1.00 20.00    -0.029 C 
HETATM    3  C4  UNL     1     -33.825  14.703  -4.662  1.00 20.00     0.032 C 
HETATM    4  C5  UNL     1     -34.239  17.719  -4.852  1.00 20.00     0.044 C 
HETATM    5  C6  UNL     1     -34.339  15.265  -7.329  1.00 20.00     0.007 C 
HETATM    6  C7  UNL     1     -34.653  16.795  -7.387  1.00 20.00     0.018 C 
HETATM    7  C8  UNL     1     -33.784  15.556  -5.916  1.00 20.00     0.005 C 
HETATM    8  C9  UNL     1     -34.845  16.707  -5.832  1.00 20.00     0.027 C 
ENDROOT
BRANCH   8   9
HETATM    9  C3  UNL     1     -36.328  16.360  -5.431  1.00 20.00     0.132 C 
HETATM   10  C10 UNL     1     -37.168  17.493  -4.906  1.00 20.00     0.091 C 
HETATM   11  O11 UNL     1     -36.777  15.221  -5.544  1.00 20.00    -0.298 OA
ENDBRANCH   8   9
TORSDOF 1
ENDMDL
MODEL 3
REMARK VINA RESULT:      -3.7      9.606     10.698
REMARK  1 active torsions:
REMARK  status: ('A' for Active; 'I' for Inactive)
REMARK    1  A    between atoms: C3_3  and  C9_9 
ROOT
HETATM    1  C1  UNL     1     -43.417  12.762   6.831  1.00 20.00    -0.030 C 
HETATM    2  C2  UNL     1     -43.144  13.516   5.746  1.00 20.00    -0.029 C 
HETATM    3  C4  UNL     1     -42.678  12.875   8.150  1.00 20.00     0.032 C 
HETATM    4  C5  UNL     1     -42.031  14.549   5.684  1.00 20.00     0.044 C 
HETATM    5  C6  UNL     1     -40.607  14.575   8.868  1.00 20.00     0.007 C 
HETATM    6  C7  UNL     1     -40.220  15.345   7.564  1.00 20.00     0.018 C 
HETATM    7  C8  UNL     1     -41.888  14.170   8.104  1.00 20.00     0.005 C 
HETATM    8  C9  UNL     1     -41.024  14.237   6.797  1.00 20.00     0.027 C 
ENDROOT
BRANCH   8   9
HETATM    9  C3  UNL     1     -40.122  13.008   6.405  1.00 20.00     0.132 C 
HETATM   10  C10 UNL     1     -40.076  12.640   4.947  1.00 20.00     0.091 C 
HETATM   11  O11 UNL     1     -39.484  12.380   7.249  1.00 20.00    -0.298 OA
ENDBRANCH   8   9
TORSDOF 1
ENDMDL
MODEL 4
REMARK VINA RESULT:      -3.7      9.672     11.049
REMARK  1 active torsions:
REMARK  status: ('A' for Active; 'I' for Inactive)
REMARK    1  A    between atoms: C3_3  and  C9_9 
ROOT
HETATM    1  C1  UNL     1     -40.766  16.021   7.264  1.00 20.00    -0.030 C 
HETATM    2  C2  UNL     1     -40.230  15.157   8.151  1.00 20.00    -0.029 C 
HETATM    3  C4  UNL     1     -41.942  15.691   6.365  1.00 20.00     0.032 C 
HETATM    4  C5  UNL     1     -40.702  13.726   8.340  1.00 20.00     0.044 C 
HETATM    5  C6  UNL     1     -43.417  13.350   6.182  1.00 20.00     0.007 C 
HETATM    6  C7  UNL     1     -42.702  12.324   7.120  1.00 20.00     0.018 C 
HETATM    7  C8  UNL     1     -42.568  14.420   6.906  1.00 20.00     0.005 C 
HETATM    8  C9  UNL     1     -41.478  13.306   7.086  1.00 20.00     0.027 C 
ENDROOT
BRANCH   8   9
HETATM    9  C3  UNL     1     -40.493  12.993   5.898  1.00 20.00     0.132 C 
HETATM   10  C10 UNL     1     -39.187  12.339   6.258  1.00 20.00     0.091 C 
HETATM   11  O11 UNL     1     -40.778  13.267   4.734  1.00 20.00    -0.298 OA
ENDBRANCH   8   9
TORSDOF 1
ENDMDL
MODEL 5
REMARK VINA RESULT:      -3.6     12.749     14.227
REMARK  1 active torsions:
REMARK  status: ('A' for Active; 'I' for Inactive)
REMARK    1  A    between atoms: C3_3  and  C9_9 
ROOT
HETATM    1  C1  UNL     1     -33.286  15.931  -3.817  1.00 20.00    -0.030 C 
HETATM    2  C2  UNL     1     -33.801  14.823  -4.389  1.00 20.00    -0.029 C 
HETATM    3  C4  UNL     1     -33.946  17.295  -3.865  1.00 20.00     0.032 C 
HETATM    4  C5  UNL     1     -35.088  14.800  -5.196  1.00 20.00     0.044 C 
HETATM    5  C6  UNL     1     -36.340  18.053  -5.043  1.00 20.00     0.007 C 
HETATM    6  C7  UNL     1     -36.854  16.790  -5.808  1.00 20.00     0.018 C 
HETATM    7  C8  UNL     1     -35.373  17.079  -4.332  1.00 20.00     0.005 C 
HETATM    8  C9  UNL     1     -35.396  16.232  -5.652  1.00 20.00     0.027 C 
ENDROOT
BRANCH   8   9
HETATM    9  C3  UNL     1     -34.464  16.648  -6.851  1.00 20.00     0.132 C 
HETATM   10  C10 UNL     1     -33.969  15.539  -7.739  1.00 20.00     0.091 C 
HETATM   11  O11 UNL     1     -34.158  17.822  -7.053  1.00 20.00    -0.298 OA
ENDBRANCH   8   9
TORSDOF 1
ENDMDL
MODEL 6
REMARK VINA RESULT:      -3.5      9.437     10.825
REMARK  1 active torsions:
REMARK  status: ('A' for Active; 'I' for Inactive)
REMARK    1  A    between atoms: C3_3  and  C9_9 
ROOT
HETATM    1  C1  UNL     1     -43.260  14.261   5.626  1.00 20.00    -0.030 C 
HETATM    2  C2  UNL     1     -43.417  13.446   6.689  1.00 20.00    -0.029 C 
HETATM    3  C4  UNL     1     -41.999  14.324   4.785  1.00 20.00     0.032 C 
HETATM    4  C5  UNL     1     -42.340  12.512   7.215  1.00 20.00     0.044 C 
HETATM    5  C6  UNL     1     -39.646  12.877   5.030  1.00 20.00     0.007 C 
HETATM    6  C7  UNL     1     -39.799  12.037   6.339  1.00 20.00     0.018 C 
HETATM    7  C8  UNL     1     -41.170  13.104   5.141  1.00 20.00     0.005 C 
HETATM    8  C9  UNL     1     -40.984  13.002   6.694  1.00 20.00     0.027 C 
ENDROOT
BRANCH   8   9
HETATM    9  C3  UNL     1     -40.502  14.269   7.497  1.00 20.00     0.132 C 
HETATM   10  C10 UNL     1     -40.533  14.170   8.998  1.00 20.00     0.091 C 
HETATM   11  O11 UNL     1     -40.118  15.288   6.925  1.00 20.00    -0.298 OA
ENDBRANCH   8   9
TORSDOF 1
ENDMDL
MODEL 7
REMARK VINA RESULT:      -3.4     15.615     16.760
REMARK  1 active torsions:
REMARK  status: ('A' for Active; 'I' for Inactive)
REMARK    1  A    between atoms: C3_3  and  C9_9 
ROOT
HETATM    1  C1  UNL     1     -21.459  19.095   8.995  1.00 20.00    -0.030 C 
HETATM    2  C2  UNL     1     -22.044  18.130   8.257  1.00 20.00    -0.029 C 
HETATM    3  C4  UNL     1     -21.659  19.259  10.489  1.00 20.00     0.032 C 
HETATM    4  C5  UNL     1     -23.017  17.104   8.812  1.00 20.00     0.044 C 
HETATM    5  C6  UNL     1     -23.186  17.741  12.238  1.00 20.00     0.007 C 
HETATM    6  C7  UNL     1     -23.955  16.713  11.346  1.00 20.00     0.018 C 
HETATM    7  C8  UNL     1     -22.306  17.981  10.990  1.00 20.00     0.005 C 
HETATM    8  C9  UNL     1     -23.576  17.638  10.136  1.00 20.00     0.027 C 
ENDROOT
BRANCH   8   9
HETATM    9  C3  UNL     1     -24.654  18.756   9.877  1.00 20.00     0.132 C 
HETATM   10  C10 UNL     1     -24.868  19.169   8.446  1.00 20.00     0.091 C 
HETATM   11  O11 UNL     1     -25.293  19.263  10.797  1.00 20.00    -0.298 OA
ENDBRANCH   8   9
TORSDOF 1
ENDMDL
MODEL 8
REMARK VINA RESULT:      -3.4     12.328     14.061
REMARK  1 active torsions:
REMARK  status: ('A' for Active; 'I' for Inactive)
REMARK    1  A    between atoms: C3_3  and  C9_9 
ROOT
HETATM    1  C1  UNL     1     -35.230  13.897  -4.275  1.00 20.00    -0.030 C 
HETATM    2  C2  UNL     1     -33.985  14.408  -4.178  1.00 20.00    -0.029 C 
HETATM    3  C4  UNL     1     -36.204  14.240  -5.385  1.00 20.00     0.032 C 
HETATM    4  C5  UNL     1     -33.406  15.429  -5.142  1.00 20.00     0.044 C 
HETATM    5  C6  UNL     1     -35.870  15.928  -7.561  1.00 20.00     0.007 C 
HETATM    6  C7  UNL     1     -34.476  16.607  -7.360  1.00 20.00     0.018 C 
HETATM    7  C8  UNL     1     -35.406  14.932  -6.474  1.00 20.00     0.005 C 
HETATM    8  C9  UNL     1     -34.567  16.113  -5.874  1.00 20.00     0.027 C 
ENDROOT
BRANCH   8   9
HETATM    9  C3  UNL     1     -35.276  17.162  -4.937  1.00 20.00     0.132 C 
HETATM   10  C10 UNL     1     -34.382  18.003  -4.067  1.00 20.00     0.091 C 
HETATM   11  O11 UNL     1     -36.499  17.290  -4.920  1.00 20.00    -0.298 OA
ENDBRANCH   8   9
TORSDOF 1
ENDMDL
MODEL 9
REMARK VINA RESULT:      -3.4     10.685     11.902
REMARK  1 active torsions:
REMARK  status: ('A' for Active; 'I' for Inactive)
REMARK    1  A    between atoms: C3_3  and  C9_9 
ROOT
HETATM    1  C1  UNL     1     -42.747  15.495   5.056  1.00 20.00    -0.030 C 
HETATM    2  C2  UNL     1     -42.198  14.311   4.716  1.00 20.00    -0.029 C 
HETATM    3  C4  UNL     1     -42.458  16.222   6.355  1.00 20.00     0.032 C 
HETATM    4  C5  UNL     1     -41.249  13.525   5.605  1.00 20.00     0.044 C 
HETATM    5  C6  UNL     1     -40.774  15.503   8.438  1.00 20.00     0.007 C 
HETATM    6  C7  UNL     1     -40.250  14.073   8.086  1.00 20.00     0.018 C 
HETATM    7  C8  UNL     1     -41.232  15.568   6.963  1.00 20.00     0.005 C 
HETATM    8  C9  UNL     1     -41.426  14.014   7.048  1.00 20.00     0.027 C 
ENDROOT
BRANCH   8   9
HETATM    9  C3  UNL     1     -42.749  13.435   7.676  1.00 20.00     0.132 C 
HETATM   10  C10 UNL     1     -43.153  12.052   7.244  1.00 20.00     0.091 C 
HETATM   11  O11 UNL     1     -43.417  14.081   8.481  1.00 20.00    -0.298 OA
ENDBRANCH   8   9
TORSDOF 1
ENDMDL
