MODEL 1
REMARK VINA RESULT:      -3.7      0.000      0.000
REMARK  0 active torsions:
REMARK  status: ('A' for Active; 'I' for Inactive)
ROOT
HETATM    1  C1  UNL     1     -32.915   4.819   2.582  1.00 20.00     0.015 C 
HETATM    2  C2  UNL     1     -33.468   5.457   3.436  1.00 20.00    -0.073 C 
HETATM    3  C3  UNL     1     -33.739   5.775   5.880  1.00 20.00     0.225 C 
HETATM    4  C4  UNL     1     -34.062   8.043   5.916  1.00 20.00     0.442 C 
HETATM    5  C5  UNL     1     -34.145   6.240   4.484  1.00 20.00     0.240 C 
HETATM    6  C6  UNL     1     -35.666   6.095   4.277  1.00 20.00     0.066 C 
HETATM    7  C7  UNL     1     -32.408   7.983   4.179  1.00 20.00     0.315 C 
HETATM    8  N8  UNL     1     -33.805   7.684   4.513  1.00 20.00     0.130 N 
HETATM    9  O9  UNL     1     -33.976   6.884   6.753  1.00 20.00    -0.359 OA
ENDROOT
TORSDOF 0
ENDMDL
MODEL 2
REMARK VINA RESULT:      -3.3     12.705     13.659
REMARK  0 active torsions:
REMARK  status: ('A' for Active; 'I' for Inactive)
ROOT
HETATM    1  C1  UNL     1     -36.084  18.919  -2.645  1.00 20.00     0.015 C 
HETATM    2  C2  UNL     1     -34.998  18.595  -2.247  1.00 20.00    -0.073 C 
HETATM    3  C3  UNL     1     -32.590  19.186  -2.203  1.00 20.00     0.225 C 
HETATM    4  C4  UNL     1     -32.064  18.402  -0.115  1.00 20.00     0.442 C 
HETATM    5  C5  UNL     1     -33.666  18.198  -1.758  1.00 20.00     0.240 C 
HETATM    6  C6  UNL     1     -33.366  16.782  -2.291  1.00 20.00     0.066 C 
HETATM    7  C7  UNL     1     -34.243  19.263   0.406  1.00 20.00     0.315 C 
HETATM    8  N8  UNL     1     -33.511  18.193  -0.283  1.00 20.00     0.130 N 
HETATM    9  O9  UNL     1     -31.514  19.048  -1.269  1.00 20.00    -0.359 OA
ENDROOT
TORSDOF 0
ENDMDL
MODEL 3
REMARK VINA RESULT:      -3.3     13.323     14.324
REMARK  0 active torsions:
REMARK  status: ('A' for Active; 'I' for Inactive)
ROOT
HETATM    1  C1  UNL     1     -33.341  15.909  -3.395  1.00 20.00     0.015 C 
HETATM    2  C2  UNL     1     -33.898  15.992  -4.455  1.00 20.00    -0.073 C 
HETATM    3  C3  UNL     1     -33.797  15.380  -6.857  1.00 20.00     0.225 C 
HETATM    4  C4  UNL     1     -36.039  15.133  -7.261  1.00 20.00     0.442 C 
HETATM    5  C5  UNL     1     -34.581  16.092  -5.757  1.00 20.00     0.240 C 
HETATM    6  C6  UNL     1     -34.755  17.589  -6.088  1.00 20.00     0.066 C 
HETATM    7  C7  UNL     1     -36.006  14.188  -5.055  1.00 20.00     0.315 C 
HETATM    8  N8  UNL     1     -35.908  15.433  -5.827  1.00 20.00     0.130 N 
HETATM    9  O9  UNL     1     -34.748  15.057  -7.877  1.00 20.00    -0.359 OA
ENDROOT
TORSDOF 0
ENDMDL
MODEL 4
REMARK VINA RESULT:      -3.3      9.491     10.585
REMARK  0 active torsions:
REMARK  status: ('A' for Active; 'I' for Inactive)
ROOT
HETATM    1  C1  UNL     1     -39.109  12.031   5.728  1.00 20.00     0.015 C 
HETATM    2  C2  UNL     1     -40.117  12.648   5.937  1.00 20.00    -0.073 C 
HETATM    3  C3  UNL     1     -42.429  12.522   6.827  1.00 20.00     0.225 C 
HETATM    4  C4  UNL     1     -42.598  14.639   7.691  1.00 20.00     0.442 C 
HETATM    5  C5  UNL     1     -41.356  13.404   6.194  1.00 20.00     0.240 C 
HETATM    6  C6  UNL     1     -41.845  13.986   4.852  1.00 20.00     0.066 C 
HETATM    7  C7  UNL     1     -40.308  14.234   8.282  1.00 20.00     0.315 C 
HETATM    8  N8  UNL     1     -41.227  14.511   7.173  1.00 20.00     0.130 N 
HETATM    9  O9  UNL     1     -43.314  13.410   7.520  1.00 20.00    -0.359 OA
ENDROOT
TORSDOF 0
ENDMDL
MODEL 5
REMARK VINA RESULT:      -3.2     13.318     14.230
REMARK  0 active torsions:
REMARK  status: ('A' for Active; 'I' for Inactive)
ROOT
HETATM    1  C1  UNL     1     -33.293  15.905  -3.398  1.00 20.00     0.015 C 
HETATM    2  C2  UNL     1     -33.965  15.825  -4.390  1.00 20.00    -0.073 C 
HETATM    3  C3  UNL     1     -35.968  14.775  -5.407  1.00 20.00     0.225 C 
HETATM    4  C4  UNL     1     -36.621  16.493  -6.776  1.00 20.00     0.442 C 
HETATM    5  C5  UNL     1     -34.791  15.725  -5.606  1.00 20.00     0.240 C 
HETATM    6  C6  UNL     1     -33.884  15.243  -6.757  1.00 20.00     0.066 C 
HETATM    7  C7  UNL     1     -35.913  17.823  -4.908  1.00 20.00     0.315 C 
HETATM    8  N8  UNL     1     -35.457  16.984  -6.022  1.00 20.00     0.130 N 
HETATM    9  O9  UNL     1     -36.958  15.163  -6.366  1.00 20.00    -0.359 OA
ENDROOT
TORSDOF 0
ENDMDL
MODEL 6
REMARK VINA RESULT:      -3.2      1.560      2.927
REMARK  0 active torsions:
REMARK  status: ('A' for Active; 'I' for Inactive)
ROOT
HETATM    1  C1  UNL     1     -32.514   8.978   3.721  1.00 20.00     0.015 C 
HETATM    2  C2  UNL     1     -33.067   8.033   4.214  1.00 20.00    -0.073 C 
HETATM    3  C3  UNL     1     -35.240   6.872   4.499  1.00 20.00     0.225 C 
HETATM    4  C4  UNL     1     -34.488   4.708   4.556  1.00 20.00     0.442 C 
HETATM    5  C5  UNL     1     -33.747   6.874   4.818  1.00 20.00     0.240 C 
HETATM    6  C6  UNL     1     -33.510   6.924   6.341  1.00 20.00     0.066 C 
HETATM    7  C7  UNL     1     -32.975   5.528   2.883  1.00 20.00     0.315 C 
HETATM    8  N8  UNL     1     -33.306   5.550   4.312  1.00 20.00     0.130 N 
HETATM    9  O9  UNL     1     -35.670   5.512   4.624  1.00 20.00    -0.359 OA
ENDROOT
TORSDOF 0
ENDMDL
MODEL 7
REMARK VINA RESULT:      -3.0      9.875     11.095
REMARK  0 active torsions:
REMARK  status: ('A' for Active; 'I' for Inactive)
ROOT
HETATM    1  C1  UNL     1     -39.694  11.725   5.872  1.00 20.00     0.015 C 
HETATM    2  C2  UNL     1     -40.411  12.634   6.190  1.00 20.00    -0.073 C 
HETATM    3  C3  UNL     1     -41.984  14.365   5.365  1.00 20.00     0.225 C 
HETATM    4  C4  UNL     1     -43.417  14.432   7.152  1.00 20.00     0.442 C 
HETATM    5  C5  UNL     1     -41.292  13.749   6.578  1.00 20.00     0.240 C 
HETATM    6  C6  UNL     1     -40.434  14.799   7.313  1.00 20.00     0.066 C 
HETATM    7  C7  UNL     1     -43.021  12.065   7.148  1.00 20.00     0.315 C 
HETATM    8  N8  UNL     1     -42.435  13.377   7.448  1.00 20.00     0.130 N 
HETATM    9  O9  UNL     1     -43.166  15.001   5.862  1.00 20.00    -0.359 OA
ENDROOT
TORSDOF 0
ENDMDL
MODEL 8
REMARK VINA RESULT:      -3.0      9.845     10.855
REMARK  0 active torsions:
REMARK  status: ('A' for Active; 'I' for Inactive)
ROOT
HETATM    1  C1  UNL     1     -39.679  11.914   4.942  1.00 20.00     0.015 C 
HETATM    2  C2  UNL     1     -40.540  12.565   5.468  1.00 20.00    -0.073 C 
HETATM    3  C3  UNL     1     -41.012  14.542   6.889  1.00 20.00     0.225 C 
HETATM    4  C4  UNL     1     -43.016  15.175   5.974  1.00 20.00     0.442 C 
HETATM    5  C5  UNL     1     -41.597  13.365   6.113  1.00 20.00     0.240 C 
HETATM    6  C6  UNL     1     -42.395  12.433   7.046  1.00 20.00     0.066 C 
HETATM    7  C7  UNL     1     -41.930  14.511   3.939  1.00 20.00     0.315 C 
HETATM    8  N8  UNL     1     -42.543  14.028   5.182  1.00 20.00     0.130 N 
HETATM    9  O9  UNL     1     -42.059  15.514   6.984  1.00 20.00    -0.359 OA
ENDROOT
TORSDOF 0
ENDMDL
MODEL 9
REMARK VINA RESULT:      -2.9     13.278     14.117
REMARK  0 active torsions:
REMARK  status: ('A' for Active; 'I' for Inactive)
ROOT
HETATM    1  C1  UNL     1     -33.159  15.488  -3.867  1.00 20.00     0.015 C 
HETATM    2  C2  UNL     1     -34.123  15.357  -4.570  1.00 20.00    -0.073 C 
HETATM    3  C3  UNL     1     -36.166  16.459  -5.444  1.00 20.00     0.225 C 
HETATM    4  C4  UNL     1     -36.240  15.489  -7.519  1.00 20.00     0.442 C 
HETATM    5  C5  UNL     1     -35.308  15.197  -5.432  1.00 20.00     0.240 C 
HETATM    6  C6  UNL     1     -36.113  13.988  -4.914  1.00 20.00     0.066 C 
HETATM    7  C7  UNL     1     -33.858  15.743  -7.369  1.00 20.00     0.315 C 
HETATM    8  N8  UNL     1     -35.016  14.990  -6.872  1.00 20.00     0.130 N 
HETATM    9  O9  UNL     1     -36.915  16.418  -6.664  1.00 20.00    -0.359 OA
ENDROOT
TORSDOF 0
ENDMDL
