MODEL 1
REMARK VINA RESULT:      -4.2      0.000      0.000
REMARK  2 active torsions:
REMARK  status: ('A' for Active; 'I' for Inactive)
REMARK    1  A    between atoms: C1_1  and  C4_4 
REMARK    2  A    between atoms: C1_1  and  C6_6 
ROOT
HETATM    1  C1  UNL     1     -33.219   6.513   3.808  1.00 20.00     0.145 C 
HETATM    2  O7  UNL     1     -33.223   5.485   3.141  1.00 20.00    -0.296 OA
ENDROOT
BRANCH   1   3
HETATM    3  C4  UNL     1     -34.276   6.729   4.841  1.00 20.00     0.057 A 
HETATM    4  C2  UNL     1     -35.167   5.587   5.197  1.00 20.00     0.013 A 
HETATM    5  C3  UNL     1     -34.123   6.057   6.164  1.00 20.00     0.013 A 
ENDBRANCH   1   3
BRANCH   1   6
HETATM    6  C6  UNL     1     -32.183   7.604   3.673  1.00 20.00     0.123 C 
HETATM    7  C5  UNL     1     -32.456   8.780   4.589  1.00 20.00     0.030 C 
HETATM    8 BR8  UNL     1     -32.275   8.185   1.816  1.00 20.00    -0.084 Br
ENDBRANCH   1   6
TORSDOF 2
ENDMDL
MODEL 2
REMARK VINA RESULT:      -4.1      1.925      3.417
REMARK  2 active torsions:
REMARK  status: ('A' for Active; 'I' for Inactive)
REMARK    1  A    between atoms: C1_1  and  C4_4 
REMARK    2  A    between atoms: C1_1  and  C6_6 
ROOT
HETATM    1  C1  UNL     1     -33.704   7.095   4.963  1.00 20.00     0.145 C 
HETATM    2  O7  UNL     1     -34.079   7.501   6.056  1.00 20.00    -0.296 OA
ENDROOT
BRANCH   1   3
HETATM    3  C4  UNL     1     -32.554   7.758   4.280  1.00 20.00     0.057 A 
HETATM    4  C2  UNL     1     -32.816   8.987   3.475  1.00 20.00     0.013 A 
HETATM    5  C3  UNL     1     -32.097   9.085   4.787  1.00 20.00     0.013 A 
ENDBRANCH   1   3
BRANCH   1   6
HETATM    6  C6  UNL     1     -34.326   5.923   4.239  1.00 20.00     0.123 C 
HETATM    7  C5  UNL     1     -34.636   4.766   5.167  1.00 20.00     0.030 C 
HETATM    8 BR8  UNL     1     -33.008   5.367   2.917  1.00 20.00    -0.084 Br
ENDBRANCH   1   6
TORSDOF 2
ENDMDL
MODEL 3
REMARK VINA RESULT:      -4.0      1.755      1.911
REMARK  2 active torsions:
REMARK  status: ('A' for Active; 'I' for Inactive)
REMARK    1  A    between atoms: C1_1  and  C4_4 
REMARK    2  A    between atoms: C1_1  and  C6_6 
ROOT
HETATM    1  C1  UNL     1     -33.416   7.429   4.853  1.00 20.00     0.145 C 
HETATM    2  O7  UNL     1     -33.850   8.317   5.577  1.00 20.00    -0.296 OA
ENDROOT
BRANCH   1   3
HETATM    3  C4  UNL     1     -33.915   6.031   5.017  1.00 20.00     0.057 A 
HETATM    4  C2  UNL     1     -34.753   5.709   6.208  1.00 20.00     0.013 A 
HETATM    5  C3  UNL     1     -35.374   5.773   4.846  1.00 20.00     0.013 A 
ENDBRANCH   1   3
BRANCH   1   6
HETATM    6  C6  UNL     1     -32.397   7.653   3.761  1.00 20.00     0.123 C 
HETATM    7  C5  UNL     1     -32.652   8.926   2.981  1.00 20.00     0.030 C 
HETATM    8 BR8  UNL     1     -32.558   6.115   2.575  1.00 20.00    -0.084 Br
ENDBRANCH   1   6
TORSDOF 2
ENDMDL
MODEL 4
REMARK VINA RESULT:      -4.0      1.963      2.151
REMARK  2 active torsions:
REMARK  status: ('A' for Active; 'I' for Inactive)
REMARK    1  A    between atoms: C1_1  and  C4_4 
REMARK    2  A    between atoms: C1_1  and  C6_6 
ROOT
HETATM    1  C1  UNL     1     -33.655   7.119   5.227  1.00 20.00     0.145 C 
HETATM    2  O7  UNL     1     -33.237   7.228   6.373  1.00 20.00    -0.296 OA
ENDROOT
BRANCH   1   3
HETATM    3  C4  UNL     1     -34.735   6.133   4.923  1.00 20.00     0.057 A 
HETATM    4  C2  UNL     1     -34.349   4.720   4.642  1.00 20.00     0.013 A 
HETATM    5  C3  UNL     1     -35.032   5.073   5.929  1.00 20.00     0.013 A 
ENDBRANCH   1   3
BRANCH   1   6
HETATM    6  C6  UNL     1     -33.159   7.947   4.064  1.00 20.00     0.123 C 
HETATM    7  C5  UNL     1     -32.328   7.138   3.088  1.00 20.00     0.030 C 
HETATM    8 BR8  UNL     1     -32.061   9.349   4.854  1.00 20.00    -0.084 Br
ENDBRANCH   1   6
TORSDOF 2
ENDMDL
MODEL 5
REMARK VINA RESULT:      -3.9      1.762      2.228
REMARK  2 active torsions:
REMARK  status: ('A' for Active; 'I' for Inactive)
REMARK    1  A    between atoms: C1_1  and  C4_4 
REMARK    2  A    between atoms: C1_1  and  C6_6 
ROOT
HETATM    1  C1  UNL     1     -34.084   5.377   4.250  1.00 20.00     0.145 C 
HETATM    2  O7  UNL     1     -34.131   4.193   4.561  1.00 20.00    -0.296 OA
ENDROOT
BRANCH   1   3
HETATM    3  C4  UNL     1     -34.587   6.413   5.200  1.00 20.00     0.057 A 
HETATM    4  C2  UNL     1     -34.937   5.995   6.589  1.00 20.00     0.013 A 
HETATM    5  C3  UNL     1     -33.710   6.818   6.337  1.00 20.00     0.013 A 
ENDBRANCH   1   3
BRANCH   1   6
HETATM    6  C6  UNL     1     -33.522   5.884   2.942  1.00 20.00     0.123 C 
HETATM    7  C5  UNL     1     -32.701   4.837   2.218  1.00 20.00     0.030 C 
HETATM    8 BR8  UNL     1     -32.387   7.396   3.414  1.00 20.00    -0.084 Br
ENDBRANCH   1   6
TORSDOF 2
ENDMDL
MODEL 6
REMARK VINA RESULT:      -3.8      2.690      3.853
REMARK  2 active torsions:
REMARK  status: ('A' for Active; 'I' for Inactive)
REMARK    1  A    between atoms: C1_1  and  C4_4 
REMARK    2  A    between atoms: C1_1  and  C6_6 
ROOT
HETATM    1  C1  UNL     1     -33.660   7.556   5.037  1.00 20.00     0.145 C 
HETATM    2  O7  UNL     1     -34.137   8.342   5.846  1.00 20.00    -0.296 OA
ENDROOT
BRANCH   1   3
HETATM    3  C4  UNL     1     -32.435   7.934   4.270  1.00 20.00     0.057 A 
HETATM    4  C2  UNL     1     -32.184   7.272   2.958  1.00 20.00     0.013 A 
HETATM    5  C3  UNL     1     -32.600   8.711   3.007  1.00 20.00     0.013 A 
ENDBRANCH   1   3
BRANCH   1   6
HETATM    6  C6  UNL     1     -34.224   6.181   4.761  1.00 20.00     0.123 C 
HETATM    7  C5  UNL     1     -35.599   6.234   4.128  1.00 20.00     0.030 C 
HETATM    8 BR8  UNL     1     -34.335   5.305   6.497  1.00 20.00    -0.084 Br
ENDBRANCH   1   6
TORSDOF 2
ENDMDL
MODEL 7
REMARK VINA RESULT:      -3.8      2.251      3.509
REMARK  2 active torsions:
REMARK  status: ('A' for Active; 'I' for Inactive)
REMARK    1  A    between atoms: C1_1  and  C4_4 
REMARK    2  A    between atoms: C1_1  and  C6_6 
ROOT
HETATM    1  C1  UNL     1     -33.491   6.417   3.891  1.00 20.00     0.145 C 
HETATM    2  O7  UNL     1     -32.643   6.031   3.095  1.00 20.00    -0.296 OA
ENDROOT
BRANCH   1   3
HETATM    3  C4  UNL     1     -33.503   7.845   4.326  1.00 20.00     0.057 A 
HETATM    4  C2  UNL     1     -32.266   8.414   4.935  1.00 20.00     0.013 A 
HETATM    5  C3  UNL     1     -32.687   8.828   3.557  1.00 20.00     0.013 A 
ENDBRANCH   1   3
BRANCH   1   6
HETATM    6  C6  UNL     1     -34.571   5.532   4.469  1.00 20.00     0.123 C 
HETATM    7  C5  UNL     1     -35.965   6.021   4.132  1.00 20.00     0.030 C 
HETATM    8 BR8  UNL     1     -34.308   5.582   6.399  1.00 20.00    -0.084 Br
ENDBRANCH   1   6
TORSDOF 2
ENDMDL
MODEL 8
REMARK VINA RESULT:      -3.8      2.173      3.418
REMARK  2 active torsions:
REMARK  status: ('A' for Active; 'I' for Inactive)
REMARK    1  A    between atoms: C1_1  and  C4_4 
REMARK    2  A    between atoms: C1_1  and  C6_6 
ROOT
HETATM    1  C1  UNL     1     -33.162   6.483   3.644  1.00 20.00     0.145 C 
HETATM    2  O7  UNL     1     -33.195   5.424   3.030  1.00 20.00    -0.296 OA
ENDROOT
BRANCH   1   3
HETATM    3  C4  UNL     1     -32.177   7.535   3.255  1.00 20.00     0.057 A 
HETATM    4  C2  UNL     1     -32.088   7.930   1.819  1.00 20.00     0.013 A 
HETATM    5  C3  UNL     1     -32.693   8.866   2.821  1.00 20.00     0.013 A 
ENDBRANCH   1   3
BRANCH   1   6
HETATM    6  C6  UNL     1     -34.087   6.824   4.790  1.00 20.00     0.123 C 
HETATM    7  C5  UNL     1     -33.374   7.544   5.916  1.00 20.00     0.030 C 
HETATM    8 BR8  UNL     1     -34.771   5.117   5.434  1.00 20.00    -0.084 Br
ENDBRANCH   1   6
TORSDOF 2
ENDMDL
MODEL 9
REMARK VINA RESULT:      -3.7      9.492      9.874
REMARK  2 active torsions:
REMARK  status: ('A' for Active; 'I' for Inactive)
REMARK    1  A    between atoms: C1_1  and  C4_4 
REMARK    2  A    between atoms: C1_1  and  C6_6 
ROOT
HETATM    1  C1  UNL     1     -40.960  12.454   6.230  1.00 20.00     0.145 C 
HETATM    2  O7  UNL     1     -41.944  11.975   6.780  1.00 20.00    -0.296 OA
ENDROOT
BRANCH   1   3
HETATM    3  C4  UNL     1     -39.862  11.556   5.763  1.00 20.00     0.057 A 
HETATM    4  C2  UNL     1     -39.310  11.761   4.392  1.00 20.00     0.013 A 
HETATM    5  C3  UNL     1     -38.497  12.132   5.595  1.00 20.00     0.013 A 
ENDBRANCH   1   3
BRANCH   1   6
HETATM    6  C6  UNL     1     -40.776  13.930   5.963  1.00 20.00     0.123 C 
HETATM    7  C5  UNL     1     -40.732  14.749   7.237  1.00 20.00     0.030 C 
HETATM    8 BR8  UNL     1     -42.315  14.463   4.894  1.00 20.00    -0.084 Br
ENDBRANCH   1   6
TORSDOF 2
ENDMDL
