MODEL 1
REMARK VINA RESULT:      -4.5      0.000      0.000
REMARK  2 active torsions:
REMARK  status: ('A' for Active; 'I' for Inactive)
REMARK    1  A    between atoms: C6_6  and  C9_9 
REMARK    2  A    between atoms: C9_9  and  N10_10 
ROOT
HETATM    1  C1  UNL     1     -34.193   4.892   4.498  1.00 20.00     0.006 C 
HETATM    2  C2  UNL     1     -33.600   4.887   3.296  1.00 20.00     0.004 C 
HETATM    3  C3  UNL     1     -34.279   6.109   5.286  1.00 20.00    -0.040 C 
HETATM    4  C4  UNL     1     -34.739   6.104   6.545  1.00 20.00     0.020 C 
HETATM    5  C7  UNL     1     -32.942   6.113   2.719  1.00 20.00     0.300 C 
HETATM    6  C8  UNL     1     -33.822   7.378   4.594  1.00 20.00     0.310 C 
HETATM    7  N10 UNL     1     -32.648   7.137   3.739  1.00 20.00     0.099 N 
ENDROOT
BRANCH   7   8
HETATM    8  C9  UNL     1     -32.188   8.375   3.112  1.00 20.00     0.299 C 
BRANCH   8   9
HETATM    9  C6  UNL     1     -32.237   8.210   1.629  1.00 20.00    -0.007 C 
HETATM   10  C5  UNL     1     -32.632   9.168   0.784  1.00 20.00     0.008 C 
ENDBRANCH   8   9
ENDBRANCH   7   8
TORSDOF 2
ENDMDL
MODEL 2
REMARK VINA RESULT:      -4.3      1.075      2.087
REMARK  2 active torsions:
REMARK  status: ('A' for Active; 'I' for Inactive)
REMARK    1  A    between atoms: C6_6  and  C9_9 
REMARK    2  A    between atoms: C9_9  and  N10_10 
ROOT
HETATM    1  C1  UNL     1     -34.035   7.045   6.068  1.00 20.00     0.006 C 
HETATM    2  C2  UNL     1     -33.286   8.154   5.973  1.00 20.00     0.004 C 
HETATM    3  C3  UNL     1     -34.120   6.103   4.966  1.00 20.00    -0.040 C 
HETATM    4  C4  UNL     1     -34.970   5.066   4.987  1.00 20.00     0.020 C 
HETATM    5  C7  UNL     1     -32.542   8.516   4.714  1.00 20.00     0.300 C 
HETATM    6  C8  UNL     1     -33.186   6.362   3.801  1.00 20.00     0.310 C 
HETATM    7  N10 UNL     1     -33.047   7.802   3.527  1.00 20.00     0.099 N 
ENDROOT
BRANCH   7   8
HETATM    8  C9  UNL     1     -32.181   8.039   2.373  1.00 20.00     0.299 C 
BRANCH   8   9
HETATM    9  C6  UNL     1     -32.703   9.215   1.614  1.00 20.00    -0.007 C 
HETATM   10  C5  UNL     1     -32.747   9.280   0.279  1.00 20.00     0.008 C 
ENDBRANCH   8   9
ENDBRANCH   7   8
TORSDOF 2
ENDMDL
MODEL 3
REMARK VINA RESULT:      -4.0      1.305      4.194
REMARK  2 active torsions:
REMARK  status: ('A' for Active; 'I' for Inactive)
REMARK    1  A    between atoms: C6_6  and  C9_9 
REMARK    2  A    between atoms: C9_9  and  N10_10 
ROOT
HETATM    1  C1  UNL     1     -32.187   7.334   2.468  1.00 20.00     0.006 C 
HETATM    2  C2  UNL     1     -32.147   8.453   3.206  1.00 20.00     0.004 C 
HETATM    3  C3  UNL     1     -32.920   6.165   2.921  1.00 20.00    -0.040 C 
HETATM    4  C4  UNL     1     -32.855   4.994   2.269  1.00 20.00     0.020 C 
HETATM    5  C7  UNL     1     -32.804   8.548   4.558  1.00 20.00     0.300 C 
HETATM    6  C8  UNL     1     -33.763   6.354   4.166  1.00 20.00     0.310 C 
HETATM    7  N10 UNL     1     -33.096   7.227   5.146  1.00 20.00     0.099 N 
ENDROOT
BRANCH   7   8
HETATM    8  C9  UNL     1     -33.896   7.366   6.361  1.00 20.00     0.299 C 
BRANCH   8   9
HETATM    9  C6  UNL     1     -34.851   6.221   6.441  1.00 20.00    -0.007 C 
HETATM   10  C5  UNL     1     -34.477   4.949   6.620  1.00 20.00     0.008 C 
ENDBRANCH   8   9
ENDBRANCH   7   8
TORSDOF 2
ENDMDL
MODEL 4
REMARK VINA RESULT:      -3.9     11.650     12.341
REMARK  2 active torsions:
REMARK  status: ('A' for Active; 'I' for Inactive)
REMARK    1  A    between atoms: C6_6  and  C9_9 
REMARK    2  A    between atoms: C9_9  and  N10_10 
ROOT
HETATM    1  C1  UNL     1     -33.016  18.965   1.375  1.00 20.00     0.006 C 
HETATM    2  C2  UNL     1     -34.161  18.911   0.679  1.00 20.00     0.004 C 
HETATM    3  C3  UNL     1     -31.741  18.671   0.744  1.00 20.00    -0.040 C 
HETATM    4  C4  UNL     1     -30.607  18.581   1.453  1.00 20.00     0.020 C 
HETATM    5  C7  UNL     1     -34.202  18.492  -0.768  1.00 20.00     0.300 C 
HETATM    6  C8  UNL     1     -31.776  18.481  -0.759  1.00 20.00     0.310 C 
HETATM    7  N10 UNL     1     -32.990  17.766  -1.188  1.00 20.00     0.099 N 
ENDROOT
BRANCH   7   8
HETATM    8  C9  UNL     1     -32.991  17.547  -2.633  1.00 20.00     0.299 C 
BRANCH   8   9
HETATM    9  C6  UNL     1     -33.556  16.193  -2.913  1.00 20.00    -0.007 C 
HETATM   10  C5  UNL     1     -33.188  15.431  -3.949  1.00 20.00     0.008 C 
ENDBRANCH   8   9
ENDBRANCH   7   8
TORSDOF 2
ENDMDL
MODEL 5
REMARK VINA RESULT:      -3.8      1.042      1.566
REMARK  2 active torsions:
REMARK  status: ('A' for Active; 'I' for Inactive)
REMARK    1  A    between atoms: C6_6  and  C9_9 
REMARK    2  A    between atoms: C9_9  and  N10_10 
ROOT
HETATM    1  C1  UNL     1     -34.403   4.574   4.819  1.00 20.00     0.006 C 
HETATM    2  C2  UNL     1     -33.826   4.377   3.625  1.00 20.00     0.004 C 
HETATM    3  C3  UNL     1     -34.431   5.892   5.429  1.00 20.00    -0.040 C 
HETATM    4  C4  UNL     1     -34.876   6.082   6.680  1.00 20.00     0.020 C 
HETATM    5  C7  UNL     1     -33.129   5.483   2.877  1.00 20.00     0.300 C 
HETATM    6  C8  UNL     1     -33.935   7.032   4.563  1.00 20.00     0.310 C 
HETATM    7  N10 UNL     1     -32.782   6.627   3.741  1.00 20.00     0.099 N 
ENDROOT
BRANCH   7   8
HETATM    8  C9  UNL     1     -32.282   7.745   2.944  1.00 20.00     0.299 C 
BRANCH   8   9
HETATM    9  C6  UNL     1     -32.516   9.014   3.697  1.00 20.00    -0.007 C 
HETATM   10  C5  UNL     1     -32.014   9.265   4.911  1.00 20.00     0.008 C 
ENDBRANCH   8   9
ENDBRANCH   7   8
TORSDOF 2
ENDMDL
MODEL 6
REMARK VINA RESULT:      -3.7      1.385      2.633
REMARK  2 active torsions:
REMARK  status: ('A' for Active; 'I' for Inactive)
REMARK    1  A    between atoms: C6_6  and  C9_9 
REMARK    2  A    between atoms: C9_9  and  N10_10 
ROOT
HETATM    1  C1  UNL     1     -34.424   4.656   4.814  1.00 20.00     0.006 C 
HETATM    2  C2  UNL     1     -34.692   5.284   5.969  1.00 20.00     0.004 C 
HETATM    3  C3  UNL     1     -33.645   5.304   3.773  1.00 20.00    -0.040 C 
HETATM    4  C4  UNL     1     -33.488   4.751   2.562  1.00 20.00     0.020 C 
HETATM    5  C7  UNL     1     -34.257   6.702   6.232  1.00 20.00     0.300 C 
HETATM    6  C8  UNL     1     -33.021   6.633   4.145  1.00 20.00     0.310 C 
HETATM    7  N10 UNL     1     -33.915   7.434   4.999  1.00 20.00     0.099 N 
ENDROOT
BRANCH   7   8
HETATM    8  C9  UNL     1     -33.324   8.732   5.314  1.00 20.00     0.299 C 
BRANCH   8   9
HETATM    9  C6  UNL     1     -32.322   9.073   4.259  1.00 20.00    -0.007 C 
HETATM   10  C5  UNL     1     -32.644   9.406   3.005  1.00 20.00     0.008 C 
ENDBRANCH   8   9
ENDBRANCH   7   8
TORSDOF 2
ENDMDL
MODEL 7
REMARK VINA RESULT:      -3.7     11.630     12.815
REMARK  2 active torsions:
REMARK  status: ('A' for Active; 'I' for Inactive)
REMARK    1  A    between atoms: C6_6  and  C9_9 
REMARK    2  A    between atoms: C9_9  and  N10_10 
ROOT
HETATM    1  C1  UNL     1     -34.552  16.845  -4.549  1.00 20.00     0.006 C 
HETATM    2  C2  UNL     1     -35.037  18.030  -4.149  1.00 20.00     0.004 C 
HETATM    3  C3  UNL     1     -33.619  16.100  -3.722  1.00 20.00    -0.040 C 
HETATM    4  C4  UNL     1     -33.016  14.987  -4.164  1.00 20.00     0.020 C 
HETATM    5  C7  UNL     1     -34.606  18.681  -2.860  1.00 20.00     0.300 C 
HETATM    6  C8  UNL     1     -33.379  16.655  -2.332  1.00 20.00     0.310 C 
HETATM    7  N10 UNL     1     -33.345  18.127  -2.334  1.00 20.00     0.099 N 
ENDROOT
BRANCH   7   8
HETATM    8  C9  UNL     1     -33.067  18.651  -0.999  1.00 20.00     0.299 C 
BRANCH   8   9
HETATM    9  C6  UNL     1     -31.606  18.508  -0.720  1.00 20.00    -0.007 C 
HETATM   10  C5  UNL     1     -31.078  18.499   0.508  1.00 20.00     0.008 C 
ENDBRANCH   8   9
ENDBRANCH   7   8
TORSDOF 2
ENDMDL
MODEL 8
REMARK VINA RESULT:      -3.7      1.424      4.036
REMARK  2 active torsions:
REMARK  status: ('A' for Active; 'I' for Inactive)
REMARK    1  A    between atoms: C6_6  and  C9_9 
REMARK    2  A    between atoms: C9_9  and  N10_10 
ROOT
HETATM    1  C1  UNL     1     -31.895   7.640   3.128  1.00 20.00     0.006 C 
HETATM    2  C2  UNL     1     -32.318   6.475   2.616  1.00 20.00     0.004 C 
HETATM    3  C3  UNL     1     -32.500   8.194   4.327  1.00 20.00    -0.040 C 
HETATM    4  C4  UNL     1     -32.190   9.420   4.772  1.00 20.00     0.020 C 
HETATM    5  C7  UNL     1     -33.469   5.706   3.211  1.00 20.00     0.300 C 
HETATM    6  C8  UNL     1     -33.492   7.299   5.041  1.00 20.00     0.310 C 
HETATM    7  N10 UNL     1     -34.316   6.534   4.089  1.00 20.00     0.099 N 
ENDROOT
BRANCH   7   8
HETATM    8  C9  UNL     1     -35.300   5.708   4.786  1.00 20.00     0.299 C 
BRANCH   8   9
HETATM    9  C6  UNL     1     -34.937   5.646   6.234  1.00 20.00    -0.007 C 
HETATM   10  C5  UNL     1     -33.965   4.872   6.727  1.00 20.00     0.008 C 
ENDBRANCH   8   9
ENDBRANCH   7   8
TORSDOF 2
ENDMDL
MODEL 9
REMARK VINA RESULT:      -3.6     12.119     12.687
REMARK  2 active torsions:
REMARK  status: ('A' for Active; 'I' for Inactive)
REMARK    1  A    between atoms: C6_6  and  C9_9 
REMARK    2  A    between atoms: C9_9  and  N10_10 
ROOT
HETATM    1  C1  UNL     1     -30.668  19.143   4.097  1.00 20.00     0.006 C 
HETATM    2  C2  UNL     1     -31.927  19.263   3.651  1.00 20.00     0.004 C 
HETATM    3  C3  UNL     1     -29.553  19.037   3.172  1.00 20.00    -0.040 C 
HETATM    4  C4  UNL     1     -28.308  18.774   3.594  1.00 20.00     0.020 C 
HETATM    5  C7  UNL     1     -32.266  19.238   2.183  1.00 20.00     0.300 C 
HETATM    6  C8  UNL     1     -29.886  19.248   1.708  1.00 20.00     0.310 C 
HETATM    7  N10 UNL     1     -31.190  18.659   1.358  1.00 20.00     0.099 N 
ENDROOT
BRANCH   7   8
HETATM    8  C9  UNL     1     -31.481  18.827  -0.064  1.00 20.00     0.299 C 
BRANCH   8   9
HETATM    9  C6  UNL     1     -32.827  18.246  -0.352  1.00 20.00    -0.007 C 
HETATM   10  C5  UNL     1     -33.139  17.613  -1.488  1.00 20.00     0.008 C 
ENDBRANCH   8   9
ENDBRANCH   7   8
TORSDOF 2
ENDMDL
