MODEL 1
REMARK VINA RESULT:      -3.7      0.000      0.000
REMARK  1 active torsions:
REMARK  status: ('A' for Active; 'I' for Inactive)
REMARK    1  A    between atoms: C1_1  and  C4_4 
ROOT
HETATM    1  C2  UNL     1     -34.359   8.351   4.717  1.00 20.00     0.037 C 
HETATM    2  C3  UNL     1     -33.077   7.093   5.880  1.00 20.00     0.037 C 
HETATM    3  C4  UNL     1     -34.580   7.046   5.518  1.00 20.00     0.058 C 
HETATM    4  C5  UNL     1     -32.842   8.023   4.659  1.00 20.00     0.035 C 
HETATM    5  C7  UNL     1     -31.951   9.223   4.976  1.00 20.00     0.032 C 
HETATM    6 CL9  UNL     1     -32.284   7.203   3.155  1.00 20.00    -0.120 Cl
ENDROOT
BRANCH   3   7
HETATM    7  C1  UNL     1     -35.094   5.818   4.754  1.00 20.00     0.127 C 
HETATM    8  C6  UNL     1     -34.247   4.577   4.820  1.00 20.00     0.091 C 
HETATM    9  O8  UNL     1     -36.148   5.847   4.121  1.00 20.00    -0.298 OA
ENDBRANCH   3   7
TORSDOF 1
ENDMDL
MODEL 2
REMARK VINA RESULT:      -3.6      9.041      9.987
REMARK  1 active torsions:
REMARK  status: ('A' for Active; 'I' for Inactive)
REMARK    1  A    between atoms: C1_1  and  C4_4 
ROOT
HETATM    1  C2  UNL     1     -41.535  13.903   5.255  1.00 20.00     0.037 C 
HETATM    2  C3  UNL     1     -41.933  12.960   7.133  1.00 20.00     0.037 C 
HETATM    3  C4  UNL     1     -41.212  12.509   5.842  1.00 20.00     0.058 C 
HETATM    4  C5  UNL     1     -41.722  14.437   6.702  1.00 20.00     0.035 C 
HETATM    5  C7  UNL     1     -42.970  15.300   6.872  1.00 20.00     0.032 C 
HETATM    6 CL9  UNL     1     -40.285  15.254   7.417  1.00 20.00    -0.120 Cl
ENDROOT
BRANCH   3   7
HETATM    7  C1  UNL     1     -39.735  12.105   5.951  1.00 20.00     0.127 C 
HETATM    8  C6  UNL     1     -39.006  11.849   4.660  1.00 20.00     0.091 C 
HETATM    9  O8  UNL     1     -39.175  11.998   7.040  1.00 20.00    -0.298 OA
ENDBRANCH   3   7
TORSDOF 1
ENDMDL
MODEL 3
REMARK VINA RESULT:      -3.6     16.054     16.519
REMARK  1 active torsions:
REMARK  status: ('A' for Active; 'I' for Inactive)
REMARK    1  A    between atoms: C1_1  and  C4_4 
ROOT
HETATM    1  C2  UNL     1     -22.581  18.555  11.169  1.00 20.00     0.037 C 
HETATM    2  C3  UNL     1     -24.221  18.951   9.854  1.00 20.00     0.037 C 
HETATM    3  C4  UNL     1     -22.690  18.860   9.657  1.00 20.00     0.058 C 
HETATM    4  C5  UNL     1     -24.073  18.123  11.161  1.00 20.00     0.035 C 
HETATM    5  C7  UNL     1     -24.874  18.692  12.330  1.00 20.00     0.032 C 
HETATM    6 CL9  UNL     1     -24.367  16.354  10.995  1.00 20.00    -0.120 Cl
ENDROOT
BRANCH   3   7
HETATM    7  C1  UNL     1     -22.157  17.806   8.676  1.00 20.00     0.127 C 
HETATM    8  C6  UNL     1     -21.625  18.312   7.363  1.00 20.00     0.091 C 
HETATM    9  O8  UNL     1     -22.164  16.608   8.950  1.00 20.00    -0.298 OA
ENDBRANCH   3   7
TORSDOF 1
ENDMDL
MODEL 4
REMARK VINA RESULT:      -3.6      1.486      1.521
REMARK  1 active torsions:
REMARK  status: ('A' for Active; 'I' for Inactive)
REMARK    1  A    between atoms: C1_1  and  C4_4 
ROOT
HETATM    1  C2  UNL     1     -34.468   7.999   4.372  1.00 20.00     0.037 C 
HETATM    2  C3  UNL     1     -32.670   7.806   5.515  1.00 20.00     0.037 C 
HETATM    3  C4  UNL     1     -34.129   7.341   5.730  1.00 20.00     0.058 C 
HETATM    4  C5  UNL     1     -32.962   7.926   3.995  1.00 20.00     0.035 C 
HETATM    5  C7  UNL     1     -32.430   9.218   3.377  1.00 20.00     0.032 C 
HETATM    6 CL9  UNL     1     -32.481   6.504   2.998  1.00 20.00    -0.120 Cl
ENDROOT
BRANCH   3   7
HETATM    7  C1  UNL     1     -34.386   5.836   5.878  1.00 20.00     0.127 C 
HETATM    8  C6  UNL     1     -35.187   5.175   4.790  1.00 20.00     0.091 C 
HETATM    9  O8  UNL     1     -33.956   5.200   6.839  1.00 20.00    -0.298 OA
ENDBRANCH   3   7
TORSDOF 1
ENDMDL
MODEL 5
REMARK VINA RESULT:      -3.5      9.051     10.072
REMARK  1 active torsions:
REMARK  status: ('A' for Active; 'I' for Inactive)
REMARK    1  A    between atoms: C1_1  and  C4_4 
ROOT
HETATM    1  C2  UNL     1     -40.943  14.105   7.344  1.00 20.00     0.037 C 
HETATM    2  C3  UNL     1     -41.601  13.841   5.325  1.00 20.00     0.037 C 
HETATM    3  C4  UNL     1     -40.231  13.707   6.030  1.00 20.00     0.058 C 
HETATM    4  C5  UNL     1     -42.295  13.680   6.705  1.00 20.00     0.035 C 
HETATM    5  C7  UNL     1     -43.417  14.690   6.938  1.00 20.00     0.032 C 
HETATM    6 CL9  UNL     1     -42.850  12.014   7.104  1.00 20.00    -0.120 Cl
ENDROOT
BRANCH   3   7
HETATM    7  C1  UNL     1     -39.533  12.341   5.982  1.00 20.00     0.127 C 
HETATM    8  C6  UNL     1     -39.391  11.700   4.628  1.00 20.00     0.091 C 
HETATM    9  O8  UNL     1     -39.109  11.797   7.000  1.00 20.00    -0.298 OA
ENDBRANCH   3   7
TORSDOF 1
ENDMDL
MODEL 6
REMARK VINA RESULT:      -3.4      9.024     10.341
REMARK  1 active torsions:
REMARK  status: ('A' for Active; 'I' for Inactive)
REMARK    1  A    between atoms: C1_1  and  C4_4 
ROOT
HETATM    1  C2  UNL     1     -43.329   5.551  -0.498  1.00 20.00     0.037 C 
HETATM    2  C3  UNL     1     -41.411   5.361   0.430  1.00 20.00     0.037 C 
HETATM    3  C4  UNL     1     -41.973   6.270  -0.688  1.00 20.00     0.058 C 
HETATM    4  C5  UNL     1     -42.864   5.110   0.918  1.00 20.00     0.035 C 
HETATM    5  C7  UNL     1     -43.155   3.641   1.220  1.00 20.00     0.032 C 
HETATM    6 CL9  UNL     1     -43.417   6.156   2.276  1.00 20.00    -0.120 Cl
ENDROOT
BRANCH   3   7
HETATM    7  C1  UNL     1     -41.932   7.788  -0.463  1.00 20.00     0.127 C 
HETATM    8  C6  UNL     1     -40.737   8.332   0.272  1.00 20.00     0.091 C 
HETATM    9  O8  UNL     1     -42.831   8.524  -0.866  1.00 20.00    -0.298 OA
ENDBRANCH   3   7
TORSDOF 1
ENDMDL
MODEL 7
REMARK VINA RESULT:      -3.3     12.739     13.463
REMARK  1 active torsions:
REMARK  status: ('A' for Active; 'I' for Inactive)
REMARK    1  A    between atoms: C1_1  and  C4_4 
ROOT
HETATM    1  C2  UNL     1     -33.286  16.923  -2.289  1.00 20.00     0.037 C 
HETATM    2  C3  UNL     1     -34.600  18.534  -1.783  1.00 20.00     0.037 C 
HETATM    3  C4  UNL     1     -33.540  17.730  -0.994  1.00 20.00     0.058 C 
HETATM    4  C5  UNL     1     -33.915  18.087  -3.103  1.00 20.00     0.035 C 
HETATM    5  C7  UNL     1     -34.903  17.616  -4.168  1.00 20.00     0.032 C 
HETATM    6 CL9  UNL     1     -32.744  19.263  -3.805  1.00 20.00    -0.120 Cl
ENDROOT
BRANCH   3   7
HETATM    7  C1  UNL     1     -32.359  18.504  -0.392  1.00 20.00     0.127 C 
HETATM    8  C6  UNL     1     -32.624  19.261   0.880  1.00 20.00     0.091 C 
HETATM    9  O8  UNL     1     -31.250  18.503  -0.923  1.00 20.00    -0.298 OA
ENDBRANCH   3   7
TORSDOF 1
ENDMDL
MODEL 8
REMARK VINA RESULT:      -3.3     13.159     14.059
REMARK  1 active torsions:
REMARK  status: ('A' for Active; 'I' for Inactive)
REMARK    1  A    between atoms: C1_1  and  C4_4 
ROOT
HETATM    1  C2  UNL     1     -33.946  15.141  -6.338  1.00 20.00     0.037 C 
HETATM    2  C3  UNL     1     -35.253  16.475  -5.295  1.00 20.00     0.037 C 
HETATM    3  C4  UNL     1     -35.037  16.140  -6.789  1.00 20.00     0.058 C 
HETATM    4  C5  UNL     1     -34.591  15.120  -4.925  1.00 20.00     0.035 C 
HETATM    5  C7  UNL     1     -33.572  15.234  -3.793  1.00 20.00     0.032 C 
HETATM    6 CL9  UNL     1     -35.731  13.760  -4.613  1.00 20.00    -0.120 Cl
ENDROOT
BRANCH   3   7
HETATM    7  C1  UNL     1     -36.232  15.586  -7.577  1.00 20.00     0.127 C 
HETATM    8  C6  UNL     1     -37.328  16.558  -7.918  1.00 20.00     0.091 C 
HETATM    9  O8  UNL     1     -36.289  14.405  -7.916  1.00 20.00    -0.298 OA
ENDBRANCH   3   7
TORSDOF 1
ENDMDL
MODEL 9
REMARK VINA RESULT:      -3.2     12.329     13.088
REMARK  1 active torsions:
REMARK  status: ('A' for Active; 'I' for Inactive)
REMARK    1  A    between atoms: C1_1  and  C4_4 
ROOT
HETATM    1  C2  UNL     1     -33.603  16.821  -1.869  1.00 20.00     0.037 C 
HETATM    2  C3  UNL     1     -33.028  18.261  -3.344  1.00 20.00     0.037 C 
HETATM    3  C4  UNL     1     -33.086  16.715  -3.323  1.00 20.00     0.058 C 
HETATM    4  C5  UNL     1     -34.033  18.286  -2.160  1.00 20.00     0.035 C 
HETATM    5  C7  UNL     1     -33.639  19.263  -1.054  1.00 20.00     0.032 C 
HETATM    6 CL9  UNL     1     -35.761  18.510  -2.615  1.00 20.00    -0.120 Cl
ENDROOT
BRANCH   3   7
HETATM    7  C1  UNL     1     -33.987  16.019  -4.352  1.00 20.00     0.127 C 
HETATM    8  C6  UNL     1     -34.129  14.527  -4.228  1.00 20.00     0.091 C 
HETATM    9  O8  UNL     1     -34.566  16.651  -5.233  1.00 20.00    -0.298 OA
ENDBRANCH   3   7
TORSDOF 1
ENDMDL
