MODEL 1
REMARK VINA RESULT:      -4.4      0.000      0.000
REMARK  1 active torsions:
REMARK  status: ('A' for Active; 'I' for Inactive)
REMARK    1  A    between atoms: C1_1  and  C9_9 
ROOT
HETATM    1  C2  UNL     1     -33.791   5.667   6.583  1.00 20.00     0.002 C 
HETATM    2  C3  UNL     1     -35.136   5.373   5.910  1.00 20.00     0.005 C 
HETATM    3  C4  UNL     1     -34.023   5.150   3.628  1.00 20.00     0.006 C 
HETATM    4  C5  UNL     1     -33.186   7.007   6.147  1.00 20.00     0.018 C 
HETATM    5  C6  UNL     1     -32.837   6.116   3.783  1.00 20.00     0.019 C 
HETATM    6  C7  UNL     1     -34.862   7.272   4.310  1.00 20.00     0.023 C 
HETATM    7  C8  UNL     1     -35.172   5.782   4.426  1.00 20.00    -0.013 C 
HETATM    8  C9  UNL     1     -33.369   7.276   4.642  1.00 20.00     0.036 C 
ENDROOT
BRANCH   8   9
HETATM    9  C1  UNL     1     -32.729   8.579   4.272  1.00 20.00     0.227 C 
HETATM   10  O10 UNL     1     -32.280   9.342   5.122  1.00 20.00    -0.279 OA
HETATM   11 CL11 UNL     1     -32.720   8.838   2.553  1.00 20.00    -0.043 Cl
ENDBRANCH   8   9
TORSDOF 1
ENDMDL
MODEL 2
REMARK VINA RESULT:      -4.2      9.448     10.509
REMARK  1 active torsions:
REMARK  status: ('A' for Active; 'I' for Inactive)
REMARK    1  A    between atoms: C1_1  and  C9_9 
ROOT
HETATM    1  C2  UNL     1     -41.584  15.475   7.263  1.00 20.00     0.002 C 
HETATM    2  C3  UNL     1     -42.463  15.666   6.021  1.00 20.00     0.005 C 
HETATM    3  C4  UNL     1     -43.334  13.276   6.187  1.00 20.00     0.006 C 
HETATM    4  C5  UNL     1     -40.446  14.472   7.040  1.00 20.00     0.018 C 
HETATM    5  C6  UNL     1     -42.127  12.566   6.823  1.00 20.00     0.019 C 
HETATM    6  C7  UNL     1     -41.409  13.723   4.857  1.00 20.00     0.023 C 
HETATM    7  C8  UNL     1     -42.738  14.351   5.268  1.00 20.00    -0.013 C 
HETATM    8  C9  UNL     1     -40.889  13.250   6.216  1.00 20.00     0.036 C 
ENDROOT
BRANCH   8   9
HETATM    9  C1  UNL     1     -39.747  12.293   6.062  1.00 20.00     0.227 C 
HETATM   10  O10 UNL     1     -39.100  11.900   7.029  1.00 20.00    -0.279 OA
HETATM   11 CL11 UNL     1     -39.487  11.846   4.403  1.00 20.00    -0.043 Cl
ENDBRANCH   8   9
TORSDOF 1
ENDMDL
MODEL 3
REMARK VINA RESULT:      -4.1     12.248     13.497
REMARK  1 active torsions:
REMARK  status: ('A' for Active; 'I' for Inactive)
REMARK    1  A    between atoms: C1_1  and  C9_9 
ROOT
HETATM    1  C2  UNL     1     -35.563  18.875  -2.244  1.00 20.00     0.002 C 
HETATM    2  C3  UNL     1     -35.051  19.018  -3.681  1.00 20.00     0.005 C 
HETATM    3  C4  UNL     1     -33.661  16.891  -3.469  1.00 20.00     0.006 C 
HETATM    4  C5  UNL     1     -34.459  19.057  -1.196  1.00 20.00     0.018 C 
HETATM    5  C6  UNL     1     -33.329  16.905  -1.969  1.00 20.00     0.019 C 
HETATM    6  C7  UNL     1     -32.665  18.988  -2.938  1.00 20.00     0.023 C 
HETATM    7  C8  UNL     1     -33.674  18.365  -3.899  1.00 20.00    -0.013 C 
HETATM    8  C9  UNL     1     -33.135  18.389  -1.610  1.00 20.00     0.036 C 
ENDROOT
BRANCH   8   9
HETATM    9  C1  UNL     1     -32.109  18.571  -0.535  1.00 20.00     0.227 C 
HETATM   10  O10 UNL     1     -30.922  18.741  -0.798  1.00 20.00    -0.279 OA
HETATM   11 CL11 UNL     1     -32.808  18.506   1.055  1.00 20.00    -0.043 Cl
ENDBRANCH   8   9
TORSDOF 1
ENDMDL
MODEL 4
REMARK VINA RESULT:      -4.0      9.395     10.451
REMARK  1 active torsions:
REMARK  status: ('A' for Active; 'I' for Inactive)
REMARK    1  A    between atoms: C1_1  and  C9_9 
ROOT
HETATM    1  C2  UNL     1     -43.417  12.966   6.929  1.00 20.00     0.002 C 
HETATM    2  C3  UNL     1     -43.218  14.425   7.357  1.00 20.00     0.005 C 
HETATM    3  C4  UNL     1     -42.117  14.999   5.130  1.00 20.00     0.006 C 
HETATM    4  C5  UNL     1     -42.095  12.205   6.771  1.00 20.00     0.018 C 
HETATM    5  C6  UNL     1     -41.464  13.655   4.769  1.00 20.00     0.019 C 
HETATM    6  C7  UNL     1     -40.754  14.308   6.957  1.00 20.00     0.023 C 
HETATM    7  C8  UNL     1     -42.024  15.101   6.659  1.00 20.00    -0.013 C 
HETATM    8  C9  UNL     1     -40.998  13.058   6.109  1.00 20.00     0.036 C 
ENDROOT
BRANCH   8   9
HETATM    9  C1  UNL     1     -39.746  12.252   5.951  1.00 20.00     0.227 C 
HETATM   10  O10 UNL     1     -39.059  11.930   6.917  1.00 20.00    -0.279 OA
HETATM   11 CL11 UNL     1     -39.424  11.861   4.288  1.00 20.00    -0.043 Cl
ENDBRANCH   8   9
TORSDOF 1
ENDMDL
MODEL 5
REMARK VINA RESULT:      -3.8     15.026     16.258
REMARK  1 active torsions:
REMARK  status: ('A' for Active; 'I' for Inactive)
REMARK    1  A    between atoms: C1_1  and  C9_9 
ROOT
HETATM    1  C2  UNL     1     -24.284  16.163  10.957  1.00 20.00     0.002 C 
HETATM    2  C3  UNL     1     -24.094  16.818  12.330  1.00 20.00     0.005 C 
HETATM    3  C4  UNL     1     -25.259  18.948  11.550  1.00 20.00     0.006 C 
HETATM    4  C5  UNL     1     -23.470  16.847   9.852  1.00 20.00     0.018 C 
HETATM    5  C6  UNL     1     -24.902  18.948  10.055  1.00 20.00     0.019 C 
HETATM    6  C7  UNL     1     -22.893  18.772  11.340  1.00 20.00     0.023 C 
HETATM    7  C8  UNL     1     -24.035  18.355  12.262  1.00 20.00    -0.013 C 
HETATM    8  C9  UNL     1     -23.473  18.381   9.979  1.00 20.00     0.036 C 
ENDROOT
BRANCH   8   9
HETATM    9  C1  UNL     1     -22.693  18.991   8.856  1.00 20.00     0.227 C 
HETATM   10  O10 UNL     1     -21.498  19.252   8.967  1.00 20.00    -0.279 OA
HETATM   11 CL11 UNL     1     -23.676  19.263   7.448  1.00 20.00    -0.043 Cl
ENDBRANCH   8   9
TORSDOF 1
ENDMDL
MODEL 6
REMARK VINA RESULT:      -3.8     12.451     13.922
REMARK  1 active torsions:
REMARK  status: ('A' for Active; 'I' for Inactive)
REMARK    1  A    between atoms: C1_1  and  C9_9 
ROOT
HETATM    1  C2  UNL     1     -34.656  15.858  -7.865  1.00 20.00     0.002 C 
HETATM    2  C3  UNL     1     -36.173  15.670  -7.740  1.00 20.00     0.005 C 
HETATM    3  C4  UNL     1     -36.275  17.259  -5.749  1.00 20.00     0.006 C 
HETATM    4  C5  UNL     1     -33.884  15.277  -6.674  1.00 20.00     0.018 C 
HETATM    5  C6  UNL     1     -34.887  17.039  -5.126  1.00 20.00     0.019 C 
HETATM    6  C7  UNL     1     -35.984  14.927  -5.362  1.00 20.00     0.023 C 
HETATM    7  C8  UNL     1     -36.693  15.892  -6.308  1.00 20.00    -0.013 C 
HETATM    8  C9  UNL     1     -34.584  15.544  -5.329  1.00 20.00     0.036 C 
ENDROOT
BRANCH   8   9
HETATM    9  C1  UNL     1     -33.767  14.985  -4.205  1.00 20.00     0.227 C 
HETATM   10  O10 UNL     1     -33.402  13.813  -4.192  1.00 20.00    -0.279 OA
HETATM   11 CL11 UNL     1     -33.430  16.177  -2.986  1.00 20.00    -0.043 Cl
ENDBRANCH   8   9
TORSDOF 1
ENDMDL
MODEL 7
REMARK VINA RESULT:      -3.8     12.117     13.393
REMARK  1 active torsions:
REMARK  status: ('A' for Active; 'I' for Inactive)
REMARK    1  A    between atoms: C1_1  and  C9_9 
ROOT
HETATM    1  C2  UNL     1     -33.670  16.259  -3.900  1.00 20.00     0.002 C 
HETATM    2  C3  UNL     1     -34.869  17.073  -4.402  1.00 20.00     0.005 C 
HETATM    3  C4  UNL     1     -33.601  19.262  -4.088  1.00 20.00     0.006 C 
HETATM    4  C5  UNL     1     -33.368  16.497  -2.415  1.00 20.00     0.018 C 
HETATM    5  C6  UNL     1     -32.682  18.904  -2.909  1.00 20.00     0.019 C 
HETATM    6  C7  UNL     1     -34.948  18.433  -2.307  1.00 20.00     0.023 C 
HETATM    7  C8  UNL     1     -34.910  18.502  -3.832  1.00 20.00    -0.013 C 
HETATM    8  C9  UNL     1     -33.519  17.975  -2.011  1.00 20.00     0.036 C 
ENDROOT
BRANCH   8   9
HETATM    9  C1  UNL     1     -33.178  18.149  -0.563  1.00 20.00     0.227 C 
HETATM   10  O10 UNL     1     -34.033  18.073   0.315  1.00 20.00    -0.279 OA
HETATM   11 CL11 UNL     1     -31.485  18.458  -0.322  1.00 20.00    -0.043 Cl
ENDBRANCH   8   9
TORSDOF 1
ENDMDL
MODEL 8
REMARK VINA RESULT:      -3.8     12.657     14.167
REMARK  1 active torsions:
REMARK  status: ('A' for Active; 'I' for Inactive)
REMARK    1  A    between atoms: C1_1  and  C9_9 
ROOT
HETATM    1  C2  UNL     1     -34.946  17.918  -6.505  1.00 20.00     0.002 C 
HETATM    2  C3  UNL     1     -34.500  17.256  -7.814  1.00 20.00     0.005 C 
HETATM    3  C4  UNL     1     -35.992  15.235  -7.379  1.00 20.00     0.006 C 
HETATM    4  C5  UNL     1     -34.472  17.158  -5.261  1.00 20.00     0.018 C 
HETATM    5  C6  UNL     1     -35.993  15.194  -5.843  1.00 20.00     0.019 C 
HETATM    6  C7  UNL     1     -33.733  15.197  -6.625  1.00 20.00     0.023 C 
HETATM    7  C8  UNL     1     -34.590  15.720  -7.775  1.00 20.00    -0.013 C 
HETATM    8  C9  UNL     1     -34.577  15.630  -5.425  1.00 20.00     0.036 C 
ENDROOT
BRANCH   8   9
HETATM    9  C1  UNL     1     -34.134  14.946  -4.169  1.00 20.00     0.227 C 
HETATM   10  O10 UNL     1     -34.298  13.741  -3.998  1.00 20.00    -0.279 OA
HETATM   11 CL11 UNL     1     -33.395  16.050  -3.048  1.00 20.00    -0.043 Cl
ENDBRANCH   8   9
TORSDOF 1
ENDMDL
MODEL 9
REMARK VINA RESULT:      -3.7      2.512      3.885
REMARK  1 active torsions:
REMARK  status: ('A' for Active; 'I' for Inactive)
REMARK    1  A    between atoms: C1_1  and  C9_9 
ROOT
HETATM    1  C2  UNL     1     -31.942   6.920   2.803  1.00 20.00     0.002 C 
HETATM    2  C3  UNL     1     -32.274   8.408   2.642  1.00 20.00     0.005 C 
HETATM    3  C4  UNL     1     -32.450   8.712   5.167  1.00 20.00     0.006 C 
HETATM    4  C5  UNL     1     -33.114   6.104   3.362  1.00 20.00     0.018 C 
HETATM    5  C6  UNL     1     -32.931   7.317   5.598  1.00 20.00     0.019 C 
HETATM    6  C7  UNL     1     -34.407   8.171   3.921  1.00 20.00     0.023 C 
HETATM    7  C8  UNL     1     -33.111   8.969   3.805  1.00 20.00    -0.013 C 
HETATM    8  C9  UNL     1     -33.873   6.848   4.475  1.00 20.00     0.036 C 
ENDROOT
BRANCH   8   9
HETATM    9  C1  UNL     1     -34.981   5.990   5.003  1.00 20.00     0.227 C 
HETATM   10  O10 UNL     1     -36.004   5.784   4.355  1.00 20.00    -0.279 OA
HETATM   11 CL11 UNL     1     -34.626   5.362   6.585  1.00 20.00    -0.043 Cl
ENDBRANCH   8   9
TORSDOF 1
ENDMDL
