MODEL 1
REMARK VINA RESULT:      -4.8      0.000      0.000
REMARK  5 active torsions:
REMARK  status: ('A' for Active; 'I' for Inactive)
REMARK    1  A    between atoms: C1_1  and  C3_3 
REMARK    2  A    between atoms: C1_1  and  O11_11 
REMARK    3  A    between atoms: C4_4  and  C7_7 
REMARK    4  A    between atoms: C7_7  and  C8_8 
REMARK    5  A    between atoms: C9_9  and  O11_11 
ROOT
HETATM    1  C2  UNL     1     -32.562   8.749   4.898  1.00 20.00     0.020 A 
HETATM    2  C3  UNL     1     -33.260   7.824   3.937  1.00 20.00     0.090 A 
HETATM    3  C4  UNL     1     -33.013   7.391   5.369  1.00 20.00    -0.000 A 
ENDROOT
BRANCH   2   4
HETATM    4  C1  UNL     1     -32.490   7.193   2.860  1.00 20.00     0.263 C 
HETATM    5  O10 UNL     1     -32.502   5.994   2.620  1.00 20.00    -0.265 OA
BRANCH   4   6
HETATM    6  O11 UNL     1     -31.779   8.145   2.190  1.00 20.00    -0.322 OA
BRANCH   6   7
HETATM    7  C9  UNL     1     -32.126   8.314   0.811  1.00 20.00     0.174 C 
HETATM    8  C6  UNL     1     -32.882   9.615   0.649  1.00 20.00     0.034 C 
ENDBRANCH   6   7
ENDBRANCH   4   6
ENDBRANCH   2   4
BRANCH   3   9
HETATM    9  C7  UNL     1     -34.153   7.267   6.320  1.00 20.00     0.005 C 
BRANCH   9  10
HETATM   10  C8  UNL     1     -34.593   5.806   6.526  1.00 20.00    -0.004 C 
HETATM   11  C5  UNL     1     -34.811   5.073   5.211  1.00 20.00     0.005 C 
ENDBRANCH   9  10
ENDBRANCH   3   9
TORSDOF 5
ENDMDL
MODEL 2
REMARK VINA RESULT:      -4.6      1.218      2.169
REMARK  5 active torsions:
REMARK  status: ('A' for Active; 'I' for Inactive)
REMARK    1  A    between atoms: C1_1  and  C3_3 
REMARK    2  A    between atoms: C1_1  and  O11_11 
REMARK    3  A    between atoms: C4_4  and  C7_7 
REMARK    4  A    between atoms: C7_7  and  C8_8 
REMARK    5  A    between atoms: C9_9  and  O11_11 
ROOT
HETATM    1  C2  UNL     1     -33.254   5.395   2.522  1.00 20.00     0.020 A 
HETATM    2  C3  UNL     1     -32.561   6.261   3.540  1.00 20.00     0.090 A 
HETATM    3  C4  UNL     1     -33.977   5.776   3.786  1.00 20.00    -0.000 A 
ENDROOT
BRANCH   2   4
HETATM    4  C1  UNL     1     -32.335   7.679   3.244  1.00 20.00     0.263 C 
HETATM    5  O10 UNL     1     -32.291   8.558   4.093  1.00 20.00    -0.265 OA
BRANCH   4   6
HETATM    6  O11 UNL     1     -32.187   7.845   1.899  1.00 20.00    -0.322 OA
BRANCH   6   7
HETATM    7  C9  UNL     1     -32.607   9.114   1.386  1.00 20.00     0.174 C 
HETATM    8  C6  UNL     1     -32.889   8.979  -0.095  1.00 20.00     0.034 C 
ENDBRANCH   6   7
ENDBRANCH   4   6
ENDBRANCH   2   4
BRANCH   3   9
HETATM    9  C7  UNL     1     -34.246   4.753   4.834  1.00 20.00     0.005 C 
BRANCH   9  10
HETATM   10  C8  UNL     1     -34.786   5.370   6.137  1.00 20.00    -0.004 C 
HETATM   11  C5  UNL     1     -34.221   6.757   6.403  1.00 20.00     0.005 C 
ENDBRANCH   9  10
ENDBRANCH   3   9
TORSDOF 5
ENDMDL
MODEL 3
REMARK VINA RESULT:      -4.4      2.098      4.820
REMARK  5 active torsions:
REMARK  status: ('A' for Active; 'I' for Inactive)
REMARK    1  A    between atoms: C1_1  and  C3_3 
REMARK    2  A    between atoms: C1_1  and  O11_11 
REMARK    3  A    between atoms: C4_4  and  C7_7 
REMARK    4  A    between atoms: C7_7  and  C8_8 
REMARK    5  A    between atoms: C9_9  and  O11_11 
ROOT
HETATM    1  C2  UNL     1     -32.825   5.414   2.357  1.00 20.00     0.020 A 
HETATM    2  C3  UNL     1     -33.918   5.861   3.292  1.00 20.00     0.090 A 
HETATM    3  C4  UNL     1     -32.556   6.526   3.337  1.00 20.00    -0.000 A 
ENDROOT
BRANCH   2   4
HETATM    4  C1  UNL     1     -34.320   4.986   4.397  1.00 20.00     0.263 C 
HETATM    5  O10 UNL     1     -33.973   3.818   4.509  1.00 20.00    -0.265 OA
BRANCH   4   6
HETATM    6  O11 UNL     1     -35.124   5.676   5.255  1.00 20.00    -0.322 OA
BRANCH   6   7
HETATM    7  C9  UNL     1     -34.546   5.979   6.530  1.00 20.00     0.174 C 
HETATM    8  C6  UNL     1     -34.029   7.401   6.512  1.00 20.00     0.034 C 
ENDBRANCH   6   7
ENDBRANCH   4   6
ENDBRANCH   2   4
BRANCH   3   9
HETATM    9  C7  UNL     1     -32.391   7.926   2.856  1.00 20.00     0.005 C 
BRANCH   9  10
HETATM   10  C8  UNL     1     -32.068   7.999   1.353  1.00 20.00    -0.004 C 
HETATM   11  C5  UNL     1     -32.672   9.227   0.686  1.00 20.00     0.005 C 
ENDBRANCH   9  10
ENDBRANCH   3   9
TORSDOF 5
ENDMDL
MODEL 4
REMARK VINA RESULT:      -4.3      1.497      2.986
REMARK  5 active torsions:
REMARK  status: ('A' for Active; 'I' for Inactive)
REMARK    1  A    between atoms: C1_1  and  C3_3 
REMARK    2  A    between atoms: C1_1  and  O11_11 
REMARK    3  A    between atoms: C4_4  and  C7_7 
REMARK    4  A    between atoms: C7_7  and  C8_8 
REMARK    5  A    between atoms: C9_9  and  O11_11 
ROOT
HETATM    1  C2  UNL     1     -32.748   5.107   2.126  1.00 20.00     0.020 A 
HETATM    2  C3  UNL     1     -32.436   6.286   3.009  1.00 20.00     0.090 A 
HETATM    3  C4  UNL     1     -33.778   5.585   3.116  1.00 20.00    -0.000 A 
ENDROOT
BRANCH   2   4
HETATM    4  C1  UNL     1     -32.380   7.629   2.423  1.00 20.00     0.263 C 
HETATM    5  O10 UNL     1     -31.991   7.865   1.287  1.00 20.00    -0.265 OA
BRANCH   4   6
HETATM    6  O11 UNL     1     -32.822   8.542   3.333  1.00 20.00    -0.322 OA
BRANCH   6   7
HETATM    7  C9  UNL     1     -32.290   8.400   4.655  1.00 20.00     0.174 C 
HETATM    8  C6  UNL     1     -33.381   8.701   5.660  1.00 20.00     0.034 C 
ENDBRANCH   6   7
ENDBRANCH   4   6
ENDBRANCH   2   4
BRANCH   3   9
HETATM    9  C7  UNL     1     -34.100   4.766   4.317  1.00 20.00     0.005 C 
BRANCH   9  10
HETATM   10  C8  UNL     1     -35.151   5.434   5.222  1.00 20.00    -0.004 C 
HETATM   11  C5  UNL     1     -34.653   5.636   6.645  1.00 20.00     0.005 C 
ENDBRANCH   9  10
ENDBRANCH   3   9
TORSDOF 5
ENDMDL
MODEL 5
REMARK VINA RESULT:      -4.3      2.251      4.579
REMARK  5 active torsions:
REMARK  status: ('A' for Active; 'I' for Inactive)
REMARK    1  A    between atoms: C1_1  and  C3_3 
REMARK    2  A    between atoms: C1_1  and  O11_11 
REMARK    3  A    between atoms: C4_4  and  C7_7 
REMARK    4  A    between atoms: C7_7  and  C8_8 
REMARK    5  A    between atoms: C9_9  and  O11_11 
ROOT
HETATM    1  C2  UNL     1     -32.854   5.116   2.247  1.00 20.00     0.020 A 
HETATM    2  C3  UNL     1     -33.893   5.665   3.188  1.00 20.00     0.090 A 
HETATM    3  C4  UNL     1     -32.489   6.241   3.180  1.00 20.00    -0.000 A 
ENDROOT
BRANCH   2   4
HETATM    4  C1  UNL     1     -34.323   4.858   4.334  1.00 20.00     0.263 C 
HETATM    5  O10 UNL     1     -33.943   3.715   4.549  1.00 20.00    -0.265 OA
BRANCH   4   6
HETATM    6  O11 UNL     1     -35.195   5.577   5.096  1.00 20.00    -0.322 OA
BRANCH   6   7
HETATM    7  C9  UNL     1     -34.806   5.768   6.461  1.00 20.00     0.174 C 
HETATM    8  C6  UNL     1     -34.121   7.111   6.595  1.00 20.00     0.034 C 
ENDBRANCH   6   7
ENDBRANCH   4   6
ENDBRANCH   2   4
BRANCH   3   9
HETATM    9  C7  UNL     1     -32.246   7.609   2.645  1.00 20.00     0.005 C 
BRANCH   9  10
HETATM   10  C8  UNL     1     -32.862   8.707   3.531  1.00 20.00    -0.004 C 
HETATM   11  C5  UNL     1     -32.031   8.989   4.773  1.00 20.00     0.005 C 
ENDBRANCH   9  10
ENDBRANCH   3   9
TORSDOF 5
ENDMDL
MODEL 6
REMARK VINA RESULT:      -4.3      1.489      2.233
REMARK  5 active torsions:
REMARK  status: ('A' for Active; 'I' for Inactive)
REMARK    1  A    between atoms: C1_1  and  C3_3 
REMARK    2  A    between atoms: C1_1  and  O11_11 
REMARK    3  A    between atoms: C4_4  and  C7_7 
REMARK    4  A    between atoms: C7_7  and  C8_8 
REMARK    5  A    between atoms: C9_9  and  O11_11 
ROOT
HETATM    1  C2  UNL     1     -34.006   7.641   6.288  1.00 20.00     0.020 A 
HETATM    2  C3  UNL     1     -33.814   7.883   4.815  1.00 20.00     0.090 A 
HETATM    3  C4  UNL     1     -33.647   6.488   5.388  1.00 20.00    -0.000 A 
ENDROOT
BRANCH   2   4
HETATM    4  C1  UNL     1     -32.626   8.610   4.355  1.00 20.00     0.263 C 
HETATM    5  O10 UNL     1     -31.972   9.369   5.056  1.00 20.00    -0.265 OA
BRANCH   4   6
HETATM    6  O11 UNL     1     -32.383   8.304   3.049  1.00 20.00    -0.322 OA
BRANCH   6   7
HETATM    7  C9  UNL     1     -32.820   9.281   2.097  1.00 20.00     0.174 C 
HETATM    8  C6  UNL     1     -32.445   8.815   0.706  1.00 20.00     0.034 C 
ENDBRANCH   6   7
ENDBRANCH   4   6
ENDBRANCH   2   4
BRANCH   3   9
HETATM    9  C7  UNL     1     -34.653   5.431   5.086  1.00 20.00     0.005 C 
BRANCH   9  10
HETATM   10  C8  UNL     1     -34.103   4.347   4.141  1.00 20.00    -0.004 C 
HETATM   11  C5  UNL     1     -33.319   4.932   2.976  1.00 20.00     0.005 C 
ENDBRANCH   9  10
ENDBRANCH   3   9
TORSDOF 5
ENDMDL
MODEL 7
REMARK VINA RESULT:      -4.2     10.951     11.979
REMARK  5 active torsions:
REMARK  status: ('A' for Active; 'I' for Inactive)
REMARK    1  A    between atoms: C1_1  and  C3_3 
REMARK    2  A    between atoms: C1_1  and  O11_11 
REMARK    3  A    between atoms: C4_4  and  C7_7 
REMARK    4  A    between atoms: C7_7  and  C8_8 
REMARK    5  A    between atoms: C9_9  and  O11_11 
ROOT
HETATM    1  C2  UNL     1     -33.223  14.430  -4.565  1.00 20.00     0.020 A 
HETATM    2  C3  UNL     1     -34.597  14.979  -4.845  1.00 20.00     0.090 A 
HETATM    3  C4  UNL     1     -33.901  15.294  -3.535  1.00 20.00    -0.000 A 
ENDROOT
BRANCH   2   4
HETATM    4  C1  UNL     1     -35.749  14.072  -4.840  1.00 20.00     0.263 C 
HETATM    5  O10 UNL     1     -35.742  12.959  -4.333  1.00 20.00    -0.265 OA
BRANCH   4   6
HETATM    6  O11 UNL     1     -36.798  14.665  -5.478  1.00 20.00    -0.322 OA
BRANCH   6   7
HETATM    7  C9  UNL     1     -36.608  16.041  -5.825  1.00 20.00     0.174 C 
HETATM    8  C6  UNL     1     -37.828  16.829  -5.398  1.00 20.00     0.034 C 
ENDBRANCH   6   7
ENDBRANCH   4   6
ENDBRANCH   2   4
BRANCH   3   9
HETATM    9  C7  UNL     1     -33.402  16.672  -3.265  1.00 20.00     0.005 C 
BRANCH   9  10
HETATM   10  C8  UNL     1     -33.530  17.066  -1.783  1.00 20.00    -0.004 C 
HETATM   11  C5  UNL     1     -32.478  18.079  -1.356  1.00 20.00     0.005 C 
ENDBRANCH   9  10
ENDBRANCH   3   9
TORSDOF 5
ENDMDL
MODEL 8
REMARK VINA RESULT:      -4.1     11.333     12.052
REMARK  5 active torsions:
REMARK  status: ('A' for Active; 'I' for Inactive)
REMARK    1  A    between atoms: C1_1  and  C3_3 
REMARK    2  A    between atoms: C1_1  and  O11_11 
REMARK    3  A    between atoms: C4_4  and  C7_7 
REMARK    4  A    between atoms: C7_7  and  C8_8 
REMARK    5  A    between atoms: C9_9  and  O11_11 
ROOT
HETATM    1  C2  UNL     1     -33.824  18.018  -0.056  1.00 20.00     0.020 A 
HETATM    2  C3  UNL     1     -33.497  17.518  -1.439  1.00 20.00     0.090 A 
HETATM    3  C4  UNL     1     -32.683  18.639  -0.820  1.00 20.00    -0.000 A 
ENDROOT
BRANCH   2   4
HETATM    4  C1  UNL     1     -34.405  17.826  -2.548  1.00 20.00     0.263 C 
HETATM    5  O10 UNL     1     -35.368  18.575  -2.457  1.00 20.00    -0.265 OA
BRANCH   4   6
HETATM    6  O11 UNL     1     -34.004  17.155  -3.665  1.00 20.00    -0.322 OA
BRANCH   6   7
HETATM    7  C9  UNL     1     -33.209  15.988  -3.428  1.00 20.00     0.174 C 
HETATM    8  C6  UNL     1     -33.762  14.841  -4.248  1.00 20.00     0.034 C 
ENDBRANCH   6   7
ENDBRANCH   4   6
ENDBRANCH   2   4
BRANCH   3   9
HETATM    9  C7  UNL     1     -31.276  18.395  -0.396  1.00 20.00     0.005 C 
BRANCH   9  10
HETATM   10  C8  UNL     1     -30.873  19.241   0.825  1.00 20.00    -0.004 C 
HETATM   11  C5  UNL     1     -30.618  18.394   2.063  1.00 20.00     0.005 C 
ENDBRANCH   9  10
ENDBRANCH   3   9
TORSDOF 5
ENDMDL
MODEL 9
REMARK VINA RESULT:      -4.1      1.867      4.641
REMARK  5 active torsions:
REMARK  status: ('A' for Active; 'I' for Inactive)
REMARK    1  A    between atoms: C1_1  and  C3_3 
REMARK    2  A    between atoms: C1_1  and  O11_11 
REMARK    3  A    between atoms: C4_4  and  C7_7 
REMARK    4  A    between atoms: C7_7  and  C8_8 
REMARK    5  A    between atoms: C9_9  and  O11_11 
ROOT
HETATM    1  C2  UNL     1     -32.311   8.938   4.720  1.00 20.00     0.020 A 
HETATM    2  C3  UNL     1     -32.759   7.508   4.863  1.00 20.00     0.090 A 
HETATM    3  C4  UNL     1     -32.840   8.202   3.517  1.00 20.00    -0.000 A 
ENDROOT
BRANCH   2   4
HETATM    4  C1  UNL     1     -34.000   7.212   5.587  1.00 20.00     0.263 C 
HETATM    5  O10 UNL     1     -34.250   7.619   6.713  1.00 20.00    -0.265 OA
BRANCH   4   6
HETATM    6  O11 UNL     1     -34.802   6.428   4.812  1.00 20.00    -0.322 OA
BRANCH   6   7
HETATM    7  C9  UNL     1     -34.744   5.024   5.090  1.00 20.00     0.174 C 
HETATM    8  C6  UNL     1     -33.903   4.347   4.030  1.00 20.00     0.034 C 
ENDBRANCH   6   7
ENDBRANCH   4   6
ENDBRANCH   2   4
BRANCH   3   9
HETATM    9  C7  UNL     1     -31.918   7.807   2.416  1.00 20.00     0.005 C 
BRANCH   9  10
HETATM   10  C8  UNL     1     -32.334   8.400   1.057  1.00 20.00    -0.004 C 
HETATM   11  C5  UNL     1     -32.943   9.788   1.189  1.00 20.00     0.005 C 
ENDBRANCH   9  10
ENDBRANCH   3   9
TORSDOF 5
ENDMDL
