MODEL 1
REMARK VINA RESULT:      -5.4      0.000      0.000
REMARK  1 active torsions:
REMARK  status: ('A' for Active; 'I' for Inactive)
REMARK    1  A    between atoms: C1_1  and  C5_5 
ROOT
HETATM    1  C2  UNL     1     -34.056   5.218   4.268  1.00 20.00     0.011 A 
HETATM    2  C3  UNL     1     -35.492   5.645   4.587  1.00 20.00     0.011 A 
HETATM    3  C4  UNL     1     -33.904   6.937   6.356  1.00 20.00     0.023 A 
HETATM    4  C5  UNL     1     -33.938   7.807   5.087  1.00 20.00     0.064 A 
HETATM    5  C6  UNL     1     -34.342   6.403   5.070  1.00 20.00    -0.029 A 
ENDROOT
BRANCH   4   6
HETATM    6  C1  UNL     1     -32.667   8.218   4.484  1.00 20.00     0.128 C 
HETATM    7  C7  UNL     1     -32.251   7.501   3.228  1.00 20.00     0.091 C 
HETATM    8  O8  UNL     1     -31.975   9.106   4.979  1.00 20.00    -0.298 OA
ENDBRANCH   4   6
TORSDOF 1
ENDMDL
MODEL 2
REMARK VINA RESULT:      -4.7      1.979      2.844
REMARK  1 active torsions:
REMARK  status: ('A' for Active; 'I' for Inactive)
REMARK    1  A    between atoms: C1_1  and  C5_5 
ROOT
HETATM    1  C2  UNL     1     -33.814   7.587   5.712  1.00 20.00     0.011 A 
HETATM    2  C3  UNL     1     -34.240   6.482   6.684  1.00 20.00     0.011 A 
HETATM    3  C4  UNL     1     -35.393   5.890   4.309  1.00 20.00     0.023 A 
HETATM    4  C5  UNL     1     -33.976   5.292   4.264  1.00 20.00     0.064 A 
HETATM    5  C6  UNL     1     -34.351   6.316   5.238  1.00 20.00    -0.029 A 
ENDROOT
BRANCH   4   6
HETATM    6  C1  UNL     1     -33.107   5.631   3.134  1.00 20.00     0.128 C 
HETATM    7  C7  UNL     1     -32.466   6.993   3.157  1.00 20.00     0.091 C 
HETATM    8  O8  UNL     1     -32.909   4.840   2.213  1.00 20.00    -0.298 OA
ENDBRANCH   4   6
TORSDOF 1
ENDMDL
MODEL 3
REMARK VINA RESULT:      -4.7      1.019      1.842
REMARK  1 active torsions:
REMARK  status: ('A' for Active; 'I' for Inactive)
REMARK    1  A    between atoms: C1_1  and  C5_5 
ROOT
HETATM    1  C2  UNL     1     -34.407   6.763   6.692  1.00 20.00     0.011 A 
HETATM    2  C3  UNL     1     -34.453   5.239   6.551  1.00 20.00     0.011 A 
HETATM    3  C4  UNL     1     -35.126   6.245   4.131  1.00 20.00     0.023 A 
HETATM    4  C5  UNL     1     -33.588   6.186   4.165  1.00 20.00     0.064 A 
HETATM    5  C6  UNL     1     -34.390   6.115   5.385  1.00 20.00    -0.029 A 
ENDROOT
BRANCH   4   6
HETATM    6  C1  UNL     1     -32.833   7.401   3.848  1.00 20.00     0.128 C 
HETATM    7  C7  UNL     1     -32.197   7.466   2.485  1.00 20.00     0.091 C 
HETATM    8  O8  UNL     1     -32.726   8.323   4.654  1.00 20.00    -0.298 OA
ENDBRANCH   4   6
TORSDOF 1
ENDMDL
MODEL 4
REMARK VINA RESULT:      -4.6      2.079      3.600
REMARK  1 active torsions:
REMARK  status: ('A' for Active; 'I' for Inactive)
REMARK    1  A    between atoms: C1_1  and  C5_5 
ROOT
HETATM    1  C2  UNL     1     -32.164   8.275   4.796  1.00 20.00     0.011 A 
HETATM    2  C3  UNL     1     -32.771   8.876   3.524  1.00 20.00     0.011 A 
HETATM    3  C4  UNL     1     -32.730   6.197   3.151  1.00 20.00     0.023 A 
HETATM    4  C5  UNL     1     -34.032   6.510   3.909  1.00 20.00     0.064 A 
HETATM    5  C6  UNL     1     -32.925   7.462   3.852  1.00 20.00    -0.029 A 
ENDROOT
BRANCH   4   6
HETATM    6  C1  UNL     1     -34.316   5.780   5.148  1.00 20.00     0.128 C 
HETATM    7  C7  UNL     1     -34.345   6.587   6.418  1.00 20.00     0.091 C 
HETATM    8  O8  UNL     1     -34.521   4.567   5.150  1.00 20.00    -0.298 OA
ENDBRANCH   4   6
TORSDOF 1
ENDMDL
MODEL 5
REMARK VINA RESULT:      -4.6      1.463      1.723
REMARK  1 active torsions:
REMARK  status: ('A' for Active; 'I' for Inactive)
REMARK    1  A    between atoms: C1_1  and  C5_5 
ROOT
HETATM    1  C2  UNL     1     -33.688   5.274   6.317  1.00 20.00     0.011 A 
HETATM    2  C3  UNL     1     -35.115   5.825   6.407  1.00 20.00     0.011 A 
HETATM    3  C4  UNL     1     -33.537   7.914   5.726  1.00 20.00     0.023 A 
HETATM    4  C5  UNL     1     -33.904   7.201   4.412  1.00 20.00     0.064 A 
HETATM    5  C6  UNL     1     -34.056   6.550   5.712  1.00 20.00    -0.029 A 
ENDROOT
BRANCH   4   6
HETATM    6  C1  UNL     1     -32.825   6.800   3.506  1.00 20.00     0.128 C 
HETATM    7  C7  UNL     1     -32.986   5.478   2.805  1.00 20.00     0.091 C 
HETATM    8  O8  UNL     1     -31.836   7.510   3.326  1.00 20.00    -0.298 OA
ENDBRANCH   4   6
TORSDOF 1
ENDMDL
MODEL 6
REMARK VINA RESULT:      -4.5      1.626      2.370
REMARK  1 active torsions:
REMARK  status: ('A' for Active; 'I' for Inactive)
REMARK    1  A    between atoms: C1_1  and  C5_5 
ROOT
HETATM    1  C2  UNL     1     -35.169   6.076   4.449  1.00 20.00     0.011 A 
HETATM    2  C3  UNL     1     -34.501   4.865   5.107  1.00 20.00     0.011 A 
HETATM    3  C4  UNL     1     -33.360   5.129   2.668  1.00 20.00     0.023 A 
HETATM    4  C5  UNL     1     -32.582   6.061   3.615  1.00 20.00     0.064 A 
HETATM    5  C6  UNL     1     -33.903   5.540   3.959  1.00 20.00    -0.029 A 
ENDROOT
BRANCH   4   6
HETATM    6  C1  UNL     1     -32.418   7.467   3.236  1.00 20.00     0.128 C 
HETATM    7  C7  UNL     1     -32.497   8.480   4.346  1.00 20.00     0.091 C 
HETATM    8  O8  UNL     1     -32.223   7.803   2.069  1.00 20.00    -0.298 OA
ENDBRANCH   4   6
TORSDOF 1
ENDMDL
MODEL 7
REMARK VINA RESULT:      -4.4      1.876      3.368
REMARK  1 active torsions:
REMARK  status: ('A' for Active; 'I' for Inactive)
REMARK    1  A    between atoms: C1_1  and  C5_5 
ROOT
HETATM    1  C2  UNL     1     -32.528   7.204   3.034  1.00 20.00     0.011 A 
HETATM    2  C3  UNL     1     -31.552   7.967   3.936  1.00 20.00     0.011 A 
HETATM    3  C4  UNL     1     -34.036   8.581   4.814  1.00 20.00     0.023 A 
HETATM    4  C5  UNL     1     -33.642   7.268   5.513  1.00 20.00     0.064 A 
HETATM    5  C6  UNL     1     -32.943   7.749   4.323  1.00 20.00    -0.029 A 
ENDROOT
BRANCH   4   6
HETATM    6  C1  UNL     1     -34.553   6.124   5.423  1.00 20.00     0.128 C 
HETATM    7  C7  UNL     1     -34.476   5.109   6.531  1.00 20.00     0.091 C 
HETATM    8  O8  UNL     1     -35.344   6.001   4.489  1.00 20.00    -0.298 OA
ENDBRANCH   4   6
TORSDOF 1
ENDMDL
MODEL 8
REMARK VINA RESULT:      -4.3      2.091      3.234
REMARK  1 active torsions:
REMARK  status: ('A' for Active; 'I' for Inactive)
REMARK    1  A    between atoms: C1_1  and  C5_5 
ROOT
HETATM    1  C2  UNL     1     -32.984   8.452   3.654  1.00 20.00     0.011 A 
HETATM    2  C3  UNL     1     -32.049   8.660   4.849  1.00 20.00     0.011 A 
HETATM    3  C4  UNL     1     -34.337   7.617   5.848  1.00 20.00     0.023 A 
HETATM    4  C5  UNL     1     -33.477   6.424   5.396  1.00 20.00     0.064 A 
HETATM    5  C6  UNL     1     -33.214   7.784   4.931  1.00 20.00    -0.029 A 
ENDROOT
BRANCH   4   6
HETATM    6  C1  UNL     1     -34.069   5.435   4.490  1.00 20.00     0.128 C 
HETATM    7  C7  UNL     1     -33.375   5.225   3.171  1.00 20.00     0.091 C 
HETATM    8  O8  UNL     1     -35.082   4.807   4.794  1.00 20.00    -0.298 OA
ENDBRANCH   4   6
TORSDOF 1
ENDMDL
MODEL 9
REMARK VINA RESULT:      -4.2      1.952      3.170
REMARK  1 active torsions:
REMARK  status: ('A' for Active; 'I' for Inactive)
REMARK    1  A    between atoms: C1_1  and  C5_5 
ROOT
HETATM    1  C2  UNL     1     -33.485   7.233   6.313  1.00 20.00     0.011 A 
HETATM    2  C3  UNL     1     -34.052   8.546   5.764  1.00 20.00     0.011 A 
HETATM    3  C4  UNL     1     -32.176   7.731   3.994  1.00 20.00     0.023 A 
HETATM    4  C5  UNL     1     -33.480   7.015   3.603  1.00 20.00     0.064 A 
HETATM    5  C6  UNL     1     -33.299   7.624   4.919  1.00 20.00    -0.029 A 
ENDROOT
BRANCH   4   6
HETATM    6  C1  UNL     1     -33.463   5.557   3.455  1.00 20.00     0.128 C 
HETATM    7  C7  UNL     1     -34.297   4.767   4.428  1.00 20.00     0.091 C 
HETATM    8  O8  UNL     1     -32.800   5.005   2.578  1.00 20.00    -0.298 OA
ENDBRANCH   4   6
TORSDOF 1
ENDMDL
