MODEL 1
REMARK VINA RESULT:      -5.0      0.000      0.000
REMARK  1 active torsions:
REMARK  status: ('A' for Active; 'I' for Inactive)
REMARK    1  A    between atoms: C3_3  and  C7_7 
ROOT
HETATM    1  C1  UNL     1     -33.393   4.873   3.335  1.00 20.00    -0.029 C 
HETATM    2  C2  UNL     1     -34.249   4.670   4.346  1.00 20.00    -0.026 C 
HETATM    3  C4  UNL     1     -32.817   6.216   3.001  1.00 20.00     0.039 C 
HETATM    4  C5  UNL     1     -33.831   7.027   5.166  1.00 20.00     0.020 C 
HETATM    5  C6  UNL     1     -34.702   5.762   5.282  1.00 20.00     0.004 C 
HETATM    6  C7  UNL     1     -33.543   7.370   3.703  1.00 20.00     0.059 C 
HETATM    7  C9  UNL     1     -34.719   5.268   6.728  1.00 20.00     0.014 C 
ENDROOT
BRANCH   6   8
HETATM    8  C3  UNL     1     -32.708   8.610   3.618  1.00 20.00     0.127 C 
HETATM    9  C8  UNL     1     -32.095   9.102   4.902  1.00 20.00     0.091 C 
HETATM   10  O10 UNL     1     -32.529   9.196   2.551  1.00 20.00    -0.298 OA
ENDBRANCH   6   8
TORSDOF 1
ENDMDL
MODEL 2
REMARK VINA RESULT:      -4.9      2.151      3.978
REMARK  1 active torsions:
REMARK  status: ('A' for Active; 'I' for Inactive)
REMARK    1  A    between atoms: C3_3  and  C7_7 
ROOT
HETATM    1  C1  UNL     1     -34.350   6.933   6.678  1.00 20.00    -0.029 C 
HETATM    2  C2  UNL     1     -33.937   8.133   6.247  1.00 20.00    -0.026 C 
HETATM    3  C4  UNL     1     -34.323   5.699   5.826  1.00 20.00     0.039 C 
HETATM    4  C5  UNL     1     -33.001   7.055   4.158  1.00 20.00     0.020 C 
HETATM    5  C6  UNL     1     -33.367   8.370   4.871  1.00 20.00     0.004 C 
HETATM    6  C7  UNL     1     -34.095   6.002   4.340  1.00 20.00     0.059 C 
HETATM    7  C9  UNL     1     -32.147   9.288   4.937  1.00 20.00     0.014 C 
ENDROOT
BRANCH   6   8
HETATM    8  C3  UNL     1     -33.721   4.740   3.626  1.00 20.00     0.127 C 
HETATM    9  C8  UNL     1     -32.998   4.894   2.315  1.00 20.00     0.091 C 
HETATM   10  O10 UNL     1     -33.988   3.632   4.090  1.00 20.00    -0.298 OA
ENDBRANCH   6   8
TORSDOF 1
ENDMDL
MODEL 3
REMARK VINA RESULT:      -4.7      1.994      4.256
REMARK  1 active torsions:
REMARK  status: ('A' for Active; 'I' for Inactive)
REMARK    1  A    between atoms: C3_3  and  C7_7 
ROOT
HETATM    1  C1  UNL     1     -32.707   8.719   5.201  1.00 20.00    -0.029 C 
HETATM    2  C2  UNL     1     -32.519   8.940   3.893  1.00 20.00    -0.026 C 
HETATM    3  C4  UNL     1     -33.366   7.485   5.741  1.00 20.00     0.039 C 
HETATM    4  C5  UNL     1     -33.236   6.565   3.394  1.00 20.00     0.020 C 
HETATM    5  C6  UNL     1     -32.916   7.958   2.820  1.00 20.00     0.004 C 
HETATM    6  C7  UNL     1     -34.087   6.670   4.661  1.00 20.00     0.059 C 
HETATM    7  C9  UNL     1     -31.828   7.847   1.752  1.00 20.00     0.014 C 
ENDROOT
BRANCH   6   8
HETATM    8  C3  UNL     1     -34.396   5.304   5.190  1.00 20.00     0.127 C 
HETATM    9  C8  UNL     1     -34.690   5.200   6.662  1.00 20.00     0.091 C 
HETATM   10  O10 UNL     1     -34.410   4.316   4.457  1.00 20.00    -0.298 OA
ENDBRANCH   6   8
TORSDOF 1
ENDMDL
MODEL 4
REMARK VINA RESULT:      -4.6      1.890      3.657
REMARK  1 active torsions:
REMARK  status: ('A' for Active; 'I' for Inactive)
REMARK    1  A    between atoms: C3_3  and  C7_7 
ROOT
HETATM    1  C1  UNL     1     -32.061   7.926   3.409  1.00 20.00    -0.029 C 
HETATM    2  C2  UNL     1     -32.310   7.031   2.444  1.00 20.00    -0.026 C 
HETATM    3  C4  UNL     1     -32.730   7.898   4.751  1.00 20.00     0.039 C 
HETATM    4  C5  UNL     1     -33.647   5.643   4.083  1.00 20.00     0.020 C 
HETATM    5  C6  UNL     1     -33.264   5.875   2.610  1.00 20.00     0.004 C 
HETATM    6  C7  UNL     1     -33.946   6.964   4.794  1.00 20.00     0.059 C 
HETATM    7  C9  UNL     1     -32.680   4.596   2.012  1.00 20.00     0.014 C 
ENDROOT
BRANCH   6   8
HETATM    8  C3  UNL     1     -34.328   6.709   6.218  1.00 20.00     0.127 C 
HETATM    9  C8  UNL     1     -34.669   5.289   6.584  1.00 20.00     0.091 C 
HETATM   10  O10 UNL     1     -34.361   7.615   7.050  1.00 20.00    -0.298 OA
ENDBRANCH   6   8
TORSDOF 1
ENDMDL
MODEL 5
REMARK VINA RESULT:      -4.3      1.863      3.751
REMARK  1 active torsions:
REMARK  status: ('A' for Active; 'I' for Inactive)
REMARK    1  A    between atoms: C3_3  and  C7_7 
ROOT
HETATM    1  C1  UNL     1     -32.888   5.821   2.624  1.00 20.00    -0.029 C 
HETATM    2  C2  UNL     1     -32.359   7.004   2.284  1.00 20.00    -0.026 C 
HETATM    3  C4  UNL     1     -33.543   5.562   3.947  1.00 20.00     0.039 C 
HETATM    4  C5  UNL     1     -33.379   8.048   4.351  1.00 20.00     0.020 C 
HETATM    5  C6  UNL     1     -32.393   8.217   3.180  1.00 20.00     0.004 C 
HETATM    6  C7  UNL     1     -33.259   6.659   4.981  1.00 20.00     0.059 C 
HETATM    7  C9  UNL     1     -32.737   9.475   2.382  1.00 20.00     0.014 C 
ENDROOT
BRANCH   6   8
HETATM    8  C3  UNL     1     -34.217   6.526   6.124  1.00 20.00     0.127 C 
HETATM    9  C8  UNL     1     -34.920   5.204   6.267  1.00 20.00     0.091 C 
HETATM   10  O10 UNL     1     -34.417   7.452   6.909  1.00 20.00    -0.298 OA
ENDBRANCH   6   8
TORSDOF 1
ENDMDL
MODEL 6
REMARK VINA RESULT:      -4.1      1.345      2.401
REMARK  1 active torsions:
REMARK  status: ('A' for Active; 'I' for Inactive)
REMARK    1  A    between atoms: C3_3  and  C7_7 
ROOT
HETATM    1  C1  UNL     1     -33.618   8.239   6.092  1.00 20.00    -0.029 C 
HETATM    2  C2  UNL     1     -33.992   6.971   6.305  1.00 20.00    -0.026 C 
HETATM    3  C4  UNL     1     -33.046   8.721   4.792  1.00 20.00     0.039 C 
HETATM    4  C5  UNL     1     -33.686   6.471   3.843  1.00 20.00     0.020 C 
HETATM    5  C6  UNL     1     -33.913   5.894   5.253  1.00 20.00     0.004 C 
HETATM    6  C7  UNL     1     -32.629   7.576   3.861  1.00 20.00     0.059 C 
HETATM    7  C9  UNL     1     -35.170   5.023   5.267  1.00 20.00     0.014 C 
ENDROOT
BRANCH   6   8
HETATM    8  C3  UNL     1     -32.418   8.111   2.478  1.00 20.00     0.127 C 
HETATM    9  C8  UNL     1     -32.827   9.538   2.235  1.00 20.00     0.091 C 
HETATM   10  O10 UNL     1     -31.931   7.418   1.585  1.00 20.00    -0.298 OA
ENDBRANCH   6   8
TORSDOF 1
ENDMDL
MODEL 7
REMARK VINA RESULT:      -4.0     12.097     13.204
REMARK  1 active torsions:
REMARK  status: ('A' for Active; 'I' for Inactive)
REMARK    1  A    between atoms: C3_3  and  C7_7 
ROOT
HETATM    1  C1  UNL     1     -33.405  18.885  -4.204  1.00 20.00    -0.029 C 
HETATM    2  C2  UNL     1     -33.905  17.668  -4.460  1.00 20.00    -0.026 C 
HETATM    3  C4  UNL     1     -32.788  19.263  -2.891  1.00 20.00     0.039 C 
HETATM    4  C5  UNL     1     -32.919  16.814  -2.291  1.00 20.00     0.020 C 
HETATM    5  C6  UNL     1     -33.872  16.533  -3.468  1.00 20.00     0.004 C 
HETATM    6  C7  UNL     1     -33.079  18.247  -1.779  1.00 20.00     0.059 C 
HETATM    7  C9  UNL     1     -33.486  15.222  -4.153  1.00 20.00     0.014 C 
ENDROOT
BRANCH   6   8
HETATM    8  C3  UNL     1     -32.153  18.490  -0.628  1.00 20.00     0.127 C 
HETATM    9  C8  UNL     1     -32.775  18.541   0.741  1.00 20.00     0.091 C 
HETATM   10  O10 UNL     1     -30.942  18.639  -0.793  1.00 20.00    -0.298 OA
ENDBRANCH   6   8
TORSDOF 1
ENDMDL
MODEL 8
REMARK VINA RESULT:      -4.0     11.808     13.054
REMARK  1 active torsions:
REMARK  status: ('A' for Active; 'I' for Inactive)
REMARK    1  A    between atoms: C3_3  and  C7_7 
ROOT
HETATM    1  C1  UNL     1     -33.545  18.806  -3.894  1.00 20.00    -0.029 C 
HETATM    2  C2  UNL     1     -33.174  18.838  -2.607  1.00 20.00    -0.026 C 
HETATM    3  C4  UNL     1     -33.798  17.535  -4.646  1.00 20.00     0.039 C 
HETATM    4  C5  UNL     1     -33.618  16.354  -2.422  1.00 20.00     0.020 C 
HETATM    5  C6  UNL     1     -33.002  17.601  -1.762  1.00 20.00     0.004 C 
HETATM    6  C7  UNL     1     -33.279  16.292  -3.913  1.00 20.00     0.059 C 
HETATM    7  C9  UNL     1     -33.598  17.805  -0.369  1.00 20.00     0.014 C 
ENDROOT
BRANCH   6   8
HETATM    8  C3  UNL     1     -33.878  15.065  -4.527  1.00 20.00     0.127 C 
HETATM    9  C8  UNL     1     -34.145  15.110  -6.007  1.00 20.00     0.091 C 
HETATM   10  O10 UNL     1     -34.136  14.066  -3.855  1.00 20.00    -0.298 OA
ENDBRANCH   6   8
TORSDOF 1
ENDMDL
MODEL 9
REMARK VINA RESULT:      -4.0      1.170      2.534
REMARK  1 active torsions:
REMARK  status: ('A' for Active; 'I' for Inactive)
REMARK    1  A    between atoms: C3_3  and  C7_7 
ROOT
HETATM    1  C1  UNL     1     -34.777   5.805   5.039  1.00 20.00    -0.029 C 
HETATM    2  C2  UNL     1     -34.252   4.856   4.252  1.00 20.00    -0.026 C 
HETATM    3  C4  UNL     1     -34.223   7.194   5.137  1.00 20.00     0.039 C 
HETATM    4  C5  UNL     1     -32.749   6.587   3.179  1.00 20.00     0.020 C 
HETATM    5  C6  UNL     1     -33.065   5.090   3.351  1.00 20.00     0.004 C 
HETATM    6  C7  UNL     1     -32.827   7.327   4.516  1.00 20.00     0.059 C 
HETATM    7  C9  UNL     1     -33.283   4.440   1.984  1.00 20.00     0.014 C 
ENDROOT
BRANCH   6   8
HETATM    8  C3  UNL     1     -32.502   8.775   4.324  1.00 20.00     0.127 C 
HETATM    9  C8  UNL     1     -32.652   9.323   2.930  1.00 20.00     0.091 C 
HETATM   10  O10 UNL     1     -32.133   9.484   5.260  1.00 20.00    -0.298 OA
ENDBRANCH   6   8
TORSDOF 1
ENDMDL
