MODEL 1
REMARK VINA RESULT:      -5.2      0.000      0.000
REMARK  1 active torsions:
REMARK  status: ('A' for Active; 'I' for Inactive)
REMARK    1  A    between atoms: C3_3  and  C7_7 
ROOT
HETATM    1  C1  UNL     1     -35.050   5.292   5.597  1.00 20.00    -0.030 C 
HETATM    2  C2  UNL     1     -34.805   5.390   4.282  1.00 20.00    -0.026 C 
HETATM    3  C4  UNL     1     -34.468   6.221   6.620  1.00 20.00     0.027 C 
HETATM    4  C5  UNL     1     -33.363   7.124   6.067  1.00 20.00     0.018 C 
HETATM    5  C6  UNL     1     -33.928   6.459   3.674  1.00 20.00     0.016 C 
HETATM    6  C7  UNL     1     -33.713   7.627   4.664  1.00 20.00     0.080 C 
HETATM    7  C8  UNL     1     -32.630   5.809   3.181  1.00 20.00     0.015 C 
ENDROOT
BRANCH   6   8
HETATM    8  C3  UNL     1     -32.679   8.596   4.177  1.00 20.00     0.223 C 
HETATM    9  O9  UNL     1     -31.822   9.056   4.927  1.00 20.00    -0.279 OA
HETATM   10 CL10 UNL     1     -32.862   8.954   2.488  1.00 20.00    -0.043 Cl
ENDBRANCH   6   8
TORSDOF 1
ENDMDL
MODEL 2
REMARK VINA RESULT:      -4.7      2.560      3.988
REMARK  1 active torsions:
REMARK  status: ('A' for Active; 'I' for Inactive)
REMARK    1  A    between atoms: C3_3  and  C7_7 
ROOT
HETATM    1  C1  UNL     1     -32.293   8.810   4.109  1.00 20.00    -0.030 C 
HETATM    2  C2  UNL     1     -33.115   8.679   5.160  1.00 20.00    -0.026 C 
HETATM    3  C4  UNL     1     -32.102   7.746   3.068  1.00 20.00     0.027 C 
HETATM    4  C5  UNL     1     -32.721   6.400   3.451  1.00 20.00     0.018 C 
HETATM    5  C6  UNL     1     -33.960   7.452   5.411  1.00 20.00     0.016 C 
HETATM    6  C7  UNL     1     -34.078   6.591   4.133  1.00 20.00     0.080 C 
HETATM    7  C8  UNL     1     -33.392   6.703   6.622  1.00 20.00     0.015 C 
ENDROOT
BRANCH   6   8
HETATM    8  C3  UNL     1     -34.724   5.266   4.403  1.00 20.00     0.223 C 
HETATM    9  O9  UNL     1     -35.892   5.181   4.772  1.00 20.00    -0.279 OA
HETATM   10 CL10 UNL     1     -33.636   3.939   4.132  1.00 20.00    -0.043 Cl
ENDBRANCH   6   8
TORSDOF 1
ENDMDL
MODEL 3
REMARK VINA RESULT:      -4.6      0.981      2.205
REMARK  1 active torsions:
REMARK  status: ('A' for Active; 'I' for Inactive)
REMARK    1  A    between atoms: C3_3  and  C7_7 
ROOT
HETATM    1  C1  UNL     1     -34.659   5.218   6.024  1.00 20.00    -0.030 C 
HETATM    2  C2  UNL     1     -34.235   6.365   6.574  1.00 20.00    -0.026 C 
HETATM    3  C4  UNL     1     -34.451   4.864   4.581  1.00 20.00     0.027 C 
HETATM    4  C5  UNL     1     -33.951   6.035   3.731  1.00 20.00     0.018 C 
HETATM    5  C6  UNL     1     -33.480   7.429   5.810  1.00 20.00     0.016 C 
HETATM    6  C7  UNL     1     -32.910   6.861   4.490  1.00 20.00     0.080 C 
HETATM    7  C8  UNL     1     -34.397   8.644   5.626  1.00 20.00     0.015 C 
ENDROOT
BRANCH   6   8
HETATM    8  C3  UNL     1     -32.346   7.936   3.611  1.00 20.00     0.223 C 
HETATM    9  O9  UNL     1     -32.021   9.032   4.060  1.00 20.00    -0.279 OA
HETATM   10 CL10 UNL     1     -32.228   7.431   1.953  1.00 20.00    -0.043 Cl
ENDBRANCH   6   8
TORSDOF 1
ENDMDL
MODEL 4
REMARK VINA RESULT:      -4.6      1.715      2.652
REMARK  1 active torsions:
REMARK  status: ('A' for Active; 'I' for Inactive)
REMARK    1  A    between atoms: C3_3  and  C7_7 
ROOT
HETATM    1  C1  UNL     1     -34.600   6.403   6.668  1.00 20.00    -0.030 C 
HETATM    2  C2  UNL     1     -33.799   7.428   6.343  1.00 20.00    -0.026 C 
HETATM    3  C4  UNL     1     -34.927   5.278   5.732  1.00 20.00     0.027 C 
HETATM    4  C5  UNL     1     -34.483   5.534   4.289  1.00 20.00     0.018 C 
HETATM    5  C6  UNL     1     -33.115   7.561   5.002  1.00 20.00     0.016 C 
HETATM    6  C7  UNL     1     -33.111   6.211   4.248  1.00 20.00     0.080 C 
HETATM    7  C8  UNL     1     -33.771   8.710   4.228  1.00 20.00     0.015 C 
ENDROOT
BRANCH   6   8
HETATM    8  C3  UNL     1     -32.638   6.358   2.833  1.00 20.00     0.223 C 
HETATM    9  O9  UNL     1     -32.117   7.395   2.431  1.00 20.00    -0.279 OA
HETATM   10 CL10 UNL     1     -32.920   4.922   1.897  1.00 20.00    -0.043 Cl
ENDBRANCH   6   8
TORSDOF 1
ENDMDL
MODEL 5
REMARK VINA RESULT:      -4.2      2.004      3.085
REMARK  1 active torsions:
REMARK  status: ('A' for Active; 'I' for Inactive)
REMARK    1  A    between atoms: C3_3  and  C7_7 
ROOT
HETATM    1  C1  UNL     1     -32.678   5.743   2.463  1.00 20.00    -0.030 C 
HETATM    2  C2  UNL     1     -33.581   5.067   3.188  1.00 20.00    -0.026 C 
HETATM    3  C4  UNL     1     -32.169   7.105   2.834  1.00 20.00     0.027 C 
HETATM    4  C5  UNL     1     -32.963   7.767   3.962  1.00 20.00     0.018 C 
HETATM    5  C6  UNL     1     -34.179   5.588   4.474  1.00 20.00     0.016 C 
HETATM    6  C7  UNL     1     -33.335   6.751   5.044  1.00 20.00     0.080 C 
HETATM    7  C8  UNL     1     -35.649   5.946   4.222  1.00 20.00     0.015 C 
ENDROOT
BRANCH   6   8
HETATM    8  C3  UNL     1     -34.015   7.430   6.195  1.00 20.00     0.223 C 
HETATM    9  O9  UNL     1     -34.552   6.791   7.095  1.00 20.00    -0.279 OA
HETATM   10 CL10 UNL     1     -33.936   9.161   6.072  1.00 20.00    -0.043 Cl
ENDBRANCH   6   8
TORSDOF 1
ENDMDL
MODEL 6
REMARK VINA RESULT:      -4.1      1.865      2.385
REMARK  1 active torsions:
REMARK  status: ('A' for Active; 'I' for Inactive)
REMARK    1  A    between atoms: C3_3  and  C7_7 
ROOT
HETATM    1  C1  UNL     1     -34.752   6.474   6.651  1.00 20.00    -0.030 C 
HETATM    2  C2  UNL     1     -34.998   5.365   5.938  1.00 20.00    -0.026 C 
HETATM    3  C4  UNL     1     -33.815   7.556   6.202  1.00 20.00     0.027 C 
HETATM    4  C5  UNL     1     -32.964   7.165   4.992  1.00 20.00     0.018 C 
HETATM    5  C6  UNL     1     -34.376   5.083   4.590  1.00 20.00     0.016 C 
HETATM    6  C7  UNL     1     -33.788   6.373   3.973  1.00 20.00     0.080 C 
HETATM    7  C8  UNL     1     -33.363   3.943   4.746  1.00 20.00     0.015 C 
ENDROOT
BRANCH   6   8
HETATM    8  C3  UNL     1     -32.977   6.090   2.744  1.00 20.00     0.223 C 
HETATM    9  O9  UNL     1     -32.949   4.975   2.232  1.00 20.00    -0.279 OA
HETATM   10 CL10 UNL     1     -32.128   7.498   2.183  1.00 20.00    -0.043 Cl
ENDBRANCH   6   8
TORSDOF 1
ENDMDL
MODEL 7
REMARK VINA RESULT:      -4.0     11.959     13.244
REMARK  1 active torsions:
REMARK  status: ('A' for Active; 'I' for Inactive)
REMARK    1  A    between atoms: C3_3  and  C7_7 
ROOT
HETATM    1  C1  UNL     1     -33.338  18.746  -2.662  1.00 20.00    -0.030 C 
HETATM    2  C2  UNL     1     -33.873  18.753  -3.891  1.00 20.00    -0.026 C 
HETATM    3  C4  UNL     1     -33.011  17.492  -1.907  1.00 20.00     0.027 C 
HETATM    4  C5  UNL     1     -33.585  16.226  -2.549  1.00 20.00     0.018 C 
HETATM    5  C6  UNL     1     -34.193  17.499  -4.670  1.00 20.00     0.016 C 
HETATM    6  C7  UNL     1     -33.458  16.276  -4.074  1.00 20.00     0.080 C 
HETATM    7  C8  UNL     1     -35.716  17.341  -4.742  1.00 20.00     0.015 C 
ENDROOT
BRANCH   6   8
HETATM    8  C3  UNL     1     -33.921  14.987  -4.684  1.00 20.00     0.223 C 
HETATM    9  O9  UNL     1     -34.308  14.049  -3.994  1.00 20.00    -0.279 OA
HETATM   10 CL10 UNL     1     -33.832  15.017  -6.419  1.00 20.00    -0.043 Cl
ENDBRANCH   6   8
TORSDOF 1
ENDMDL
MODEL 8
REMARK VINA RESULT:      -3.9      1.009      2.266
REMARK  1 active torsions:
REMARK  status: ('A' for Active; 'I' for Inactive)
REMARK    1  A    between atoms: C3_3  and  C7_7 
ROOT
HETATM    1  C1  UNL     1     -33.898   4.466   3.887  1.00 20.00    -0.030 C 
HETATM    2  C2  UNL     1     -34.368   5.282   4.841  1.00 20.00    -0.026 C 
HETATM    3  C4  UNL     1     -32.961   4.910   2.803  1.00 20.00     0.027 C 
HETATM    4  C5  UNL     1     -32.796   6.430   2.722  1.00 20.00     0.018 C 
HETATM    5  C6  UNL     1     -33.994   6.742   4.949  1.00 20.00     0.016 C 
HETATM    6  C7  UNL     1     -32.725   7.051   4.120  1.00 20.00     0.080 C 
HETATM    7  C8  UNL     1     -35.213   7.591   4.570  1.00 20.00     0.015 C 
ENDROOT
BRANCH   6   8
HETATM    8  C3  UNL     1     -32.455   8.522   4.030  1.00 20.00     0.223 C 
HETATM    9  O9  UNL     1     -32.126   9.178   5.015  1.00 20.00    -0.279 OA
HETATM   10 CL10 UNL     1     -32.664   9.129   2.416  1.00 20.00    -0.043 Cl
ENDBRANCH   6   8
TORSDOF 1
ENDMDL
MODEL 9
REMARK VINA RESULT:      -3.8     10.032     10.628
REMARK  1 active torsions:
REMARK  status: ('A' for Active; 'I' for Inactive)
REMARK    1  A    between atoms: C3_3  and  C7_7 
ROOT
HETATM    1  C1  UNL     1     -42.568  15.693   6.994  1.00 20.00    -0.030 C 
HETATM    2  C2  UNL     1     -42.984  14.602   6.334  1.00 20.00    -0.026 C 
HETATM    3  C4  UNL     1     -41.192  15.836   7.575  1.00 20.00     0.027 C 
HETATM    4  C5  UNL     1     -40.394  14.530   7.582  1.00 20.00     0.018 C 
HETATM    5  C6  UNL     1     -42.111  13.395   6.081  1.00 20.00     0.016 C 
HETATM    6  C7  UNL     1     -40.618  13.740   6.290  1.00 20.00     0.080 C 
HETATM    7  C8  UNL     1     -42.614  12.235   6.948  1.00 20.00     0.015 C 
ENDROOT
BRANCH   6   8
HETATM    8  C3  UNL     1     -39.749  12.519   6.260  1.00 20.00     0.223 C 
HETATM    9  O9  UNL     1     -39.145  12.133   7.257  1.00 20.00    -0.279 OA
HETATM   10 CL10 UNL     1     -39.722  11.774   4.691  1.00 20.00    -0.043 Cl
ENDBRANCH   6   8
TORSDOF 1
ENDMDL
