MODEL 1
REMARK VINA RESULT:      -5.2      0.000      0.000
REMARK  0 active torsions:
REMARK  status: ('A' for Active; 'I' for Inactive)
ROOT
HETATM    1  C1  UNL     1     -34.180   6.882   6.423  1.00 20.00     0.131 A 
HETATM    2  C2  UNL     1     -34.630   5.146   4.941  1.00 20.00     0.233 A 
HETATM    3  C3  UNL     1     -33.469   7.434   5.426  1.00 20.00     0.010 A 
HETATM    4  C4  UNL     1     -33.386   6.800   4.243  1.00 20.00     0.070 A 
HETATM    5  C5  UNL     1     -32.648   8.505   4.931  1.00 20.00     0.017 A 
HETATM    6  C6  UNL     1     -32.557   7.867   3.725  1.00 20.00     0.033 A 
HETATM    7  N7  UNL     1     -34.791   5.694   6.194  1.00 20.00    -0.253 NA
HETATM    8  N8  UNL     1     -33.928   5.651   3.897  1.00 20.00    -0.241 NA
ENDROOT
TORSDOF 0
ENDMDL
MODEL 2
REMARK VINA RESULT:      -5.1      0.935      1.851
REMARK  0 active torsions:
REMARK  status: ('A' for Active; 'I' for Inactive)
ROOT
HETATM    1  C1  UNL     1     -33.987   5.493   3.960  1.00 20.00     0.131 A 
HETATM    2  C2  UNL     1     -34.758   5.494   6.154  1.00 20.00     0.233 A 
HETATM    3  C3  UNL     1     -33.464   6.699   4.234  1.00 20.00     0.010 A 
HETATM    4  C4  UNL     1     -33.623   7.226   5.460  1.00 20.00     0.070 A 
HETATM    5  C5  UNL     1     -32.720   7.856   3.814  1.00 20.00     0.017 A 
HETATM    6  C6  UNL     1     -32.878   8.399   5.057  1.00 20.00     0.033 A 
HETATM    7  N7  UNL     1     -34.664   4.849   4.942  1.00 20.00    -0.253 NA
HETATM    8  N8  UNL     1     -34.254   6.706   6.493  1.00 20.00    -0.241 NA
ENDROOT
TORSDOF 0
ENDMDL
MODEL 3
REMARK VINA RESULT:      -5.0      1.538      2.783
REMARK  0 active torsions:
REMARK  status: ('A' for Active; 'I' for Inactive)
ROOT
HETATM    1  C1  UNL     1     -33.156   8.000   5.219  1.00 20.00     0.131 A 
HETATM    2  C2  UNL     1     -32.293   7.315   3.170  1.00 20.00     0.233 A 
HETATM    3  C3  UNL     1     -33.851   6.851   5.212  1.00 20.00     0.010 A 
HETATM    4  C4  UNL     1     -33.719   6.003   4.178  1.00 20.00     0.070 A 
HETATM    5  C5  UNL     1     -34.787   5.961   5.846  1.00 20.00     0.017 A 
HETATM    6  C6  UNL     1     -34.659   5.094   4.797  1.00 20.00     0.033 A 
HETATM    7  N7  UNL     1     -32.341   8.263   4.168  1.00 20.00    -0.253 NA
HETATM    8  N8  UNL     1     -32.967   6.140   3.105  1.00 20.00    -0.241 NA
ENDROOT
TORSDOF 0
ENDMDL
MODEL 4
REMARK VINA RESULT:      -4.9      1.546      3.323
REMARK  0 active torsions:
REMARK  status: ('A' for Active; 'I' for Inactive)
ROOT
HETATM    1  C1  UNL     1     -32.958   6.131   3.088  1.00 20.00     0.131 A 
HETATM    2  C2  UNL     1     -32.415   8.133   4.140  1.00 20.00     0.233 A 
HETATM    3  C3  UNL     1     -33.759   5.895   4.140  1.00 20.00     0.010 A 
HETATM    4  C4  UNL     1     -33.835   6.801   5.130  1.00 20.00     0.070 A 
HETATM    5  C5  UNL     1     -34.697   5.045   4.821  1.00 20.00     0.017 A 
HETATM    6  C6  UNL     1     -34.780   5.961   5.832  1.00 20.00     0.033 A 
HETATM    7  N7  UNL     1     -32.250   7.287   3.066  1.00 20.00    -0.253 NA
HETATM    8  N8  UNL     1     -33.204   7.954   5.228  1.00 20.00    -0.241 NA
ENDROOT
TORSDOF 0
ENDMDL
MODEL 5
REMARK VINA RESULT:      -4.8      1.246      1.755
REMARK  0 active torsions:
REMARK  status: ('A' for Active; 'I' for Inactive)
ROOT
HETATM    1  C1  UNL     1     -33.602   7.321   5.375  1.00 20.00     0.131 A 
HETATM    2  C2  UNL     1     -34.784   5.402   5.954  1.00 20.00     0.233 A 
HETATM    3  C3  UNL     1     -33.299   6.684   4.231  1.00 20.00     0.010 A 
HETATM    4  C4  UNL     1     -33.762   5.440   4.024  1.00 20.00     0.070 A 
HETATM    5  C5  UNL     1     -32.640   6.672   2.954  1.00 20.00     0.017 A 
HETATM    6  C6  UNL     1     -33.106   5.406   2.735  1.00 20.00     0.033 A 
HETATM    7  N7  UNL     1     -34.372   6.674   6.284  1.00 20.00    -0.253 NA
HETATM    8  N8  UNL     1     -34.512   4.708   4.822  1.00 20.00    -0.241 NA
ENDROOT
TORSDOF 0
ENDMDL
MODEL 6
REMARK VINA RESULT:      -4.7      1.207      2.110
REMARK  0 active torsions:
REMARK  status: ('A' for Active; 'I' for Inactive)
ROOT
HETATM    1  C1  UNL     1     -34.474   4.998   4.772  1.00 20.00     0.131 A 
HETATM    2  C2  UNL     1     -34.271   6.760   6.277  1.00 20.00     0.233 A 
HETATM    3  C3  UNL     1     -33.662   5.704   3.968  1.00 20.00     0.010 A 
HETATM    4  C4  UNL     1     -33.205   6.900   4.376  1.00 20.00     0.070 A 
HETATM    5  C5  UNL     1     -32.946   5.832   2.728  1.00 20.00     0.017 A 
HETATM    6  C6  UNL     1     -32.477   7.050   3.135  1.00 20.00     0.033 A 
HETATM    7  N7  UNL     1     -34.804   5.527   5.976  1.00 20.00    -0.253 NA
HETATM    8  N8  UNL     1     -33.449   7.520   5.512  1.00 20.00    -0.241 NA
ENDROOT
TORSDOF 0
ENDMDL
MODEL 7
REMARK VINA RESULT:      -4.5      0.909      2.055
REMARK  0 active torsions:
REMARK  status: ('A' for Active; 'I' for Inactive)
ROOT
HETATM    1  C1  UNL     1     -32.859   6.014   3.052  1.00 20.00     0.131 A 
HETATM    2  C2  UNL     1     -34.476   5.191   4.508  1.00 20.00     0.233 A 
HETATM    3  C3  UNL     1     -32.850   7.115   3.822  1.00 20.00     0.010 A 
HETATM    4  C4  UNL     1     -33.661   7.181   4.892  1.00 20.00     0.070 A 
HETATM    5  C5  UNL     1     -32.337   8.427   4.107  1.00 20.00     0.017 A 
HETATM    6  C6  UNL     1     -33.159   8.502   5.196  1.00 20.00     0.033 A 
HETATM    7  N7  UNL     1     -33.696   5.002   3.389  1.00 20.00    -0.253 NA
HETATM    8  N8  UNL     1     -34.514   6.274   5.323  1.00 20.00    -0.241 NA
ENDROOT
TORSDOF 0
ENDMDL
MODEL 8
REMARK VINA RESULT:      -3.8     12.689     12.961
REMARK  0 active torsions:
REMARK  status: ('A' for Active; 'I' for Inactive)
ROOT
HETATM    1  C1  UNL     1     -33.217  18.625   0.905  1.00 20.00     0.131 A 
HETATM    2  C2  UNL     1     -31.934  18.524  -1.033  1.00 20.00     0.233 A 
HETATM    3  C3  UNL     1     -32.052  18.714   1.567  1.00 20.00     0.010 A 
HETATM    4  C4  UNL     1     -30.897  18.703   0.880  1.00 20.00     0.070 A 
HETATM    5  C5  UNL     1     -31.334  18.833   2.808  1.00 20.00     0.017 A 
HETATM    6  C6  UNL     1     -30.155  18.821   2.117  1.00 20.00     0.033 A 
HETATM    7  N7  UNL     1     -33.180  18.525  -0.447  1.00 20.00    -0.253 NA
HETATM    8  N8  UNL     1     -30.727  18.611  -0.423  1.00 20.00    -0.241 NA
ENDROOT
TORSDOF 0
ENDMDL
MODEL 9
REMARK VINA RESULT:      -3.8     12.785     13.071
REMARK  0 active torsions:
REMARK  status: ('A' for Active; 'I' for Inactive)
ROOT
HETATM    1  C1  UNL     1     -33.102  18.789   1.212  1.00 20.00     0.131 A 
HETATM    2  C2  UNL     1     -30.842  19.187   0.828  1.00 20.00     0.233 A 
HETATM    3  C3  UNL     1     -33.138  18.295  -0.037  1.00 20.00     0.010 A 
HETATM    4  C4  UNL     1     -32.016  18.280  -0.776  1.00 20.00     0.070 A 
HETATM    5  C5  UNL     1     -33.878  17.697  -1.115  1.00 20.00     0.017 A 
HETATM    6  C6  UNL     1     -32.741  17.678  -1.873  1.00 20.00     0.033 A 
HETATM    7  N7  UNL     1     -31.919  19.258   1.682  1.00 20.00    -0.253 NA
HETATM    8  N8  UNL     1     -30.814  18.702  -0.438  1.00 20.00    -0.241 NA
ENDROOT
TORSDOF 0
ENDMDL
