MODEL 1
REMARK VINA RESULT:      -4.5      0.000      0.000
REMARK  1 active torsions:
REMARK  status: ('A' for Active; 'I' for Inactive)
REMARK    1  A    between atoms: C3_3  and  C9_9 
ROOT
HETATM    1  C1  UNL     1     -34.886  14.606  -4.918  1.00 20.00    -0.067 A 
HETATM    2  C2  UNL     1     -35.727  13.669  -4.532  1.00 20.00     0.016 C 
HETATM    3  C4  UNL     1     -33.694  18.146  -2.751  1.00 20.00     0.000 C 
HETATM    4  C5  UNL     1     -34.307  18.300  -4.147  1.00 20.00     0.001 C 
HETATM    5  C6  UNL     1     -33.447  16.689  -2.353  1.00 20.00     0.001 C 
HETATM    6  C7  UNL     1     -35.133  17.080  -4.545  1.00 20.00     0.015 C 
HETATM    7  C8  UNL     1     -33.130  15.814  -3.561  1.00 20.00     0.015 C 
HETATM    8  C9  UNL     1     -34.014  15.044  -5.933  1.00 20.00     0.096 A 
HETATM    9  C10 UNL     1     -34.265  15.834  -4.568  1.00 20.00    -0.003 A 
ENDROOT
BRANCH   8  10
HETATM   10  C3  UNL     1     -34.644  15.479  -7.180  1.00 20.00     0.132 C 
HETATM   11  C11 UNL     1     -33.977  16.608  -7.918  1.00 20.00     0.091 C 
HETATM   12  O12 UNL     1     -35.669  14.947  -7.604  1.00 20.00    -0.298 OA
ENDBRANCH   8  10
TORSDOF 1
ENDMDL
MODEL 2
REMARK VINA RESULT:      -4.4     12.872     14.138
REMARK  1 active torsions:
REMARK  status: ('A' for Active; 'I' for Inactive)
REMARK    1  A    between atoms: C3_3  and  C9_9 
ROOT
HETATM    1  C1  UNL     1     -41.565  13.563   5.644  1.00 20.00    -0.067 A 
HETATM    2  C2  UNL     1     -41.879  14.157   4.511  1.00 20.00     0.016 C 
HETATM    3  C4  UNL     1     -41.725  15.215   9.630  1.00 20.00     0.000 C 
HETATM    4  C5  UNL     1     -40.400  14.648   9.113  1.00 20.00     0.001 C 
HETATM    5  C6  UNL     1     -42.899  14.983   8.676  1.00 20.00     0.001 C 
HETATM    6  C7  UNL     1     -40.355  14.599   7.589  1.00 20.00     0.015 C 
HETATM    7  C8  UNL     1     -42.738  13.694   7.878  1.00 20.00     0.015 C 
HETATM    8  C9  UNL     1     -41.121  12.374   6.253  1.00 20.00     0.096 A 
HETATM    9  C10 UNL     1     -41.466  13.713   7.052  1.00 20.00    -0.003 A 
ENDROOT
BRANCH   8  10
HETATM   10  C3  UNL     1     -39.733  11.994   5.986  1.00 20.00     0.132 C 
HETATM   11  C11 UNL     1     -39.347  11.814   4.543  1.00 20.00     0.091 C 
HETATM   12  O12 UNL     1     -38.923  11.830   6.897  1.00 20.00    -0.298 OA
ENDBRANCH   8  10
TORSDOF 1
ENDMDL
MODEL 3
REMARK VINA RESULT:      -4.3      3.376      5.951
REMARK  1 active torsions:
REMARK  status: ('A' for Active; 'I' for Inactive)
REMARK    1  A    between atoms: C3_3  and  C9_9 
ROOT
HETATM    1  C1  UNL     1     -34.126  19.012  -0.787  1.00 20.00    -0.067 A 
HETATM    2  C2  UNL     1     -35.090  19.257   0.076  1.00 20.00     0.016 C 
HETATM    3  C4  UNL     1     -34.310  16.564  -4.338  1.00 20.00     0.000 C 
HETATM    4  C5  UNL     1     -33.261  16.244  -3.269  1.00 20.00     0.001 C 
HETATM    5  C6  UNL     1     -35.092  17.848  -4.058  1.00 20.00     0.001 C 
HETATM    6  C7  UNL     1     -33.644  16.814  -1.906  1.00 20.00     0.015 C 
HETATM    7  C8  UNL     1     -34.252  18.875  -3.306  1.00 20.00     0.015 C 
HETATM    8  C9  UNL     1     -32.786  19.263  -1.139  1.00 20.00     0.096 A 
HETATM    9  C10 UNL     1     -33.770  18.326  -1.977  1.00 20.00    -0.003 A 
ENDROOT
BRANCH   8  10
HETATM   10  C3  UNL     1     -31.770  18.688  -0.256  1.00 20.00     0.132 C 
HETATM   11  C11 UNL     1     -32.148  18.520   1.190  1.00 20.00     0.091 C 
HETATM   12  O12 UNL     1     -30.662  18.357  -0.677  1.00 20.00    -0.298 OA
ENDBRANCH   8  10
TORSDOF 1
ENDMDL
MODEL 4
REMARK VINA RESULT:      -4.1      1.140      2.802
REMARK  1 active torsions:
REMARK  status: ('A' for Active; 'I' for Inactive)
REMARK    1  A    between atoms: C3_3  and  C9_9 
ROOT
HETATM    1  C1  UNL     1     -34.868  17.353  -5.892  1.00 20.00    -0.067 A 
HETATM    2  C2  UNL     1     -34.433  18.005  -6.950  1.00 20.00     0.016 C 
HETATM    3  C4  UNL     1     -33.617  17.835  -1.787  1.00 20.00     0.000 C 
HETATM    4  C5  UNL     1     -33.513  16.453  -2.438  1.00 20.00     0.001 C 
HETATM    5  C6  UNL     1     -34.311  18.873  -2.672  1.00 20.00     0.001 C 
HETATM    6  C7  UNL     1     -33.478  16.540  -3.961  1.00 20.00     0.015 C 
HETATM    7  C8  UNL     1     -35.361  18.239  -3.578  1.00 20.00     0.015 C 
HETATM    8  C9  UNL     1     -35.757  16.373  -5.410  1.00 20.00     0.096 A 
HETATM    9  C10 UNL     1     -34.745  17.193  -4.486  1.00 20.00    -0.003 A 
ENDROOT
BRANCH   8  10
HETATM   10  C3  UNL     1     -35.467  14.993  -5.803  1.00 20.00     0.132 C 
HETATM   11  C11 UNL     1     -35.912  13.912  -4.856  1.00 20.00     0.091 C 
HETATM   12  O12 UNL     1     -34.889  14.730  -6.856  1.00 20.00    -0.298 OA
ENDBRANCH   8  10
TORSDOF 1
ENDMDL
MODEL 5
REMARK VINA RESULT:      -4.1      3.454      4.878
REMARK  1 active torsions:
REMARK  status: ('A' for Active; 'I' for Inactive)
REMARK    1  A    between atoms: C3_3  and  C9_9 
ROOT
HETATM    1  C1  UNL     1     -33.413  17.440  -2.482  1.00 20.00    -0.067 A 
HETATM    2  C2  UNL     1     -33.213  16.266  -3.044  1.00 20.00     0.016 C 
HETATM    3  C4  UNL     1     -32.035  18.795   1.379  1.00 20.00     0.000 C 
HETATM    4  C5  UNL     1     -33.535  18.829   1.071  1.00 20.00     0.001 C 
HETATM    5  C6  UNL     1     -31.176  18.400   0.176  1.00 20.00     0.001 C 
HETATM    6  C7  UNL     1     -33.908  17.871  -0.056  1.00 20.00     0.015 C 
HETATM    7  C8  UNL     1     -31.800  18.849  -1.142  1.00 20.00     0.015 C 
HETATM    8  C9  UNL     1     -33.986  18.718  -2.624  1.00 20.00     0.096 A 
HETATM    9  C10 UNL     1     -33.176  18.240  -1.334  1.00 20.00    -0.003 A 
ENDROOT
BRANCH   8  10
HETATM   10  C3  UNL     1     -35.449  18.770  -2.617  1.00 20.00     0.132 C 
HETATM   11  C11 UNL     1     -36.153  18.192  -3.814  1.00 20.00     0.091 C 
HETATM   12  O12 UNL     1     -36.072  19.263  -1.677  1.00 20.00    -0.298 OA
ENDBRANCH   8  10
TORSDOF 1
ENDMDL
MODEL 6
REMARK VINA RESULT:      -3.9     12.420     13.977
REMARK  1 active torsions:
REMARK  status: ('A' for Active; 'I' for Inactive)
REMARK    1  A    between atoms: C3_3  and  C9_9 
ROOT
HETATM    1  C1  UNL     1     -41.844  12.818   6.787  1.00 20.00    -0.067 A 
HETATM    2  C2  UNL     1     -42.901  12.070   7.028  1.00 20.00     0.016 C 
HETATM    3  C4  UNL     1     -38.243  11.711   4.677  1.00 20.00     0.000 C 
HETATM    4  C5  UNL     1     -38.133  12.238   6.111  1.00 20.00     0.001 C 
HETATM    5  C6  UNL     1     -39.663  11.783   4.111  1.00 20.00     0.001 C 
HETATM    6  C7  UNL     1     -39.442  12.084   6.879  1.00 20.00     0.015 C 
HETATM    7  C8  UNL     1     -40.448  12.958   4.687  1.00 20.00     0.015 C 
HETATM    8  C9  UNL     1     -41.258  14.089   6.936  1.00 20.00     0.096 A 
HETATM    9  C10 UNL     1     -40.554  12.861   6.197  1.00 20.00    -0.003 A 
ENDROOT
BRANCH   8  10
HETATM   10  C3  UNL     1     -40.876  14.466   8.298  1.00 20.00     0.132 C 
HETATM   11  C11 UNL     1     -40.220  15.809   8.470  1.00 20.00     0.091 C 
HETATM   12  O12 UNL     1     -41.082  13.721   9.255  1.00 20.00    -0.298 OA
ENDBRANCH   8  10
TORSDOF 1
ENDMDL
MODEL 7
REMARK VINA RESULT:      -3.5     14.142     15.882
REMARK  1 active torsions:
REMARK  status: ('A' for Active; 'I' for Inactive)
REMARK    1  A    between atoms: C3_3  and  C9_9 
ROOT
HETATM    1  C1  UNL     1     -40.609  15.947   8.111  1.00 20.00    -0.067 A 
HETATM    2  C2  UNL     1     -40.602  17.116   7.505  1.00 20.00     0.016 C 
HETATM    3  C4  UNL     1     -42.706  12.364   6.924  1.00 20.00     0.000 C 
HETATM    4  C5  UNL     1     -42.957  12.945   8.318  1.00 20.00     0.001 C 
HETATM    5  C6  UNL     1     -41.592  13.082   6.158  1.00 20.00     0.001 C 
HETATM    6  C7  UNL     1     -42.588  14.423   8.396  1.00 20.00     0.015 C 
HETATM    7  C8  UNL     1     -40.523  13.636   7.094  1.00 20.00     0.015 C 
HETATM    8  C9  UNL     1     -40.119  15.192   9.194  1.00 20.00     0.096 A 
HETATM    9  C10 UNL     1     -41.115  14.621   8.084  1.00 20.00    -0.003 A 
ENDROOT
BRANCH   8  10
HETATM   10  C3  UNL     1     -40.610  15.575  10.519  1.00 20.00     0.132 C 
HETATM   11  C11 UNL     1     -40.530  14.531  11.598  1.00 20.00     0.091 C 
HETATM   12  O12 UNL     1     -41.065  16.697  10.738  1.00 20.00    -0.298 OA
ENDBRANCH   8  10
TORSDOF 1
ENDMDL
MODEL 8
REMARK VINA RESULT:      -3.4      1.720      1.954
REMARK  1 active torsions:
REMARK  status: ('A' for Active; 'I' for Inactive)
REMARK    1  A    between atoms: C3_3  and  C9_9 
ROOT
HETATM    1  C1  UNL     1     -35.671  16.493  -5.554  1.00 20.00    -0.067 A 
HETATM    2  C2  UNL     1     -36.899  16.037  -5.426  1.00 20.00     0.016 C 
HETATM    3  C4  UNL     1     -32.940  17.657  -2.418  1.00 20.00     0.000 C 
HETATM    4  C5  UNL     1     -33.294  18.671  -3.509  1.00 20.00     0.001 C 
HETATM    5  C6  UNL     1     -33.516  16.262  -2.674  1.00 20.00     0.001 C 
HETATM    6  C7  UNL     1     -34.609  18.328  -4.203  1.00 20.00     0.015 C 
HETATM    7  C8  UNL     1     -33.630  15.957  -4.164  1.00 20.00     0.015 C 
HETATM    8  C9  UNL     1     -34.637  16.823  -6.451  1.00 20.00     0.096 A 
HETATM    9  C10 UNL     1     -34.522  16.964  -4.865  1.00 20.00    -0.003 A 
ENDROOT
BRANCH   8  10
HETATM   10  C3  UNL     1     -34.868  17.996  -7.296  1.00 20.00     0.132 C 
HETATM   11  C11 UNL     1     -33.649  18.698  -7.828  1.00 20.00     0.091 C 
HETATM   12  O12 UNL     1     -36.005  18.388  -7.557  1.00 20.00    -0.298 OA
ENDBRANCH   8  10
TORSDOF 1
ENDMDL
MODEL 9
REMARK VINA RESULT:      -3.4     24.660     25.952
REMARK  1 active torsions:
REMARK  status: ('A' for Active; 'I' for Inactive)
REMARK    1  A    between atoms: C3_3  and  C9_9 
ROOT
HETATM    1  C1  UNL     1     -27.497  -3.695  10.938  1.00 20.00    -0.067 A 
HETATM    2  C2  UNL     1     -28.197  -4.727  11.362  1.00 20.00     0.016 C 
HETATM    3  C4  UNL     1     -23.511  -2.532  12.122  1.00 20.00     0.000 C 
HETATM    4  C5  UNL     1     -24.656  -1.529  12.282  1.00 20.00     0.001 C 
HETATM    5  C6  UNL     1     -23.925  -3.818  11.402  1.00 20.00     0.001 C 
HETATM    6  C7  UNL     1     -26.017  -2.217  12.332  1.00 20.00     0.015 C 
HETATM    7  C8  UNL     1     -25.035  -3.570  10.386  1.00 20.00     0.015 C 
HETATM    8  C9  UNL     1     -27.468  -2.580  10.078  1.00 20.00     0.096 A 
HETATM    9  C10 UNL     1     -26.270  -2.990  11.049  1.00 20.00    -0.003 A 
ENDROOT
BRANCH   8  10
HETATM   10  C3  UNL     1     -28.371  -1.480  10.420  1.00 20.00     0.132 C 
HETATM   11  C11 UNL     1     -27.903  -0.091  10.084  1.00 20.00     0.091 C 
HETATM   12  O12 UNL     1     -29.460  -1.683  10.955  1.00 20.00    -0.298 OA
ENDBRANCH   8  10
TORSDOF 1
ENDMDL
