MODEL 1
REMARK VINA RESULT:      -3.6      0.000      0.000
REMARK  0 active torsions:
REMARK  status: ('A' for Active; 'I' for Inactive)
ROOT
HETATM    1  C1  UNL     1     -24.342  19.231   8.329  1.00 20.00     0.015 C 
HETATM    2  C2  UNL     1     -24.213  18.699   9.398  1.00 20.00    -0.073 C 
HETATM    3  C3  UNL     1     -23.863  16.539  10.529  1.00 20.00     0.225 C 
HETATM    4  C4  UNL     1     -25.229  16.881  12.328  1.00 20.00     0.442 C 
HETATM    5  C5  UNL     1     -24.057  18.048  10.710  1.00 20.00     0.240 C 
HETATM    6  C6  UNL     1     -22.860  18.661  11.456  1.00 20.00     0.066 C 
HETATM    7  C7  UNL     1     -25.666  19.263  12.173  1.00 20.00     0.315 C 
HETATM    8  N8  UNL     1     -25.322  18.046  11.455  1.00 20.00     0.130 N 
HETATM    9  O9  UNL     1     -24.337  15.928  11.738  1.00 20.00    -0.359 OA
ENDROOT
TORSDOF 0
ENDMDL
MODEL 2
REMARK VINA RESULT:      -3.5     17.475     18.079
REMARK  0 active torsions:
REMARK  status: ('A' for Active; 'I' for Inactive)
ROOT
HETATM    1  C1  UNL     1     -39.319  11.778   5.304  1.00 20.00     0.015 C 
HETATM    2  C2  UNL     1     -40.205  12.497   5.679  1.00 20.00    -0.073 C 
HETATM    3  C3  UNL     1     -41.906  14.123   4.951  1.00 20.00     0.225 C 
HETATM    4  C4  UNL     1     -41.753  15.573   6.710  1.00 20.00     0.442 C 
HETATM    5  C5  UNL     1     -41.291  13.379   6.140  1.00 20.00     0.240 C 
HETATM    6  C6  UNL     1     -42.362  12.549   6.868  1.00 20.00     0.066 C 
HETATM    7  C7  UNL     1     -40.444  14.288   8.298  1.00 20.00     0.315 C 
HETATM    8  N8  UNL     1     -40.763  14.519   6.899  1.00 20.00     0.130 N 
HETATM    9  O9  UNL     1     -42.451  15.341   5.481  1.00 20.00    -0.359 OA
ENDROOT
TORSDOF 0
ENDMDL
MODEL 3
REMARK VINA RESULT:      -3.4     15.543     16.348
REMARK  0 active torsions:
REMARK  status: ('A' for Active; 'I' for Inactive)
ROOT
HETATM    1  C1  UNL     1     -32.876   4.900   2.639  1.00 20.00     0.015 C 
HETATM    2  C2  UNL     1     -33.457   5.584   3.437  1.00 20.00    -0.073 C 
HETATM    3  C3  UNL     1     -33.676   7.869   4.331  1.00 20.00     0.225 C 
HETATM    4  C4  UNL     1     -33.972   7.338   6.532  1.00 20.00     0.442 C 
HETATM    5  C5  UNL     1     -34.169   6.422   4.417  1.00 20.00     0.240 C 
HETATM    6  C6  UNL     1     -35.684   6.352   4.158  1.00 20.00     0.066 C 
HETATM    7  C7  UNL     1     -34.384   4.949   6.414  1.00 20.00     0.315 C 
HETATM    8  N8  UNL     1     -33.755   6.102   5.789  1.00 20.00     0.130 N 
HETATM    9  O9  UNL     1     -33.897   8.445   5.626  1.00 20.00    -0.359 OA
ENDROOT
TORSDOF 0
ENDMDL
MODEL 4
REMARK VINA RESULT:      -3.4     18.732     20.192
REMARK  0 active torsions:
REMARK  status: ('A' for Active; 'I' for Inactive)
ROOT
HETATM    1  C1  UNL     1     -33.383  16.242  -3.560  1.00 20.00     0.015 C 
HETATM    2  C2  UNL     1     -34.204  16.130  -4.430  1.00 20.00    -0.073 C 
HETATM    3  C3  UNL     1     -35.640  14.530  -5.632  1.00 20.00     0.225 C 
HETATM    4  C4  UNL     1     -35.451  15.423  -7.726  1.00 20.00     0.442 C 
HETATM    5  C5  UNL     1     -35.210  15.994  -5.497  1.00 20.00     0.240 C 
HETATM    6  C6  UNL     1     -36.423  16.886  -5.186  1.00 20.00     0.066 C 
HETATM    7  C7  UNL     1     -34.427  17.572  -7.258  1.00 20.00     0.315 C 
HETATM    8  N8  UNL     1     -34.609  16.197  -6.822  1.00 20.00     0.130 N 
HETATM    9  O9  UNL     1     -36.076  14.365  -6.989  1.00 20.00    -0.359 OA
ENDROOT
TORSDOF 0
ENDMDL
MODEL 5
REMARK VINA RESULT:      -3.3     18.457     19.855
REMARK  0 active torsions:
REMARK  status: ('A' for Active; 'I' for Inactive)
ROOT
HETATM    1  C1  UNL     1     -33.322  16.274  -3.229  1.00 20.00     0.015 C 
HETATM    2  C2  UNL     1     -33.975  15.872  -4.154  1.00 20.00    -0.073 C 
HETATM    3  C3  UNL     1     -33.865  15.050  -6.473  1.00 20.00     0.225 C 
HETATM    4  C4  UNL     1     -35.753  16.058  -7.272  1.00 20.00     0.442 C 
HETATM    5  C5  UNL     1     -34.776  15.381  -5.287  1.00 20.00     0.240 C 
HETATM    6  C6  UNL     1     -35.576  14.139  -4.859  1.00 20.00     0.066 C 
HETATM    7  C7  UNL     1     -36.826  16.794  -5.224  1.00 20.00     0.315 C 
HETATM    8  N8  UNL     1     -35.573  16.461  -5.882  1.00 20.00     0.130 N 
HETATM    9  O9  UNL     1     -34.672  15.197  -7.651  1.00 20.00    -0.359 OA
ENDROOT
TORSDOF 0
ENDMDL
MODEL 6
REMARK VINA RESULT:      -3.2     17.638     18.246
REMARK  0 active torsions:
REMARK  status: ('A' for Active; 'I' for Inactive)
ROOT
HETATM    1  C1  UNL     1     -39.473  11.730   5.613  1.00 20.00     0.015 C 
HETATM    2  C2  UNL     1     -40.277  12.542   5.985  1.00 20.00    -0.073 C 
HETATM    3  C3  UNL     1     -40.565  14.647   7.232  1.00 20.00     0.225 C 
HETATM    4  C4  UNL     1     -42.535  14.148   8.275  1.00 20.00     0.442 C 
HETATM    5  C5  UNL     1     -41.263  13.536   6.441  1.00 20.00     0.240 C 
HETATM    6  C6  UNL     1     -42.009  14.122   5.231  1.00 20.00     0.066 C 
HETATM    7  C7  UNL     1     -43.244  12.164   7.071  1.00 20.00     0.315 C 
HETATM    8  N8  UNL     1     -42.122  12.985   7.497  1.00 20.00     0.130 N 
HETATM    9  O9  UNL     1     -41.550  15.178   8.130  1.00 20.00    -0.359 OA
ENDROOT
TORSDOF 0
ENDMDL
MODEL 7
REMARK VINA RESULT:      -3.2     14.714     16.048
REMARK  0 active torsions:
REMARK  status: ('A' for Active; 'I' for Inactive)
ROOT
HETATM    1  C1  UNL     1     -33.357  15.773  -3.605  1.00 20.00     0.015 C 
HETATM    2  C2  UNL     1     -33.347  16.835  -3.043  1.00 20.00    -0.073 C 
HETATM    3  C3  UNL     1     -32.389  18.088  -1.151  1.00 20.00     0.225 C 
HETATM    4  C4  UNL     1     -34.255  19.263  -0.553  1.00 20.00     0.442 C 
HETATM    5  C5  UNL     1     -33.338  18.136  -2.353  1.00 20.00     0.240 C 
HETATM    6  C6  UNL     1     -32.911  19.241  -3.334  1.00 20.00     0.066 C 
HETATM    7  C7  UNL     1     -35.712  18.881  -2.455  1.00 20.00     0.315 C 
HETATM    8  N8  UNL     1     -34.607  18.376  -1.656  1.00 20.00     0.130 N 
HETATM    9  O9  UNL     1     -32.875  19.066  -0.220  1.00 20.00    -0.359 OA
ENDROOT
TORSDOF 0
ENDMDL
MODEL 8
REMARK VINA RESULT:      -3.1     15.782     16.675
REMARK  0 active torsions:
REMARK  status: ('A' for Active; 'I' for Inactive)
ROOT
HETATM    1  C1  UNL     1     -34.664   5.174   6.957  1.00 20.00     0.015 C 
HETATM    2  C2  UNL     1     -34.471   5.551   5.833  1.00 20.00    -0.073 C 
HETATM    3  C3  UNL     1     -33.581   4.900   3.630  1.00 20.00     0.225 C 
HETATM    4  C4  UNL     1     -32.599   6.886   3.070  1.00 20.00     0.442 C 
HETATM    5  C5  UNL     1     -34.235   6.014   4.455  1.00 20.00     0.240 C 
HETATM    6  C6  UNL     1     -35.565   6.449   3.817  1.00 20.00     0.066 C 
HETATM    7  C7  UNL     1     -33.527   8.385   4.737  1.00 20.00     0.315 C 
HETATM    8  N8  UNL     1     -33.163   7.016   4.408  1.00 20.00     0.130 N 
HETATM    9  O9  UNL     1     -32.838   5.556   2.592  1.00 20.00    -0.359 OA
ENDROOT
TORSDOF 0
ENDMDL
MODEL 9
REMARK VINA RESULT:      -3.0     17.775     18.276
REMARK  0 active torsions:
REMARK  status: ('A' for Active; 'I' for Inactive)
ROOT
HETATM    1  C1  UNL     1     -42.270  14.532   4.039  1.00 20.00     0.015 C 
HETATM    2  C2  UNL     1     -41.956  14.100   5.115  1.00 20.00    -0.073 C 
HETATM    3  C3  UNL     1     -42.659  12.633   6.964  1.00 20.00     0.225 C 
HETATM    4  C4  UNL     1     -41.887  13.898   8.703  1.00 20.00     0.442 C 
HETATM    5  C5  UNL     1     -41.571  13.572   6.434  1.00 20.00     0.240 C 
HETATM    6  C6  UNL     1     -40.226  12.833   6.326  1.00 20.00     0.066 C 
HETATM    7  C7  UNL     1     -40.482  15.510   7.557  1.00 20.00     0.315 C 
HETATM    8  N8  UNL     1     -41.627  14.619   7.462  1.00 20.00     0.130 N 
HETATM    9  O9  UNL     1     -42.554  12.668   8.395  1.00 20.00    -0.359 OA
ENDROOT
TORSDOF 0
ENDMDL
