MODEL 1
REMARK VINA RESULT:      -4.3      0.000      0.000
REMARK  0 active torsions:
REMARK  status: ('A' for Active; 'I' for Inactive)
ROOT
HETATM    1  C1  UNL     1     -33.289   5.982   3.512  1.00 20.00     0.007 C 
HETATM    2  C2  UNL     1     -32.986   7.946   4.671  1.00 20.00     0.226 C 
HETATM    3  C3  UNL     1     -33.030   5.043   2.597  1.00 20.00     0.038 C 
HETATM    4  C4  UNL     1     -34.337   5.932   4.590  1.00 20.00     0.043 C 
HETATM    5  C5  UNL     1     -33.981   7.142   5.490  1.00 20.00     0.083 C 
HETATM    6  C6  UNL     1     -35.745   6.074   4.008  1.00 20.00     0.017 C 
HETATM    7  C7  UNL     1     -33.325   6.710   6.797  1.00 20.00     0.020 C 
HETATM    8  N8  UNL     1     -32.613   7.164   3.592  1.00 20.00    -0.331 N 
HETATM    9  O9  UNL     1     -32.564   9.055   4.959  1.00 20.00    -0.273 OA
HETATM   10  H20 UNL     1     -31.904   7.436   2.920  1.00 20.00     0.168 HD
ENDROOT
TORSDOF 0
ENDMDL
MODEL 2
REMARK VINA RESULT:      -4.2      1.656      3.114
REMARK  0 active torsions:
REMARK  status: ('A' for Active; 'I' for Inactive)
ROOT
HETATM    1  C1  UNL     1     -32.967   7.797   4.549  1.00 20.00     0.007 C 
HETATM    2  C2  UNL     1     -33.354   5.792   3.487  1.00 20.00     0.226 C 
HETATM    3  C3  UNL     1     -32.450   9.017   4.717  1.00 20.00     0.038 C 
HETATM    4  C4  UNL     1     -33.977   7.110   5.427  1.00 20.00     0.043 C 
HETATM    5  C5  UNL     1     -34.391   5.872   4.593  1.00 20.00     0.083 C 
HETATM    6  C6  UNL     1     -33.363   6.693   6.764  1.00 20.00     0.017 C 
HETATM    7  C7  UNL     1     -35.775   6.035   3.975  1.00 20.00     0.020 C 
HETATM    8  N8  UNL     1     -32.630   6.971   3.516  1.00 20.00    -0.331 N 
HETATM    9  O9  UNL     1     -33.234   4.872   2.693  1.00 20.00    -0.273 OA
HETATM   10  H20 UNL     1     -31.915   7.208   2.836  1.00 20.00     0.168 HD
ENDROOT
TORSDOF 0
ENDMDL
MODEL 3
REMARK VINA RESULT:      -4.2     15.210     16.318
REMARK  0 active torsions:
REMARK  status: ('A' for Active; 'I' for Inactive)
ROOT
HETATM    1  C1  UNL     1     -24.200  17.178  11.189  1.00 20.00     0.007 C 
HETATM    2  C2  UNL     1     -24.263  18.593   9.376  1.00 20.00     0.226 C 
HETATM    3  C3  UNL     1     -24.666  16.282  12.064  1.00 20.00     0.038 C 
HETATM    4  C4  UNL     1     -22.794  17.702  11.089  1.00 20.00     0.043 C 
HETATM    5  C5  UNL     1     -22.795  18.472   9.745  1.00 20.00     0.083 C 
HETATM    6  C6  UNL     1     -22.459  18.631  12.256  1.00 20.00     0.017 C 
HETATM    7  C7  UNL     1     -22.061  17.710   8.647  1.00 20.00     0.020 C 
HETATM    8  N8  UNL     1     -24.972  17.766  10.230  1.00 20.00    -0.331 N 
HETATM    9  O9  UNL     1     -24.710  19.261   8.456  1.00 20.00    -0.273 OA
HETATM   10  H20 UNL     1     -25.971  17.607  10.156  1.00 20.00     0.168 HD
ENDROOT
TORSDOF 0
ENDMDL
MODEL 4
REMARK VINA RESULT:      -4.2     15.565     16.341
REMARK  0 active torsions:
REMARK  status: ('A' for Active; 'I' for Inactive)
ROOT
HETATM    1  C1  UNL     1     -24.272  18.526   9.501  1.00 20.00     0.007 C 
HETATM    2  C2  UNL     1     -23.985  17.007  11.206  1.00 20.00     0.226 C 
HETATM    3  C3  UNL     1     -24.945  19.255   8.607  1.00 20.00     0.038 C 
HETATM    4  C4  UNL     1     -22.801  18.596   9.806  1.00 20.00     0.043 C 
HETATM    5  C5  UNL     1     -22.661  17.742  11.091  1.00 20.00     0.083 C 
HETATM    6  C6  UNL     1     -21.965  18.015   8.665  1.00 20.00     0.017 C 
HETATM    7  C7  UNL     1     -22.455  18.604  12.332  1.00 20.00     0.020 C 
HETATM    8  N8  UNL     1     -24.852  17.574  10.288  1.00 20.00    -0.331 N 
HETATM    9  O9  UNL     1     -24.235  16.117  12.005  1.00 20.00    -0.273 OA
HETATM   10  H20 UNL     1     -25.829  17.314  10.204  1.00 20.00     0.168 HD
ENDROOT
TORSDOF 0
ENDMDL
MODEL 5
REMARK VINA RESULT:      -4.0     15.863     16.623
REMARK  0 active torsions:
REMARK  status: ('A' for Active; 'I' for Inactive)
ROOT
HETATM    1  C1  UNL     1     -22.076  17.905   8.910  1.00 20.00     0.007 C 
HETATM    2  C2  UNL     1     -22.294  18.269  11.171  1.00 20.00     0.226 C 
HETATM    3  C3  UNL     1     -21.439  17.658   7.761  1.00 20.00     0.038 C 
HETATM    4  C4  UNL     1     -23.563  17.993   9.122  1.00 20.00     0.043 C 
HETATM    5  C5  UNL     1     -23.702  18.015  10.665  1.00 20.00     0.083 C 
HETATM    6  C6  UNL     1     -24.143  19.262   8.498  1.00 20.00     0.017 C 
HETATM    7  C7  UNL     1     -24.202  16.683  11.214  1.00 20.00     0.020 C 
HETATM    8  N8  UNL     1     -21.436  18.125  10.095  1.00 20.00    -0.331 N 
HETATM    9  O9  UNL     1     -21.989  18.503  12.331  1.00 20.00    -0.273 OA
HETATM   10  H20 UNL     1     -20.426  18.176  10.171  1.00 20.00     0.168 HD
ENDROOT
TORSDOF 0
ENDMDL
MODEL 6
REMARK VINA RESULT:      -4.0     15.999     16.484
REMARK  0 active torsions:
REMARK  status: ('A' for Active; 'I' for Inactive)
ROOT
HETATM    1  C1  UNL     1     -24.288  18.869   9.825  1.00 20.00     0.007 C 
HETATM    2  C2  UNL     1     -22.834  18.458  11.560  1.00 20.00     0.226 C 
HETATM    3  C3  UNL     1     -24.662  19.251   8.600  1.00 20.00     0.038 C 
HETATM    4  C4  UNL     1     -25.155  18.247  10.885  1.00 20.00     0.043 C 
HETATM    5  C5  UNL     1     -24.133  17.776  11.950  1.00 20.00     0.083 C 
HETATM    6  C6  UNL     1     -26.135  19.263  11.473  1.00 20.00     0.017 C 
HETATM    7  C7  UNL     1     -23.936  16.264  11.926  1.00 20.00     0.020 C 
HETATM    8  N8  UNL     1     -23.016  19.002  10.301  1.00 20.00    -0.331 N 
HETATM    9  O9  UNL     1     -21.810  18.466  12.226  1.00 20.00    -0.273 OA
HETATM   10  H20 UNL     1     -22.279  19.458   9.774  1.00 20.00     0.168 HD
ENDROOT
TORSDOF 0
ENDMDL
MODEL 7
REMARK VINA RESULT:      -3.8      1.312      2.674
REMARK  0 active torsions:
REMARK  status: ('A' for Active; 'I' for Inactive)
ROOT
HETATM    1  C1  UNL     1     -34.142   6.499   4.391  1.00 20.00     0.007 C 
HETATM    2  C2  UNL     1     -32.492   8.082   4.648  1.00 20.00     0.226 C 
HETATM    3  C3  UNL     1     -35.234   5.800   4.713  1.00 20.00     0.038 C 
HETATM    4  C4  UNL     1     -33.364   6.424   3.106  1.00 20.00     0.043 C 
HETATM    5  C5  UNL     1     -32.403   7.636   3.199  1.00 20.00     0.083 C 
HETATM    6  C6  UNL     1     -32.586   5.112   2.999  1.00 20.00     0.017 C 
HETATM    7  C7  UNL     1     -32.837   8.782   2.292  1.00 20.00     0.020 C 
HETATM    8  N8  UNL     1     -33.558   7.411   5.221  1.00 20.00    -0.331 N 
HETATM    9  O9  UNL     1     -31.779   8.922   5.176  1.00 20.00    -0.273 OA
HETATM   10  H20 UNL     1     -33.881   7.575   6.168  1.00 20.00     0.168 HD
ENDROOT
TORSDOF 0
ENDMDL
MODEL 8
REMARK VINA RESULT:      -3.8     12.759     13.463
REMARK  0 active torsions:
REMARK  status: ('A' for Active; 'I' for Inactive)
ROOT
HETATM    1  C1  UNL     1     -36.337  16.067  -5.718  1.00 20.00     0.007 C 
HETATM    2  C2  UNL     1     -35.703  14.049  -4.813  1.00 20.00     0.226 C 
HETATM    3  C3  UNL     1     -37.162  17.077  -6.009  1.00 20.00     0.038 C 
HETATM    4  C4  UNL     1     -34.863  15.988  -6.005  1.00 20.00     0.043 C 
HETATM    5  C5  UNL     1     -34.410  14.742  -5.204  1.00 20.00     0.083 C 
HETATM    6  C6  UNL     1     -34.593  15.811  -7.499  1.00 20.00     0.017 C 
HETATM    7  C7  UNL     1     -33.640  15.120  -3.943  1.00 20.00     0.020 C 
HETATM    8  N8  UNL     1     -36.740  14.920  -5.099  1.00 20.00    -0.331 N 
HETATM    9  O9  UNL     1     -35.787  12.947  -4.294  1.00 20.00    -0.273 OA
HETATM   10  H20 UNL     1     -37.710  14.732  -4.871  1.00 20.00     0.168 HD
ENDROOT
TORSDOF 0
ENDMDL
MODEL 9
REMARK VINA RESULT:      -3.6      9.709     10.382
REMARK  0 active torsions:
REMARK  status: ('A' for Active; 'I' for Inactive)
ROOT
HETATM    1  C1  UNL     1     -40.284  12.720   6.072  1.00 20.00     0.007 C 
HETATM    2  C2  UNL     1     -40.457  14.230   7.799  1.00 20.00     0.226 C 
HETATM    3  C3  UNL     1     -39.710  11.781   5.314  1.00 20.00     0.038 C 
HETATM    4  C4  UNL     1     -41.692  13.239   5.961  1.00 20.00     0.043 C 
HETATM    5  C5  UNL     1     -41.865  14.080   7.250  1.00 20.00     0.083 C 
HETATM    6  C6  UNL     1     -41.872  14.102   4.712  1.00 20.00     0.017 C 
HETATM    7  C7  UNL     1     -42.735  13.373   8.283  1.00 20.00     0.020 C 
HETATM    8  N8  UNL     1     -39.644  13.364   7.090  1.00 20.00    -0.331 N 
HETATM    9  O9  UNL     1     -40.133  14.949   8.732  1.00 20.00    -0.273 OA
HETATM   10  H20 UNL     1     -38.663  13.215   7.301  1.00 20.00     0.168 HD
ENDROOT
TORSDOF 0
ENDMDL
