MODEL 1
REMARK VINA RESULT:      -5.5      0.000      0.000
REMARK  0 active torsions:
REMARK  status: ('A' for Active; 'I' for Inactive)
ROOT
HETATM    1  C1  UNL     1     -33.173   6.388   3.589  1.00 20.00    -0.054 C 
HETATM    2  C2  UNL     1     -33.783   7.217   5.688  1.00 20.00     0.226 C 
HETATM    3  C3  UNL     1     -32.886   5.477   2.649  1.00 20.00     0.017 C 
HETATM    4  C4  UNL     1     -34.301   6.308   4.590  1.00 20.00     0.104 C 
HETATM    5  C5  UNL     1     -32.326   7.600   3.852  1.00 20.00     0.109 C 
HETATM    6  C6  UNL     1     -34.631   4.924   5.127  1.00 20.00     0.025 C 
HETATM    7  C7  UNL     1     -32.634   8.753   2.908  1.00 20.00     0.037 C 
HETATM    8  N8  UNL     1     -32.693   7.924   5.205  1.00 20.00    -0.352 N 
HETATM    9  O9  UNL     1     -34.271   7.322   6.805  1.00 20.00    -0.273 OA
HETATM   10  H20 UNL     1     -32.194   8.614   5.759  1.00 20.00     0.163 HD
ENDROOT
TORSDOF 0
ENDMDL
MODEL 2
REMARK VINA RESULT:      -4.8      2.147      3.636
REMARK  0 active torsions:
REMARK  status: ('A' for Active; 'I' for Inactive)
ROOT
HETATM    1  C1  UNL     1     -33.865   7.082   5.357  1.00 20.00    -0.054 C 
HETATM    2  C2  UNL     1     -32.803   7.101   3.274  1.00 20.00     0.226 C 
HETATM    3  C3  UNL     1     -34.029   7.300   6.668  1.00 20.00     0.017 C 
HETATM    4  C4  UNL     1     -33.268   8.049   4.363  1.00 20.00     0.104 C 
HETATM    5  C5  UNL     1     -34.163   5.768   4.693  1.00 20.00     0.109 C 
HETATM    6  C6  UNL     1     -32.125   8.917   4.866  1.00 20.00     0.025 C 
HETATM    7  C7  UNL     1     -35.635   5.602   4.343  1.00 20.00     0.037 C 
HETATM    8  N8  UNL     1     -33.354   5.850   3.507  1.00 20.00    -0.352 N 
HETATM    9  O9  UNL     1     -32.082   7.406   2.334  1.00 20.00    -0.273 OA
HETATM   10  H20 UNL     1     -33.199   5.057   2.891  1.00 20.00     0.163 HD
ENDROOT
TORSDOF 0
ENDMDL
MODEL 3
REMARK VINA RESULT:      -4.4      1.551      2.404
REMARK  0 active torsions:
REMARK  status: ('A' for Active; 'I' for Inactive)
ROOT
HETATM    1  C1  UNL     1     -32.861   7.270   4.104  1.00 20.00    -0.054 C 
HETATM    2  C2  UNL     1     -34.275   5.554   4.827  1.00 20.00     0.226 C 
HETATM    3  C3  UNL     1     -31.824   7.843   3.478  1.00 20.00     0.017 C 
HETATM    4  C4  UNL     1     -33.735   6.170   3.550  1.00 20.00     0.104 C 
HETATM    5  C5  UNL     1     -33.244   7.578   5.523  1.00 20.00     0.109 C 
HETATM    6  C6  UNL     1     -33.044   5.129   2.683  1.00 20.00     0.025 C 
HETATM    7  C7  UNL     1     -34.104   8.827   5.646  1.00 20.00     0.037 C 
HETATM    8  N8  UNL     1     -33.985   6.399   5.887  1.00 20.00    -0.352 N 
HETATM    9  O9  UNL     1     -34.889   4.498   4.896  1.00 20.00    -0.273 OA
HETATM   10  H20 UNL     1     -34.271   6.203   6.842  1.00 20.00     0.163 HD
ENDROOT
TORSDOF 0
ENDMDL
MODEL 4
REMARK VINA RESULT:      -4.3      1.528      2.883
REMARK  0 active torsions:
REMARK  status: ('A' for Active; 'I' for Inactive)
ROOT
HETATM    1  C1  UNL     1     -33.593   6.091   4.060  1.00 20.00    -0.054 C 
HETATM    2  C2  UNL     1     -32.968   8.200   4.851  1.00 20.00     0.226 C 
HETATM    3  C3  UNL     1     -33.878   5.135   3.166  1.00 20.00     0.017 C 
HETATM    4  C4  UNL     1     -32.450   7.074   3.977  1.00 20.00     0.104 C 
HETATM    5  C5  UNL     1     -34.458   6.394   5.250  1.00 20.00     0.109 C 
HETATM    6  C6  UNL     1     -32.088   7.574   2.587  1.00 20.00     0.025 C 
HETATM    7  C7  UNL     1     -34.185   5.473   6.430  1.00 20.00     0.037 C 
HETATM    8  N8  UNL     1     -34.078   7.749   5.549  1.00 20.00    -0.352 N 
HETATM    9  O9  UNL     1     -32.466   9.313   4.939  1.00 20.00    -0.273 OA
HETATM   10  H20 UNL     1     -34.581   8.326   6.216  1.00 20.00     0.163 HD
ENDROOT
TORSDOF 0
ENDMDL
MODEL 5
REMARK VINA RESULT:      -4.2      1.872      2.967
REMARK  0 active torsions:
REMARK  status: ('A' for Active; 'I' for Inactive)
ROOT
HETATM    1  C1  UNL     1     -34.006   5.965   4.503  1.00 20.00    -0.054 C 
HETATM    2  C2  UNL     1     -32.618   7.353   3.233  1.00 20.00     0.226 C 
HETATM    3  C3  UNL     1     -34.889   4.990   4.758  1.00 20.00     0.017 C 
HETATM    4  C4  UNL     1     -32.846   5.885   3.541  1.00 20.00     0.104 C 
HETATM    5  C5  UNL     1     -34.114   7.349   5.078  1.00 20.00     0.109 C 
HETATM    6  C6  UNL     1     -33.077   5.083   2.269  1.00 20.00     0.025 C 
HETATM    7  C7  UNL     1     -33.536   7.453   6.482  1.00 20.00     0.037 C 
HETATM    8  N8  UNL     1     -33.338   8.115   4.140  1.00 20.00    -0.352 N 
HETATM    9  O9  UNL     1     -31.894   7.784   2.346  1.00 20.00    -0.273 OA
HETATM   10  H20 UNL     1     -33.320   9.131   4.142  1.00 20.00     0.163 HD
ENDROOT
TORSDOF 0
ENDMDL
MODEL 6
REMARK VINA RESULT:      -4.0      1.537      2.607
REMARK  0 active torsions:
REMARK  status: ('A' for Active; 'I' for Inactive)
ROOT
HETATM    1  C1  UNL     1     -33.258   7.148   4.225  1.00 20.00    -0.054 C 
HETATM    2  C2  UNL     1     -34.498   5.737   5.618  1.00 20.00     0.226 C 
HETATM    3  C3  UNL     1     -32.772   8.297   3.738  1.00 20.00     0.017 C 
HETATM    4  C4  UNL     1     -33.415   6.796   5.685  1.00 20.00     0.104 C 
HETATM    5  C5  UNL     1     -33.828   6.059   3.362  1.00 20.00     0.109 C 
HETATM    6  C6  UNL     1     -33.810   7.933   6.616  1.00 20.00     0.025 C 
HETATM    7  C7  UNL     1     -32.759   5.142   2.783  1.00 20.00     0.037 C 
HETATM    8  N8  UNL     1     -34.666   5.355   4.295  1.00 20.00    -0.352 N 
HETATM    9  O9  UNL     1     -35.101   5.281   6.580  1.00 20.00    -0.273 OA
HETATM   10  H20 UNL     1     -35.325   4.637   4.009  1.00 20.00     0.163 HD
ENDROOT
TORSDOF 0
ENDMDL
MODEL 7
REMARK VINA RESULT:      -3.9      1.982      2.624
REMARK  0 active torsions:
REMARK  status: ('A' for Active; 'I' for Inactive)
ROOT
HETATM    1  C1  UNL     1     -33.622   7.452   5.127  1.00 20.00    -0.054 C 
HETATM    2  C2  UNL     1     -33.874   5.242   4.404  1.00 20.00     0.226 C 
HETATM    3  C3  UNL     1     -33.916   8.587   5.775  1.00 20.00     0.017 C 
HETATM    4  C4  UNL     1     -33.754   6.053   5.680  1.00 20.00     0.104 C 
HETATM    5  C5  UNL     1     -33.208   7.405   3.684  1.00 20.00     0.109 C 
HETATM    6  C6  UNL     1     -34.934   5.801   6.608  1.00 20.00     0.025 C 
HETATM    7  C7  UNL     1     -31.724   7.680   3.486  1.00 20.00     0.037 C 
HETATM    8  N8  UNL     1     -33.537   6.051   3.329  1.00 20.00    -0.352 N 
HETATM    9  O9  UNL     1     -34.192   4.062   4.345  1.00 20.00    -0.273 OA
HETATM   10  H20 UNL     1     -33.523   5.715   2.371  1.00 20.00     0.163 HD
ENDROOT
TORSDOF 0
ENDMDL
MODEL 8
REMARK VINA RESULT:      -3.9      1.508      2.300
REMARK  0 active torsions:
REMARK  status: ('A' for Active; 'I' for Inactive)
ROOT
HETATM    1  C1  UNL     1     -33.806   5.829   4.291  1.00 20.00    -0.054 C 
HETATM    2  C2  UNL     1     -32.760   7.916   4.426  1.00 20.00     0.226 C 
HETATM    3  C3  UNL     1     -34.361   4.689   4.722  1.00 20.00     0.017 C 
HETATM    4  C4  UNL     1     -34.016   7.201   4.886  1.00 20.00     0.104 C 
HETATM    5  C5  UNL     1     -32.787   5.888   3.189  1.00 20.00     0.109 C 
HETATM    6  C6  UNL     1     -34.166   7.266   6.399  1.00 20.00     0.025 C 
HETATM    7  C7  UNL     1     -33.414   5.891   1.802  1.00 20.00     0.037 C 
HETATM    8  N8  UNL     1     -32.131   7.139   3.465  1.00 20.00    -0.352 N 
HETATM    9  O9  UNL     1     -32.385   9.011   4.823  1.00 20.00    -0.273 OA
HETATM   10  H20 UNL     1     -31.279   7.428   2.994  1.00 20.00     0.163 HD
ENDROOT
TORSDOF 0
ENDMDL
MODEL 9
REMARK VINA RESULT:      -3.6     12.106     13.301
REMARK  0 active torsions:
REMARK  status: ('A' for Active; 'I' for Inactive)
ROOT
HETATM    1  C1  UNL     1     -35.341  16.510  -5.041  1.00 20.00    -0.054 C 
HETATM    2  C2  UNL     1     -34.025  14.618  -4.641  1.00 20.00     0.226 C 
HETATM    3  C3  UNL     1     -35.974  17.660  -4.775  1.00 20.00     0.017 C 
HETATM    4  C4  UNL     1     -33.952  16.132  -4.583  1.00 20.00     0.104 C 
HETATM    5  C5  UNL     1     -35.983  15.360  -5.764  1.00 20.00     0.109 C 
HETATM    6  C6  UNL     1     -33.543  16.613  -3.198  1.00 20.00     0.025 C 
HETATM    7  C7  UNL     1     -35.938  15.514  -7.277  1.00 20.00     0.037 C 
HETATM    8  N8  UNL     1     -35.171  14.254  -5.331  1.00 20.00    -0.352 N 
HETATM    9  O9  UNL     1     -33.191  13.853  -4.177  1.00 20.00    -0.273 OA
HETATM   10  H20 UNL     1     -35.419  13.286  -5.515  1.00 20.00     0.163 HD
ENDROOT
TORSDOF 0
ENDMDL
