MODEL 1
REMARK VINA RESULT:      -3.8      0.000      0.000
REMARK  3 active torsions:
REMARK  status: ('A' for Active; 'I' for Inactive)
REMARK    1  A    between atoms: C8_8  and  C9_9 
REMARK    2  A    between atoms: C8_8  and  O11_11 
REMARK    3  A    between atoms: N10_10  and  O11_11 
ROOT
HETATM    1  C1  UNL     1     -42.032  13.880   7.776  1.00 20.00     0.107 A 
HETATM    2  C2  UNL     1     -40.878  14.533   8.526  1.00 20.00     0.049 A 
HETATM    3  C3  UNL     1     -43.112  13.124   8.466  1.00 20.00     0.031 C 
HETATM    4  C4  UNL     1     -40.751  14.360  10.019  1.00 20.00     0.036 C 
HETATM    5  C5  UNL     1     -40.387  15.866   8.024  1.00 20.00     0.036 C 
HETATM    6  N10 UNL     1     -40.692  13.309   7.724  1.00 20.00    -0.180 NA
ENDROOT
BRANCH   6   7
HETATM    7  O11 UNL     1     -40.105  13.638   6.437  1.00 20.00    -0.302 OA
BRANCH   7   8
HETATM    8  C8  UNL     1     -40.535  12.658   5.504  1.00 20.00     0.197 C 
BRANCH   8   9
HETATM    9  C9  UNL     1     -39.369  11.734   5.142  1.00 20.00     0.003 C 
HETATM   10  C6  UNL     1     -39.106  11.732   3.634  1.00 20.00     0.011 C 
HETATM   11  C7  UNL     1     -38.109  12.146   5.899  1.00 20.00     0.011 C 
ENDBRANCH   8   9
ENDBRANCH   7   8
ENDBRANCH   6   7
TORSDOF 3
ENDMDL
MODEL 2
REMARK VINA RESULT:      -3.8      1.112      1.372
REMARK  3 active torsions:
REMARK  status: ('A' for Active; 'I' for Inactive)
REMARK    1  A    between atoms: C8_8  and  C9_9 
REMARK    2  A    between atoms: C8_8  and  O11_11 
REMARK    3  A    between atoms: N10_10  and  O11_11 
ROOT
HETATM    1  C1  UNL     1     -41.893  14.471   6.819  1.00 20.00     0.107 A 
HETATM    2  C2  UNL     1     -41.634  14.259   8.306  1.00 20.00     0.049 A 
HETATM    3  C3  UNL     1     -43.171  15.028   6.299  1.00 20.00     0.031 C 
HETATM    4  C4  UNL     1     -42.722  14.540   9.311  1.00 20.00     0.036 C 
HETATM    5  C5  UNL     1     -40.245  14.542   8.817  1.00 20.00     0.036 C 
HETATM    6  N10 UNL     1     -41.887  13.130   7.390  1.00 20.00    -0.180 NA
ENDROOT
BRANCH   6   7
HETATM    7  O11 UNL     1     -40.636  12.486   7.031  1.00 20.00    -0.302 OA
BRANCH   7   8
HETATM    8  C8  UNL     1     -40.540  12.493   5.614  1.00 20.00     0.197 C 
BRANCH   8   9
HETATM    9  C9  UNL     1     -39.322  11.678   5.170  1.00 20.00     0.003 C 
HETATM   10  C6  UNL     1     -39.103  11.780   3.659  1.00 20.00     0.011 C 
HETATM   11  C7  UNL     1     -38.073  12.138   5.919  1.00 20.00     0.011 C 
ENDBRANCH   8   9
ENDBRANCH   7   8
ENDBRANCH   6   7
TORSDOF 3
ENDMDL
MODEL 3
REMARK VINA RESULT:      -3.7     11.420     13.081
REMARK  3 active torsions:
REMARK  status: ('A' for Active; 'I' for Inactive)
REMARK    1  A    between atoms: C8_8  and  C9_9 
REMARK    2  A    between atoms: C8_8  and  O11_11 
REMARK    3  A    between atoms: N10_10  and  O11_11 
ROOT
HETATM    1  C1  UNL     1     -33.155  16.201  -3.551  1.00 20.00     0.107 A 
HETATM    2  C2  UNL     1     -33.879  17.534  -3.699  1.00 20.00     0.049 A 
HETATM    3  C3  UNL     1     -33.695  14.929  -4.104  1.00 20.00     0.031 C 
HETATM    4  C4  UNL     1     -35.233  17.591  -4.358  1.00 20.00     0.036 C 
HETATM    5  C5  UNL     1     -33.035  18.760  -3.935  1.00 20.00     0.036 C 
HETATM    6  N10 UNL     1     -33.824  16.816  -2.411  1.00 20.00    -0.180 NA
ENDROOT
BRANCH   6   7
HETATM    7  O11 UNL     1     -32.813  17.405  -1.552  1.00 20.00    -0.302 OA
BRANCH   7   8
HETATM    8  C8  UNL     1     -33.481  18.033  -0.467  1.00 20.00     0.197 C 
BRANCH   8   9
HETATM    9  C9  UNL     1     -32.570  19.086   0.169  1.00 20.00     0.003 C 
HETATM   10  C6  UNL     1     -32.872  19.258   1.660  1.00 20.00     0.011 C 
HETATM   11  C7  UNL     1     -31.104  18.714  -0.036  1.00 20.00     0.011 C 
ENDBRANCH   8   9
ENDBRANCH   7   8
ENDBRANCH   6   7
TORSDOF 3
ENDMDL
MODEL 4
REMARK VINA RESULT:      -3.7     11.919     13.329
REMARK  3 active torsions:
REMARK  status: ('A' for Active; 'I' for Inactive)
REMARK    1  A    between atoms: C8_8  and  C9_9 
REMARK    2  A    between atoms: C8_8  and  O11_11 
REMARK    3  A    between atoms: N10_10  and  O11_11 
ROOT
HETATM    1  C1  UNL     1     -33.140  18.120  -3.590  1.00 20.00     0.107 A 
HETATM    2  C2  UNL     1     -34.192  17.895  -2.510  1.00 20.00     0.049 A 
HETATM    3  C3  UNL     1     -33.231  19.227  -4.580  1.00 20.00     0.031 C 
HETATM    4  C4  UNL     1     -35.425  18.760  -2.462  1.00 20.00     0.036 C 
HETATM    5  C5  UNL     1     -33.711  17.445  -1.154  1.00 20.00     0.036 C 
HETATM    6  N10 UNL     1     -34.078  17.008  -3.684  1.00 20.00    -0.180 NA
ENDROOT
BRANCH   6   7
HETATM    7  O11 UNL     1     -33.378  15.788  -3.324  1.00 20.00    -0.302 OA
BRANCH   7   8
HETATM    8  C8  UNL     1     -33.433  14.914  -4.442  1.00 20.00     0.197 C 
BRANCH   8   9
HETATM    9  C9  UNL     1     -34.626  15.277  -5.331  1.00 20.00     0.003 C 
HETATM   10  C6  UNL     1     -34.216  15.380  -6.801  1.00 20.00     0.011 C 
HETATM   11  C7  UNL     1     -35.745  14.252  -5.163  1.00 20.00     0.011 C 
ENDBRANCH   8   9
ENDBRANCH   7   8
ENDBRANCH   6   7
TORSDOF 3
ENDMDL
MODEL 5
REMARK VINA RESULT:      -3.7      0.902      2.097
REMARK  3 active torsions:
REMARK  status: ('A' for Active; 'I' for Inactive)
REMARK    1  A    between atoms: C8_8  and  C9_9 
REMARK    2  A    between atoms: C8_8  and  O11_11 
REMARK    3  A    between atoms: N10_10  and  O11_11 
ROOT
HETATM    1  C1  UNL     1     -40.887  14.204   8.736  1.00 20.00     0.107 A 
HETATM    2  C2  UNL     1     -42.298  14.226   8.161  1.00 20.00     0.049 A 
HETATM    3  C3  UNL     1     -40.215  15.424   9.260  1.00 20.00     0.031 C 
HETATM    4  C4  UNL     1     -43.042  15.531   8.030  1.00 20.00     0.036 C 
HETATM    5  C5  UNL     1     -43.188  13.045   8.454  1.00 20.00     0.036 C 
HETATM    6  N10 UNL     1     -41.109  14.081   7.300  1.00 20.00    -0.180 NA
ENDROOT
BRANCH   6   7
HETATM    7  O11 UNL     1     -40.927  12.689   6.928  1.00 20.00    -0.302 OA
BRANCH   7   8
HETATM    8  C8  UNL     1     -40.638  12.648   5.538  1.00 20.00     0.197 C 
BRANCH   8   9
HETATM    9  C9  UNL     1     -39.453  11.714   5.278  1.00 20.00     0.003 C 
HETATM   10  C6  UNL     1     -39.093  11.670   3.792  1.00 20.00     0.011 C 
HETATM   11  C7  UNL     1     -38.243  12.147   6.104  1.00 20.00     0.011 C 
ENDBRANCH   8   9
ENDBRANCH   7   8
ENDBRANCH   6   7
TORSDOF 3
ENDMDL
MODEL 6
REMARK VINA RESULT:      -3.6     10.001     12.220
REMARK  3 active torsions:
REMARK  status: ('A' for Active; 'I' for Inactive)
REMARK    1  A    between atoms: C8_8  and  C9_9 
REMARK    2  A    between atoms: C8_8  and  O11_11 
REMARK    3  A    between atoms: N10_10  and  O11_11 
ROOT
HETATM    1  C1  UNL     1     -41.707   5.871  -0.382  1.00 20.00     0.107 A 
HETATM    2  C2  UNL     1     -42.829   5.698   0.636  1.00 20.00     0.049 A 
HETATM    3  C3  UNL     1     -40.918   7.127  -0.501  1.00 20.00     0.031 C 
HETATM    4  C4  UNL     1     -43.234   6.851   1.518  1.00 20.00     0.036 C 
HETATM    5  C5  UNL     1     -42.971   4.350   1.293  1.00 20.00     0.036 C 
HETATM    6  N10 UNL     1     -43.103   5.870  -0.804  1.00 20.00    -0.180 NA
ENDROOT
BRANCH   6   7
HETATM    7  O11 UNL     1     -43.394   4.585  -1.415  1.00 20.00    -0.302 OA
BRANCH   7   8
HETATM    8  C8  UNL     1     -42.309   4.260  -2.272  1.00 20.00     0.197 C 
BRANCH   8   9
HETATM    9  C9  UNL     1     -42.736   3.176  -3.266  1.00 20.00     0.003 C 
HETATM   10  C6  UNL     1     -41.544   2.662  -4.077  1.00 20.00     0.011 C 
HETATM   11  C7  UNL     1     -43.417   2.022  -2.534  1.00 20.00     0.011 C 
ENDBRANCH   8   9
ENDBRANCH   7   8
ENDBRANCH   6   7
TORSDOF 3
ENDMDL
MODEL 7
REMARK VINA RESULT:      -3.5     12.072     14.047
REMARK  3 active torsions:
REMARK  status: ('A' for Active; 'I' for Inactive)
REMARK    1  A    between atoms: C8_8  and  C9_9 
REMARK    2  A    between atoms: C8_8  and  O11_11 
REMARK    3  A    between atoms: N10_10  and  O11_11 
ROOT
HETATM    1  C1  UNL     1     -34.881  14.553  -5.070  1.00 20.00     0.107 A 
HETATM    2  C2  UNL     1     -34.927  15.317  -6.387  1.00 20.00     0.049 A 
HETATM    3  C3  UNL     1     -35.995  13.681  -4.608  1.00 20.00     0.031 C 
HETATM    4  C4  UNL     1     -36.166  15.273  -7.245  1.00 20.00     0.036 C 
HETATM    5  C5  UNL     1     -33.646  15.425  -7.174  1.00 20.00     0.036 C 
HETATM    6  N10 UNL     1     -35.075  15.998  -5.087  1.00 20.00    -0.180 NA
ENDROOT
BRANCH   6   7
HETATM    7  O11 UNL     1     -33.824  16.630  -4.707  1.00 20.00    -0.302 OA
BRANCH   7   8
HETATM    8  C8  UNL     1     -33.465  16.141  -3.424  1.00 20.00     0.197 C 
BRANCH   8   9
HETATM    9  C9  UNL     1     -32.964  17.292  -2.547  1.00 20.00     0.003 C 
HETATM   10  C6  UNL     1     -33.071  18.634  -3.274  1.00 20.00     0.011 C 
HETATM   11  C7  UNL     1     -33.740  17.336  -1.233  1.00 20.00     0.011 C 
ENDBRANCH   8   9
ENDBRANCH   7   8
ENDBRANCH   6   7
TORSDOF 3
ENDMDL
MODEL 8
REMARK VINA RESULT:      -3.5      1.430      4.612
REMARK  3 active torsions:
REMARK  status: ('A' for Active; 'I' for Inactive)
REMARK    1  A    between atoms: C8_8  and  C9_9 
REMARK    2  A    between atoms: C8_8  and  O11_11 
REMARK    3  A    between atoms: N10_10  and  O11_11 
ROOT
HETATM    1  C1  UNL     1     -40.359  13.180   6.226  1.00 20.00     0.107 A 
HETATM    2  C2  UNL     1     -41.796  13.397   6.684  1.00 20.00     0.049 A 
HETATM    3  C3  UNL     1     -39.799  11.829   5.952  1.00 20.00     0.031 C 
HETATM    4  C4  UNL     1     -42.690  12.214   6.956  1.00 20.00     0.036 C 
HETATM    5  C5  UNL     1     -42.525  14.599   6.142  1.00 20.00     0.036 C 
HETATM    6  N10 UNL     1     -40.653  13.558   7.603  1.00 20.00    -0.180 NA
ENDROOT
BRANCH   6   7
HETATM    7  O11 UNL     1     -40.337  14.965   7.768  1.00 20.00    -0.302 OA
BRANCH   7   8
HETATM    8  C8  UNL     1     -40.078  15.190   9.146  1.00 20.00     0.197 C 
BRANCH   8   9
HETATM    9  C9  UNL     1     -41.225  14.631   9.991  1.00 20.00     0.003 C 
HETATM   10  C6  UNL     1     -40.771  14.337  11.423  1.00 20.00     0.011 C 
HETATM   11  C7  UNL     1     -42.404  15.601   9.998  1.00 20.00     0.011 C 
ENDBRANCH   8   9
ENDBRANCH   7   8
ENDBRANCH   6   7
TORSDOF 3
ENDMDL
MODEL 9
REMARK VINA RESULT:      -3.5     11.537     13.630
REMARK  3 active torsions:
REMARK  status: ('A' for Active; 'I' for Inactive)
REMARK    1  A    between atoms: C8_8  and  C9_9 
REMARK    2  A    between atoms: C8_8  and  O11_11 
REMARK    3  A    between atoms: N10_10  and  O11_11 
ROOT
HETATM    1  C1  UNL     1     -35.079  16.752  -4.606  1.00 20.00     0.107 A 
HETATM    2  C2  UNL     1     -34.248  15.548  -5.031  1.00 20.00     0.049 A 
HETATM    3  C3  UNL     1     -35.766  17.639  -5.584  1.00 20.00     0.031 C 
HETATM    4  C4  UNL     1     -34.028  15.258  -6.495  1.00 20.00     0.036 C 
HETATM    5  C5  UNL     1     -34.323  14.312  -4.172  1.00 20.00     0.036 C 
HETATM    6  N10 UNL     1     -33.623  16.785  -4.524  1.00 20.00    -0.180 NA
ENDROOT
BRANCH   6   7
HETATM    7  O11 UNL     1     -33.241  16.618  -3.133  1.00 20.00    -0.302 OA
BRANCH   7   8
HETATM    8  C8  UNL     1     -33.468  17.855  -2.473  1.00 20.00     0.197 C 
BRANCH   8   9
HETATM    9  C9  UNL     1     -32.975  17.773  -1.026  1.00 20.00     0.003 C 
HETATM   10  C6  UNL     1     -31.695  18.587  -0.825  1.00 20.00     0.011 C 
HETATM   11  C7  UNL     1     -34.063  18.249  -0.066  1.00 20.00     0.011 C 
ENDBRANCH   8   9
ENDBRANCH   7   8
ENDBRANCH   6   7
TORSDOF 3
ENDMDL
