MODEL 1
REMARK VINA RESULT:      -3.9      0.000      0.000
REMARK  3 active torsions:
REMARK  status: ('A' for Active; 'I' for Inactive)
REMARK    1  A    between atoms: C1_1  and  C4_4 
REMARK    2  A    between atoms: C3_3  and  C10_10 
REMARK    3  A    between atoms: C5_5  and  C10_10 
ROOT
HETATM    1  C1  UNL     1     -40.844  12.374   5.921  1.00 20.00    -0.101 C 
HETATM    2  C2  UNL     1     -39.890  12.069   5.257  1.00 20.00    -0.111 C 
HETATM    3  C7  UNL     1     -38.731  11.696   4.449  1.00 20.00     0.112 C 
ENDROOT
BRANCH   1   4
HETATM    4  C4  UNL     1     -41.983  12.738   6.713  1.00 20.00     0.078 A 
HETATM    5  C5  UNL     1     -42.663  14.076   6.521  1.00 20.00     0.017 A 
HETATM    6  C6  UNL     1     -41.871  13.809   7.791  1.00 20.00    -0.028 A 
HETATM    7  C8  UNL     1     -40.563  14.525   8.030  1.00 20.00     0.016 C 
HETATM    8  C9  UNL     1     -42.665  13.596   9.057  1.00 20.00     0.016 C 
BRANCH   5   9
HETATM    9  C10 UNL     1     -42.231  15.066   5.492  1.00 20.00     0.076 C 
BRANCH   9  10
HETATM   10  C3  UNL     1     -42.710  14.732   4.091  1.00 20.00     0.231 C 
HETATM   11  O11 UNL     1     -41.967  14.385   3.178  1.00 20.00    -0.307 OA
ENDBRANCH   9  10
ENDBRANCH   5   9
ENDBRANCH   1   4
TORSDOF 3
ENDMDL
MODEL 2
REMARK VINA RESULT:      -3.7     12.039     13.002
REMARK  3 active torsions:
REMARK  status: ('A' for Active; 'I' for Inactive)
REMARK    1  A    between atoms: C1_1  and  C4_4 
REMARK    2  A    between atoms: C3_3  and  C10_10 
REMARK    3  A    between atoms: C5_5  and  C10_10 
ROOT
HETATM    1  C1  UNL     1     -33.081  18.244  -1.180  1.00 20.00    -0.101 C 
HETATM    2  C2  UNL     1     -32.113  18.356  -0.477  1.00 20.00    -0.111 C 
HETATM    3  C7  UNL     1     -30.936  18.494   0.377  1.00 20.00     0.112 C 
ENDROOT
BRANCH   1   4
HETATM    4  C4  UNL     1     -34.236  18.110  -2.020  1.00 20.00     0.078 A 
HETATM    5  C5  UNL     1     -34.274  17.077  -3.125  1.00 20.00     0.017 A 
HETATM    6  C6  UNL     1     -34.196  18.554  -3.477  1.00 20.00    -0.028 A 
HETATM    7  C8  UNL     1     -32.931  19.123  -4.072  1.00 20.00     0.016 C 
HETATM    8  C9  UNL     1     -35.448  19.188  -4.036  1.00 20.00     0.016 C 
BRANCH   5   9
HETATM    9  C10 UNL     1     -33.155  16.125  -3.384  1.00 20.00     0.076 C 
BRANCH   9  10
HETATM   10  C3  UNL     1     -33.522  15.004  -4.341  1.00 20.00     0.231 C 
HETATM   11  O11 UNL     1     -34.109  13.981  -4.003  1.00 20.00    -0.307 OA
ENDBRANCH   9  10
ENDBRANCH   5   9
ENDBRANCH   1   4
TORSDOF 3
ENDMDL
MODEL 3
REMARK VINA RESULT:      -3.6     10.976     12.523
REMARK  3 active torsions:
REMARK  status: ('A' for Active; 'I' for Inactive)
REMARK    1  A    between atoms: C1_1  and  C4_4 
REMARK    2  A    between atoms: C3_3  and  C10_10 
REMARK    3  A    between atoms: C5_5  and  C10_10 
ROOT
HETATM    1  C1  UNL     1     -35.035  18.816  -2.577  1.00 20.00    -0.101 C 
HETATM    2  C2  UNL     1     -36.230  18.892  -2.663  1.00 20.00    -0.111 C 
HETATM    3  C7  UNL     1     -37.686  18.984  -2.766  1.00 20.00     0.112 C 
ENDROOT
BRANCH   1   4
HETATM    4  C4  UNL     1     -33.607  18.725  -2.475  1.00 20.00     0.078 A 
HETATM    5  C5  UNL     1     -32.910  17.383  -2.534  1.00 20.00     0.017 A 
HETATM    6  C6  UNL     1     -32.950  18.154  -1.224  1.00 20.00    -0.028 A 
HETATM    7  C8  UNL     1     -33.793  17.650  -0.077  1.00 20.00     0.016 C 
HETATM    8  C9  UNL     1     -31.661  18.795  -0.771  1.00 20.00     0.016 C 
BRANCH   5   9
HETATM    9  C10 UNL     1     -33.640  16.099  -2.738  1.00 20.00     0.076 C 
BRANCH   9  10
HETATM   10  C3  UNL     1     -33.229  15.362  -4.001  1.00 20.00     0.231 C 
HETATM   11  O11 UNL     1     -33.563  14.210  -4.261  1.00 20.00    -0.307 OA
ENDBRANCH   9  10
ENDBRANCH   5   9
ENDBRANCH   1   4
TORSDOF 3
ENDMDL
MODEL 4
REMARK VINA RESULT:      -3.6     11.151     11.858
REMARK  3 active torsions:
REMARK  status: ('A' for Active; 'I' for Inactive)
REMARK    1  A    between atoms: C1_1  and  C4_4 
REMARK    2  A    between atoms: C3_3  and  C10_10 
REMARK    3  A    between atoms: C5_5  and  C10_10 
ROOT
HETATM    1  C1  UNL     1     -33.537  16.629  -2.133  1.00 20.00    -0.101 C 
HETATM    2  C2  UNL     1     -33.356  15.992  -3.135  1.00 20.00    -0.111 C 
HETATM    3  C7  UNL     1     -33.134  15.217  -4.355  1.00 20.00     0.112 C 
ENDROOT
BRANCH   1   4
HETATM    4  C4  UNL     1     -33.754  17.390  -0.937  1.00 20.00     0.078 A 
HETATM    5  C5  UNL     1     -34.512  18.699  -0.979  1.00 20.00     0.017 A 
HETATM    6  C6  UNL     1     -33.018  18.704  -0.705  1.00 20.00    -0.028 A 
HETATM    7  C8  UNL     1     -32.061  19.241  -1.743  1.00 20.00     0.016 C 
HETATM    8  C9  UNL     1     -32.585  19.008   0.709  1.00 20.00     0.016 C 
BRANCH   5   9
HETATM    9  C10 UNL     1     -35.106  19.252  -2.231  1.00 20.00     0.076 C 
BRANCH   9  10
HETATM   10  C3  UNL     1     -36.622  19.166  -2.273  1.00 20.00     0.231 C 
HETATM   11  O11 UNL     1     -37.247  18.490  -3.084  1.00 20.00    -0.307 OA
ENDBRANCH   9  10
ENDBRANCH   5   9
ENDBRANCH   1   4
TORSDOF 3
ENDMDL
MODEL 5
REMARK VINA RESULT:      -3.6      1.225      1.273
REMARK  3 active torsions:
REMARK  status: ('A' for Active; 'I' for Inactive)
REMARK    1  A    between atoms: C1_1  and  C4_4 
REMARK    2  A    between atoms: C3_3  and  C10_10 
REMARK    3  A    between atoms: C5_5  and  C10_10 
ROOT
HETATM    1  C1  UNL     1     -40.731  12.348   5.806  1.00 20.00    -0.101 C 
HETATM    2  C2  UNL     1     -39.832  12.023   5.079  1.00 20.00    -0.111 C 
HETATM    3  C7  UNL     1     -38.737  11.628   4.195  1.00 20.00     0.112 C 
ENDROOT
BRANCH   1   4
HETATM    4  C4  UNL     1     -41.805  12.736   6.674  1.00 20.00     0.078 A 
HETATM    5  C5  UNL     1     -42.670  13.934   6.348  1.00 20.00     0.017 A 
HETATM    6  C6  UNL     1     -41.705  14.000   7.520  1.00 20.00    -0.028 A 
HETATM    7  C8  UNL     1     -40.481  14.881   7.442  1.00 20.00     0.016 C 
HETATM    8  C9  UNL     1     -42.308  13.951   8.903  1.00 20.00     0.016 C 
BRANCH   5   9
HETATM    9  C10 UNL     1     -42.495  14.747   5.110  1.00 20.00     0.076 C 
BRANCH   9  10
HETATM   10  C3  UNL     1     -43.131  16.123   5.194  1.00 20.00     0.231 C 
HETATM   11  O11 UNL     1     -42.509  17.152   5.438  1.00 20.00    -0.307 OA
ENDBRANCH   9  10
ENDBRANCH   5   9
ENDBRANCH   1   4
TORSDOF 3
ENDMDL
MODEL 6
REMARK VINA RESULT:      -3.2      1.827      4.118
REMARK  3 active torsions:
REMARK  status: ('A' for Active; 'I' for Inactive)
REMARK    1  A    between atoms: C1_1  and  C4_4 
REMARK    2  A    between atoms: C3_3  and  C10_10 
REMARK    3  A    between atoms: C5_5  and  C10_10 
ROOT
HETATM    1  C1  UNL     1     -42.909  13.231   7.817  1.00 20.00    -0.101 C 
HETATM    2  C2  UNL     1     -43.023  13.221   9.012  1.00 20.00    -0.111 C 
HETATM    3  C7  UNL     1     -43.163  13.209  10.467  1.00 20.00     0.112 C 
ENDROOT
BRANCH   1   4
HETATM    4  C4  UNL     1     -42.773  13.244   6.389  1.00 20.00     0.078 A 
HETATM    5  C5  UNL     1     -41.408  13.174   5.740  1.00 20.00     0.017 A 
HETATM    6  C6  UNL     1     -42.209  14.464   5.671  1.00 20.00    -0.028 A 
HETATM    7  C8  UNL     1     -41.760  15.675   6.452  1.00 20.00     0.016 C 
HETATM    8  C9  UNL     1     -42.817  14.817   4.335  1.00 20.00     0.016 C 
BRANCH   5   9
HETATM    9  C10 UNL     1     -40.144  13.049   6.523  1.00 20.00     0.076 C 
BRANCH   9  10
HETATM   10  C3  UNL     1     -39.205  11.980   5.992  1.00 20.00     0.231 C 
HETATM   11  O11 UNL     1     -38.197  12.220   5.335  1.00 20.00    -0.307 OA
ENDBRANCH   9  10
ENDBRANCH   5   9
ENDBRANCH   1   4
TORSDOF 3
ENDMDL
MODEL 7
REMARK VINA RESULT:      -3.2     11.545     13.292
REMARK  3 active torsions:
REMARK  status: ('A' for Active; 'I' for Inactive)
REMARK    1  A    between atoms: C1_1  and  C4_4 
REMARK    2  A    between atoms: C3_3  and  C10_10 
REMARK    3  A    between atoms: C5_5  and  C10_10 
ROOT
HETATM    1  C1  UNL     1     -33.987  17.232  -3.803  1.00 20.00    -0.101 C 
HETATM    2  C2  UNL     1     -33.804  17.294  -2.618  1.00 20.00    -0.111 C 
HETATM    3  C7  UNL     1     -33.583  17.370  -1.175  1.00 20.00     0.112 C 
ENDROOT
BRANCH   1   4
HETATM    4  C4  UNL     1     -34.204  17.158  -5.219  1.00 20.00     0.078 A 
HETATM    5  C5  UNL     1     -35.607  17.124  -5.786  1.00 20.00     0.017 A 
HETATM    6  C6  UNL     1     -34.734  15.881  -5.860  1.00 20.00    -0.028 A 
HETATM    7  C8  UNL     1     -35.063  14.676  -5.013  1.00 20.00     0.016 C 
HETATM    8  C9  UNL     1     -34.185  15.515  -7.218  1.00 20.00     0.016 C 
BRANCH   5   9
HETATM    9  C10 UNL     1     -36.828  17.204  -4.933  1.00 20.00     0.076 C 
BRANCH   9  10
HETATM   10  C3  UNL     1     -38.074  16.655  -5.606  1.00 20.00     0.231 C 
HETATM   11  O11 UNL     1     -38.614  15.600  -5.290  1.00 20.00    -0.307 OA
ENDBRANCH   9  10
ENDBRANCH   5   9
ENDBRANCH   1   4
TORSDOF 3
ENDMDL
MODEL 8
REMARK VINA RESULT:      -3.1      2.385      4.132
REMARK  3 active torsions:
REMARK  status: ('A' for Active; 'I' for Inactive)
REMARK    1  A    between atoms: C1_1  and  C4_4 
REMARK    2  A    between atoms: C3_3  and  C10_10 
REMARK    3  A    between atoms: C5_5  and  C10_10 
ROOT
HETATM    1  C1  UNL     1     -42.266  14.760   4.894  1.00 20.00    -0.101 C 
HETATM    2  C2  UNL     1     -42.732  15.828   4.599  1.00 20.00    -0.111 C 
HETATM    3  C7  UNL     1     -43.298  17.127   4.241  1.00 20.00     0.112 C 
ENDROOT
BRANCH   1   4
HETATM    4  C4  UNL     1     -41.710  13.486   5.246  1.00 20.00     0.078 A 
HETATM    5  C5  UNL     1     -42.191  12.744   6.474  1.00 20.00     0.017 A 
HETATM    6  C6  UNL     1     -40.794  13.343   6.455  1.00 20.00    -0.028 A 
HETATM    7  C8  UNL     1     -40.473  14.537   7.321  1.00 20.00     0.016 C 
HETATM    8  C9  UNL     1     -39.640  12.377   6.332  1.00 20.00     0.016 C 
BRANCH   5   9
HETATM    9  C10 UNL     1     -43.279  13.257   7.357  1.00 20.00     0.076 C 
BRANCH   9  10
HETATM   10  C3  UNL     1     -43.417  12.485   8.657  1.00 20.00     0.231 C 
HETATM   11  O11 UNL     1     -42.702  12.663   9.639  1.00 20.00    -0.307 OA
ENDBRANCH   9  10
ENDBRANCH   5   9
ENDBRANCH   1   4
TORSDOF 3
ENDMDL
MODEL 9
REMARK VINA RESULT:      -3.1      2.296      3.675
REMARK  3 active torsions:
REMARK  status: ('A' for Active; 'I' for Inactive)
REMARK    1  A    between atoms: C1_1  and  C4_4 
REMARK    2  A    between atoms: C3_3  and  C10_10 
REMARK    3  A    between atoms: C5_5  and  C10_10 
ROOT
HETATM    1  C1  UNL     1     -42.923  14.548   4.817  1.00 20.00    -0.101 C 
HETATM    2  C2  UNL     1     -42.604  14.987   3.745  1.00 20.00    -0.111 C 
HETATM    3  C7  UNL     1     -42.217  15.523   2.441  1.00 20.00     0.112 C 
ENDROOT
BRANCH   1   4
HETATM    4  C4  UNL     1     -43.304  14.023   6.096  1.00 20.00     0.078 A 
HETATM    5  C5  UNL     1     -42.480  14.320   7.330  1.00 20.00     0.017 A 
HETATM    6  C6  UNL     1     -42.495  12.913   6.755  1.00 20.00    -0.028 A 
HETATM    7  C8  UNL     1     -41.262  12.359   6.083  1.00 20.00     0.016 C 
HETATM    8  C9  UNL     1     -43.264  11.868   7.528  1.00 20.00     0.016 C 
BRANCH   5   9
HETATM    9  C10 UNL     1     -41.269  15.189   7.307  1.00 20.00     0.076 C 
BRANCH   9  10
HETATM   10  C3  UNL     1     -40.396  15.045   8.541  1.00 20.00     0.231 C 
HETATM   11  O11 UNL     1     -40.156  13.973   9.089  1.00 20.00    -0.307 OA
ENDBRANCH   9  10
ENDBRANCH   5   9
ENDBRANCH   1   4
TORSDOF 3
ENDMDL
