MODEL 1
REMARK VINA RESULT:      -5.5      0.000      0.000
REMARK  1 active torsions:
REMARK  status: ('A' for Active; 'I' for Inactive)
REMARK    1  A    between atoms: C1_1  and  C6_6 
ROOT
HETATM    1  C2  UNL     1     -33.809   6.104   3.790  1.00 20.00     0.019 C 
HETATM    2  C3  UNL     1     -33.789   7.890   5.596  1.00 20.00     0.019 C 
HETATM    3  C4  UNL     1     -34.920   5.492   4.648  1.00 20.00     0.080 C 
HETATM    4  C5  UNL     1     -34.351   6.933   6.650  1.00 20.00     0.080 C 
HETATM    5  C6  UNL     1     -32.979   7.166   4.524  1.00 20.00     0.072 C 
HETATM    6  C7  UNL     1     -34.570   5.522   6.122  1.00 20.00     0.243 C 
HETATM    7  F9  UNL     1     -33.442   4.789   6.321  1.00 20.00    -0.206 F 
HETATM    8  F10 UNL     1     -35.546   4.917   6.843  1.00 20.00    -0.206 F 
ENDROOT
BRANCH   5   9
HETATM    9  C1  UNL     1     -32.447   8.166   3.544  1.00 20.00     0.223 C 
HETATM   10  O8  UNL     1     -32.241   9.334   3.860  1.00 20.00    -0.279 OA
HETATM   11 CL11 UNL     1     -32.174   7.465   1.977  1.00 20.00    -0.043 Cl
ENDBRANCH   5   9
TORSDOF 1
ENDMDL
MODEL 2
REMARK VINA RESULT:      -5.2      1.273      2.084
REMARK  1 active torsions:
REMARK  status: ('A' for Active; 'I' for Inactive)
REMARK    1  A    between atoms: C1_1  and  C6_6 
ROOT
HETATM    1  C2  UNL     1     -33.827   7.813   5.594  1.00 20.00     0.019 C 
HETATM    2  C3  UNL     1     -32.905   6.562   3.585  1.00 20.00     0.019 C 
HETATM    3  C4  UNL     1     -34.116   6.405   6.122  1.00 20.00     0.080 C 
HETATM    4  C5  UNL     1     -33.790   5.341   3.848  1.00 20.00     0.080 C 
HETATM    5  C6  UNL     1     -33.535   7.859   4.088  1.00 20.00     0.072 C 
HETATM    6  C7  UNL     1     -34.711   5.516   5.047  1.00 20.00     0.243 C 
HETATM    7  F9  UNL     1     -35.889   6.054   4.634  1.00 20.00    -0.206 F 
HETATM    8  F10 UNL     1     -35.010   4.300   5.566  1.00 20.00    -0.206 F 
ENDROOT
BRANCH   5   9
HETATM    9  C1  UNL     1     -32.625   9.007   3.777  1.00 20.00     0.223 C 
HETATM   10  O8  UNL     1     -31.936   9.536   4.644  1.00 20.00    -0.279 OA
HETATM   11 CL11 UNL     1     -32.684   9.453   2.099  1.00 20.00    -0.043 Cl
ENDBRANCH   5   9
TORSDOF 1
ENDMDL
MODEL 3
REMARK VINA RESULT:      -5.0      3.535      4.279
REMARK  1 active torsions:
REMARK  status: ('A' for Active; 'I' for Inactive)
REMARK    1  A    between atoms: C1_1  and  C6_6 
ROOT
HETATM    1  C2  UNL     1     -32.936   6.340   3.464  1.00 20.00     0.019 C 
HETATM    2  C3  UNL     1     -33.604   7.265   5.733  1.00 20.00     0.019 C 
HETATM    3  C4  UNL     1     -32.043   7.582   3.412  1.00 20.00     0.080 C 
HETATM    4  C5  UNL     1     -33.258   8.701   5.331  1.00 20.00     0.080 C 
HETATM    5  C6  UNL     1     -34.028   6.410   4.541  1.00 20.00     0.072 C 
HETATM    6  C7  UNL     1     -32.777   8.820   3.892  1.00 20.00     0.243 C 
HETATM    7  F9  UNL     1     -33.843   9.041   3.079  1.00 20.00    -0.206 F 
HETATM    8  F10 UNL     1     -31.977   9.907   3.773  1.00 20.00    -0.206 F 
ENDROOT
BRANCH   5   9
HETATM    9  C1  UNL     1     -34.369   5.031   5.015  1.00 20.00     0.223 C 
HETATM   10  O8  UNL     1     -34.247   4.050   4.287  1.00 20.00    -0.279 OA
HETATM   11 CL11 UNL     1     -34.931   5.025   6.659  1.00 20.00    -0.043 Cl
ENDBRANCH   5   9
TORSDOF 1
ENDMDL
MODEL 4
REMARK VINA RESULT:      -4.9      3.284      4.334
REMARK  1 active torsions:
REMARK  status: ('A' for Active; 'I' for Inactive)
REMARK    1  A    between atoms: C1_1  and  C6_6 
ROOT
HETATM    1  C2  UNL     1     -33.251   8.319   4.800  1.00 20.00     0.019 C 
HETATM    2  C3  UNL     1     -33.748   5.982   3.936  1.00 20.00     0.019 C 
HETATM    3  C4  UNL     1     -32.956   8.614   3.326  1.00 20.00     0.080 C 
HETATM    4  C5  UNL     1     -32.837   6.159   2.718  1.00 20.00     0.080 C 
HETATM    5  C6  UNL     1     -33.297   6.820   5.129  1.00 20.00     0.072 C 
HETATM    6  C7  UNL     1     -32.136   7.510   2.687  1.00 20.00     0.243 C 
HETATM    7  F9  UNL     1     -30.946   7.414   3.337  1.00 20.00    -0.206 F 
HETATM    8  F10 UNL     1     -31.843   7.836   1.404  1.00 20.00    -0.206 F 
ENDROOT
BRANCH   5   9
HETATM    9  C1  UNL     1     -34.222   6.579   6.283  1.00 20.00     0.223 C 
HETATM   10  O8  UNL     1     -34.457   7.450   7.115  1.00 20.00    -0.279 OA
HETATM   11 CL11 UNL     1     -34.879   4.970   6.270  1.00 20.00    -0.043 Cl
ENDBRANCH   5   9
TORSDOF 1
ENDMDL
MODEL 5
REMARK VINA RESULT:      -4.9      1.482      1.606
REMARK  1 active torsions:
REMARK  status: ('A' for Active; 'I' for Inactive)
REMARK    1  A    between atoms: C1_1  and  C6_6 
ROOT
HETATM    1  C2  UNL     1     -34.235   5.337   4.099  1.00 20.00     0.019 C 
HETATM    2  C3  UNL     1     -33.330   7.675   4.509  1.00 20.00     0.019 C 
HETATM    3  C4  UNL     1     -35.166   5.679   5.265  1.00 20.00     0.080 C 
HETATM    4  C5  UNL     1     -33.766   7.666   5.976  1.00 20.00     0.080 C 
HETATM    5  C6  UNL     1     -33.026   6.276   3.981  1.00 20.00     0.072 C 
HETATM    6  C7  UNL     1     -34.420   6.357   6.398  1.00 20.00     0.243 C 
HETATM    7  F9  UNL     1     -33.465   5.508   6.864  1.00 20.00    -0.206 F 
HETATM    8  F10 UNL     1     -35.262   6.587   7.435  1.00 20.00    -0.206 F 
ENDROOT
BRANCH   5   9
HETATM    9  C1  UNL     1     -32.588   6.368   2.551  1.00 20.00     0.223 C 
HETATM   10  O8  UNL     1     -32.146   7.410   2.078  1.00 20.00    -0.279 OA
HETATM   11 CL11 UNL     1     -32.783   4.861   1.709  1.00 20.00    -0.043 Cl
ENDBRANCH   5   9
TORSDOF 1
ENDMDL
MODEL 6
REMARK VINA RESULT:      -4.5      3.444      4.420
REMARK  1 active torsions:
REMARK  status: ('A' for Active; 'I' for Inactive)
REMARK    1  A    between atoms: C1_1  and  C6_6 
ROOT
HETATM    1  C2  UNL     1     -34.013   7.385   5.460  1.00 20.00     0.019 C 
HETATM    2  C3  UNL     1     -33.241   6.263   3.316  1.00 20.00     0.019 C 
HETATM    3  C4  UNL     1     -33.748   8.674   4.677  1.00 20.00     0.080 C 
HETATM    4  C5  UNL     1     -32.408   7.476   2.894  1.00 20.00     0.080 C 
HETATM    5  C6  UNL     1     -33.369   6.141   4.832  1.00 20.00     0.072 C 
HETATM    6  C7  UNL     1     -32.441   8.607   3.913  1.00 20.00     0.243 C 
HETATM    7  F9  UNL     1     -31.422   8.444   4.798  1.00 20.00    -0.206 F 
HETATM    8  F10 UNL     1     -32.211   9.786   3.284  1.00 20.00    -0.206 F 
ENDROOT
BRANCH   5   9
HETATM    9  C1  UNL     1     -34.176   4.924   5.166  1.00 20.00     0.223 C 
HETATM   10  O8  UNL     1     -34.205   3.945   4.426  1.00 20.00    -0.279 OA
HETATM   11 CL11 UNL     1     -35.017   5.092   6.677  1.00 20.00    -0.043 Cl
ENDBRANCH   5   9
TORSDOF 1
ENDMDL
MODEL 7
REMARK VINA RESULT:      -4.2     12.885     13.755
REMARK  1 active torsions:
REMARK  status: ('A' for Active; 'I' for Inactive)
REMARK    1  A    between atoms: C1_1  and  C6_6 
ROOT
HETATM    1  C2  UNL     1     -34.747  17.601  -4.531  1.00 20.00     0.019 C 
HETATM    2  C3  UNL     1     -33.570  15.685  -3.347  1.00 20.00     0.019 C 
HETATM    3  C4  UNL     1     -35.580  16.477  -5.153  1.00 20.00     0.080 C 
HETATM    4  C5  UNL     1     -33.937  14.684  -4.446  1.00 20.00     0.080 C 
HETATM    5  C6  UNL     1     -33.447  17.112  -3.875  1.00 20.00     0.072 C 
HETATM    6  C7  UNL     1     -34.712  15.315  -5.595  1.00 20.00     0.243 C 
HETATM    7  F9  UNL     1     -33.837  15.753  -6.539  1.00 20.00    -0.206 F 
HETATM    8  F10 UNL     1     -35.475  14.369  -6.196  1.00 20.00    -0.206 F 
ENDROOT
BRANCH   5   9
HETATM    9  C1  UNL     1     -33.067  18.027  -2.751  1.00 20.00     0.223 C 
HETATM   10  O8  UNL     1     -32.459  19.074  -2.948  1.00 20.00    -0.279 OA
HETATM   11 CL11 UNL     1     -33.588  17.418  -1.208  1.00 20.00    -0.043 Cl
ENDBRANCH   5   9
TORSDOF 1
ENDMDL
MODEL 8
REMARK VINA RESULT:      -4.2     13.034     14.031
REMARK  1 active torsions:
REMARK  status: ('A' for Active; 'I' for Inactive)
REMARK    1  A    between atoms: C1_1  and  C6_6 
ROOT
HETATM    1  C2  UNL     1     -33.273  16.883  -2.021  1.00 20.00     0.019 C 
HETATM    2  C3  UNL     1     -32.591  19.142  -2.961  1.00 20.00     0.019 C 
HETATM    3  C4  UNL     1     -33.608  16.569  -3.482  1.00 20.00     0.080 C 
HETATM    4  C5  UNL     1     -33.528  19.006  -4.165  1.00 20.00     0.080 C 
HETATM    5  C6  UNL     1     -33.097  18.381  -1.738  1.00 20.00     0.072 C 
HETATM    6  C7  UNL     1     -34.340  17.718  -4.148  1.00 20.00     0.243 C 
HETATM    7  F9  UNL     1     -35.510  17.933  -3.491  1.00 20.00    -0.206 F 
HETATM    8  F10 UNL     1     -34.674  17.380  -5.418  1.00 20.00    -0.206 F 
ENDROOT
BRANCH   5   9
HETATM    9  C1  UNL     1     -32.143  18.579  -0.601  1.00 20.00     0.223 C 
HETATM   10  O8  UNL     1     -30.949  18.789  -0.789  1.00 20.00    -0.279 OA
HETATM   11 CL11 UNL     1     -32.935  18.474   0.943  1.00 20.00    -0.043 Cl
ENDBRANCH   5   9
TORSDOF 1
ENDMDL
MODEL 9
REMARK VINA RESULT:      -4.0     13.075     13.894
REMARK  1 active torsions:
REMARK  status: ('A' for Active; 'I' for Inactive)
REMARK    1  A    between atoms: C1_1  and  C6_6 
ROOT
HETATM    1  C2  UNL     1     -33.346  15.706  -3.776  1.00 20.00     0.019 C 
HETATM    2  C3  UNL     1     -35.330  17.065  -4.594  1.00 20.00     0.019 C 
HETATM    3  C4  UNL     1     -33.496  16.565  -2.518  1.00 20.00     0.080 C 
HETATM    4  C5  UNL     1     -34.992  18.245  -3.680  1.00 20.00     0.080 C 
HETATM    5  C6  UNL     1     -34.095  16.264  -4.995  1.00 20.00     0.072 C 
HETATM    6  C7  UNL     1     -33.729  18.024  -2.860  1.00 20.00     0.243 C 
HETATM    7  F9  UNL     1     -32.656  18.489  -3.554  1.00 20.00    -0.206 F 
HETATM    8  F10 UNL     1     -33.794  18.761  -1.724  1.00 20.00    -0.206 F 
ENDROOT
BRANCH   5   9
HETATM    9  C1  UNL     1     -34.501  15.144  -5.902  1.00 20.00     0.223 C 
HETATM   10  O8  UNL     1     -33.878  14.885  -6.927  1.00 20.00    -0.279 OA
HETATM   11 CL11 UNL     1     -35.908  14.307  -5.319  1.00 20.00    -0.043 Cl
ENDBRANCH   5   9
TORSDOF 1
ENDMDL
