MODEL 1
REMARK VINA RESULT:      -3.7      0.000      0.000
REMARK  3 active torsions:
REMARK  status: ('A' for Active; 'I' for Inactive)
REMARK    1  A    between atoms: C1_1  and  C2_2 
REMARK    2  A    between atoms: C1_1  and  O10_10 
REMARK    3  A    between atoms: C7_7  and  O10_10 
ROOT
HETATM    1  C1  UNL     1     -33.166   7.833   5.135  1.00 20.00     0.291 C 
HETATM    2  O8  UNL     1     -33.757   8.905   5.144  1.00 20.00    -0.262 OA
ENDROOT
BRANCH   1   3
HETATM    3  C2  UNL     1     -33.345   6.791   6.145  1.00 20.00     0.250 A 
HETATM    4  C3  UNL     1     -34.423   5.745   6.027  1.00 20.00     0.157 A 
HETATM    5  C4  UNL     1     -35.361   5.682   4.874  1.00 20.00     0.042 C 
HETATM    6  O9  UNL     1     -34.585   6.893   6.863  1.00 20.00    -0.365 OA
ENDBRANCH   1   3
BRANCH   1   7
HETATM    7  O10 UNL     1     -32.257   7.418   4.208  1.00 20.00    -0.315 OA
BRANCH   7   8
HETATM    8  C7  UNL     1     -32.789   7.124   2.913  1.00 20.00     0.123 C 
HETATM    9  C5  UNL     1     -32.048   7.943   1.868  1.00 20.00     0.040 C 
HETATM   10  C6  UNL     1     -32.671   5.631   2.649  1.00 20.00     0.040 C 
ENDBRANCH   7   8
ENDBRANCH   1   7
TORSDOF 3
ENDMDL
MODEL 2
REMARK VINA RESULT:      -3.7      1.457      3.842
REMARK  3 active torsions:
REMARK  status: ('A' for Active; 'I' for Inactive)
REMARK    1  A    between atoms: C1_1  and  C2_2 
REMARK    2  A    between atoms: C1_1  and  O10_10 
REMARK    3  A    between atoms: C7_7  and  O10_10 
ROOT
HETATM    1  C1  UNL     1     -32.731   8.187   4.309  1.00 20.00     0.291 C 
HETATM    2  O8  UNL     1     -32.323   9.120   4.988  1.00 20.00    -0.262 OA
ENDROOT
BRANCH   1   3
HETATM    3  C2  UNL     1     -31.953   7.544   3.251  1.00 20.00     0.250 A 
HETATM    4  C3  UNL     1     -31.992   8.032   1.826  1.00 20.00     0.157 A 
HETATM    5  C4  UNL     1     -32.799   9.207   1.399  1.00 20.00     0.042 C 
HETATM    6  O9  UNL     1     -32.762   6.904   2.250  1.00 20.00    -0.365 OA
ENDBRANCH   1   3
BRANCH   1   7
HETATM    7  O10 UNL     1     -33.951   7.588   4.406  1.00 20.00    -0.315 OA
BRANCH   7   8
HETATM    8  C7  UNL     1     -33.996   6.413   5.223  1.00 20.00     0.123 C 
HETATM    9  C5  UNL     1     -34.325   6.811   6.654  1.00 20.00     0.040 C 
HETATM   10  C6  UNL     1     -35.021   5.445   4.654  1.00 20.00     0.040 C 
ENDBRANCH   7   8
ENDBRANCH   1   7
TORSDOF 3
ENDMDL
MODEL 3
REMARK VINA RESULT:      -3.7     11.867     13.318
REMARK  3 active torsions:
REMARK  status: ('A' for Active; 'I' for Inactive)
REMARK    1  A    between atoms: C1_1  and  C2_2 
REMARK    2  A    between atoms: C1_1  and  O10_10 
REMARK    3  A    between atoms: C7_7  and  O10_10 
ROOT
HETATM    1  C1  UNL     1     -33.933  14.924  -4.597  1.00 20.00     0.291 C 
HETATM    2  O8  UNL     1     -34.394  13.944  -4.027  1.00 20.00    -0.262 OA
ENDROOT
BRANCH   1   3
HETATM    3  C2  UNL     1     -34.183  15.246  -6.002  1.00 20.00     0.250 A 
HETATM    4  C3  UNL     1     -35.466  15.894  -6.452  1.00 20.00     0.157 A 
HETATM    5  C4  UNL     1     -36.553  16.271  -5.509  1.00 20.00     0.042 C 
HETATM    6  O9  UNL     1     -35.254  14.487  -6.584  1.00 20.00    -0.365 OA
ENDBRANCH   1   3
BRANCH   1   7
HETATM    7  O10 UNL     1     -33.123  15.873  -4.049  1.00 20.00    -0.315 OA
BRANCH   7   8
HETATM    8  C7  UNL     1     -33.796  16.942  -3.377  1.00 20.00     0.123 C 
HETATM    9  C5  UNL     1     -33.454  16.898  -1.896  1.00 20.00     0.040 C 
HETATM   10  C6  UNL     1     -33.396  18.265  -4.012  1.00 20.00     0.040 C 
ENDBRANCH   7   8
ENDBRANCH   1   7
TORSDOF 3
ENDMDL
MODEL 4
REMARK VINA RESULT:      -3.6      1.648      2.608
REMARK  3 active torsions:
REMARK  status: ('A' for Active; 'I' for Inactive)
REMARK    1  A    between atoms: C1_1  and  C2_2 
REMARK    2  A    between atoms: C1_1  and  O10_10 
REMARK    3  A    between atoms: C7_7  and  O10_10 
ROOT
HETATM    1  C1  UNL     1     -33.622   6.041   3.591  1.00 20.00     0.291 C 
HETATM    2  O8  UNL     1     -32.778   5.462   2.920  1.00 20.00    -0.262 OA
ENDROOT
BRANCH   1   3
HETATM    3  C2  UNL     1     -34.734   5.370   4.264  1.00 20.00     0.250 A 
HETATM    4  C3  UNL     1     -34.913   5.435   5.759  1.00 20.00     0.157 A 
HETATM    5  C4  UNL     1     -33.995   6.197   6.648  1.00 20.00     0.042 C 
HETATM    6  O9  UNL     1     -34.320   4.298   5.127  1.00 20.00    -0.365 OA
ENDBRANCH   1   3
BRANCH   1   7
HETATM    7  O10 UNL     1     -33.685   7.381   3.831  1.00 20.00    -0.315 OA
BRANCH   7   8
HETATM    8  C7  UNL     1     -32.462   8.098   3.640  1.00 20.00     0.123 C 
HETATM    9  C5  UNL     1     -32.563   8.931   2.372  1.00 20.00     0.040 C 
HETATM   10  C6  UNL     1     -32.188   8.959   4.863  1.00 20.00     0.040 C 
ENDBRANCH   7   8
ENDBRANCH   1   7
TORSDOF 3
ENDMDL
MODEL 5
REMARK VINA RESULT:      -3.5      1.529      2.310
REMARK  3 active torsions:
REMARK  status: ('A' for Active; 'I' for Inactive)
REMARK    1  A    between atoms: C1_1  and  C2_2 
REMARK    2  A    between atoms: C1_1  and  O10_10 
REMARK    3  A    between atoms: C7_7  and  O10_10 
ROOT
HETATM    1  C1  UNL     1     -33.872   6.893   5.876  1.00 20.00     0.291 C 
HETATM    2  O8  UNL     1     -33.156   6.954   6.866  1.00 20.00    -0.262 OA
ENDROOT
BRANCH   1   3
HETATM    3  C2  UNL     1     -34.979   5.950   5.723  1.00 20.00     0.250 A 
HETATM    4  C3  UNL     1     -34.882   4.750   4.817  1.00 20.00     0.157 A 
HETATM    5  C4  UNL     1     -33.657   4.425   4.037  1.00 20.00     0.042 C 
HETATM    6  O9  UNL     1     -35.551   5.944   4.405  1.00 20.00    -0.365 OA
ENDBRANCH   1   3
BRANCH   1   7
HETATM    7  O10 UNL     1     -33.776   7.668   4.759  1.00 20.00    -0.315 OA
BRANCH   7   8
HETATM    8  C7  UNL     1     -32.444   7.951   4.318  1.00 20.00     0.123 C 
HETATM    9  C5  UNL     1     -32.342   7.678   2.825  1.00 20.00     0.040 C 
HETATM   10  C6  UNL     1     -32.100   9.393   4.655  1.00 20.00     0.040 C 
ENDBRANCH   7   8
ENDBRANCH   1   7
TORSDOF 3
ENDMDL
MODEL 6
REMARK VINA RESULT:      -3.5      9.308     10.126
REMARK  3 active torsions:
REMARK  status: ('A' for Active; 'I' for Inactive)
REMARK    1  A    between atoms: C1_1  and  C2_2 
REMARK    2  A    between atoms: C1_1  and  O10_10 
REMARK    3  A    between atoms: C7_7  and  O10_10 
ROOT
HETATM    1  C1  UNL     1     -41.504  13.078   6.214  1.00 20.00     0.291 C 
HETATM    2  O8  UNL     1     -42.025  12.160   6.833  1.00 20.00    -0.262 OA
ENDROOT
BRANCH   1   3
HETATM    3  C2  UNL     1     -41.753  14.494   6.486  1.00 20.00     0.250 A 
HETATM    4  C3  UNL     1     -41.167  15.187   7.689  1.00 20.00     0.157 A 
HETATM    5  C4  UNL     1     -40.283  14.496   8.666  1.00 20.00     0.042 C 
HETATM    6  O9  UNL     1     -42.520  14.724   7.679  1.00 20.00    -0.365 OA
ENDBRANCH   1   3
BRANCH   1   7
HETATM    7  O10 UNL     1     -40.619  12.961   5.184  1.00 20.00    -0.315 OA
BRANCH   7   8
HETATM    8  C7  UNL     1     -39.726  11.845   5.265  1.00 20.00     0.123 C 
HETATM    9  C5  UNL     1     -39.065  11.633   3.912  1.00 20.00     0.040 C 
HETATM   10  C6  UNL     1     -38.703  12.100   6.361  1.00 20.00     0.040 C 
ENDBRANCH   7   8
ENDBRANCH   1   7
TORSDOF 3
ENDMDL
MODEL 7
REMARK VINA RESULT:      -3.4     11.827     12.741
REMARK  3 active torsions:
REMARK  status: ('A' for Active; 'I' for Inactive)
REMARK    1  A    between atoms: C1_1  and  C2_2 
REMARK    2  A    between atoms: C1_1  and  O10_10 
REMARK    3  A    between atoms: C7_7  and  O10_10 
ROOT
HETATM    1  C1  UNL     1     -32.788  18.544  -1.551  1.00 20.00     0.291 C 
HETATM    2  O8  UNL     1     -31.941  19.261  -2.067  1.00 20.00    -0.262 OA
ENDROOT
BRANCH   1   3
HETATM    3  C2  UNL     1     -33.582  18.925  -0.383  1.00 20.00     0.250 A 
HETATM    4  C3  UNL     1     -33.014  18.882   1.012  1.00 20.00     0.157 A 
HETATM    5  C4  UNL     1     -31.612  18.475   1.300  1.00 20.00     0.042 C 
HETATM    6  O9  UNL     1     -33.847  17.833   0.512  1.00 20.00    -0.365 OA
ENDBRANCH   1   3
BRANCH   1   7
HETATM    7  O10 UNL     1     -33.142  17.291  -1.954  1.00 20.00    -0.315 OA
BRANCH   7   8
HETATM    8  C7  UNL     1     -33.322  17.126  -3.364  1.00 20.00     0.123 C 
HETATM    9  C5  UNL     1     -33.285  15.645  -3.704  1.00 20.00     0.040 C 
HETATM   10  C6  UNL     1     -34.635  17.770  -3.780  1.00 20.00     0.040 C 
ENDBRANCH   7   8
ENDBRANCH   1   7
TORSDOF 3
ENDMDL
MODEL 8
REMARK VINA RESULT:      -3.3      9.490     10.433
REMARK  3 active torsions:
REMARK  status: ('A' for Active; 'I' for Inactive)
REMARK    1  A    between atoms: C1_1  and  C2_2 
REMARK    2  A    between atoms: C1_1  and  O10_10 
REMARK    3  A    between atoms: C7_7  and  O10_10 
ROOT
HETATM    1  C1  UNL     1     -41.256  12.893   6.104  1.00 20.00     0.291 C 
HETATM    2  O8  UNL     1     -41.993  12.149   6.738  1.00 20.00    -0.262 OA
ENDROOT
BRANCH   1   3
HETATM    3  C2  UNL     1     -39.815  13.005   6.331  1.00 20.00     0.250 A 
HETATM    4  C3  UNL     1     -38.817  12.265   5.479  1.00 20.00     0.157 A 
HETATM    5  C4  UNL     1     -39.217  11.393   4.341  1.00 20.00     0.042 C 
HETATM    6  O9  UNL     1     -39.205  11.779   6.766  1.00 20.00    -0.365 OA
ENDBRANCH   1   3
BRANCH   1   7
HETATM    7  O10 UNL     1     -41.626  13.733   5.097  1.00 20.00    -0.315 OA
BRANCH   7   8
HETATM    8  C7  UNL     1     -42.797  14.516   5.348  1.00 20.00     0.123 C 
HETATM    9  C5  UNL     1     -42.423  15.720   6.198  1.00 20.00     0.040 C 
HETATM   10  C6  UNL     1     -43.417  14.929   4.023  1.00 20.00     0.040 C 
ENDBRANCH   7   8
ENDBRANCH   1   7
TORSDOF 3
ENDMDL
MODEL 9
REMARK VINA RESULT:      -3.3      1.348      3.479
REMARK  3 active torsions:
REMARK  status: ('A' for Active; 'I' for Inactive)
REMARK    1  A    between atoms: C1_1  and  C2_2 
REMARK    2  A    between atoms: C1_1  and  O10_10 
REMARK    3  A    between atoms: C7_7  and  O10_10 
ROOT
HETATM    1  C1  UNL     1     -33.807   7.341   5.439  1.00 20.00     0.291 C 
HETATM    2  O8  UNL     1     -33.232   6.955   6.448  1.00 20.00    -0.262 OA
ENDROOT
BRANCH   1   3
HETATM    3  C2  UNL     1     -33.461   8.564   4.716  1.00 20.00     0.250 A 
HETATM    4  C3  UNL     1     -32.582   8.541   3.492  1.00 20.00     0.157 A 
HETATM    5  C4  UNL     1     -32.026   7.284   2.921  1.00 20.00     0.042 C 
HETATM    6  O9  UNL     1     -32.063   8.891   4.777  1.00 20.00    -0.365 OA
ENDBRANCH   1   3
BRANCH   1   7
HETATM    7  O10 UNL     1     -34.849   6.722   4.814  1.00 20.00    -0.315 OA
BRANCH   7   8
HETATM    8  C7  UNL     1     -34.954   5.313   5.043  1.00 20.00     0.123 C 
HETATM    9  C5  UNL     1     -33.989   4.582   4.123  1.00 20.00     0.040 C 
HETATM   10  C6  UNL     1     -34.671   5.020   6.508  1.00 20.00     0.040 C 
ENDBRANCH   7   8
ENDBRANCH   1   7
TORSDOF 3
ENDMDL
