MODEL 1
REMARK VINA RESULT:      -5.1      0.000      0.000
REMARK  1 active torsions:
REMARK  status: ('A' for Active; 'I' for Inactive)
REMARK    1  A    between atoms: C5_5  and  C8_8 
ROOT
HETATM    1  C1  UNL     1     -34.554   4.697   5.925  1.00 20.00    -0.004 C 
HETATM    2  C2  UNL     1     -34.726   5.885   6.761  1.00 20.00    -0.004 C 
HETATM    3  C3  UNL     1     -34.215   4.595   4.621  1.00 20.00    -0.026 C 
HETATM    4  C4  UNL     1     -34.194   7.101   6.523  1.00 20.00    -0.021 C 
HETATM    5  C6  UNL     1     -33.907   5.697   3.617  1.00 20.00     0.033 C 
HETATM    6  C7  UNL     1     -33.380   7.376   5.342  1.00 20.00     0.028 A 
HETATM    7  C8  UNL     1     -33.510   8.367   4.234  1.00 20.00     0.100 A 
HETATM    8  C9  UNL     1     -34.246   7.059   4.120  1.00 20.00     0.012 A 
ENDROOT
BRANCH   7   9
HETATM    9  C5  UNL     1     -32.379   8.570   3.353  1.00 20.00     0.178 C 
HETATM   10  O10 UNL     1     -32.606   9.290   2.341  1.00 20.00    -0.648 OA
HETATM   11  O11 UNL     1     -31.314   7.996   3.717  1.00 20.00    -0.648 OA
ENDBRANCH   7   9
TORSDOF 1
ENDMDL
MODEL 2
REMARK VINA RESULT:      -4.8      0.955      2.085
REMARK  1 active torsions:
REMARK  status: ('A' for Active; 'I' for Inactive)
REMARK    1  A    between atoms: C5_5  and  C8_8 
ROOT
HETATM    1  C1  UNL     1     -34.852   5.257   5.841  1.00 20.00    -0.004 C 
HETATM    2  C2  UNL     1     -34.290   4.611   4.656  1.00 20.00    -0.004 C 
HETATM    3  C3  UNL     1     -34.586   6.469   6.377  1.00 20.00    -0.026 C 
HETATM    4  C4  UNL     1     -33.694   5.238   3.622  1.00 20.00    -0.021 C 
HETATM    5  C6  UNL     1     -33.612   7.539   5.903  1.00 20.00     0.033 C 
HETATM    6  C7  UNL     1     -33.513   6.687   3.593  1.00 20.00     0.028 A 
HETATM    7  C8  UNL     1     -32.305   7.552   3.462  1.00 20.00     0.100 A 
HETATM    8  C9  UNL     1     -32.694   7.060   4.830  1.00 20.00     0.012 A 
ENDROOT
BRANCH   7   9
HETATM    9  C5  UNL     1     -32.491   8.962   3.187  1.00 20.00     0.178 C 
HETATM   10  O10 UNL     1     -32.871   9.238   2.015  1.00 20.00    -0.648 OA
HETATM   11  O11 UNL     1     -32.246   9.729   4.161  1.00 20.00    -0.648 OA
ENDBRANCH   7   9
TORSDOF 1
ENDMDL
MODEL 3
REMARK VINA RESULT:      -4.6      1.049      2.256
REMARK  1 active torsions:
REMARK  status: ('A' for Active; 'I' for Inactive)
REMARK    1  A    between atoms: C5_5  and  C8_8 
ROOT
HETATM    1  C1  UNL     1     -34.726   6.063   6.263  1.00 20.00    -0.004 C 
HETATM    2  C2  UNL     1     -34.505   4.979   5.307  1.00 20.00    -0.004 C 
HETATM    3  C3  UNL     1     -34.187   7.301   6.312  1.00 20.00    -0.026 C 
HETATM    4  C4  UNL     1     -34.035   5.119   4.051  1.00 20.00    -0.021 C 
HETATM    5  C6  UNL     1     -33.177   7.949   5.374  1.00 20.00     0.033 C 
HETATM    6  C7  UNL     1     -33.653   6.418   3.504  1.00 20.00     0.028 A 
HETATM    7  C8  UNL     1     -32.379   6.935   2.924  1.00 20.00     0.100 A 
HETATM    8  C9  UNL     1     -32.564   6.984   4.417  1.00 20.00     0.012 A 
ENDROOT
BRANCH   7   9
HETATM    9  C5  UNL     1     -32.407   8.196   2.211  1.00 20.00     0.178 C 
HETATM   10  O10 UNL     1     -32.779   9.192   2.891  1.00 20.00    -0.648 OA
HETATM   11  O11 UNL     1     -32.053   8.128   1.000  1.00 20.00    -0.648 OA
ENDBRANCH   7   9
TORSDOF 1
ENDMDL
MODEL 4
REMARK VINA RESULT:      -4.5     11.943     13.022
REMARK  1 active torsions:
REMARK  status: ('A' for Active; 'I' for Inactive)
REMARK    1  A    between atoms: C5_5  and  C8_8 
ROOT
HETATM    1  C1  UNL     1     -35.044  18.896  -1.879  1.00 20.00    -0.004 C 
HETATM    2  C2  UNL     1     -33.843  18.343  -1.255  1.00 20.00    -0.004 C 
HETATM    3  C3  UNL     1     -35.580  18.653  -3.095  1.00 20.00    -0.026 C 
HETATM    4  C4  UNL     1     -33.244  17.181  -1.587  1.00 20.00    -0.021 C 
HETATM    5  C6  UNL     1     -35.092  17.718  -4.194  1.00 20.00     0.033 C 
HETATM    6  C7  UNL     1     -33.737  16.335  -2.670  1.00 20.00     0.028 A 
HETATM    7  C8  UNL     1     -33.101  15.815  -3.915  1.00 20.00     0.100 A 
HETATM    8  C9  UNL     1     -33.723  17.185  -3.942  1.00 20.00     0.012 A 
ENDROOT
BRANCH   7   9
HETATM    9  C5  UNL     1     -33.777  14.765  -4.650  1.00 20.00     0.178 C 
HETATM   10  O10 UNL     1     -34.299  13.860  -3.941  1.00 20.00    -0.648 OA
HETATM   11  O11 UNL     1     -33.752  14.897  -5.906  1.00 20.00    -0.648 OA
ENDBRANCH   7   9
TORSDOF 1
ENDMDL
MODEL 5
REMARK VINA RESULT:      -4.3     12.434     13.578
REMARK  1 active torsions:
REMARK  status: ('A' for Active; 'I' for Inactive)
REMARK    1  A    between atoms: C5_5  and  C8_8 
ROOT
HETATM    1  C1  UNL     1     -34.244  17.996  -2.676  1.00 20.00    -0.004 C 
HETATM    2  C2  UNL     1     -33.173  17.007  -2.787  1.00 20.00    -0.004 C 
HETATM    3  C3  UNL     1     -35.291  18.239  -3.494  1.00 20.00    -0.026 C 
HETATM    4  C4  UNL     1     -33.223  15.868  -3.506  1.00 20.00    -0.021 C 
HETATM    5  C6  UNL     1     -35.677  17.547  -4.795  1.00 20.00     0.033 C 
HETATM    6  C7  UNL     1     -34.391  15.503  -4.304  1.00 20.00     0.028 A 
HETATM    7  C8  UNL     1     -34.569  15.197  -5.753  1.00 20.00     0.100 A 
HETATM    8  C9  UNL     1     -34.616  16.634  -5.309  1.00 20.00     0.012 A 
ENDROOT
BRANCH   7   9
HETATM    9  C5  UNL     1     -35.814  14.596  -6.185  1.00 20.00     0.178 C 
HETATM   10  O10 UNL     1     -36.601  14.259  -5.257  1.00 20.00    -0.648 OA
HETATM   11  O11 UNL     1     -35.945  14.489  -7.437  1.00 20.00    -0.648 OA
ENDBRANCH   7   9
TORSDOF 1
ENDMDL
MODEL 6
REMARK VINA RESULT:      -4.2      2.620      4.375
REMARK  1 active torsions:
REMARK  status: ('A' for Active; 'I' for Inactive)
REMARK    1  A    between atoms: C5_5  and  C8_8 
ROOT
HETATM    1  C1  UNL     1     -31.973   9.030   3.855  1.00 20.00    -0.004 C 
HETATM    2  C2  UNL     1     -32.205   8.287   2.617  1.00 20.00    -0.004 C 
HETATM    3  C3  UNL     1     -32.525   8.872   5.078  1.00 20.00    -0.026 C 
HETATM    4  C4  UNL     1     -32.709   7.040   2.528  1.00 20.00    -0.021 C 
HETATM    5  C6  UNL     1     -33.565   7.862   5.543  1.00 20.00     0.033 C 
HETATM    6  C7  UNL     1     -33.118   6.281   3.706  1.00 20.00     0.028 A 
HETATM    7  C8  UNL     1     -34.412   5.653   4.104  1.00 20.00     0.100 A 
HETATM    8  C9  UNL     1     -34.190   7.108   4.419  1.00 20.00     0.012 A 
ENDROOT
BRANCH   7   9
HETATM    9  C5  UNL     1     -34.417   4.727   5.218  1.00 20.00     0.178 C 
HETATM   10  O10 UNL     1     -33.834   3.627   5.008  1.00 20.00    -0.648 OA
HETATM   11  O11 UNL     1     -35.007   5.147   6.253  1.00 20.00    -0.648 OA
ENDBRANCH   7   9
TORSDOF 1
ENDMDL
MODEL 7
REMARK VINA RESULT:      -4.2      2.630      4.269
REMARK  1 active torsions:
REMARK  status: ('A' for Active; 'I' for Inactive)
REMARK    1  A    between atoms: C5_5  and  C8_8 
ROOT
HETATM    1  C1  UNL     1     -32.123   9.167   4.480  1.00 20.00    -0.004 C 
HETATM    2  C2  UNL     1     -32.194   8.623   3.124  1.00 20.00    -0.004 C 
HETATM    3  C3  UNL     1     -32.772   8.787   5.602  1.00 20.00    -0.026 C 
HETATM    4  C4  UNL     1     -32.606   7.383   2.792  1.00 20.00    -0.021 C 
HETATM    5  C6  UNL     1     -33.784   7.666   5.798  1.00 20.00     0.033 C 
HETATM    6  C7  UNL     1     -33.071   6.425   3.792  1.00 20.00     0.028 A 
HETATM    7  C8  UNL     1     -34.353   5.679   3.956  1.00 20.00     0.100 A 
HETATM    8  C9  UNL     1     -34.255   7.073   4.514  1.00 20.00     0.012 A 
ENDROOT
BRANCH   7   9
HETATM    9  C5  UNL     1     -34.399   4.586   4.906  1.00 20.00     0.178 C 
HETATM   10  O10 UNL     1     -35.070   4.809   5.952  1.00 20.00    -0.648 OA
HETATM   11  O11 UNL     1     -33.759   3.554   4.559  1.00 20.00    -0.648 OA
ENDBRANCH   7   9
TORSDOF 1
ENDMDL
MODEL 8
REMARK VINA RESULT:      -4.1     12.310     13.421
REMARK  1 active torsions:
REMARK  status: ('A' for Active; 'I' for Inactive)
REMARK    1  A    between atoms: C5_5  and  C8_8 
ROOT
HETATM    1  C1  UNL     1     -34.551  17.275  -5.095  1.00 20.00    -0.004 C 
HETATM    2  C2  UNL     1     -34.118  16.044  -4.437  1.00 20.00    -0.004 C 
HETATM    3  C3  UNL     1     -34.735  18.513  -4.586  1.00 20.00    -0.026 C 
HETATM    4  C4  UNL     1     -33.424  15.968  -3.283  1.00 20.00    -0.021 C 
HETATM    5  C6  UNL     1     -34.545  19.006  -3.158  1.00 20.00     0.033 C 
HETATM    6  C7  UNL     1     -33.044  17.157  -2.525  1.00 20.00     0.028 A 
HETATM    7  C8  UNL     1     -33.312  17.590  -1.123  1.00 20.00     0.100 A 
HETATM    8  C9  UNL     1     -34.336  17.900  -2.181  1.00 20.00     0.012 A 
ENDROOT
BRANCH   7   9
HETATM    9  C5  UNL     1     -32.556  18.704  -0.587  1.00 20.00     0.178 C 
HETATM   10  O10 UNL     1     -31.499  18.991  -1.216  1.00 20.00    -0.648 OA
HETATM   11  O11 UNL     1     -33.057  19.238   0.442  1.00 20.00    -0.648 OA
ENDBRANCH   7   9
TORSDOF 1
ENDMDL
MODEL 9
REMARK VINA RESULT:      -4.0     12.575     13.935
REMARK  1 active torsions:
REMARK  status: ('A' for Active; 'I' for Inactive)
REMARK    1  A    between atoms: C5_5  and  C8_8 
ROOT
HETATM    1  C1  UNL     1     -33.325  16.888  -3.135  1.00 20.00    -0.004 C 
HETATM    2  C2  UNL     1     -34.149  17.974  -3.665  1.00 20.00    -0.004 C 
HETATM    3  C3  UNL     1     -33.298  15.579  -3.465  1.00 20.00    -0.026 C 
HETATM    4  C4  UNL     1     -34.764  17.985  -4.864  1.00 20.00    -0.021 C 
HETATM    5  C6  UNL     1     -34.127  14.829  -4.500  1.00 20.00     0.033 C 
HETATM    6  C7  UNL     1     -34.691  16.854  -5.785  1.00 20.00     0.028 A 
HETATM    7  C8  UNL     1     -35.737  16.002  -6.423  1.00 20.00     0.100 A 
HETATM    8  C9  UNL     1     -35.254  15.638  -5.045  1.00 20.00     0.012 A 
ENDROOT
BRANCH   7   9
HETATM    9  C5  UNL     1     -35.348  15.130  -7.513  1.00 20.00     0.178 C 
HETATM   10  O10 UNL     1     -34.158  15.265  -7.913  1.00 20.00    -0.648 OA
HETATM   11  O11 UNL     1     -36.255  14.349  -7.917  1.00 20.00    -0.648 OA
ENDBRANCH   7   9
TORSDOF 1
ENDMDL
